MODEL 1
REMARK VINA RESULT:     -13.0      0.000      0.000
REMARK SMILES Cc1cc(OC(F)(F)F)cc2c1O[C@H](C(F)(F)F)C(C(=O)NCCCNC(=O)c1ccc(-c3c4nc(c(-c5c(F)cc(S(=O)(=O)[O-])cc5F)c5ccc([nH]5)c(-c5c(F)cc(S(=O)(=O)[O-])cc5F)c5nc(c(-c6c(F)cc(S(=O)(=O)[O-])cc6F)c6ccc3[nH]6)C=C5)C=C4)cc1)=C2
REMARK SMILES IDX 24 1 23 2 22 3 20 4 21 5 19 7 1 8 2 9 3 10 12 11 4 12 11 13
REMARK SMILES IDX 13 14 10 15 95 16 14 17 5 18 6 19 7 20 8 21 9 22 15 23 16 24
REMARK SMILES IDX 17 25 18 26 25 27 26 28 27 29 28 31 29 32 30 33 94 34 31 35
REMARK SMILES IDX 93 36 32 37 33 38 34 39 87 40 35 41 92 42 86 43 88 44 36 45
REMARK SMILES IDX 91 46 85 47 84 48 37 50 71 51 50 52 70 53 51 54 54 55 69 56
REMARK SMILES IDX 89 57 52 58 53 59 68 61 90 62 55 63 38 64 39 65 48 66 40 67
REMARK SMILES IDX 41 68 47 69 49 70 42 71 43 72 44 73 45 74 46 75 72 76 73 77
REMARK SMILES IDX 82 78 74 79 75 80 81 81 83 82 76 83 77 84 78 85 79 86 80 87
REMARK SMILES IDX 56 88 57 89 66 90 58 91 59 92 65 93 67 94 60 95 61 96 62 97
REMARK SMILES IDX 63 98 64 99
REMARK H PARENT 22 6 26 30 88 49 54 60
REMARK Flexibility Score: inf
ROOT
ATOM      1  C   UNL A   1      38.113  23.746  26.140  1.00  0.00     0.042 C 
ENDROOT
BRANCH   1   2
ATOM      2  C   UNL A   1      37.734  22.384  25.579  1.00  0.00     0.118 C 
BRANCH   2   3
ATOM      3  N   UNL A   1      36.481  21.895  26.138  1.00  0.00    -0.352 N 
ATOM      4  C   UNL A   1      35.159  22.119  25.958  1.00  0.00     0.251 C 
ATOM      5  O   UNL A   1      34.409  21.450  26.677  1.00  0.00    -0.270 OA
ATOM      6  H   UNL A   1      36.640  21.219  26.836  1.00  0.00     0.163 HD
BRANCH   4   7
ATOM      7  C   UNL A   1      34.579  23.079  24.977  1.00  0.00     0.067 C 
ATOM      8  C   UNL A   1      32.837  25.576  20.824  1.00  0.00     0.048 C 
ATOM      9  C   UNL A   1      33.131  25.933  22.255  1.00  0.00    -0.005 A 
ATOM     10  C   UNL A   1      32.805  27.215  22.722  1.00  0.00     0.054 A 
ATOM     11  C   UNL A   1      33.666  25.003  23.152  1.00  0.00     0.131 A 
ATOM     12  C   UNL A   1      33.038  27.573  24.052  1.00  0.00     0.130 A 
ATOM     13  C   UNL A   1      33.901  25.344  24.486  1.00  0.00     0.021 A 
ATOM     14  O   UNL A   1      33.992  23.771  22.660  1.00  0.00    -0.475 OA
ATOM     15  C   UNL A   1      33.587  26.632  24.929  1.00  0.00     0.058 A 
ATOM     16  C   UNL A   1      34.495  24.361  25.384  1.00  0.00     0.025 C 
ATOM     17  C   UNL A   1      34.066  22.689  23.622  1.00  0.00     0.314 C 
BRANCH  12  18
ATOM     18  O   UNL A   1      32.776  28.790  24.618  1.00  0.00    -0.406 OA
BRANCH  18  19
ATOM     19  C   UNL A   1      31.497  28.983  25.198  1.00  0.00     0.573 C 
ATOM     20  F   UNL A   1      30.858  30.034  24.643  1.00  0.00    -0.132 F 
ATOM     21  F   UNL A   1      30.735  27.875  25.077  1.00  0.00    -0.132 F 
ATOM     22  F   UNL A   1      31.655  29.238  26.517  1.00  0.00    -0.132 F 
ENDBRANCH  18  19
ENDBRANCH  12  18
BRANCH  17  23
ATOM     23  C   UNL A   1      32.703  21.976  23.684  1.00  0.00     0.429 C 
ATOM     24  F   UNL A   1      32.052  22.088  22.500  1.00  0.00    -0.167 F 
ATOM     25  F   UNL A   1      32.817  20.650  23.934  1.00  0.00    -0.167 F 
ATOM     26  F   UNL A   1      31.891  22.481  24.641  1.00  0.00    -0.167 F 
ENDBRANCH  17  23
ENDBRANCH   4   7
ENDBRANCH   2   3
ENDBRANCH   1   2
BRANCH   1  27
ATOM     27  C   UNL A   1      39.398  23.682  26.956  1.00  0.00     0.118 C 
BRANCH  27  28
ATOM     28  N   UNL A   1      40.556  24.066  26.152  1.00  0.00    -0.352 N 
ATOM     29  C   UNL A   1      41.245  25.253  26.131  1.00  0.00     0.251 C 
ATOM     30  H   UNL A   1      40.892  23.373  25.539  1.00  0.00     0.163 HD
ATOM     31  O   UNL A   1      41.983  25.518  25.184  1.00  0.00    -0.269 OA
BRANCH  29  32
ATOM     32  C   UNL A   1      41.091  26.200  27.248  1.00  0.00     0.039 A 
ATOM     33  C   UNL A   1      41.843  27.377  27.270  1.00  0.00     0.014 A 
ATOM     34  C   UNL A   1      40.208  25.901  28.289  1.00  0.00     0.014 A 
ATOM     35  C   UNL A   1      41.666  28.284  28.317  1.00  0.00     0.010 A 
ATOM     36  C   UNL A   1      39.972  26.838  29.283  1.00  0.00     0.010 A 
ATOM     37  C   UNL A   1      40.714  28.027  29.316  1.00  0.00    -0.014 A 
BRANCH  37  38
ATOM     38  C   UNL A   1      40.518  28.952  30.454  1.00  0.00     0.031 A 
ATOM     39  C   UNL A   1      41.382  28.807  31.675  1.00  0.00     0.074 A 
ATOM     40  C   UNL A   1      39.533  29.866  30.413  1.00  0.00     0.049 A 
ATOM     41  N   UNL A   1      41.338  29.468  32.801  1.00  0.00    -0.248 NA
ATOM     42  C   UNL A   1      42.415  27.758  31.631  1.00  0.00     0.031 C 
ATOM     43  C   UNL A   1      38.615  30.070  29.292  1.00  0.00     0.029 A 
ATOM     44  N   UNL A   1      39.138  30.794  31.341  1.00  0.00    -0.354 N 
ATOM     45  C   UNL A   1      42.336  28.918  33.595  1.00  0.00     0.074 A 
ATOM     46  C   UNL A   1      42.914  27.819  32.856  1.00  0.00     0.031 C 
ATOM     47  C   UNL A   1      37.782  31.081  29.586  1.00  0.00     0.029 A 
ATOM     48  C   UNL A   1      38.088  31.576  30.926  1.00  0.00     0.049 A 
ATOM     49  H   UNL A   1      39.566  30.891  32.223  1.00  0.00     0.167 HD
ATOM     50  C   UNL A   1      42.759  29.317  34.818  1.00  0.00     0.037 A 
ATOM     51  C   UNL A   1      37.450  32.581  31.557  1.00  0.00     0.037 A 
ATOM     52  C   UNL A   1      42.179  30.415  35.543  1.00  0.00     0.049 A 
ATOM     53  C   UNL A   1      37.902  32.983  32.933  1.00  0.00     0.074 A 
ATOM     54  C   UNL A   1      42.546  30.925  36.775  1.00  0.00     0.029 A 
ATOM     55  N   UNL A   1      41.103  31.172  35.099  1.00  0.00    -0.354 N 
ATOM     56  N   UNL A   1      38.879  32.485  33.656  1.00  0.00    -0.248 NA
ATOM     57  C   UNL A   1      37.172  34.079  33.578  1.00  0.00     0.031 C 
ATOM     58  C   UNL A   1      41.665  31.965  37.093  1.00  0.00     0.029 A 
ATOM     59  C   UNL A   1      40.777  32.132  36.041  1.00  0.00     0.049 A 
ATOM     60  H   UNL A   1      40.640  31.044  34.239  1.00  0.00     0.167 HD
ATOM     61  C   UNL A   1      38.893  33.220  34.836  1.00  0.00     0.074 A 
ATOM     62  C   UNL A   1      37.832  34.202  34.724  1.00  0.00     0.031 C 
ATOM     63  C   UNL A   1      39.709  33.095  35.911  1.00  0.00     0.037 A 
BRANCH  50  64
ATOM     64  C   UNL A   1      43.904  28.556  35.426  1.00  0.00     0.058 A 
ATOM     65  C   UNL A   1      45.238  28.904  35.155  1.00  0.00     0.135 A 
ATOM     66  C   UNL A   1      43.673  27.452  36.261  1.00  0.00     0.135 A 
ATOM     67  F   UNL A   1      45.516  29.940  34.347  1.00  0.00    -0.206 F 
ATOM     68  C   UNL A   1      46.301  28.157  35.649  1.00  0.00     0.059 A 
ATOM     69  C   UNL A   1      44.724  26.707  36.791  1.00  0.00     0.059 A 
ATOM     70  F   UNL A   1      42.419  27.073  36.551  1.00  0.00    -0.206 F 
ATOM     71  C   UNL A   1      46.033  27.053  36.460  1.00  0.00     0.060 A 
BRANCH  71  72
ATOM     72  S   UNL A   1      47.422  26.070  37.059  1.00  0.00     0.124 S 
ATOM     73  O   UNL A   1      46.848  24.728  37.058  1.00  0.00    -0.237 OA
ATOM     74  O   UNL A   1      48.443  26.322  36.047  1.00  0.00    -0.237 OA
ATOM     75  O   UNL A   1      47.695  26.634  38.377  1.00  0.00    -0.744 OA
ENDBRANCH  71  72
ENDBRANCH  50  64
BRANCH  51  76
ATOM     76  C   UNL A   1      36.362  33.306  30.852  1.00  0.00     0.058 A 
ATOM     77  C   UNL A   1      35.034  33.192  31.290  1.00  0.00     0.135 A 
ATOM     78  C   UNL A   1      36.629  34.183  29.790  1.00  0.00     0.135 A 
ATOM     79  F   UNL A   1      34.729  32.360  32.297  1.00  0.00    -0.206 F 
ATOM     80  C   UNL A   1      34.010  33.933  30.709  1.00  0.00     0.059 A 
ATOM     81  C   UNL A   1      35.624  34.948  29.205  1.00  0.00     0.059 A 
ATOM     82  F   UNL A   1      37.886  34.337  29.346  1.00  0.00    -0.206 F 
ATOM     83  C   UNL A   1      34.318  34.819  29.676  1.00  0.00     0.060 A 
BRANCH  83  84
ATOM     84  S   UNL A   1      32.995  35.851  29.005  1.00  0.00     0.124 S 
ATOM     85  O   UNL A   1      32.339  34.930  28.086  1.00  0.00    -0.237 OA
ATOM     86  O   UNL A   1      32.244  36.197  30.208  1.00  0.00    -0.237 OA
ATOM     87  O   UNL A   1      33.715  36.959  28.384  1.00  0.00    -0.744 OA
ENDBRANCH  83  84
ENDBRANCH  51  76
BRANCH  63  88
ATOM     88  C   UNL A   1      39.496  34.042  37.058  1.00  0.00     0.058 A 
ATOM     89  C   UNL A   1      38.751  33.668  38.187  1.00  0.00     0.135 A 
ATOM     90  C   UNL A   1      40.115  35.302  37.066  1.00  0.00     0.135 A 
ATOM     91  F   UNL A   1      38.135  32.476  38.224  1.00  0.00    -0.206 F 
ATOM     92  C   UNL A   1      38.621  34.514  39.282  1.00  0.00     0.059 A 
ATOM     93  C   UNL A   1      40.019  36.155  38.161  1.00  0.00     0.059 A 
ATOM     94  F   UNL A   1      40.846  35.703  36.013  1.00  0.00    -0.206 F 
ATOM     95  C   UNL A   1      39.265  35.752  39.263  1.00  0.00     0.060 A 
BRANCH  95  96
ATOM     96  S   UNL A   1      39.134  36.814  40.717  1.00  0.00     0.124 S 
ATOM     97  O   UNL A   1      38.335  37.922  40.201  1.00  0.00    -0.237 OA
ATOM     98  O   UNL A   1      38.463  35.944  41.678  1.00  0.00    -0.237 OA
ATOM     99  O   UNL A   1      40.523  37.134  41.032  1.00  0.00    -0.744 OA
ENDBRANCH  95  96
ENDBRANCH  63  88
ENDBRANCH  37  38
ENDBRANCH  29  32
ENDBRANCH  27  28
ENDBRANCH   1  27
TORSDOF 16
ENDMDL
MODEL 2
REMARK VINA RESULT:     -12.9      1.342      8.272
REMARK SMILES Cc1cc(OC(F)(F)F)cc2c1O[C@H](C(F)(F)F)C(C(=O)NCCCNC(=O)c1ccc(-c3c4nc(c(-c5c(F)cc(S(=O)(=O)[O-])cc5F)c5ccc([nH]5)c(-c5c(F)cc(S(=O)(=O)[O-])cc5F)c5nc(c(-c6c(F)cc(S(=O)(=O)[O-])cc6F)c6ccc3[nH]6)C=C5)C=C4)cc1)=C2
REMARK SMILES IDX 24 1 23 2 22 3 20 4 21 5 19 7 1 8 2 9 3 10 12 11 4 12 11 13
REMARK SMILES IDX 13 14 10 15 95 16 14 17 5 18 6 19 7 20 8 21 9 22 15 23 16 24
REMARK SMILES IDX 17 25 18 26 25 27 26 28 27 29 28 31 29 32 30 33 94 34 31 35
REMARK SMILES IDX 93 36 32 37 33 38 34 39 87 40 35 41 92 42 86 43 88 44 36 45
REMARK SMILES IDX 91 46 85 47 84 48 37 50 71 51 50 52 70 53 51 54 54 55 69 56
REMARK SMILES IDX 89 57 52 58 53 59 68 61 90 62 55 63 38 64 39 65 48 66 40 67
REMARK SMILES IDX 41 68 47 69 49 70 42 71 43 72 44 73 45 74 46 75 72 76 73 77
REMARK SMILES IDX 82 78 74 79 75 80 81 81 83 82 76 83 77 84 78 85 79 86 80 87
REMARK SMILES IDX 56 88 57 89 66 90 58 91 59 92 65 93 67 94 60 95 61 96 62 97
REMARK SMILES IDX 63 98 64 99
REMARK H PARENT 22 6 26 30 88 49 54 60
REMARK Flexibility Score: inf
ROOT
ATOM      1  C   UNL A   1      39.150  22.652  26.524  1.00  0.00     0.042 C 
ENDROOT
BRANCH   1   2
ATOM      2  C   UNL A   1      38.096  23.629  26.026  1.00  0.00     0.118 C 
BRANCH   2   3
ATOM      3  N   UNL A   1      37.676  23.329  24.664  1.00  0.00    -0.352 N 
ATOM      4  C   UNL A   1      36.515  23.271  23.972  1.00  0.00     0.251 C 
ATOM      5  O   UNL A   1      36.626  22.966  22.780  1.00  0.00    -0.270 OA
ATOM      6  H   UNL A   1      38.447  23.108  24.092  1.00  0.00     0.163 HD
BRANCH   4   7
ATOM      7  C   UNL A   1      35.166  23.552  24.540  1.00  0.00     0.067 C 
ATOM      8  C   UNL A   1      30.339  23.398  26.330  1.00  0.00     0.048 C 
ATOM      9  C   UNL A   1      31.315  24.475  25.943  1.00  0.00    -0.005 A 
ATOM     10  C   UNL A   1      30.975  25.819  26.164  1.00  0.00     0.054 A 
ATOM     11  C   UNL A   1      32.578  24.175  25.422  1.00  0.00     0.131 A 
ATOM     12  C   UNL A   1      31.866  26.845  25.843  1.00  0.00     0.130 A 
ATOM     13  C   UNL A   1      33.482  25.189  25.100  1.00  0.00     0.021 A 
ATOM     14  O   UNL A   1      32.868  22.860  25.199  1.00  0.00    -0.475 OA
ATOM     15  C   UNL A   1      33.119  26.523  25.311  1.00  0.00     0.058 A 
ATOM     16  C   UNL A   1      34.776  24.842  24.524  1.00  0.00     0.025 C 
ATOM     17  C   UNL A   1      34.273  22.508  25.143  1.00  0.00     0.314 C 
BRANCH  12  18
ATOM     18  O   UNL A   1      31.644  28.185  26.000  1.00  0.00    -0.406 OA
BRANCH  18  19
ATOM     19  C   UNL A   1      31.829  28.734  27.294  1.00  0.00     0.573 C 
ATOM     20  F   UNL A   1      30.916  28.257  28.166  1.00  0.00    -0.132 F 
ATOM     21  F   UNL A   1      33.072  28.482  27.756  1.00  0.00    -0.132 F 
ATOM     22  F   UNL A   1      31.677  30.076  27.219  1.00  0.00    -0.132 F 
ENDBRANCH  18  19
ENDBRANCH  12  18
BRANCH  17  23
ATOM     23  C   UNL A   1      34.737  22.065  26.544  1.00  0.00     0.429 C 
ATOM     24  F   UNL A   1      35.071  23.141  27.297  1.00  0.00    -0.167 F 
ATOM     25  F   UNL A   1      33.776  21.401  27.229  1.00  0.00    -0.167 F 
ATOM     26  F   UNL A   1      35.816  21.250  26.503  1.00  0.00    -0.167 F 
ENDBRANCH  17  23
ENDBRANCH   4   7
ENDBRANCH   2   3
ENDBRANCH   1   2
BRANCH   1  27
ATOM     27  C   UNL A   1      40.330  23.372  27.164  1.00  0.00     0.118 C 
BRANCH  27  28
ATOM     28  N   UNL A   1      41.142  24.056  26.160  1.00  0.00    -0.352 N 
ATOM     29  C   UNL A   1      41.490  25.381  26.079  1.00  0.00     0.251 C 
ATOM     30  H   UNL A   1      41.491  23.483  25.438  1.00  0.00     0.163 HD
ATOM     31  O   UNL A   1      41.904  25.844  25.018  1.00  0.00    -0.269 OA
BRANCH  29  32
ATOM     32  C   UNL A   1      41.365  26.237  27.271  1.00  0.00     0.039 A 
ATOM     33  C   UNL A   1      42.322  27.225  27.520  1.00  0.00     0.014 A 
ATOM     34  C   UNL A   1      40.301  26.039  28.154  1.00  0.00     0.014 A 
ATOM     35  C   UNL A   1      42.176  28.053  28.635  1.00  0.00     0.010 A 
ATOM     36  C   UNL A   1      40.111  26.914  29.212  1.00  0.00     0.010 A 
ATOM     37  C   UNL A   1      41.059  27.914  29.473  1.00  0.00    -0.014 A 
BRANCH  37  38
ATOM     38  C   UNL A   1      40.885  28.756  30.677  1.00  0.00     0.031 A 
ATOM     39  C   UNL A   1      39.828  29.824  30.680  1.00  0.00     0.074 A 
ATOM     40  C   UNL A   1      41.710  28.601  31.728  1.00  0.00     0.049 A 
ATOM     41  N   UNL A   1      39.549  30.707  31.601  1.00  0.00    -0.248 NA
ATOM     42  C   UNL A   1      38.994  29.929  29.471  1.00  0.00     0.031 C 
ATOM     43  C   UNL A   1      42.790  27.619  31.817  1.00  0.00     0.029 A 
ATOM     44  N   UNL A   1      41.770  29.273  32.921  1.00  0.00    -0.354 N 
ATOM     45  C   UNL A   1      38.508  31.468  31.085  1.00  0.00     0.074 A 
ATOM     46  C   UNL A   1      38.259  30.996  29.742  1.00  0.00     0.031 C 
ATOM     47  C   UNL A   1      43.387  27.732  33.014  1.00  0.00     0.029 A 
ATOM     48  C   UNL A   1      42.752  28.813  33.763  1.00  0.00     0.049 A 
ATOM     49  H   UNL A   1      41.166  30.016  33.152  1.00  0.00     0.167 HD
ATOM     50  C   UNL A   1      37.797  32.448  31.690  1.00  0.00     0.037 A 
ATOM     51  C   UNL A   1      43.094  29.217  35.002  1.00  0.00     0.037 A 
ATOM     52  C   UNL A   1      38.050  32.906  33.030  1.00  0.00     0.049 A 
ATOM     53  C   UNL A   1      42.324  30.337  35.643  1.00  0.00     0.074 A 
ATOM     54  C   UNL A   1      37.375  33.871  33.754  1.00  0.00     0.029 A 
ATOM     55  N   UNL A   1      39.067  32.429  33.847  1.00  0.00    -0.354 N 
ATOM     56  N   UNL A   1      41.309  31.019  35.163  1.00  0.00    -0.248 NA
ATOM     57  C   UNL A   1      42.739  30.743  36.991  1.00  0.00     0.031 C 
ATOM     58  C   UNL A   1      38.009  34.006  34.994  1.00  0.00     0.029 A 
ATOM     59  C   UNL A   1      39.052  33.094  35.060  1.00  0.00     0.049 A 
ATOM     60  H   UNL A   1      39.704  31.721  33.598  1.00  0.00     0.167 HD
ATOM     61  C   UNL A   1      40.953  31.923  36.156  1.00  0.00     0.074 A 
ATOM     62  C   UNL A   1      41.855  31.694  37.268  1.00  0.00     0.031 C 
ATOM     63  C   UNL A   1      39.967  32.855  36.150  1.00  0.00     0.037 A 
BRANCH  50  64
ATOM     64  C   UNL A   1      36.681  33.071  30.898  1.00  0.00     0.058 A 
ATOM     65  C   UNL A   1      36.929  34.095  29.968  1.00  0.00     0.135 A 
ATOM     66  C   UNL A   1      35.351  32.667  31.087  1.00  0.00     0.135 A 
ATOM     67  F   UNL A   1      38.182  34.533  29.762  1.00  0.00    -0.206 F 
ATOM     68  C   UNL A   1      35.895  34.730  29.291  1.00  0.00     0.059 A 
ATOM     69  C   UNL A   1      34.301  33.269  30.396  1.00  0.00     0.059 A 
ATOM     70  F   UNL A   1      35.056  31.695  31.963  1.00  0.00    -0.206 F 
ATOM     71  C   UNL A   1      34.582  34.315  29.518  1.00  0.00     0.060 A 
BRANCH  71  72
ATOM     72  S   UNL A   1      33.248  35.177  28.662  1.00  0.00     0.124 S 
ATOM     73  O   UNL A   1      33.994  36.147  27.866  1.00  0.00    -0.237 OA
ATOM     74  O   UNL A   1      32.610  34.101  27.912  1.00  0.00    -0.237 OA
ATOM     75  O   UNL A   1      32.452  35.738  29.750  1.00  0.00    -0.744 OA
ENDBRANCH  71  72
ENDBRANCH  50  64
BRANCH  51  76
ATOM     76  C   UNL A   1      44.179  28.505  35.725  1.00  0.00     0.058 A 
ATOM     77  C   UNL A   1      43.881  27.416  36.557  1.00  0.00     0.135 A 
ATOM     78  C   UNL A   1      45.529  28.838  35.540  1.00  0.00     0.135 A 
ATOM     79  F   UNL A   1      42.604  27.065  36.770  1.00  0.00    -0.206 F 
ATOM     80  C   UNL A   1      44.884  26.673  37.170  1.00  0.00     0.059 A 
ATOM     81  C   UNL A   1      46.551  28.099  36.128  1.00  0.00     0.059 A 
ATOM     82  F   UNL A   1      45.865  29.863  34.741  1.00  0.00    -0.206 F 
ATOM     83  C   UNL A   1      46.217  27.014  36.939  1.00  0.00     0.060 A 
BRANCH  83  84
ATOM     84  S   UNL A   1      47.509  25.973  37.656  1.00  0.00     0.124 S 
ATOM     85  O   UNL A   1      48.619  26.912  37.761  1.00  0.00    -0.237 OA
ATOM     86  O   UNL A   1      46.898  25.561  38.916  1.00  0.00    -0.237 OA
ATOM     87  O   UNL A   1      47.671  24.909  36.669  1.00  0.00    -0.744 OA
ENDBRANCH  83  84
ENDBRANCH  51  76
BRANCH  63  88
ATOM     88  C   UNL A   1      39.805  33.702  37.381  1.00  0.00     0.058 A 
ATOM     89  C   UNL A   1      40.401  34.967  37.482  1.00  0.00     0.135 A 
ATOM     90  C   UNL A   1      38.976  33.278  38.432  1.00  0.00     0.135 A 
ATOM     91  F   UNL A   1      41.209  35.413  36.506  1.00  0.00    -0.206 F 
ATOM     92  C   UNL A   1      40.186  35.783  38.587  1.00  0.00     0.059 A 
ATOM     93  C   UNL A   1      38.726  34.089  39.535  1.00  0.00     0.059 A 
ATOM     94  F   UNL A   1      38.375  32.079  38.379  1.00  0.00    -0.206 F 
ATOM     95  C   UNL A   1      39.340  35.338  39.604  1.00  0.00     0.060 A 
BRANCH  95  96
ATOM     96  S   UNL A   1      39.025  36.435  41.003  1.00  0.00     0.124 S 
ATOM     97  O   UNL A   1      40.326  36.450  41.665  1.00  0.00    -0.237 OA
ATOM     98  O   UNL A   1      38.636  37.677  40.343  1.00  0.00    -0.237 OA
ATOM     99  O   UNL A   1      37.957  35.758  41.733  1.00  0.00    -0.744 OA
ENDBRANCH  95  96
ENDBRANCH  63  88
ENDBRANCH  37  38
ENDBRANCH  29  32
ENDBRANCH  27  28
ENDBRANCH   1  27
TORSDOF 16
ENDMDL
MODEL 3
REMARK VINA RESULT:     -12.9      6.539     11.557
REMARK SMILES Cc1cc(OC(F)(F)F)cc2c1O[C@H](C(F)(F)F)C(C(=O)NCCCNC(=O)c1ccc(-c3c4nc(c(-c5c(F)cc(S(=O)(=O)[O-])cc5F)c5ccc([nH]5)c(-c5c(F)cc(S(=O)(=O)[O-])cc5F)c5nc(c(-c6c(F)cc(S(=O)(=O)[O-])cc6F)c6ccc3[nH]6)C=C5)C=C4)cc1)=C2
REMARK SMILES IDX 24 1 23 2 22 3 20 4 21 5 19 7 1 8 2 9 3 10 12 11 4 12 11 13
REMARK SMILES IDX 13 14 10 15 95 16 14 17 5 18 6 19 7 20 8 21 9 22 15 23 16 24
REMARK SMILES IDX 17 25 18 26 25 27 26 28 27 29 28 31 29 32 30 33 94 34 31 35
REMARK SMILES IDX 93 36 32 37 33 38 34 39 87 40 35 41 92 42 86 43 88 44 36 45
REMARK SMILES IDX 91 46 85 47 84 48 37 50 71 51 50 52 70 53 51 54 54 55 69 56
REMARK SMILES IDX 89 57 52 58 53 59 68 61 90 62 55 63 38 64 39 65 48 66 40 67
REMARK SMILES IDX 41 68 47 69 49 70 42 71 43 72 44 73 45 74 46 75 72 76 73 77
REMARK SMILES IDX 82 78 74 79 75 80 81 81 83 82 76 83 77 84 78 85 79 86 80 87
REMARK SMILES IDX 56 88 57 89 66 90 58 91 59 92 65 93 67 94 60 95 61 96 62 97
REMARK SMILES IDX 63 98 64 99
REMARK H PARENT 22 6 26 30 88 49 54 60
REMARK Flexibility Score: inf
ROOT
ATOM      1  C   UNL A   1      34.600  30.888  27.700  1.00  0.00     0.042 C 
ENDROOT
BRANCH   1   2
ATOM      2  C   UNL A   1      34.493  29.376  27.587  1.00  0.00     0.118 C 
BRANCH   2   3
ATOM      3  N   UNL A   1      33.139  28.905  27.843  1.00  0.00    -0.352 N 
ATOM      4  C   UNL A   1      32.251  28.067  27.261  1.00  0.00     0.251 C 
ATOM      5  O   UNL A   1      31.169  27.955  27.847  1.00  0.00    -0.270 OA
ATOM      6  H   UNL A   1      32.769  29.307  28.663  1.00  0.00     0.163 HD
BRANCH   4   7
ATOM      7  C   UNL A   1      32.497  27.296  26.009  1.00  0.00     0.067 C 
ATOM      8  C   UNL A   1      32.530  25.321  21.253  1.00  0.00     0.048 C 
ATOM      9  C   UNL A   1      33.095  24.929  22.590  1.00  0.00    -0.005 A 
ATOM     10  C   UNL A   1      33.938  23.810  22.676  1.00  0.00     0.054 A 
ATOM     11  C   UNL A   1      32.853  25.682  23.743  1.00  0.00     0.131 A 
ATOM     12  C   UNL A   1      34.504  23.432  23.896  1.00  0.00     0.130 A 
ATOM     13  C   UNL A   1      33.414  25.319  24.970  1.00  0.00     0.021 A 
ATOM     14  O   UNL A   1      32.011  26.751  23.629  1.00  0.00    -0.475 OA
ATOM     15  C   UNL A   1      34.237  24.191  25.039  1.00  0.00     0.058 A 
ATOM     16  C   UNL A   1      33.110  26.106  26.159  1.00  0.00     0.025 C 
ATOM     17  C   UNL A   1      32.141  27.787  24.636  1.00  0.00     0.314 C 
BRANCH  12  18
ATOM     18  O   UNL A   1      35.326  22.360  24.106  1.00  0.00    -0.406 OA
BRANCH  18  19
ATOM     19  C   UNL A   1      36.700  22.515  23.795  1.00  0.00     0.573 C 
ATOM     20  F   UNL A   1      37.428  21.474  24.251  1.00  0.00    -0.132 F 
ATOM     21  F   UNL A   1      36.886  22.649  22.465  1.00  0.00    -0.132 F 
ATOM     22  F   UNL A   1      37.155  23.639  24.395  1.00  0.00    -0.132 F 
ENDBRANCH  18  19
ENDBRANCH  12  18
BRANCH  17  23
ATOM     23  C   UNL A   1      33.107  28.870  24.122  1.00  0.00     0.429 C 
ATOM     24  F   UNL A   1      32.940  29.065  22.791  1.00  0.00    -0.167 F 
ATOM     25  F   UNL A   1      32.907  30.073  24.713  1.00  0.00    -0.167 F 
ATOM     26  F   UNL A   1      34.406  28.551  24.324  1.00  0.00    -0.167 F 
ENDBRANCH  17  23
ENDBRANCH   4   7
ENDBRANCH   2   3
ENDBRANCH   1   2
BRANCH   1  27
ATOM     27  C   UNL A   1      35.862  31.311  28.442  1.00  0.00     0.118 C 
BRANCH  27  28
ATOM     28  N   UNL A   1      35.793  30.949  29.856  1.00  0.00    -0.352 N 
ATOM     29  C   UNL A   1      36.631  30.147  30.589  1.00  0.00     0.251 C 
ATOM     30  H   UNL A   1      35.037  31.337  30.354  1.00  0.00     0.163 HD
ATOM     31  O   UNL A   1      36.258  29.695  31.670  1.00  0.00    -0.269 OA
BRANCH  29  32
ATOM     32  C   UNL A   1      37.974  29.836  30.071  1.00  0.00     0.039 A 
ATOM     33  C   UNL A   1      38.198  29.809  28.691  1.00  0.00     0.014 A 
ATOM     34  C   UNL A   1      39.010  29.551  30.964  1.00  0.00     0.014 A 
ATOM     35  C   UNL A   1      39.482  29.547  28.211  1.00  0.00     0.010 A 
ATOM     36  C   UNL A   1      40.300  29.373  30.490  1.00  0.00     0.010 A 
ATOM     37  C   UNL A   1      40.542  29.349  29.109  1.00  0.00    -0.014 A 
BRANCH  37  38
ATOM     38  C   UNL A   1      41.910  29.042  28.637  1.00  0.00     0.031 A 
ATOM     39  C   UNL A   1      42.241  27.642  28.204  1.00  0.00     0.074 A 
ATOM     40  C   UNL A   1      42.856  29.997  28.658  1.00  0.00     0.049 A 
ATOM     41  N   UNL A   1      43.385  27.146  27.814  1.00  0.00    -0.248 NA
ATOM     42  C   UNL A   1      41.140  26.663  28.242  1.00  0.00     0.031 C 
ATOM     43  C   UNL A   1      42.652  31.380  29.092  1.00  0.00     0.029 A 
ATOM     44  N   UNL A   1      44.182  29.948  28.311  1.00  0.00    -0.354 N 
ATOM     45  C   UNL A   1      43.142  25.802  27.560  1.00  0.00     0.074 A 
ATOM     46  C   UNL A   1      41.765  25.543  27.913  1.00  0.00     0.031 C 
ATOM     47  C   UNL A   1      43.805  32.055  28.955  1.00  0.00     0.029 A 
ATOM     48  C   UNL A   1      44.833  31.148  28.455  1.00  0.00     0.049 A 
ATOM     49  H   UNL A   1      44.624  29.129  27.989  1.00  0.00     0.167 HD
ATOM     50  C   UNL A   1      43.981  24.875  27.041  1.00  0.00     0.037 A 
ATOM     51  C   UNL A   1      46.116  31.475  28.204  1.00  0.00     0.037 A 
ATOM     52  C   UNL A   1      45.349  25.146  26.688  1.00  0.00     0.049 A 
ATOM     53  C   UNL A   1      47.048  30.423  27.671  1.00  0.00     0.074 A 
ATOM     54  C   UNL A   1      46.281  24.292  26.129  1.00  0.00     0.029 A 
ATOM     55  N   UNL A   1      45.981  26.370  26.866  1.00  0.00    -0.354 N 
ATOM     56  N   UNL A   1      46.794  29.166  27.389  1.00  0.00    -0.248 NA
ATOM     57  C   UNL A   1      48.435  30.830  27.420  1.00  0.00     0.031 C 
ATOM     58  C   UNL A   1      47.489  24.988  26.006  1.00  0.00     0.029 A 
ATOM     59  C   UNL A   1      47.297  26.289  26.449  1.00  0.00     0.049 A 
ATOM     60  H   UNL A   1      45.554  27.177  27.236  1.00  0.00     0.167 HD
ATOM     61  C   UNL A   1      47.985  28.635  26.910  1.00  0.00     0.074 A 
ATOM     62  C   UNL A   1      48.957  29.710  26.932  1.00  0.00     0.031 C 
ATOM     63  C   UNL A   1      48.250  27.373  26.488  1.00  0.00     0.037 A 
BRANCH  50  64
ATOM     64  C   UNL A   1      43.425  23.495  26.826  1.00  0.00     0.058 A 
ATOM     65  C   UNL A   1      43.191  22.625  27.905  1.00  0.00     0.135 A 
ATOM     66  C   UNL A   1      43.150  23.022  25.534  1.00  0.00     0.135 A 
ATOM     67  F   UNL A   1      43.455  23.020  29.162  1.00  0.00    -0.206 F 
ATOM     68  C   UNL A   1      42.753  21.321  27.708  1.00  0.00     0.059 A 
ATOM     69  C   UNL A   1      42.682  21.729  25.315  1.00  0.00     0.059 A 
ATOM     70  F   UNL A   1      43.357  23.809  24.467  1.00  0.00    -0.206 F 
ATOM     71  C   UNL A   1      42.509  20.879  26.407  1.00  0.00     0.060 A 
BRANCH  71  72
ATOM     72  S   UNL A   1      41.980  19.171  26.165  1.00  0.00     0.124 S 
ATOM     73  O   UNL A   1      42.736  18.799  24.973  1.00  0.00    -0.237 OA
ATOM     74  O   UNL A   1      42.405  18.533  27.407  1.00  0.00    -0.237 OA
ATOM     75  O   UNL A   1      40.536  19.284  25.983  1.00  0.00    -0.744 OA
ENDBRANCH  71  72
ENDBRANCH  50  64
BRANCH  51  76
ATOM     76  C   UNL A   1      46.559  32.880  28.401  1.00  0.00     0.058 A 
ATOM     77  C   UNL A   1      46.547  33.784  27.329  1.00  0.00     0.135 A 
ATOM     78  C   UNL A   1      46.922  33.367  29.665  1.00  0.00     0.135 A 
ATOM     79  F   UNL A   1      46.214  33.362  26.100  1.00  0.00    -0.206 F 
ATOM     80  C   UNL A   1      46.865  35.126  27.505  1.00  0.00     0.059 A 
ATOM     81  C   UNL A   1      47.227  34.710  29.870  1.00  0.00     0.059 A 
ATOM     82  F   UNL A   1      46.934  32.543  30.725  1.00  0.00    -0.206 F 
ATOM     83  C   UNL A   1      47.191  35.582  28.783  1.00  0.00     0.060 A 
BRANCH  83  84
ATOM     84  S   UNL A   1      47.497  37.348  29.014  1.00  0.00     0.124 S 
ATOM     85  O   UNL A   1      47.541  37.823  27.637  1.00  0.00    -0.237 OA
ATOM     86  O   UNL A   1      46.334  37.756  29.795  1.00  0.00    -0.237 OA
ATOM     87  O   UNL A   1      48.768  37.378  29.734  1.00  0.00    -0.744 OA
ENDBRANCH  83  84
ENDBRANCH  51  76
BRANCH  63  88
ATOM     88  C   UNL A   1      49.645  27.079  26.012  1.00  0.00     0.058 A 
ATOM     89  C   UNL A   1      50.601  26.502  26.860  1.00  0.00     0.135 A 
ATOM     90  C   UNL A   1      50.000  27.296  24.671  1.00  0.00     0.135 A 
ATOM     91  F   UNL A   1      50.311  26.282  28.153  1.00  0.00    -0.206 F 
ATOM     92  C   UNL A   1      51.866  26.156  26.398  1.00  0.00     0.059 A 
ATOM     93  C   UNL A   1      51.250  26.935  24.181  1.00  0.00     0.059 A 
ATOM     94  F   UNL A   1      49.117  27.838  23.817  1.00  0.00    -0.206 F 
ATOM     95  C   UNL A   1      52.178  26.370  25.054  1.00  0.00     0.060 A 
BRANCH  95  96
ATOM     96  S   UNL A   1      53.804  25.861  24.457  1.00  0.00     0.124 S 
ATOM     97  O   UNL A   1      53.626  25.945  23.010  1.00  0.00    -0.237 OA
ATOM     98  O   UNL A   1      54.681  26.869  25.046  1.00  0.00    -0.237 OA
ATOM     99  O   UNL A   1      53.959  24.513  24.993  1.00  0.00    -0.744 OA
ENDBRANCH  95  96
ENDBRANCH  63  88
ENDBRANCH  37  38
ENDBRANCH  29  32
ENDBRANCH  27  28
ENDBRANCH   1  27
TORSDOF 16
ENDMDL
