MODEL 1
REMARK VINA RESULT:     -12.6      0.000      0.000
REMARK SMILES C[C@@H](NC(=O)/C(=C/c1ccc(Cl)cc1)NC(=O)c1ccc(C(C)(C)C)cc1)C(=O)NCCCNC(=O)c1ccc(-c2c3nc(c(-c4c(F)cc(S(=O)(=O)[O-])cc4F)c4ccc([nH]4)c(-c4c(F)cc(S(=O)(=O)[O-])cc4F)c4nc(c(-c5c(F)cc(S(=O)(=O)[O-])cc5F)c5ccc2[nH]5)C=C4)C=C3)cc1
REMARK SMILES IDX 31 1 30 2 28 3 29 4 2 6 1 7 3 8 4 9 5 11 6 12 7 13 15 14
REMARK SMILES IDX 16 15 17 17 18 18 19 19 27 20 20 21 26 22 21 23 22 24 23 25
REMARK SMILES IDX 24 26 25 27 8 28 9 29 14 30 10 31 13 32 11 33 12 34 32 35
REMARK SMILES IDX 33 36 34 37 35 38 36 40 37 41 38 42 102 43 39 44 101 45
REMARK SMILES IDX 40 46 41 47 42 48 95 49 43 50 100 51 94 52 96 53 44 54 99 55
REMARK SMILES IDX 93 56 92 57 45 59 79 60 58 61 78 62 59 63 62 64 77 65 97 66
REMARK SMILES IDX 60 67 61 68 76 70 98 71 63 72 46 73 47 74 56 75 48 76 49 77
REMARK SMILES IDX 55 78 57 79 50 80 51 81 52 82 53 83 54 84 80 85 81 86 90 87
REMARK SMILES IDX 82 88 83 89 89 90 91 91 84 92 85 93 86 94 87 95 88 96 64 97
REMARK SMILES IDX 65 98 74 99 66 100 67 101 73 102 75 103 68 104 69 105 70 106
REMARK SMILES IDX 71 107 72 108
REMARK H PARENT 30 5 3 10 15 16 34 39 96 58 62 69
REMARK Flexibility Score: inf
ROOT
ATOM      1  C   UNL A   1      32.955  29.414  25.082  1.00  0.00     0.117 C 
ENDROOT
BRANCH   1   2
ATOM      2  N   UNL A   1      33.588  29.065  23.827  1.00  0.00    -0.354 N 
ATOM      3  C   UNL A   1      33.118  28.279  22.823  1.00  0.00     0.242 C 
ATOM      4  O   UNL A   1      33.850  28.083  21.849  1.00  0.00    -0.273 OA
ATOM      5  H   UNL A   1      34.482  29.449  23.681  1.00  0.00     0.163 HD
BRANCH   3   6
ATOM      6  C   UNL A   1      31.774  27.541  22.943  1.00  0.00     0.168 C 
ATOM      7  C   UNL A   1      30.710  28.458  22.327  1.00  0.00     0.041 C 
BRANCH   6   8
ATOM      8  N   UNL A   1      31.652  26.173  22.406  1.00  0.00    -0.339 N 
ATOM      9  C   UNL A   1      31.386  25.038  23.143  1.00  0.00     0.268 C 
ATOM     10  H   UNL A   1      31.770  26.058  21.435  1.00  0.00     0.164 HD
ATOM     11  O   UNL A   1      30.384  24.374  22.895  1.00  0.00    -0.268 OA
BRANCH   9  12
ATOM     12  C   UNL A   1      32.435  24.542  24.101  1.00  0.00     0.107 C 
ATOM     13  C   UNL A   1      33.698  24.495  23.636  1.00  0.00     0.040 C 
BRANCH  12  14
ATOM     14  N   UNL A   1      32.140  24.251  25.420  1.00  0.00    -0.317 N 
ATOM     15  C   UNL A   1      32.070  23.102  26.170  1.00  0.00     0.255 C 
ATOM     16  H   UNL A   1      31.932  25.058  25.945  1.00  0.00     0.170 HD
ATOM     17  O   UNL A   1      31.625  23.164  27.316  1.00  0.00    -0.269 OA
BRANCH  15  18
ATOM     18  C   UNL A   1      32.490  21.792  25.662  1.00  0.00     0.040 A 
ATOM     19  C   UNL A   1      33.557  21.157  26.295  1.00  0.00     0.014 A 
ATOM     20  C   UNL A   1      31.895  21.217  24.542  1.00  0.00     0.014 A 
ATOM     21  C   UNL A   1      33.951  19.888  25.873  1.00  0.00     0.005 A 
ATOM     22  C   UNL A   1      32.289  19.940  24.130  1.00  0.00     0.005 A 
ATOM     23  C   UNL A   1      33.294  19.230  24.815  1.00  0.00    -0.043 A 
BRANCH  23  24
ATOM     24  C   UNL A   1      33.675  17.782  24.464  1.00  0.00    -0.013 C 
ATOM     25  C   UNL A   1      35.203  17.614  24.554  1.00  0.00     0.016 C 
ATOM     26  C   UNL A   1      32.996  16.808  25.457  1.00  0.00     0.016 C 
ATOM     27  C   UNL A   1      33.230  17.352  23.049  1.00  0.00     0.016 C 
ENDBRANCH  23  24
ENDBRANCH  15  18
ENDBRANCH  12  14
BRANCH  13  28
ATOM     28  C   UNL A   1      34.907  23.890  24.235  1.00  0.00    -0.023 A 
ATOM     29  C   UNL A   1      35.671  22.897  23.600  1.00  0.00     0.010 A 
ATOM     30  C   UNL A   1      35.405  24.447  25.422  1.00  0.00     0.010 A 
ATOM     31  C   UNL A   1      36.859  22.425  24.170  1.00  0.00     0.021 A 
ATOM     32  C   UNL A   1      36.605  23.996  25.981  1.00  0.00     0.021 A 
ATOM     33  C   UNL A   1      37.321  22.979  25.358  1.00  0.00     0.041 A 
ATOM     34  Cl  UNL A   1      38.794  22.423  26.047  1.00  0.00    -0.084 Cl
ENDBRANCH  13  28
ENDBRANCH   9  12
ENDBRANCH   6   8
ENDBRANCH   3   6
ENDBRANCH   1   2
BRANCH   1  35
ATOM     35  C   UNL A   1      32.948  28.241  26.044  1.00  0.00     0.042 C 
BRANCH  35  36
ATOM     36  C   UNL A   1      33.717  28.522  27.326  1.00  0.00     0.118 C 
BRANCH  36  37
ATOM     37  N   UNL A   1      33.605  29.908  27.757  1.00  0.00    -0.352 N 
ATOM     38  C   UNL A   1      34.562  30.696  28.358  1.00  0.00     0.251 C 
ATOM     39  H   UNL A   1      32.733  30.337  27.598  1.00  0.00     0.163 HD
ATOM     40  O   UNL A   1      34.271  31.800  28.783  1.00  0.00    -0.269 OA
BRANCH  38  41
ATOM     41  C   UNL A   1      35.932  30.160  28.516  1.00  0.00     0.039 A 
ATOM     42  C   UNL A   1      36.809  30.227  27.431  1.00  0.00     0.014 A 
ATOM     43  C   UNL A   1      36.360  29.651  29.744  1.00  0.00     0.014 A 
ATOM     44  C   UNL A   1      38.140  29.844  27.603  1.00  0.00     0.010 A 
ATOM     45  C   UNL A   1      37.705  29.356  29.935  1.00  0.00     0.010 A 
ATOM     46  C   UNL A   1      38.608  29.441  28.865  1.00  0.00    -0.014 A 
BRANCH  46  47
ATOM     47  C   UNL A   1      40.036  29.092  29.078  1.00  0.00     0.031 A 
ATOM     48  C   UNL A   1      40.981  30.114  29.649  1.00  0.00     0.074 A 
ATOM     49  C   UNL A   1      40.490  27.877  28.711  1.00  0.00     0.049 A 
ATOM     50  N   UNL A   1      42.265  30.014  29.878  1.00  0.00    -0.248 NA
ATOM     51  C   UNL A   1      40.417  31.434  29.977  1.00  0.00     0.031 C 
ATOM     52  C   UNL A   1      39.685  26.825  28.085  1.00  0.00     0.029 A 
ATOM     53  N   UNL A   1      41.740  27.322  28.806  1.00  0.00    -0.354 N 
ATOM     54  C   UNL A   1      42.661  31.256  30.359  1.00  0.00     0.074 A 
ATOM     55  C   UNL A   1      41.498  32.113  30.331  1.00  0.00     0.031 C 
ATOM     56  C   UNL A   1      40.453  25.742  27.884  1.00  0.00     0.029 A 
ATOM     57  C   UNL A   1      41.811  26.031  28.336  1.00  0.00     0.049 A 
ATOM     58  H   UNL A   1      42.516  27.802  29.177  1.00  0.00     0.167 HD
ATOM     59  C   UNL A   1      43.878  31.640  30.814  1.00  0.00     0.037 A 
ATOM     60  C   UNL A   1      42.851  25.177  28.281  1.00  0.00     0.037 A 
ATOM     61  C   UNL A   1      45.023  30.771  30.874  1.00  0.00     0.049 A 
ATOM     62  C   UNL A   1      44.185  25.615  28.820  1.00  0.00     0.074 A 
ATOM     63  C   UNL A   1      46.283  31.041  31.376  1.00  0.00     0.029 A 
ATOM     64  N   UNL A   1      45.046  29.460  30.421  1.00  0.00    -0.354 N 
ATOM     65  N   UNL A   1      44.525  26.772  29.338  1.00  0.00    -0.248 NA
ATOM     66  C   UNL A   1      45.275  24.631  28.778  1.00  0.00     0.031 C 
ATOM     67  C   UNL A   1      47.079  29.905  31.195  1.00  0.00     0.029 A 
ATOM     68  C   UNL A   1      46.302  28.912  30.618  1.00  0.00     0.049 A 
ATOM     69  H   UNL A   1      44.281  28.989  30.017  1.00  0.00     0.167 HD
ATOM     70  C   UNL A   1      45.860  26.646  29.707  1.00  0.00     0.074 A 
ATOM     71  C   UNL A   1      46.260  25.297  29.364  1.00  0.00     0.031 C 
ATOM     72  C   UNL A   1      46.679  27.564  30.276  1.00  0.00     0.037 A 
BRANCH  59  73
ATOM     73  C   UNL A   1      44.023  33.057  31.296  1.00  0.00     0.058 A 
ATOM     74  C   UNL A   1      43.812  33.402  32.641  1.00  0.00     0.135 A 
ATOM     75  C   UNL A   1      44.400  34.079  30.410  1.00  0.00     0.135 A 
ATOM     76  F   UNL A   1      43.432  32.468  33.527  1.00  0.00    -0.206 F 
ATOM     77  C   UNL A   1      43.937  34.714  33.085  1.00  0.00     0.059 A 
ATOM     78  C   UNL A   1      44.559  35.394  30.837  1.00  0.00     0.059 A 
ATOM     79  F   UNL A   1      44.613  33.806  29.114  1.00  0.00    -0.206 F 
ATOM     80  C   UNL A   1      44.309  35.704  32.174  1.00  0.00     0.060 A 
BRANCH  80  81
ATOM     81  S   UNL A   1      44.472  37.401  32.766  1.00  0.00     0.124 S 
ATOM     82  O   UNL A   1      44.495  38.146  31.512  1.00  0.00    -0.237 OA
ATOM     83  O   UNL A   1      43.271  37.567  33.579  1.00  0.00    -0.237 OA
ATOM     84  O   UNL A   1      45.729  37.383  33.509  1.00  0.00    -0.744 OA
ENDBRANCH  80  81
ENDBRANCH  59  73
BRANCH  60  85
ATOM     85  C   UNL A   1      42.661  23.808  27.731  1.00  0.00     0.058 A 
ATOM     86  C   UNL A   1      42.516  22.702  28.581  1.00  0.00     0.135 A 
ATOM     87  C   UNL A   1      42.607  23.579  26.347  1.00  0.00     0.135 A 
ATOM     88  F   UNL A   1      42.565  22.869  29.911  1.00  0.00    -0.206 F 
ATOM     89  C   UNL A   1      42.341  21.415  28.083  1.00  0.00     0.059 A 
ATOM     90  C   UNL A   1      42.409  22.305  25.823  1.00  0.00     0.059 A 
ATOM     91  F   UNL A   1      42.721  24.607  25.490  1.00  0.00    -0.206 F 
ATOM     92  C   UNL A   1      42.287  21.228  26.701  1.00  0.00     0.060 A 
BRANCH  92  93
ATOM     93  S   UNL A   1      42.008  19.561  26.061  1.00  0.00     0.124 S 
ATOM     94  O   UNL A   1      42.456  18.738  27.179  1.00  0.00    -0.237 OA
ATOM     95  O   UNL A   1      40.571  19.566  25.807  1.00  0.00    -0.237 OA
ATOM     96  O   UNL A   1      42.847  19.517  24.867  1.00  0.00    -0.744 OA
ENDBRANCH  92  93
ENDBRANCH  60  85
BRANCH  72  97
ATOM     97  C   UNL A   1      48.082  27.130  30.595  1.00  0.00     0.058 A 
ATOM     98  C   UNL A   1      49.167  27.488  29.780  1.00  0.00     0.135 A 
ATOM     99  C   UNL A   1      48.349  26.386  31.756  1.00  0.00     0.135 A 
ATOM    100  F   UNL A   1      48.964  28.194  28.656  1.00  0.00    -0.206 F 
ATOM    101  C   UNL A   1      50.466  27.099  30.090  1.00  0.00     0.059 A 
ATOM    102  C   UNL A   1      49.643  26.009  32.100  1.00  0.00     0.059 A 
ATOM    103  F   UNL A   1      47.347  26.029  32.575  1.00  0.00    -0.206 F 
ATOM    104  C   UNL A   1      50.694  26.359  31.252  1.00  0.00     0.060 A 
BRANCH 104 105
ATOM    105  S   UNL A   1      52.386  25.881  31.658  1.00  0.00     0.124 S 
ATOM    106  O   UNL A   1      52.986  25.772  30.332  1.00  0.00    -0.237 OA
ATOM    107  O   UNL A   1      52.844  27.004  32.471  1.00  0.00    -0.237 OA
ATOM    108  O   UNL A   1      52.219  24.622  32.377  1.00  0.00    -0.744 OA
ENDBRANCH 104 105
ENDBRANCH  72  97
ENDBRANCH  46  47
ENDBRANCH  38  41
ENDBRANCH  36  37
ENDBRANCH  35  36
ENDBRANCH   1  35
TORSDOF 19
ENDMDL
MODEL 2
REMARK VINA RESULT:     -12.5      3.360      9.395
REMARK SMILES C[C@@H](NC(=O)/C(=C/c1ccc(Cl)cc1)NC(=O)c1ccc(C(C)(C)C)cc1)C(=O)NCCCNC(=O)c1ccc(-c2c3nc(c(-c4c(F)cc(S(=O)(=O)[O-])cc4F)c4ccc([nH]4)c(-c4c(F)cc(S(=O)(=O)[O-])cc4F)c4nc(c(-c5c(F)cc(S(=O)(=O)[O-])cc5F)c5ccc2[nH]5)C=C4)C=C3)cc1
REMARK SMILES IDX 31 1 30 2 28 3 29 4 2 6 1 7 3 8 4 9 5 11 6 12 7 13 15 14
REMARK SMILES IDX 16 15 17 17 18 18 19 19 27 20 20 21 26 22 21 23 22 24 23 25
REMARK SMILES IDX 24 26 25 27 8 28 9 29 14 30 10 31 13 32 11 33 12 34 32 35
REMARK SMILES IDX 33 36 34 37 35 38 36 40 37 41 38 42 102 43 39 44 101 45
REMARK SMILES IDX 40 46 41 47 42 48 95 49 43 50 100 51 94 52 96 53 44 54 99 55
REMARK SMILES IDX 93 56 92 57 45 59 79 60 58 61 78 62 59 63 62 64 77 65 97 66
REMARK SMILES IDX 60 67 61 68 76 70 98 71 63 72 46 73 47 74 56 75 48 76 49 77
REMARK SMILES IDX 55 78 57 79 50 80 51 81 52 82 53 83 54 84 80 85 81 86 90 87
REMARK SMILES IDX 82 88 83 89 89 90 91 91 84 92 85 93 86 94 87 95 88 96 64 97
REMARK SMILES IDX 65 98 74 99 66 100 67 101 73 102 75 103 68 104 69 105 70 106
REMARK SMILES IDX 71 107 72 108
REMARK H PARENT 30 5 3 10 15 16 34 39 96 58 62 69
REMARK Flexibility Score: inf
ROOT
ATOM      1  C   UNL A   1      36.967  21.948  25.291  1.00  0.00     0.117 C 
ENDROOT
BRANCH   1   2
ATOM      2  N   UNL A   1      36.114  21.777  26.449  1.00  0.00    -0.354 N 
ATOM      3  C   UNL A   1      34.767  21.614  26.501  1.00  0.00     0.242 C 
ATOM      4  O   UNL A   1      34.236  21.525  27.612  1.00  0.00    -0.273 OA
ATOM      5  H   UNL A   1      36.574  21.780  27.319  1.00  0.00     0.163 HD
BRANCH   3   6
ATOM      6  C   UNL A   1      33.901  21.674  25.231  1.00  0.00     0.168 C 
ATOM      7  C   UNL A   1      33.862  20.252  24.657  1.00  0.00     0.041 C 
BRANCH   6   8
ATOM      8  N   UNL A   1      32.541  22.237  25.311  1.00  0.00    -0.339 N 
ATOM      9  C   UNL A   1      32.035  23.237  24.507  1.00  0.00     0.268 C 
ATOM     10  H   UNL A   1      31.940  21.869  25.999  1.00  0.00     0.164 HD
ATOM     11  O   UNL A   1      31.046  23.016  23.814  1.00  0.00    -0.268 OA
BRANCH   9  12
ATOM     12  C   UNL A   1      32.592  24.627  24.651  1.00  0.00     0.107 C 
ATOM     13  C   UNL A   1      32.435  25.215  25.852  1.00  0.00     0.040 C 
BRANCH  12  14
ATOM     14  N   UNL A   1      33.321  25.228  23.642  1.00  0.00    -0.317 N 
ATOM     15  C   UNL A   1      33.102  26.269  22.772  1.00  0.00     0.255 C 
ATOM     16  H   UNL A   1      34.207  24.814  23.520  1.00  0.00     0.170 HD
ATOM     17  O   UNL A   1      33.913  26.472  21.869  1.00  0.00    -0.269 OA
BRANCH  15  18
ATOM     18  C   UNL A   1      31.932  27.148  22.859  1.00  0.00     0.040 A 
ATOM     19  C   UNL A   1      32.143  28.525  22.815  1.00  0.00     0.014 A 
ATOM     20  C   UNL A   1      30.649  26.640  23.048  1.00  0.00     0.014 A 
ATOM     21  C   UNL A   1      31.051  29.390  22.844  1.00  0.00     0.005 A 
ATOM     22  C   UNL A   1      29.556  27.515  23.067  1.00  0.00     0.005 A 
ATOM     23  C   UNL A   1      29.731  28.903  22.918  1.00  0.00    -0.043 A 
BRANCH  23  24
ATOM     24  C   UNL A   1      28.550  29.884  22.820  1.00  0.00    -0.013 C 
ATOM     25  C   UNL A   1      28.451  30.429  21.383  1.00  0.00     0.016 C 
ATOM     26  C   UNL A   1      27.234  29.152  23.178  1.00  0.00     0.016 C 
ATOM     27  C   UNL A   1      28.664  31.088  23.780  1.00  0.00     0.016 C 
ENDBRANCH  23  24
ENDBRANCH  15  18
ENDBRANCH  12  14
BRANCH  13  28
ATOM     28  C   UNL A   1      32.684  26.614  26.263  1.00  0.00    -0.023 A 
ATOM     29  C   UNL A   1      33.947  27.226  26.196  1.00  0.00     0.010 A 
ATOM     30  C   UNL A   1      31.578  27.414  26.583  1.00  0.00     0.010 A 
ATOM     31  C   UNL A   1      34.109  28.581  26.508  1.00  0.00     0.021 A 
ATOM     32  C   UNL A   1      31.733  28.774  26.871  1.00  0.00     0.021 A 
ATOM     33  C   UNL A   1      33.000  29.349  26.844  1.00  0.00     0.041 A 
ATOM     34  Cl  UNL A   1      33.190  31.019  27.201  1.00  0.00    -0.084 Cl
ENDBRANCH  13  28
ENDBRANCH   9  12
ENDBRANCH   6   8
ENDBRANCH   3   6
ENDBRANCH   1   2
BRANCH   1  35
ATOM     35  C   UNL A   1      37.976  20.821  25.174  1.00  0.00     0.042 C 
BRANCH  35  36
ATOM     36  C   UNL A   1      39.204  21.032  26.047  1.00  0.00     0.118 C 
BRANCH  36  37
ATOM     37  N   UNL A   1      40.115  19.896  26.020  1.00  0.00    -0.352 N 
ATOM     38  C   UNL A   1      41.490  19.901  26.119  1.00  0.00     0.251 C 
ATOM     39  H   UNL A   1      39.694  19.012  25.919  1.00  0.00     0.163 HD
ATOM     40  O   UNL A   1      42.122  18.874  25.943  1.00  0.00    -0.269 OA
BRANCH  38  41
ATOM     41  C   UNL A   1      42.181  21.178  26.397  1.00  0.00     0.039 A 
ATOM     42  C   UNL A   1      42.457  22.040  25.333  1.00  0.00     0.014 A 
ATOM     43  C   UNL A   1      42.500  21.545  27.707  1.00  0.00     0.014 A 
ATOM     44  C   UNL A   1      42.991  23.302  25.595  1.00  0.00     0.010 A 
ATOM     45  C   UNL A   1      42.947  22.834  27.971  1.00  0.00     0.010 A 
ATOM     46  C   UNL A   1      43.205  23.724  26.918  1.00  0.00    -0.014 A 
BRANCH  46  47
ATOM     47  C   UNL A   1      43.713  25.087  27.216  1.00  0.00     0.031 A 
ATOM     48  C   UNL A   1      45.157  25.423  26.958  1.00  0.00     0.074 A 
ATOM     49  C   UNL A   1      42.889  26.003  27.764  1.00  0.00     0.049 A 
ATOM     50  N   UNL A   1      45.796  26.542  27.182  1.00  0.00    -0.248 NA
ATOM     51  C   UNL A   1      46.002  24.352  26.406  1.00  0.00     0.031 C 
ATOM     52  C   UNL A   1      41.487  25.776  28.122  1.00  0.00     0.029 A 
ATOM     53  N   UNL A   1      43.112  27.309  28.120  1.00  0.00    -0.354 N 
ATOM     54  C   UNL A   1      47.115  26.304  26.814  1.00  0.00     0.074 A 
ATOM     55  C   UNL A   1      47.200  24.917  26.411  1.00  0.00     0.031 C 
ATOM     56  C   UNL A   1      40.968  26.912  28.615  1.00  0.00     0.029 A 
ATOM     57  C   UNL A   1      42.005  27.939  28.638  1.00  0.00     0.049 A 
ATOM     58  H   UNL A   1      43.985  27.755  28.014  1.00  0.00     0.167 HD
ATOM     59  C   UNL A   1      48.156  27.169  26.783  1.00  0.00     0.037 A 
ATOM     60  C   UNL A   1      41.844  29.203  29.076  1.00  0.00     0.037 A 
ATOM     61  C   UNL A   1      48.057  28.557  27.149  1.00  0.00     0.049 A 
ATOM     62  C   UNL A   1      43.006  30.155  29.004  1.00  0.00     0.074 A 
ATOM     63  C   UNL A   1      49.035  29.534  27.093  1.00  0.00     0.029 A 
ATOM     64  N   UNL A   1      46.910  29.166  27.636  1.00  0.00    -0.354 N 
ATOM     65  N   UNL A   1      44.230  29.931  28.585  1.00  0.00    -0.248 NA
ATOM     66  C   UNL A   1      42.766  31.533  29.452  1.00  0.00     0.031 C 
ATOM     67  C   UNL A   1      48.489  30.727  27.579  1.00  0.00     0.029 A 
ATOM     68  C   UNL A   1      47.159  30.503  27.898  1.00  0.00     0.049 A 
ATOM     69  H   UNL A   1      46.047  28.714  27.775  1.00  0.00     0.167 HD
ATOM     70  C   UNL A   1      44.898  31.145  28.695  1.00  0.00     0.074 A 
ATOM     71  C   UNL A   1      43.938  32.103  29.208  1.00  0.00     0.031 C 
ATOM     72  C   UNL A   1      46.188  31.442  28.401  1.00  0.00     0.037 A 
BRANCH  59  73
ATOM     73  C   UNL A   1      49.486  26.639  26.321  1.00  0.00     0.058 A 
ATOM     74  C   UNL A   1      49.941  26.834  25.008  1.00  0.00     0.135 A 
ATOM     75  C   UNL A   1      50.327  25.948  27.208  1.00  0.00     0.135 A 
ATOM     76  F   UNL A   1      49.169  27.472  24.113  1.00  0.00    -0.206 F 
ATOM     77  C   UNL A   1      51.166  26.336  24.578  1.00  0.00     0.059 A 
ATOM     78  C   UNL A   1      51.570  25.465  26.810  1.00  0.00     0.059 A 
ATOM     79  F   UNL A   1      49.942  25.731  28.476  1.00  0.00    -0.206 F 
ATOM     80  C   UNL A   1      51.973  25.650  25.487  1.00  0.00     0.060 A 
BRANCH  80  81
ATOM     81  S   UNL A   1      53.563  25.014  24.917  1.00  0.00     0.124 S 
ATOM     82  O   UNL A   1      53.445  23.598  25.250  1.00  0.00    -0.237 OA
ATOM     83  O   UNL A   1      53.537  25.334  23.493  1.00  0.00    -0.237 OA
ATOM     84  O   UNL A   1      54.533  25.766  25.706  1.00  0.00    -0.744 OA
ENDBRANCH  80  81
ENDBRANCH  59  73
BRANCH  60  85
ATOM     85  C   UNL A   1      40.519  29.651  29.584  1.00  0.00     0.058 A 
ATOM     86  C   UNL A   1      40.313  29.884  30.952  1.00  0.00     0.135 A 
ATOM     87  C   UNL A   1      39.441  29.870  28.713  1.00  0.00     0.135 A 
ATOM     88  F   UNL A   1      41.312  29.684  31.824  1.00  0.00    -0.206 F 
ATOM     89  C   UNL A   1      39.079  30.300  31.443  1.00  0.00     0.059 A 
ATOM     90  C   UNL A   1      38.204  30.309  29.177  1.00  0.00     0.059 A 
ATOM     91  F   UNL A   1      39.592  29.680  27.393  1.00  0.00    -0.206 F 
ATOM     92  C   UNL A   1      38.031  30.512  30.546  1.00  0.00     0.060 A 
BRANCH  92  93
ATOM     93  S   UNL A   1      36.447  31.102  31.186  1.00  0.00     0.124 S 
ATOM     94  O   UNL A   1      36.847  32.321  31.881  1.00  0.00    -0.237 OA
ATOM     95  O   UNL A   1      35.674  31.289  29.963  1.00  0.00    -0.237 OA
ATOM     96  O   UNL A   1      36.001  30.004  32.038  1.00  0.00    -0.744 OA
ENDBRANCH  92  93
ENDBRANCH  60  85
BRANCH  72  97
ATOM     97  C   UNL A   1      46.629  32.866  28.594  1.00  0.00     0.058 A 
ATOM     98  C   UNL A   1      46.506  33.819  27.572  1.00  0.00     0.135 A 
ATOM     99  C   UNL A   1      47.138  33.290  29.832  1.00  0.00     0.135 A 
ATOM    100  F   UNL A   1      46.030  33.462  26.368  1.00  0.00    -0.206 F 
ATOM    101  C   UNL A   1      46.899  35.139  27.762  1.00  0.00     0.059 A 
ATOM    102  C   UNL A   1      47.512  34.611  30.053  1.00  0.00     0.059 A 
ATOM    103  F   UNL A   1      47.263  32.419  30.846  1.00  0.00    -0.206 F 
ATOM    104  C   UNL A   1      47.401  35.526  29.006  1.00  0.00     0.060 A 
BRANCH 104 105
ATOM    105  S   UNL A   1      47.884  37.248  29.249  1.00  0.00     0.124 S 
ATOM    106  O   UNL A   1      48.164  37.670  27.881  1.00  0.00    -0.237 OA
ATOM    107  O   UNL A   1      46.690  37.826  29.860  1.00  0.00    -0.237 OA
ATOM    108  O   UNL A   1      49.046  37.153  30.127  1.00  0.00    -0.744 OA
ENDBRANCH 104 105
ENDBRANCH  72  97
ENDBRANCH  46  47
ENDBRANCH  38  41
ENDBRANCH  36  37
ENDBRANCH  35  36
ENDBRANCH   1  35
TORSDOF 19
ENDMDL
MODEL 3
REMARK VINA RESULT:     -12.4      1.435      7.966
REMARK SMILES C[C@@H](NC(=O)/C(=C/c1ccc(Cl)cc1)NC(=O)c1ccc(C(C)(C)C)cc1)C(=O)NCCCNC(=O)c1ccc(-c2c3nc(c(-c4c(F)cc(S(=O)(=O)[O-])cc4F)c4ccc([nH]4)c(-c4c(F)cc(S(=O)(=O)[O-])cc4F)c4nc(c(-c5c(F)cc(S(=O)(=O)[O-])cc5F)c5ccc2[nH]5)C=C4)C=C3)cc1
REMARK SMILES IDX 31 1 30 2 28 3 29 4 2 6 1 7 3 8 4 9 5 11 6 12 7 13 15 14
REMARK SMILES IDX 16 15 17 17 18 18 19 19 27 20 20 21 26 22 21 23 22 24 23 25
REMARK SMILES IDX 24 26 25 27 8 28 9 29 14 30 10 31 13 32 11 33 12 34 32 35
REMARK SMILES IDX 33 36 34 37 35 38 36 40 37 41 38 42 102 43 39 44 101 45
REMARK SMILES IDX 40 46 41 47 42 48 95 49 43 50 100 51 94 52 96 53 44 54 99 55
REMARK SMILES IDX 93 56 92 57 45 59 79 60 58 61 78 62 59 63 62 64 77 65 97 66
REMARK SMILES IDX 60 67 61 68 76 70 98 71 63 72 46 73 47 74 56 75 48 76 49 77
REMARK SMILES IDX 55 78 57 79 50 80 51 81 52 82 53 83 54 84 80 85 81 86 90 87
REMARK SMILES IDX 82 88 83 89 89 90 91 91 84 92 85 93 86 94 87 95 88 96 64 97
REMARK SMILES IDX 65 98 74 99 66 100 67 101 73 102 75 103 68 104 69 105 70 106
REMARK SMILES IDX 71 107 72 108
REMARK H PARENT 30 5 3 10 15 16 34 39 96 58 62 69
REMARK Flexibility Score: inf
ROOT
ATOM      1  C   UNL A   1      32.926  29.431  25.779  1.00  0.00     0.117 C 
ENDROOT
BRANCH   1   2
ATOM      2  N   UNL A   1      33.344  29.404  24.393  1.00  0.00    -0.354 N 
ATOM      3  C   UNL A   1      32.750  28.797  23.333  1.00  0.00     0.242 C 
ATOM      4  O   UNL A   1      33.308  28.871  22.235  1.00  0.00    -0.273 OA
ATOM      5  H   UNL A   1      34.175  29.892  24.191  1.00  0.00     0.163 HD
BRANCH   3   6
ATOM      6  C   UNL A   1      31.493  27.927  23.506  1.00  0.00     0.168 C 
ATOM      7  C   UNL A   1      30.294  28.804  23.123  1.00  0.00     0.041 C 
BRANCH   6   8
ATOM      8  N   UNL A   1      31.419  26.622  22.824  1.00  0.00    -0.339 N 
ATOM      9  C   UNL A   1      31.259  25.399  23.440  1.00  0.00     0.268 C 
ATOM     10  H   UNL A   1      31.491  26.623  21.842  1.00  0.00     0.164 HD
ATOM     11  O   UNL A   1      30.284  24.705  23.166  1.00  0.00    -0.268 OA
BRANCH   9  12
ATOM     12  C   UNL A   1      32.384  24.866  24.284  1.00  0.00     0.107 C 
ATOM     13  C   UNL A   1      33.597  24.810  23.701  1.00  0.00     0.040 C 
BRANCH  12  14
ATOM     14  N   UNL A   1      32.210  24.551  25.618  1.00  0.00    -0.317 N 
ATOM     15  C   UNL A   1      32.188  23.387  26.348  1.00  0.00     0.255 C 
ATOM     16  H   UNL A   1      32.069  25.350  26.178  1.00  0.00     0.170 HD
ATOM     17  O   UNL A   1      31.855  23.432  27.533  1.00  0.00    -0.269 OA
BRANCH  15  18
ATOM     18  C   UNL A   1      32.531  22.081  25.776  1.00  0.00     0.040 A 
ATOM     19  C   UNL A   1      33.586  21.374  26.349  1.00  0.00     0.014 A 
ATOM     20  C   UNL A   1      31.877  21.581  24.654  1.00  0.00     0.014 A 
ATOM     21  C   UNL A   1      33.909  20.107  25.865  1.00  0.00     0.005 A 
ATOM     22  C   UNL A   1      32.200  20.304  24.179  1.00  0.00     0.005 A 
ATOM     23  C   UNL A   1      33.190  19.523  24.804  1.00  0.00    -0.043 A 
BRANCH  23  24
ATOM     24  C   UNL A   1      33.493  18.075  24.384  1.00  0.00    -0.013 C 
ATOM     25  C   UNL A   1      35.017  17.850  24.366  1.00  0.00     0.016 C 
ATOM     26  C   UNL A   1      32.845  17.093  25.390  1.00  0.00     0.016 C 
ATOM     27  C   UNL A   1      32.941  17.707  22.989  1.00  0.00     0.016 C 
ENDBRANCH  23  24
ENDBRANCH  15  18
ENDBRANCH  12  14
BRANCH  13  28
ATOM     28  C   UNL A   1      34.847  24.174  24.171  1.00  0.00    -0.023 A 
ATOM     29  C   UNL A   1      35.502  24.540  25.358  1.00  0.00     0.010 A 
ATOM     30  C   UNL A   1      35.311  23.045  23.481  1.00  0.00     0.010 A 
ATOM     31  C   UNL A   1      36.630  23.841  25.804  1.00  0.00     0.021 A 
ATOM     32  C   UNL A   1      36.423  22.329  23.938  1.00  0.00     0.021 A 
ATOM     33  C   UNL A   1      37.085  22.738  25.092  1.00  0.00     0.041 A 
ATOM     34  Cl  UNL A   1      38.452  21.860  25.650  1.00  0.00    -0.084 Cl
ENDBRANCH  13  28
ENDBRANCH   9  12
ENDBRANCH   6   8
ENDBRANCH   3   6
ENDBRANCH   1   2
BRANCH   1  35
ATOM     35  C   UNL A   1      33.530  28.281  26.563  1.00  0.00     0.042 C 
BRANCH  35  36
ATOM     36  C   UNL A   1      34.826  28.658  27.263  1.00  0.00     0.118 C 
BRANCH  36  37
ATOM     37  N   UNL A   1      34.669  29.786  28.169  1.00  0.00    -0.352 N 
ATOM     38  C   UNL A   1      35.612  30.353  29.000  1.00  0.00     0.251 C 
ATOM     39  H   UNL A   1      33.775  30.197  28.191  1.00  0.00     0.163 HD
ATOM     40  O   UNL A   1      35.287  31.211  29.802  1.00  0.00    -0.269 OA
BRANCH  38  41
ATOM     41  C   UNL A   1      37.008  29.869  28.930  1.00  0.00     0.039 A 
ATOM     42  C   UNL A   1      37.719  30.037  27.741  1.00  0.00     0.014 A 
ATOM     43  C   UNL A   1      37.624  29.308  30.052  1.00  0.00     0.014 A 
ATOM     44  C   UNL A   1      39.073  29.704  27.700  1.00  0.00     0.010 A 
ATOM     45  C   UNL A   1      38.992  29.062  30.034  1.00  0.00     0.010 A 
ATOM     46  C   UNL A   1      39.730  29.249  28.856  1.00  0.00    -0.014 A 
BRANCH  46  47
ATOM     47  C   UNL A   1      41.185  28.951  28.845  1.00  0.00     0.031 A 
ATOM     48  C   UNL A   1      41.668  27.583  28.447  1.00  0.00     0.074 A 
ATOM     49  C   UNL A   1      42.064  29.894  29.242  1.00  0.00     0.049 A 
ATOM     50  N   UNL A   1      42.890  27.120  28.405  1.00  0.00    -0.248 NA
ATOM     51  C   UNL A   1      40.640  26.596  28.075  1.00  0.00     0.031 C 
ATOM     52  C   UNL A   1      41.713  31.235  29.715  1.00  0.00     0.029 A 
ATOM     53  N   UNL A   1      43.433  29.867  29.316  1.00  0.00    -0.354 N 
ATOM     54  C   UNL A   1      42.776  25.789  28.021  1.00  0.00     0.074 A 
ATOM     55  C   UNL A   1      41.364  25.500  27.901  1.00  0.00     0.031 C 
ATOM     56  C   UNL A   1      42.838  31.912  29.997  1.00  0.00     0.029 A 
ATOM     57  C   UNL A   1      43.988  31.045  29.756  1.00  0.00     0.049 A 
ATOM     58  H   UNL A   1      43.970  29.076  29.075  1.00  0.00     0.167 HD
ATOM     59  C   UNL A   1      43.760  24.895  27.759  1.00  0.00     0.037 A 
ATOM     60  C   UNL A   1      45.277  31.390  29.940  1.00  0.00     0.037 A 
ATOM     61  C   UNL A   1      45.163  25.199  27.844  1.00  0.00     0.049 A 
ATOM     62  C   UNL A   1      46.354  30.390  29.614  1.00  0.00     0.074 A 
ATOM     63  C   UNL A   1      46.240  24.385  27.539  1.00  0.00     0.029 A 
ATOM     64  N   UNL A   1      45.686  26.414  28.260  1.00  0.00    -0.354 N 
ATOM     65  N   UNL A   1      46.230  29.157  29.182  1.00  0.00    -0.248 NA
ATOM     66  C   UNL A   1      47.744  30.830  29.788  1.00  0.00     0.031 C 
ATOM     67  C   UNL A   1      47.414  25.097  27.804  1.00  0.00     0.029 A 
ATOM     68  C   UNL A   1      47.069  26.369  28.234  1.00  0.00     0.049 A 
ATOM     69  H   UNL A   1      45.151  27.194  28.535  1.00  0.00     0.167 HD
ATOM     70  C   UNL A   1      47.525  28.682  29.010  1.00  0.00     0.074 A 
ATOM     71  C   UNL A   1      48.416  29.766  29.371  1.00  0.00     0.031 C 
ATOM     72  C   UNL A   1      47.939  27.461  28.591  1.00  0.00     0.037 A 
BRANCH  59  73
ATOM     73  C   UNL A   1      43.346  23.510  27.342  1.00  0.00     0.058 A 
ATOM     74  C   UNL A   1      42.889  22.566  28.274  1.00  0.00     0.135 A 
ATOM     75  C   UNL A   1      43.384  23.129  25.991  1.00  0.00     0.135 A 
ATOM     76  F   UNL A   1      42.849  22.871  29.582  1.00  0.00    -0.206 F 
ATOM     77  C   UNL A   1      42.515  21.283  27.890  1.00  0.00     0.059 A 
ATOM     78  C   UNL A   1      42.988  21.860  25.578  1.00  0.00     0.059 A 
ATOM     79  F   UNL A   1      43.814  23.991  25.057  1.00  0.00    -0.206 F 
ATOM     80  C   UNL A   1      42.571  20.939  26.538  1.00  0.00     0.060 A 
BRANCH  80  81
ATOM     81  S   UNL A   1      42.078  19.271  26.054  1.00  0.00     0.124 S 
ATOM     82  O   UNL A   1      42.454  18.502  27.235  1.00  0.00    -0.237 OA
ATOM     83  O   UNL A   1      40.644  19.422  25.826  1.00  0.00    -0.237 OA
ATOM     84  O   UNL A   1      42.874  19.016  24.857  1.00  0.00    -0.744 OA
ENDBRANCH  80  81
ENDBRANCH  59  73
BRANCH  60  85
ATOM     85  C   UNL A   1      45.622  32.755  30.420  1.00  0.00     0.058 A 
ATOM     86  C   UNL A   1      45.761  33.025  31.789  1.00  0.00     0.135 A 
ATOM     87  C   UNL A   1      45.835  33.811  29.520  1.00  0.00     0.135 A 
ATOM     88  F   UNL A   1      45.563  32.049  32.688  1.00  0.00    -0.206 F 
ATOM     89  C   UNL A   1      46.079  34.297  32.254  1.00  0.00     0.059 A 
ATOM     90  C   UNL A   1      46.178  35.086  29.958  1.00  0.00     0.059 A 
ATOM     91  F   UNL A   1      45.733  33.600  28.199  1.00  0.00    -0.206 F 
ATOM     92  C   UNL A   1      46.288  35.321  31.329  1.00  0.00     0.060 A 
BRANCH  92  93
ATOM     93  S   UNL A   1      46.753  36.958  31.937  1.00  0.00     0.124 S 
ATOM     94  O   UNL A   1      47.406  36.628  33.199  1.00  0.00    -0.237 OA
ATOM     95  O   UNL A   1      47.626  37.444  30.874  1.00  0.00    -0.237 OA
ATOM     96  O   UNL A   1      45.472  37.649  32.050  1.00  0.00    -0.744 OA
ENDBRANCH  92  93
ENDBRANCH  60  85
BRANCH  72  97
ATOM     97  C   UNL A   1      49.421  27.241  28.469  1.00  0.00     0.058 A 
ATOM     98  C   UNL A   1      50.170  26.678  29.513  1.00  0.00     0.135 A 
ATOM     99  C   UNL A   1      50.090  27.556  27.275  1.00  0.00     0.135 A 
ATOM    100  F   UNL A   1      49.579  26.364  30.677  1.00  0.00    -0.206 F 
ATOM    101  C   UNL A   1      51.538  26.460  29.388  1.00  0.00     0.059 A 
ATOM    102  C   UNL A   1      51.452  27.322  27.118  1.00  0.00     0.059 A 
ATOM    103  F   UNL A   1      49.416  28.086  26.242  1.00  0.00    -0.206 F 
ATOM    104  C   UNL A   1      52.170  26.786  28.186  1.00  0.00     0.060 A 
BRANCH 104 105
ATOM    105  S   UNL A   1      53.941  26.475  28.026  1.00  0.00     0.124 S 
ATOM    106  O   UNL A   1      53.955  25.272  27.201  1.00  0.00    -0.237 OA
ATOM    107  O   UNL A   1      54.416  27.695  27.377  1.00  0.00    -0.237 OA
ATOM    108  O   UNL A   1      54.380  26.296  29.407  1.00  0.00    -0.744 OA
ENDBRANCH 104 105
ENDBRANCH  72  97
ENDBRANCH  46  47
ENDBRANCH  38  41
ENDBRANCH  36  37
ENDBRANCH  35  36
ENDBRANCH   1  35
TORSDOF 19
ENDMDL
