MODEL 1
REMARK VINA RESULT:     -13.3      0.000      0.000
REMARK SMILES Cc1ccccc1OCC(=O)c1nc(C)c(C(=O)NCCCNC(=O)c2ccc(-c3c4nc(c(-c5c(F)cc(S(=O)(=O)[O-])cc5F)c5ccc([nH]5)c(-c5c(F)cc(S(=O)(=O)[O-])cc5F)c5nc(c(-c6c(F)cc(S(=O)(=O)[O-])cc6F)c6ccc3[nH]6)C=C5)C=C4)cc2)s1
REMARK SMILES IDX 20 1 19 2 17 3 18 4 16 6 12 7 13 8 92 9 14 10 15 11 10 12
REMARK SMILES IDX 11 13 9 14 8 15 7 16 1 17 2 18 3 19 4 20 6 21 5 22 21 23
REMARK SMILES IDX 22 24 23 25 24 26 25 28 26 29 27 30 91 31 28 32 90 33 29 34
REMARK SMILES IDX 30 35 31 36 84 37 32 38 89 39 83 40 85 41 33 42 88 43 82 44
REMARK SMILES IDX 81 45 34 47 68 48 47 49 67 50 48 51 51 52 66 53 86 54 49 55
REMARK SMILES IDX 50 56 65 58 87 59 52 60 35 61 36 62 45 63 37 64 38 65 44 66
REMARK SMILES IDX 46 67 39 68 40 69 41 70 42 71 43 72 69 73 70 74 79 75 71 76
REMARK SMILES IDX 72 77 78 78 80 79 73 80 74 81 75 82 76 83 77 84 53 85 54 86
REMARK SMILES IDX 63 87 55 88 56 89 62 90 64 91 57 92 58 93 59 94 60 95 61 96
REMARK H PARENT 19 5 23 27 85 46 51 57
REMARK Flexibility Score: inf
ROOT
ATOM      1  C   UNL A   1      32.540  29.229  26.112  1.00  0.00     0.118 C 
ENDROOT
BRANCH   1   2
ATOM      2  N   UNL A   1      31.589  29.740  25.147  1.00  0.00    -0.351 N 
ATOM      3  C   UNL A   1      30.857  29.206  24.118  1.00  0.00     0.263 C 
ATOM      4  O   UNL A   1      30.071  30.034  23.635  1.00  0.00    -0.268 OA
ATOM      5  H   UNL A   1      31.429  30.705  25.256  1.00  0.00     0.163 HD
BRANCH   3   6
ATOM      6  C   UNL A   1      30.940  27.838  23.592  1.00  0.00     0.115 A 
ATOM      7  C   UNL A   1      31.950  25.927  22.370  1.00  0.00     0.164 A 
ATOM      8  N   UNL A   1      30.812  25.586  22.919  1.00  0.00    -0.237 NA
ATOM      9  S   UNL A   1      32.395  27.537  22.642  1.00  0.00    -0.105 S 
ATOM     10  C   UNL A   1      30.231  26.637  23.626  1.00  0.00     0.062 A 
ATOM     11  C   UNL A   1      28.985  26.211  24.302  1.00  0.00     0.068 C 
BRANCH   7  12
ATOM     12  C   UNL A   1      32.733  24.946  21.629  1.00  0.00     0.228 C 
ATOM     13  O   UNL A   1      33.339  25.229  20.584  1.00  0.00    -0.288 OA
BRANCH  12  14
ATOM     14  C   UNL A   1      32.762  23.483  22.077  1.00  0.00     0.313 C 
BRANCH  14  15
ATOM     15  O   UNL A   1      33.094  23.098  23.382  1.00  0.00    -0.485 OA
BRANCH  15  16
ATOM     16  C   UNL A   1      34.259  23.412  24.011  1.00  0.00     0.122 A 
ATOM     17  C   UNL A   1      33.528  25.049  25.887  1.00  0.00     0.048 C 
ATOM     18  C   UNL A   1      34.527  24.243  25.109  1.00  0.00    -0.009 A 
ATOM     19  C   UNL A   1      35.857  24.311  25.584  1.00  0.00     0.007 A 
ATOM     20  C   UNL A   1      36.902  23.622  24.968  1.00  0.00     0.001 A 
ATOM     21  C   UNL A   1      35.329  22.735  23.394  1.00  0.00     0.047 A 
ATOM     22  C   UNL A   1      36.638  22.838  23.858  1.00  0.00     0.004 A 
ENDBRANCH  15  16
ENDBRANCH  14  15
ENDBRANCH  12  14
ENDBRANCH   7  12
ENDBRANCH   3   6
ENDBRANCH   1   2
BRANCH   1  23
ATOM     23  C   UNL A   1      33.251  30.337  26.878  1.00  0.00     0.042 C 
BRANCH  23  24
ATOM     24  C   UNL A   1      34.566  29.919  27.517  1.00  0.00     0.118 C 
BRANCH  24  25
ATOM     25  N   UNL A   1      35.312  31.076  28.011  1.00  0.00    -0.352 N 
ATOM     26  C   UNL A   1      36.533  31.095  28.666  1.00  0.00     0.251 C 
ATOM     27  H   UNL A   1      34.892  31.955  27.859  1.00  0.00     0.163 HD
ATOM     28  O   UNL A   1      36.997  32.085  29.180  1.00  0.00    -0.269 OA
BRANCH  26  29
ATOM     29  C   UNL A   1      37.301  29.838  28.588  1.00  0.00     0.039 A 
ATOM     30  C   UNL A   1      37.458  29.134  29.787  1.00  0.00     0.014 A 
ATOM     31  C   UNL A   1      38.138  29.635  27.495  1.00  0.00     0.014 A 
ATOM     32  C   UNL A   1      38.590  28.348  29.962  1.00  0.00     0.010 A 
ATOM     33  C   UNL A   1      39.301  28.924  27.705  1.00  0.00     0.010 A 
ATOM     34  C   UNL A   1      39.550  28.325  28.953  1.00  0.00    -0.014 A 
BRANCH  34  35
ATOM     35  C   UNL A   1      40.883  27.761  29.129  1.00  0.00     0.031 A 
ATOM     36  C   UNL A   1      41.151  26.379  28.672  1.00  0.00     0.074 A 
ATOM     37  C   UNL A   1      41.882  28.517  29.633  1.00  0.00     0.049 A 
ATOM     38  N   UNL A   1      42.157  25.660  29.040  1.00  0.00    -0.248 NA
ATOM     39  C   UNL A   1      40.242  25.672  27.778  1.00  0.00     0.031 C 
ATOM     40  C   UNL A   1      43.314  28.249  29.548  1.00  0.00     0.029 A 
ATOM     41  N   UNL A   1      41.791  29.608  30.494  1.00  0.00    -0.354 N 
ATOM     42  C   UNL A   1      42.178  24.525  28.258  1.00  0.00     0.074 A 
ATOM     43  C   UNL A   1      40.937  24.561  27.522  1.00  0.00     0.031 C 
ATOM     44  C   UNL A   1      43.954  28.985  30.469  1.00  0.00     0.029 A 
ATOM     45  C   UNL A   1      42.945  29.630  31.293  1.00  0.00     0.049 A 
ATOM     46  H   UNL A   1      41.047  30.252  30.536  1.00  0.00     0.167 HD
ATOM     47  C   UNL A   1      43.302  23.751  28.231  1.00  0.00     0.037 A 
ATOM     48  C   UNL A   1      42.868  29.495  32.651  1.00  0.00     0.037 A 
ATOM     49  C   UNL A   1      44.282  24.221  29.209  1.00  0.00     0.049 A 
ATOM     50  C   UNL A   1      43.529  28.245  33.187  1.00  0.00     0.074 A 
ATOM     51  C   UNL A   1      45.377  25.064  29.103  1.00  0.00     0.029 A 
ATOM     52  N   UNL A   1      44.019  24.090  30.569  1.00  0.00    -0.354 N 
ATOM     53  N   UNL A   1      43.885  27.231  32.447  1.00  0.00    -0.248 NA
ATOM     54  C   UNL A   1      43.816  28.028  34.603  1.00  0.00     0.031 C 
ATOM     55  C   UNL A   1      45.717  25.508  30.404  1.00  0.00     0.029 A 
ATOM     56  C   UNL A   1      44.848  24.918  31.305  1.00  0.00     0.049 A 
ATOM     57  H   UNL A   1      43.338  23.492  30.954  1.00  0.00     0.167 HD
ATOM     58  C   UNL A   1      44.366  26.228  33.246  1.00  0.00     0.074 A 
ATOM     59  C   UNL A   1      44.340  26.789  34.584  1.00  0.00     0.031 C 
ATOM     60  C   UNL A   1      44.725  25.006  32.752  1.00  0.00     0.037 A 
BRANCH  47  61
ATOM     61  C   UNL A   1      43.623  22.778  27.108  1.00  0.00     0.058 A 
ATOM     62  C   UNL A   1      42.905  21.568  26.976  1.00  0.00     0.135 A 
ATOM     63  C   UNL A   1      44.673  22.932  26.181  1.00  0.00     0.135 A 
ATOM     64  F   UNL A   1      41.808  21.321  27.705  1.00  0.00    -0.206 F 
ATOM     65  C   UNL A   1      43.282  20.548  26.098  1.00  0.00     0.059 A 
ATOM     66  C   UNL A   1      45.109  21.904  25.336  1.00  0.00     0.059 A 
ATOM     67  F   UNL A   1      45.287  24.111  26.013  1.00  0.00    -0.206 F 
ATOM     68  C   UNL A   1      44.413  20.706  25.312  1.00  0.00     0.060 A 
BRANCH  68  69
ATOM     69  S   UNL A   1      44.944  19.342  24.259  1.00  0.00     0.124 S 
ATOM     70  O   UNL A   1      46.387  19.329  24.476  1.00  0.00    -0.237 OA
ATOM     71  O   UNL A   1      44.206  18.219  24.823  1.00  0.00    -0.237 OA
ATOM     72  O   UNL A   1      44.524  19.761  22.924  1.00  0.00    -0.744 OA
ENDBRANCH  68  69
ENDBRANCH  47  61
BRANCH  48  73
ATOM     73  C   UNL A   1      41.667  30.146  33.240  1.00  0.00     0.058 A 
ATOM     74  C   UNL A   1      41.727  31.534  33.463  1.00  0.00     0.135 A 
ATOM     75  C   UNL A   1      40.400  29.554  33.145  1.00  0.00     0.135 A 
ATOM     76  F   UNL A   1      42.917  32.145  33.585  1.00  0.00    -0.206 F 
ATOM     77  C   UNL A   1      40.590  32.329  33.406  1.00  0.00     0.059 A 
ATOM     78  C   UNL A   1      39.243  30.335  33.090  1.00  0.00     0.059 A 
ATOM     79  F   UNL A   1      40.283  28.233  32.945  1.00  0.00    -0.206 F 
ATOM     80  C   UNL A   1      39.363  31.724  33.142  1.00  0.00     0.060 A 
BRANCH  80  81
ATOM     81  S   UNL A   1      37.992  32.800  32.654  1.00  0.00     0.124 S 
ATOM     82  O   UNL A   1      37.799  33.608  33.851  1.00  0.00    -0.237 OA
ATOM     83  O   UNL A   1      38.564  33.501  31.504  1.00  0.00    -0.237 OA
ATOM     84  O   UNL A   1      36.922  31.858  32.345  1.00  0.00    -0.744 OA
ENDBRANCH  80  81
ENDBRANCH  48  73
BRANCH  60  85
ATOM     85  C   UNL A   1      45.074  23.813  33.600  1.00  0.00     0.058 A 
ATOM     86  C   UNL A   1      44.140  22.838  33.989  1.00  0.00     0.135 A 
ATOM     87  C   UNL A   1      46.419  23.554  33.948  1.00  0.00     0.135 A 
ATOM     88  F   UNL A   1      42.853  22.922  33.618  1.00  0.00    -0.206 F 
ATOM     89  C   UNL A   1      44.498  21.722  34.745  1.00  0.00     0.059 A 
ATOM     90  C   UNL A   1      46.807  22.420  34.658  1.00  0.00     0.059 A 
ATOM     91  F   UNL A   1      47.402  24.398  33.600  1.00  0.00    -0.206 F 
ATOM     92  C   UNL A   1      45.833  21.525  35.082  1.00  0.00     0.060 A 
BRANCH  92  93
ATOM     93  S   UNL A   1      46.312  20.072  36.036  1.00  0.00     0.124 S 
ATOM     94  O   UNL A   1      47.766  20.194  36.038  1.00  0.00    -0.237 OA
ATOM     95  O   UNL A   1      45.660  20.296  37.323  1.00  0.00    -0.237 OA
ATOM     96  O   UNL A   1      45.770  18.968  35.251  1.00  0.00    -0.744 OA
ENDBRANCH  92  93
ENDBRANCH  60  85
ENDBRANCH  34  35
ENDBRANCH  26  29
ENDBRANCH  24  25
ENDBRANCH  23  24
ENDBRANCH   1  23
TORSDOF 17
ENDMDL
MODEL 2
REMARK VINA RESULT:     -12.9      4.947     11.488
REMARK SMILES Cc1ccccc1OCC(=O)c1nc(C)c(C(=O)NCCCNC(=O)c2ccc(-c3c4nc(c(-c5c(F)cc(S(=O)(=O)[O-])cc5F)c5ccc([nH]5)c(-c5c(F)cc(S(=O)(=O)[O-])cc5F)c5nc(c(-c6c(F)cc(S(=O)(=O)[O-])cc6F)c6ccc3[nH]6)C=C5)C=C4)cc2)s1
REMARK SMILES IDX 20 1 19 2 17 3 18 4 16 6 12 7 13 8 92 9 14 10 15 11 10 12
REMARK SMILES IDX 11 13 9 14 8 15 7 16 1 17 2 18 3 19 4 20 6 21 5 22 21 23
REMARK SMILES IDX 22 24 23 25 24 26 25 28 26 29 27 30 91 31 28 32 90 33 29 34
REMARK SMILES IDX 30 35 31 36 84 37 32 38 89 39 83 40 85 41 33 42 88 43 82 44
REMARK SMILES IDX 81 45 34 47 68 48 47 49 67 50 48 51 51 52 66 53 86 54 49 55
REMARK SMILES IDX 50 56 65 58 87 59 52 60 35 61 36 62 45 63 37 64 38 65 44 66
REMARK SMILES IDX 46 67 39 68 40 69 41 70 42 71 43 72 69 73 70 74 79 75 71 76
REMARK SMILES IDX 72 77 78 78 80 79 73 80 74 81 75 82 76 83 77 84 53 85 54 86
REMARK SMILES IDX 63 87 55 88 56 89 62 90 64 91 57 92 58 93 59 94 60 95 61 96
REMARK H PARENT 19 5 23 27 85 46 51 57
REMARK Flexibility Score: inf
ROOT
ATOM      1  C   UNL A   1      37.395  21.118  24.993  1.00  0.00     0.118 C 
ENDROOT
BRANCH   1   2
ATOM      2  N   UNL A   1      36.247  20.235  25.022  1.00  0.00    -0.351 N 
ATOM      3  C   UNL A   1      34.888  20.394  24.954  1.00  0.00     0.263 C 
ATOM      4  O   UNL A   1      34.299  19.305  24.902  1.00  0.00    -0.268 OA
ATOM      5  H   UNL A   1      36.508  19.290  25.113  1.00  0.00     0.163 HD
BRANCH   3   6
ATOM      6  C   UNL A   1      34.147  21.662  24.945  1.00  0.00     0.115 A 
ATOM      7  C   UNL A   1      32.556  23.374  25.783  1.00  0.00     0.164 A 
ATOM      8  N   UNL A   1      33.141  23.774  24.682  1.00  0.00    -0.237 NA
ATOM      9  S   UNL A   1      33.040  21.839  26.306  1.00  0.00    -0.105 S 
ATOM     10  C   UNL A   1      34.052  22.837  24.199  1.00  0.00     0.062 A 
ATOM     11  C   UNL A   1      34.757  23.338  22.997  1.00  0.00     0.068 C 
BRANCH   7  12
ATOM     12  C   UNL A   1      31.605  24.241  26.467  1.00  0.00     0.228 C 
ATOM     13  O   UNL A   1      30.788  23.811  27.295  1.00  0.00    -0.288 OA
BRANCH  12  14
ATOM     14  C   UNL A   1      31.522  25.728  26.114  1.00  0.00     0.313 C 
BRANCH  14  15
ATOM     15  O   UNL A   1      32.658  26.523  25.914  1.00  0.00    -0.485 OA
BRANCH  15  16
ATOM     16  C   UNL A   1      32.693  27.875  26.056  1.00  0.00     0.122 A 
ATOM     17  C   UNL A   1      30.883  28.718  24.399  1.00  0.00     0.048 C 
ATOM     18  C   UNL A   1      31.948  28.893  25.442  1.00  0.00    -0.009 A 
ATOM     19  C   UNL A   1      32.168  30.226  25.862  1.00  0.00     0.007 A 
ATOM     20  C   UNL A   1      33.126  30.553  26.821  1.00  0.00     0.001 A 
ATOM     21  C   UNL A   1      33.664  28.227  27.014  1.00  0.00     0.047 A 
ATOM     22  C   UNL A   1      33.887  29.549  27.392  1.00  0.00     0.004 A 
ENDBRANCH  15  16
ENDBRANCH  14  15
ENDBRANCH  12  14
ENDBRANCH   7  12
ENDBRANCH   3   6
ENDBRANCH   1   2
BRANCH   1  23
ATOM     23  C   UNL A   1      37.328  22.202  26.060  1.00  0.00     0.042 C 
BRANCH  23  24
ATOM     24  C   UNL A   1      38.312  23.345  25.861  1.00  0.00     0.118 C 
BRANCH  24  25
ATOM     25  N   UNL A   1      39.578  23.085  26.547  1.00  0.00    -0.352 N 
ATOM     26  C   UNL A   1      40.401  23.988  27.200  1.00  0.00     0.251 C 
ATOM     27  H   UNL A   1      39.885  22.149  26.543  1.00  0.00     0.163 HD
ATOM     28  O   UNL A   1      41.507  23.712  27.600  1.00  0.00    -0.269 OA
BRANCH  26  29
ATOM     29  C   UNL A   1      39.782  25.295  27.494  1.00  0.00     0.039 A 
ATOM     30  C   UNL A   1      40.206  26.371  26.705  1.00  0.00     0.014 A 
ATOM     31  C   UNL A   1      39.167  25.480  28.728  1.00  0.00     0.014 A 
ATOM     32  C   UNL A   1      40.186  27.651  27.244  1.00  0.00     0.010 A 
ATOM     33  C   UNL A   1      39.229  26.739  29.290  1.00  0.00     0.010 A 
ATOM     34  C   UNL A   1      39.784  27.810  28.568  1.00  0.00    -0.014 A 
BRANCH  34  35
ATOM     35  C   UNL A   1      39.973  29.047  29.318  1.00  0.00     0.031 A 
ATOM     36  C   UNL A   1      38.930  30.096  29.258  1.00  0.00     0.074 A 
ATOM     37  C   UNL A   1      41.048  29.201  30.120  1.00  0.00     0.049 A 
ATOM     38  N   UNL A   1      39.101  31.329  29.598  1.00  0.00    -0.248 NA
ATOM     39  C   UNL A   1      37.594  29.828  28.742  1.00  0.00     0.031 C 
ATOM     40  C   UNL A   1      41.215  30.183  31.186  1.00  0.00     0.029 A 
ATOM     41  N   UNL A   1      42.302  28.604  30.008  1.00  0.00    -0.354 N 
ATOM     42  C   UNL A   1      37.868  31.945  29.599  1.00  0.00     0.074 A 
ATOM     43  C   UNL A   1      36.972  30.978  29.013  1.00  0.00     0.031 C 
ATOM     44  C   UNL A   1      42.518  30.287  31.488  1.00  0.00     0.029 A 
ATOM     45  C   UNL A   1      43.257  29.500  30.515  1.00  0.00     0.049 A 
ATOM     46  H   UNL A   1      42.487  27.711  29.638  1.00  0.00     0.167 HD
ATOM     47  C   UNL A   1      37.725  33.157  30.211  1.00  0.00     0.037 A 
ATOM     48  C   UNL A   1      44.248  30.004  29.719  1.00  0.00     0.037 A 
ATOM     49  C   UNL A   1      39.020  33.673  30.654  1.00  0.00     0.049 A 
ATOM     50  C   UNL A   1      44.173  31.500  29.511  1.00  0.00     0.074 A 
ATOM     51  C   UNL A   1      39.681  33.616  31.871  1.00  0.00     0.029 A 
ATOM     52  N   UNL A   1      39.964  34.069  29.713  1.00  0.00    -0.354 N 
ATOM     53  N   UNL A   1      43.128  32.227  29.796  1.00  0.00    -0.248 NA
ATOM     54  C   UNL A   1      45.261  32.291  28.941  1.00  0.00     0.031 C 
ATOM     55  C   UNL A   1      41.050  33.896  31.640  1.00  0.00     0.029 A 
ATOM     56  C   UNL A   1      41.220  34.149  30.290  1.00  0.00     0.049 A 
ATOM     57  H   UNL A   1      39.767  34.265  28.768  1.00  0.00     0.167 HD
ATOM     58  C   UNL A   1      43.351  33.521  29.405  1.00  0.00     0.074 A 
ATOM     59  C   UNL A   1      44.715  33.519  28.912  1.00  0.00     0.031 C 
ATOM     60  C   UNL A   1      42.389  34.488  29.493  1.00  0.00     0.037 A 
BRANCH  47  61
ATOM     61  C   UNL A   1      36.387  33.707  30.678  1.00  0.00     0.058 A 
ATOM     62  C   UNL A   1      35.441  34.188  29.745  1.00  0.00     0.135 A 
ATOM     63  C   UNL A   1      36.005  33.868  32.024  1.00  0.00     0.135 A 
ATOM     64  F   UNL A   1      35.602  34.006  28.427  1.00  0.00    -0.206 F 
ATOM     65  C   UNL A   1      34.289  34.886  30.115  1.00  0.00     0.059 A 
ATOM     66  C   UNL A   1      34.891  34.617  32.423  1.00  0.00     0.059 A 
ATOM     67  F   UNL A   1      36.667  33.255  33.015  1.00  0.00    -0.206 F 
ATOM     68  C   UNL A   1      34.043  35.136  31.457  1.00  0.00     0.060 A 
BRANCH  68  69
ATOM     69  S   UNL A   1      32.606  36.125  31.914  1.00  0.00     0.124 S 
ATOM     70  O   UNL A   1      32.242  36.744  30.644  1.00  0.00    -0.237 OA
ATOM     71  O   UNL A   1      31.686  35.110  32.413  1.00  0.00    -0.237 OA
ATOM     72  O   UNL A   1      33.132  37.043  32.920  1.00  0.00    -0.744 OA
ENDBRANCH  68  69
ENDBRANCH  47  61
BRANCH  48  73
ATOM     73  C   UNL A   1      44.751  29.027  28.717  1.00  0.00     0.058 A 
ATOM     74  C   UNL A   1      44.282  29.155  27.397  1.00  0.00     0.135 A 
ATOM     75  C   UNL A   1      45.953  28.333  28.918  1.00  0.00     0.135 A 
ATOM     76  F   UNL A   1      43.124  29.791  27.153  1.00  0.00    -0.206 F 
ATOM     77  C   UNL A   1      45.059  28.777  26.309  1.00  0.00     0.059 A 
ATOM     78  C   UNL A   1      46.748  27.941  27.839  1.00  0.00     0.059 A 
ATOM     79  F   UNL A   1      46.441  28.171  30.156  1.00  0.00    -0.206 F 
ATOM     80  C   UNL A   1      46.323  28.242  26.543  1.00  0.00     0.060 A 
BRANCH  80  81
ATOM     81  S   UNL A   1      47.466  28.161  25.143  1.00  0.00     0.124 S 
ATOM     82  O   UNL A   1      48.608  28.920  25.638  1.00  0.00    -0.237 OA
ATOM     83  O   UNL A   1      47.674  26.718  25.016  1.00  0.00    -0.237 OA
ATOM     84  O   UNL A   1      46.713  28.783  24.060  1.00  0.00    -0.744 OA
ENDBRANCH  80  81
ENDBRANCH  48  73
BRANCH  60  85
ATOM     85  C   UNL A   1      42.512  35.867  28.904  1.00  0.00     0.058 A 
ATOM     86  C   UNL A   1      43.240  36.906  29.508  1.00  0.00     0.135 A 
ATOM     87  C   UNL A   1      41.985  36.146  27.623  1.00  0.00     0.135 A 
ATOM     88  F   UNL A   1      43.880  36.719  30.673  1.00  0.00    -0.206 F 
ATOM     89  C   UNL A   1      43.368  38.165  28.923  1.00  0.00     0.059 A 
ATOM     90  C   UNL A   1      42.144  37.380  26.997  1.00  0.00     0.059 A 
ATOM     91  F   UNL A   1      41.300  35.219  26.937  1.00  0.00    -0.206 F 
ATOM     92  C   UNL A   1      42.810  38.396  27.669  1.00  0.00     0.060 A 
BRANCH  92  93
ATOM     93  S   UNL A   1      42.992  40.011  26.890  1.00  0.00     0.124 S 
ATOM     94  O   UNL A   1      44.128  39.778  26.004  1.00  0.00    -0.237 OA
ATOM     95  O   UNL A   1      41.706  40.202  26.227  1.00  0.00    -0.237 OA
ATOM     96  O   UNL A   1      43.243  40.898  28.022  1.00  0.00    -0.744 OA
ENDBRANCH  92  93
ENDBRANCH  60  85
ENDBRANCH  34  35
ENDBRANCH  26  29
ENDBRANCH  24  25
ENDBRANCH  23  24
ENDBRANCH   1  23
TORSDOF 17
ENDMDL
MODEL 3
REMARK VINA RESULT:     -12.9      4.567     11.325
REMARK SMILES Cc1ccccc1OCC(=O)c1nc(C)c(C(=O)NCCCNC(=O)c2ccc(-c3c4nc(c(-c5c(F)cc(S(=O)(=O)[O-])cc5F)c5ccc([nH]5)c(-c5c(F)cc(S(=O)(=O)[O-])cc5F)c5nc(c(-c6c(F)cc(S(=O)(=O)[O-])cc6F)c6ccc3[nH]6)C=C5)C=C4)cc2)s1
REMARK SMILES IDX 20 1 19 2 17 3 18 4 16 6 12 7 13 8 92 9 14 10 15 11 10 12
REMARK SMILES IDX 11 13 9 14 8 15 7 16 1 17 2 18 3 19 4 20 6 21 5 22 21 23
REMARK SMILES IDX 22 24 23 25 24 26 25 28 26 29 27 30 91 31 28 32 90 33 29 34
REMARK SMILES IDX 30 35 31 36 84 37 32 38 89 39 83 40 85 41 33 42 88 43 82 44
REMARK SMILES IDX 81 45 34 47 68 48 47 49 67 50 48 51 51 52 66 53 86 54 49 55
REMARK SMILES IDX 50 56 65 58 87 59 52 60 35 61 36 62 45 63 37 64 38 65 44 66
REMARK SMILES IDX 46 67 39 68 40 69 41 70 42 71 43 72 69 73 70 74 79 75 71 76
REMARK SMILES IDX 72 77 78 78 80 79 73 80 74 81 75 82 76 83 77 84 53 85 54 86
REMARK SMILES IDX 63 87 55 88 56 89 62 90 64 91 57 92 58 93 59 94 60 95 61 96
REMARK H PARENT 19 5 23 27 85 46 51 57
REMARK Flexibility Score: inf
ROOT
ATOM      1  C   UNL A   1      36.570  22.025  25.157  1.00  0.00     0.118 C 
ENDROOT
BRANCH   1   2
ATOM      2  N   UNL A   1      35.637  22.517  26.150  1.00  0.00    -0.351 N 
ATOM      3  C   UNL A   1      34.412  23.131  26.122  1.00  0.00     0.263 C 
ATOM      4  O   UNL A   1      33.938  23.263  27.259  1.00  0.00    -0.268 OA
ATOM      5  H   UNL A   1      35.963  22.377  27.068  1.00  0.00     0.163 HD
BRANCH   3   6
ATOM      6  C   UNL A   1      33.691  23.608  24.936  1.00  0.00     0.115 A 
ATOM      7  C   UNL A   1      33.059  25.209  23.147  1.00  0.00     0.164 A 
ATOM      8  N   UNL A   1      32.418  24.075  23.011  1.00  0.00    -0.237 NA
ATOM      9  S   UNL A   1      34.108  25.257  24.473  1.00  0.00    -0.105 S 
ATOM     10  C   UNL A   1      32.767  23.152  23.995  1.00  0.00     0.062 A 
ATOM     11  C   UNL A   1      32.090  21.853  23.781  1.00  0.00     0.068 C 
BRANCH   7  12
ATOM     12  C   UNL A   1      32.864  26.284  22.182  1.00  0.00     0.228 C 
ATOM     13  O   UNL A   1      33.543  26.383  21.149  1.00  0.00    -0.288 OA
BRANCH  12  14
ATOM     14  C   UNL A   1      31.853  27.399  22.461  1.00  0.00     0.313 C 
BRANCH  14  15
ATOM     15  O   UNL A   1      30.909  27.324  23.493  1.00  0.00    -0.485 OA
BRANCH  15  16
ATOM     16  C   UNL A   1      31.138  27.697  24.781  1.00  0.00     0.122 A 
ATOM     17  C   UNL A   1      30.698  25.531  26.140  1.00  0.00     0.048 C 
ATOM     18  C   UNL A   1      31.077  26.974  25.982  1.00  0.00    -0.009 A 
ATOM     19  C   UNL A   1      31.449  27.635  27.177  1.00  0.00     0.007 A 
ATOM     20  C   UNL A   1      31.823  28.978  27.197  1.00  0.00     0.001 A 
ATOM     21  C   UNL A   1      31.506  29.056  24.824  1.00  0.00     0.047 A 
ATOM     22  C   UNL A   1      31.840  29.697  26.014  1.00  0.00     0.004 A 
ENDBRANCH  15  16
ENDBRANCH  14  15
ENDBRANCH  12  14
ENDBRANCH   7  12
ENDBRANCH   3   6
ENDBRANCH   1   2
BRANCH   1  23
ATOM     23  C   UNL A   1      38.001  21.965  25.675  1.00  0.00     0.042 C 
BRANCH  23  24
ATOM     24  C   UNL A   1      38.537  23.289  26.199  1.00  0.00     0.118 C 
BRANCH  24  25
ATOM     25  N   UNL A   1      39.906  23.150  26.696  1.00  0.00    -0.352 N 
ATOM     26  C   UNL A   1      40.764  24.146  27.136  1.00  0.00     0.251 C 
ATOM     27  H   UNL A   1      40.264  22.233  26.721  1.00  0.00     0.163 HD
ATOM     28  O   UNL A   1      41.933  23.958  27.378  1.00  0.00    -0.269 OA
BRANCH  26  29
ATOM     29  C   UNL A   1      40.121  25.444  27.415  1.00  0.00     0.039 A 
ATOM     30  C   UNL A   1      40.537  26.523  26.626  1.00  0.00     0.014 A 
ATOM     31  C   UNL A   1      39.488  25.625  28.640  1.00  0.00     0.014 A 
ATOM     32  C   UNL A   1      40.490  27.805  27.159  1.00  0.00     0.010 A 
ATOM     33  C   UNL A   1      39.522  26.887  29.196  1.00  0.00     0.010 A 
ATOM     34  C   UNL A   1      40.069  27.964  28.477  1.00  0.00    -0.014 A 
BRANCH  34  35
ATOM     35  C   UNL A   1      40.228  29.207  29.222  1.00  0.00     0.031 A 
ATOM     36  C   UNL A   1      39.148  30.218  29.183  1.00  0.00     0.074 A 
ATOM     37  C   UNL A   1      41.313  29.400  30.003  1.00  0.00     0.049 A 
ATOM     38  N   UNL A   1      39.282  31.457  29.519  1.00  0.00    -0.248 NA
ATOM     39  C   UNL A   1      37.812  29.902  28.693  1.00  0.00     0.031 C 
ATOM     40  C   UNL A   1      41.465  30.388  31.066  1.00  0.00     0.029 A 
ATOM     41  N   UNL A   1      42.585  28.848  29.866  1.00  0.00    -0.354 N 
ATOM     42  C   UNL A   1      38.028  32.029  29.544  1.00  0.00     0.074 A 
ATOM     43  C   UNL A   1      37.155  31.030  28.976  1.00  0.00     0.031 C 
ATOM     44  C   UNL A   1      42.770  30.539  31.341  1.00  0.00     0.029 A 
ATOM     45  C   UNL A   1      43.517  29.778  30.354  1.00  0.00     0.049 A 
ATOM     46  H   UNL A   1      42.794  27.961  29.493  1.00  0.00     0.167 HD
ATOM     47  C   UNL A   1      37.854  33.235  30.160  1.00  0.00     0.037 A 
ATOM     48  C   UNL A   1      44.474  30.316  29.539  1.00  0.00     0.037 A 
ATOM     49  C   UNL A   1      39.138  33.797  30.577  1.00  0.00     0.049 A 
ATOM     50  C   UNL A   1      44.342  31.809  29.333  1.00  0.00     0.074 A 
ATOM     51  C   UNL A   1      39.825  33.765  31.780  1.00  0.00     0.029 A 
ATOM     52  N   UNL A   1      40.049  34.226  29.617  1.00  0.00    -0.354 N 
ATOM     53  N   UNL A   1      43.277  32.498  29.638  1.00  0.00    -0.248 NA
ATOM     54  C   UNL A   1      45.390  32.637  28.741  1.00  0.00     0.031 C 
ATOM     55  C   UNL A   1      41.178  34.094  31.522  1.00  0.00     0.029 A 
ATOM     56  C   UNL A   1      41.312  34.352  30.169  1.00  0.00     0.049 A 
ATOM     57  H   UNL A   1      39.827  34.415  28.677  1.00  0.00     0.167 HD
ATOM     58  C   UNL A   1      43.446  33.798  29.243  1.00  0.00     0.074 A 
ATOM     59  C   UNL A   1      44.799  33.845  28.722  1.00  0.00     0.031 C 
ATOM     60  C   UNL A   1      42.453  34.730  29.349  1.00  0.00     0.037 A 
BRANCH  47  61
ATOM     61  C   UNL A   1      36.507  33.738  30.653  1.00  0.00     0.058 A 
ATOM     62  C   UNL A   1      35.528  34.189  29.739  1.00  0.00     0.135 A 
ATOM     63  C   UNL A   1      36.144  33.882  32.006  1.00  0.00     0.135 A 
ATOM     64  F   UNL A   1      35.671  34.018  28.417  1.00  0.00    -0.206 F 
ATOM     65  C   UNL A   1      34.360  34.846  30.132  1.00  0.00     0.059 A 
ATOM     66  C   UNL A   1      35.013  34.590  32.427  1.00  0.00     0.059 A 
ATOM     67  F   UNL A   1      36.844  33.288  32.982  1.00  0.00    -0.206 F 
ATOM     68  C   UNL A   1      34.130  35.083  31.480  1.00  0.00     0.060 A 
BRANCH  68  69
ATOM     69  S   UNL A   1      32.669  36.021  31.966  1.00  0.00     0.124 S 
ATOM     70  O   UNL A   1      31.793  34.977  32.491  1.00  0.00    -0.237 OA
ATOM     71  O   UNL A   1      33.216  36.946  32.951  1.00  0.00    -0.237 OA
ATOM     72  O   UNL A   1      32.223  36.629  30.715  1.00  0.00    -0.744 OA
ENDBRANCH  68  69
ENDBRANCH  47  61
BRANCH  48  73
ATOM     73  C   UNL A   1      44.992  29.357  28.527  1.00  0.00     0.058 A 
ATOM     74  C   UNL A   1      46.077  28.544  28.903  1.00  0.00     0.135 A 
ATOM     75  C   UNL A   1      44.195  28.927  27.457  1.00  0.00     0.135 A 
ATOM     76  F   UNL A   1      46.886  28.923  29.907  1.00  0.00    -0.206 F 
ATOM     77  C   UNL A   1      46.254  27.274  28.369  1.00  0.00     0.059 A 
ATOM     78  C   UNL A   1      44.358  27.655  26.903  1.00  0.00     0.059 A 
ATOM     79  F   UNL A   1      43.154  29.667  27.049  1.00  0.00    -0.206 F 
ATOM     80  C   UNL A   1      45.341  26.812  27.425  1.00  0.00     0.060 A 
BRANCH  80  81
ATOM     81  S   UNL A   1      45.335  25.038  27.069  1.00  0.00     0.124 S 
ATOM     82  O   UNL A   1      46.747  24.774  26.821  1.00  0.00    -0.237 OA
ATOM     83  O   UNL A   1      44.799  24.490  28.316  1.00  0.00    -0.237 OA
ATOM     84  O   UNL A   1      44.456  24.932  25.910  1.00  0.00    -0.744 OA
ENDBRANCH  80  81
ENDBRANCH  48  73
BRANCH  60  85
ATOM     85  C   UNL A   1      42.515  36.113  28.758  1.00  0.00     0.058 A 
ATOM     86  C   UNL A   1      43.254  37.166  29.323  1.00  0.00     0.135 A 
ATOM     87  C   UNL A   1      41.912  36.383  27.509  1.00  0.00     0.135 A 
ATOM     88  F   UNL A   1      43.961  36.990  30.450  1.00  0.00    -0.206 F 
ATOM     89  C   UNL A   1      43.324  38.428  28.735  1.00  0.00     0.059 A 
ATOM     90  C   UNL A   1      42.011  37.620  26.878  1.00  0.00     0.059 A 
ATOM     91  F   UNL A   1      41.209  35.443  26.859  1.00  0.00    -0.206 F 
ATOM     92  C   UNL A   1      42.692  38.649  27.515  1.00  0.00     0.060 A 
BRANCH  92  93
ATOM     93  S   UNL A   1      42.798  40.269  26.731  1.00  0.00     0.124 S 
ATOM     94  O   UNL A   1      43.926  40.078  25.825  1.00  0.00    -0.237 OA
ATOM     95  O   UNL A   1      41.494  40.409  26.091  1.00  0.00    -0.237 OA
ATOM     96  O   UNL A   1      43.036  41.167  27.857  1.00  0.00    -0.744 OA
ENDBRANCH  92  93
ENDBRANCH  60  85
ENDBRANCH  34  35
ENDBRANCH  26  29
ENDBRANCH  24  25
ENDBRANCH  23  24
ENDBRANCH   1  23
TORSDOF 17
ENDMDL
