MODEL 1
REMARK VINA RESULT:     -11.8      0.000      0.000
REMARK SMILES CN(Cc1ccnn1C)C(=O)c1c(C(=O)NCCCNC(=O)c2ccc(-c3c4nc(c(-c5c(F)cc(S(=O)(=O)[O-])cc5F)c5ccc([nH]5)c(-c5c(F)cc(S(=O)(=O)[O-])cc5F)c5nc(c(-c6c(F)cc(S(=O)(=O)[O-])cc6F)c6ccc3[nH]6)C=C5)C=C4)cc2)cnn1C
REMARK SMILES IDX 17 1 16 2 14 3 15 4 13 6 12 7 91 8 89 9 90 10 92 11 10 12
REMARK SMILES IDX 11 13 2 14 1 15 3 16 4 17 5 18 8 19 6 20 7 21 9 22 18 23
REMARK SMILES IDX 19 24 20 25 21 26 22 28 23 29 24 30 88 31 25 32 87 33 26 34
REMARK SMILES IDX 27 35 28 36 81 37 29 38 86 39 80 40 82 41 30 42 85 43 79 44
REMARK SMILES IDX 78 45 31 47 65 48 44 49 64 50 45 51 48 52 63 53 83 54 46 55
REMARK SMILES IDX 47 56 62 58 84 59 49 60 32 61 33 62 42 63 34 64 35 65 41 66
REMARK SMILES IDX 43 67 36 68 37 69 38 70 39 71 40 72 66 73 67 74 76 75 68 76
REMARK SMILES IDX 69 77 75 78 77 79 70 80 71 81 72 82 73 83 74 84 50 85 51 86
REMARK SMILES IDX 60 87 52 88 53 89 59 90 61 91 54 92 55 93 56 94 57 95 58 96
REMARK H PARENT 16 5 20 27 82 46 48 57
REMARK Flexibility Score: inf
ROOT
ATOM      1  C   UNL A   1      34.254  29.737  27.226  1.00  0.00     0.118 C 
ENDROOT
BRANCH   1   2
ATOM      2  N   UNL A   1      33.163  29.007  27.837  1.00  0.00    -0.352 N 
ATOM      3  C   UNL A   1      32.033  28.421  27.339  1.00  0.00     0.255 C 
ATOM      4  O   UNL A   1      31.338  27.820  28.162  1.00  0.00    -0.269 OA
ATOM      5  H   UNL A   1      33.254  28.914  28.813  1.00  0.00     0.163 HD
BRANCH   3   6
ATOM      6  C   UNL A   1      31.667  28.391  25.931  1.00  0.00     0.090 A 
ATOM      7  C   UNL A   1      31.139  27.434  25.063  1.00  0.00     0.138 A 
ATOM      8  N   UNL A   1      30.997  28.075  23.853  1.00  0.00    -0.262 N 
ATOM      9  C   UNL A   1      31.934  29.496  25.077  1.00  0.00     0.149 A 
ATOM     10  N   UNL A   1      31.544  29.301  23.821  1.00  0.00    -0.180 NA
ATOM     11  C   UNL A   1      30.383  27.580  22.642  1.00  0.00     0.174 C 
BRANCH   7  12
ATOM     12  C   UNL A   1      30.747  26.063  25.261  1.00  0.00     0.273 C 
ATOM     13  O   UNL A   1      29.644  25.789  25.731  1.00  0.00    -0.267 OA
BRANCH  12  14
ATOM     14  N   UNL A   1      31.641  25.066  24.871  1.00  0.00    -0.334 N 
ATOM     15  C   UNL A   1      31.211  24.066  23.900  1.00  0.00     0.147 C 
BRANCH  14  16
ATOM     16  C   UNL A   1      33.039  25.009  25.294  1.00  0.00     0.175 C 
BRANCH  16  17
ATOM     17  C   UNL A   1      33.221  23.900  26.281  1.00  0.00     0.057 A 
ATOM     18  C   UNL A   1      32.340  23.270  27.145  1.00  0.00     0.047 A 
ATOM     19  N   UNL A   1      34.433  23.290  26.510  1.00  0.00    -0.271 N 
ATOM     20  C   UNL A   1      33.096  22.291  27.806  1.00  0.00     0.135 A 
ATOM     21  N   UNL A   1      34.365  22.281  27.402  1.00  0.00    -0.181 NA
ATOM     22  C   UNL A   1      35.705  23.586  25.896  1.00  0.00     0.174 C 
ENDBRANCH  16  17
ENDBRANCH  14  16
ENDBRANCH  12  14
ENDBRANCH   7  12
ENDBRANCH   3   6
ENDBRANCH   1   2
BRANCH   1  23
ATOM     23  C   UNL A   1      34.284  31.176  27.739  1.00  0.00     0.042 C 
BRANCH  23  24
ATOM     24  C   UNL A   1      35.584  31.555  28.448  1.00  0.00     0.118 C 
BRANCH  24  25
ATOM     25  N   UNL A   1      35.524  31.271  29.870  1.00  0.00    -0.352 N 
ATOM     26  C   UNL A   1      36.366  30.512  30.646  1.00  0.00     0.251 C 
ATOM     27  H   UNL A   1      34.768  31.683  30.349  1.00  0.00     0.163 HD
ATOM     28  O   UNL A   1      36.020  30.226  31.791  1.00  0.00    -0.269 OA
BRANCH  26  29
ATOM     29  C   UNL A   1      37.668  30.026  30.129  1.00  0.00     0.039 A 
ATOM     30  C   UNL A   1      38.640  29.625  31.054  1.00  0.00     0.014 A 
ATOM     31  C   UNL A   1      37.979  30.045  28.765  1.00  0.00     0.014 A 
ATOM     32  C   UNL A   1      39.908  29.229  30.616  1.00  0.00     0.010 A 
ATOM     33  C   UNL A   1      39.236  29.616  28.326  1.00  0.00     0.010 A 
ATOM     34  C   UNL A   1      40.216  29.219  29.248  1.00  0.00    -0.014 A 
BRANCH  34  35
ATOM     35  C   UNL A   1      41.574  28.836  28.782  1.00  0.00     0.031 A 
ATOM     36  C   UNL A   1      42.676  29.859  28.732  1.00  0.00     0.074 A 
ATOM     37  C   UNL A   1      41.814  27.573  28.381  1.00  0.00     0.049 A 
ATOM     38  N   UNL A   1      43.914  29.721  28.328  1.00  0.00    -0.248 NA
ATOM     39  C   UNL A   1      42.337  31.219  29.178  1.00  0.00     0.031 C 
ATOM     40  C   UNL A   1      40.826  26.494  28.345  1.00  0.00     0.029 A 
ATOM     41  N   UNL A   1      42.966  26.985  27.925  1.00  0.00    -0.354 N 
ATOM     42  C   UNL A   1      44.494  30.978  28.444  1.00  0.00     0.074 A 
ATOM     43  C   UNL A   1      43.467  31.871  28.940  1.00  0.00     0.031 C 
ATOM     44  C   UNL A   1      41.419  25.372  27.907  1.00  0.00     0.029 A 
ATOM     45  C   UNL A   1      42.822  25.654  27.618  1.00  0.00     0.049 A 
ATOM     46  H   UNL A   1      43.818  27.471  27.827  1.00  0.00     0.167 HD
ATOM     47  C   UNL A   1      45.767  31.355  28.173  1.00  0.00     0.037 A 
ATOM     48  C   UNL A   1      43.720  24.760  27.162  1.00  0.00     0.037 A 
ATOM     49  C   UNL A   1      46.802  30.465  27.718  1.00  0.00     0.049 A 
ATOM     50  C   UNL A   1      45.144  25.183  26.939  1.00  0.00     0.074 A 
ATOM     51  C   UNL A   1      48.131  30.749  27.450  1.00  0.00     0.029 A 
ATOM     52  N   UNL A   1      46.629  29.111  27.476  1.00  0.00    -0.354 N 
ATOM     53  N   UNL A   1      45.681  26.370  27.081  1.00  0.00    -0.248 NA
ATOM     54  C   UNL A   1      46.087  24.140  26.507  1.00  0.00     0.031 C 
ATOM     55  C   UNL A   1      48.759  29.566  27.039  1.00  0.00     0.029 A 
ATOM     56  C   UNL A   1      47.824  28.545  27.068  1.00  0.00     0.049 A 
ATOM     57  H   UNL A   1      45.780  28.623  27.580  1.00  0.00     0.167 HD
ATOM     58  C   UNL A   1      47.026  26.218  26.767  1.00  0.00     0.074 A 
ATOM     59  C   UNL A   1      47.224  24.819  26.439  1.00  0.00     0.031 C 
ATOM     60  C   UNL A   1      48.007  27.152  26.751  1.00  0.00     0.037 A 
BRANCH  47  61
ATOM     61  C   UNL A   1      46.105  32.805  28.360  1.00  0.00     0.058 A 
ATOM     62  C   UNL A   1      45.890  33.744  27.339  1.00  0.00     0.135 A 
ATOM     63  C   UNL A   1      46.652  33.260  29.569  1.00  0.00     0.135 A 
ATOM     64  F   UNL A   1      45.384  33.355  26.158  1.00  0.00    -0.206 F 
ATOM     65  C   UNL A   1      46.236  35.082  27.500  1.00  0.00     0.059 A 
ATOM     66  C   UNL A   1      46.990  34.596  29.758  1.00  0.00     0.059 A 
ATOM     67  F   UNL A   1      46.878  32.400  30.575  1.00  0.00    -0.206 F 
ATOM     68  C   UNL A   1      46.796  35.496  28.710  1.00  0.00     0.060 A 
BRANCH  68  69
ATOM     69  S   UNL A   1      47.269  37.228  28.909  1.00  0.00     0.124 S 
ATOM     70  O   UNL A   1      47.152  37.393  30.354  1.00  0.00    -0.237 OA
ATOM     71  O   UNL A   1      48.628  37.253  28.377  1.00  0.00    -0.237 OA
ATOM     72  O   UNL A   1      46.276  37.938  28.110  1.00  0.00    -0.744 OA
ENDBRANCH  68  69
ENDBRANCH  47  61
BRANCH  48  73
ATOM     73  C   UNL A   1      43.300  23.358  26.924  1.00  0.00     0.058 A 
ATOM     74  C   UNL A   1      43.124  22.876  25.619  1.00  0.00     0.135 A 
ATOM     75  C   UNL A   1      43.100  22.469  27.988  1.00  0.00     0.135 A 
ATOM     76  F   UNL A   1      43.300  23.697  24.572  1.00  0.00    -0.206 F 
ATOM     77  C   UNL A   1      42.764  21.556  25.375  1.00  0.00     0.059 A 
ATOM     78  C   UNL A   1      42.753  21.140  27.769  1.00  0.00     0.059 A 
ATOM     79  F   UNL A   1      43.273  22.883  29.253  1.00  0.00    -0.206 F 
ATOM     80  C   UNL A   1      42.582  20.694  26.458  1.00  0.00     0.060 A 
BRANCH  80  81
ATOM     81  S   UNL A   1      42.195  18.958  26.142  1.00  0.00     0.124 S 
ATOM     82  O   UNL A   1      43.121  18.644  25.060  1.00  0.00    -0.237 OA
ATOM     83  O   UNL A   1      42.484  18.332  27.430  1.00  0.00    -0.237 OA
ATOM     84  O   UNL A   1      40.782  18.997  25.780  1.00  0.00    -0.744 OA
ENDBRANCH  80  81
ENDBRANCH  48  73
BRANCH  60  85
ATOM     85  C   UNL A   1      49.384  26.687  26.382  1.00  0.00     0.058 A 
ATOM     86  C   UNL A   1      50.230  26.090  27.329  1.00  0.00     0.135 A 
ATOM     87  C   UNL A   1      49.851  26.815  25.065  1.00  0.00     0.135 A 
ATOM     88  F   UNL A   1      49.829  25.953  28.602  1.00  0.00    -0.206 F 
ATOM     89  C   UNL A   1      51.505  25.651  26.985  1.00  0.00     0.059 A 
ATOM     90  C   UNL A   1      51.117  26.372  24.697  1.00  0.00     0.059 A 
ATOM     91  F   UNL A   1      49.075  27.375  24.125  1.00  0.00    -0.206 F 
ATOM     92  C   UNL A   1      51.941  25.802  25.668  1.00  0.00     0.060 A 
BRANCH  92  93
ATOM     93  S   UNL A   1      53.588  25.212  25.217  1.00  0.00     0.124 S 
ATOM     94  O   UNL A   1      53.428  23.768  25.349  1.00  0.00    -0.237 OA
ATOM     95  O   UNL A   1      53.744  25.709  23.853  1.00  0.00    -0.237 OA
ATOM     96  O   UNL A   1      54.453  25.845  26.209  1.00  0.00    -0.744 OA
ENDBRANCH  92  93
ENDBRANCH  60  85
ENDBRANCH  34  35
ENDBRANCH  26  29
ENDBRANCH  24  25
ENDBRANCH  23  24
ENDBRANCH   1  23
TORSDOF 17
ENDMDL
MODEL 2
REMARK VINA RESULT:     -11.8      2.834      4.384
REMARK SMILES CN(Cc1ccnn1C)C(=O)c1c(C(=O)NCCCNC(=O)c2ccc(-c3c4nc(c(-c5c(F)cc(S(=O)(=O)[O-])cc5F)c5ccc([nH]5)c(-c5c(F)cc(S(=O)(=O)[O-])cc5F)c5nc(c(-c6c(F)cc(S(=O)(=O)[O-])cc6F)c6ccc3[nH]6)C=C5)C=C4)cc2)cnn1C
REMARK SMILES IDX 17 1 16 2 14 3 15 4 13 6 12 7 91 8 89 9 90 10 92 11 10 12
REMARK SMILES IDX 11 13 2 14 1 15 3 16 4 17 5 18 8 19 6 20 7 21 9 22 18 23
REMARK SMILES IDX 19 24 20 25 21 26 22 28 23 29 24 30 88 31 25 32 87 33 26 34
REMARK SMILES IDX 27 35 28 36 81 37 29 38 86 39 80 40 82 41 30 42 85 43 79 44
REMARK SMILES IDX 78 45 31 47 65 48 44 49 64 50 45 51 48 52 63 53 83 54 46 55
REMARK SMILES IDX 47 56 62 58 84 59 49 60 32 61 33 62 42 63 34 64 35 65 41 66
REMARK SMILES IDX 43 67 36 68 37 69 38 70 39 71 40 72 66 73 67 74 76 75 68 76
REMARK SMILES IDX 69 77 75 78 77 79 70 80 71 81 72 82 73 83 74 84 50 85 51 86
REMARK SMILES IDX 60 87 52 88 53 89 59 90 61 91 54 92 55 93 56 94 57 95 58 96
REMARK H PARENT 16 5 20 27 82 46 48 57
REMARK Flexibility Score: inf
ROOT
ATOM      1  C   UNL A   1      32.810  26.185  26.295  1.00  0.00     0.118 C 
ENDROOT
BRANCH   1   2
ATOM      2  N   UNL A   1      31.690  25.347  26.669  1.00  0.00    -0.352 N 
ATOM      3  C   UNL A   1      31.543  23.999  26.837  1.00  0.00     0.255 C 
ATOM      4  O   UNL A   1      30.433  23.628  27.226  1.00  0.00    -0.269 OA
ATOM      5  H   UNL A   1      30.863  25.854  26.837  1.00  0.00     0.163 HD
BRANCH   3   6
ATOM      6  C   UNL A   1      32.611  23.023  26.676  1.00  0.00     0.090 A 
ATOM      7  C   UNL A   1      33.227  22.397  25.592  1.00  0.00     0.138 A 
ATOM      8  N   UNL A   1      34.207  21.598  26.138  1.00  0.00    -0.262 N 
ATOM      9  C   UNL A   1      33.210  22.394  27.801  1.00  0.00     0.149 A 
ATOM     10  N   UNL A   1      34.162  21.524  27.478  1.00  0.00    -0.180 NA
ATOM     11  C   UNL A   1      35.219  20.825  25.454  1.00  0.00     0.174 C 
BRANCH   7  12
ATOM     12  C   UNL A   1      33.017  22.497  24.171  1.00  0.00     0.273 C 
ATOM     13  O   UNL A   1      32.429  21.607  23.560  1.00  0.00    -0.267 OA
BRANCH  12  14
ATOM     14  N   UNL A   1      33.471  23.647  23.525  1.00  0.00    -0.334 N 
ATOM     15  C   UNL A   1      34.762  24.210  23.901  1.00  0.00     0.147 C 
BRANCH  14  16
ATOM     16  C   UNL A   1      32.782  24.282  22.403  1.00  0.00     0.175 C 
BRANCH  16  17
ATOM     17  C   UNL A   1      31.670  25.142  22.918  1.00  0.00     0.057 A 
ATOM     18  C   UNL A   1      30.398  24.841  23.375  1.00  0.00     0.047 A 
ATOM     19  N   UNL A   1      31.758  26.512  23.002  1.00  0.00    -0.271 N 
ATOM     20  C   UNL A   1      29.829  26.069  23.740  1.00  0.00     0.135 A 
ATOM     21  N   UNL A   1      30.664  27.087  23.541  1.00  0.00    -0.181 NA
ATOM     22  C   UNL A   1      32.866  27.355  22.619  1.00  0.00     0.174 C 
ENDBRANCH  16  17
ENDBRANCH  14  16
ENDBRANCH  12  14
ENDBRANCH   7  12
ENDBRANCH   3   6
ENDBRANCH   1   2
BRANCH   1  23
ATOM     23  C   UNL A   1      32.625  27.597  26.849  1.00  0.00     0.042 C 
BRANCH  23  24
ATOM     24  C   UNL A   1      33.769  28.551  26.508  1.00  0.00     0.118 C 
BRANCH  24  25
ATOM     25  N   UNL A   1      33.610  29.838  27.162  1.00  0.00    -0.352 N 
ATOM     26  C   UNL A   1      34.467  30.501  28.005  1.00  0.00     0.251 C 
ATOM     27  H   UNL A   1      32.763  30.303  26.972  1.00  0.00     0.163 HD
ATOM     28  O   UNL A   1      34.054  31.484  28.617  1.00  0.00    -0.269 OA
BRANCH  26  29
ATOM     29  C   UNL A   1      35.867  30.051  28.198  1.00  0.00     0.039 A 
ATOM     30  C   UNL A   1      36.253  29.615  29.471  1.00  0.00     0.014 A 
ATOM     31  C   UNL A   1      36.822  30.138  27.179  1.00  0.00     0.014 A 
ATOM     32  C   UNL A   1      37.581  29.252  29.719  1.00  0.00     0.010 A 
ATOM     33  C   UNL A   1      38.141  29.740  27.418  1.00  0.00     0.010 A 
ATOM     34  C   UNL A   1      38.536  29.309  28.694  1.00  0.00    -0.014 A 
BRANCH  34  35
ATOM     35  C   UNL A   1      39.955  28.960  28.962  1.00  0.00     0.031 A 
ATOM     36  C   UNL A   1      40.878  29.966  29.595  1.00  0.00     0.074 A 
ATOM     37  C   UNL A   1      40.424  27.745  28.618  1.00  0.00     0.049 A 
ATOM     38  N   UNL A   1      42.151  29.856  29.878  1.00  0.00    -0.248 NA
ATOM     39  C   UNL A   1      40.297  31.274  29.936  1.00  0.00     0.031 C 
ATOM     40  C   UNL A   1      39.645  26.691  27.967  1.00  0.00     0.029 A 
ATOM     41  N   UNL A   1      41.671  27.194  28.768  1.00  0.00    -0.354 N 
ATOM     42  C   UNL A   1      42.531  31.084  30.405  1.00  0.00     0.074 A 
ATOM     43  C   UNL A   1      41.357  31.931  30.385  1.00  0.00     0.031 C 
ATOM     44  C   UNL A   1      40.429  25.615  27.788  1.00  0.00     0.029 A 
ATOM     45  C   UNL A   1      41.766  25.908  28.298  1.00  0.00     0.049 A 
ATOM     46  H   UNL A   1      42.428  27.676  29.175  1.00  0.00     0.167 HD
ATOM     47  C   UNL A   1      43.743  31.470  30.872  1.00  0.00     0.037 A 
ATOM     48  C   UNL A   1      42.809  25.056  28.286  1.00  0.00     0.037 A 
ATOM     49  C   UNL A   1      44.903  30.621  30.932  1.00  0.00     0.049 A 
ATOM     50  C   UNL A   1      44.123  25.480  28.877  1.00  0.00     0.074 A 
ATOM     51  C   UNL A   1      46.165  30.913  31.422  1.00  0.00     0.029 A 
ATOM     52  N   UNL A   1      44.940  29.304  30.499  1.00  0.00    -0.354 N 
ATOM     53  N   UNL A   1      44.456  26.637  29.395  1.00  0.00    -0.248 NA
ATOM     54  C   UNL A   1      45.199  24.478  28.893  1.00  0.00     0.031 C 
ATOM     55  C   UNL A   1      46.967  29.774  31.279  1.00  0.00     0.029 A 
ATOM     56  C   UNL A   1      46.199  28.769  30.715  1.00  0.00     0.049 A 
ATOM     57  H   UNL A   1      44.182  28.820  30.098  1.00  0.00     0.167 HD
ATOM     58  C   UNL A   1      45.775  26.501  29.810  1.00  0.00     0.074 A 
ATOM     59  C   UNL A   1      46.177  25.144  29.492  1.00  0.00     0.031 C 
ATOM     60  C   UNL A   1      46.581  27.417  30.400  1.00  0.00     0.037 A 
BRANCH  47  61
ATOM     61  C   UNL A   1      43.871  32.886  31.353  1.00  0.00     0.058 A 
ATOM     62  C   UNL A   1      43.618  33.231  32.690  1.00  0.00     0.135 A 
ATOM     63  C   UNL A   1      44.244  33.909  30.468  1.00  0.00     0.135 A 
ATOM     64  F   UNL A   1      43.242  32.290  33.570  1.00  0.00    -0.206 F 
ATOM     65  C   UNL A   1      43.702  34.549  33.126  1.00  0.00     0.059 A 
ATOM     66  C   UNL A   1      44.350  35.232  30.886  1.00  0.00     0.059 A 
ATOM     67  F   UNL A   1      44.493  33.630  29.178  1.00  0.00    -0.206 F 
ATOM     68  C   UNL A   1      44.057  35.544  32.215  1.00  0.00     0.060 A 
BRANCH  68  69
ATOM     69  S   UNL A   1      44.140  37.258  32.777  1.00  0.00     0.124 S 
ATOM     70  O   UNL A   1      45.494  37.317  33.320  1.00  0.00    -0.237 OA
ATOM     71  O   UNL A   1      43.918  38.011  31.547  1.00  0.00    -0.237 OA
ATOM     72  O   UNL A   1      43.063  37.339  33.758  1.00  0.00    -0.744 OA
ENDBRANCH  68  69
ENDBRANCH  47  61
BRANCH  48  73
ATOM     73  C   UNL A   1      42.635  23.695  27.723  1.00  0.00     0.058 A 
ATOM     74  C   UNL A   1      42.691  23.480  26.339  1.00  0.00     0.135 A 
ATOM     75  C   UNL A   1      42.446  22.584  28.556  1.00  0.00     0.135 A 
ATOM     76  F   UNL A   1      42.866  24.518  25.506  1.00  0.00    -0.206 F 
ATOM     77  C   UNL A   1      42.565  22.207  25.796  1.00  0.00     0.059 A 
ATOM     78  C   UNL A   1      42.331  21.298  28.037  1.00  0.00     0.059 A 
ATOM     79  F   UNL A   1      42.402  22.741  29.888  1.00  0.00    -0.206 F 
ATOM     80  C   UNL A   1      42.386  21.121  26.654  1.00  0.00     0.060 A 
BRANCH  80  81
ATOM     81  S   UNL A   1      42.305  19.456  25.958  1.00  0.00     0.124 S 
ATOM     82  O   UNL A   1      43.195  19.576  24.808  1.00  0.00    -0.237 OA
ATOM     83  O   UNL A   1      42.793  18.630  27.059  1.00  0.00    -0.237 OA
ATOM     84  O   UNL A   1      40.887  19.297  25.652  1.00  0.00    -0.744 OA
ENDBRANCH  80  81
ENDBRANCH  48  73
BRANCH  60  85
ATOM     85  C   UNL A   1      47.969  26.976  30.752  1.00  0.00     0.058 A 
ATOM     86  C   UNL A   1      49.052  27.222  29.895  1.00  0.00     0.135 A 
ATOM     87  C   UNL A   1      48.224  26.326  31.970  1.00  0.00     0.135 A 
ATOM     88  F   UNL A   1      48.856  27.835  28.717  1.00  0.00    -0.206 F 
ATOM     89  C   UNL A   1      50.343  26.821  30.225  1.00  0.00     0.059 A 
ATOM     90  C   UNL A   1      49.509  25.927  32.325  1.00  0.00     0.059 A 
ATOM     91  F   UNL A   1      47.220  26.073  32.824  1.00  0.00    -0.206 F 
ATOM     92  C   UNL A   1      50.560  26.169  31.440  1.00  0.00     0.060 A 
BRANCH  92  93
ATOM     93  S   UNL A   1      52.239  25.666  31.879  1.00  0.00     0.124 S 
ATOM     94  O   UNL A   1      52.543  26.586  32.970  1.00  0.00    -0.237 OA
ATOM     95  O   UNL A   1      52.066  24.267  32.259  1.00  0.00    -0.237 OA
ATOM     96  O   UNL A   1      52.986  25.884  30.643  1.00  0.00    -0.744 OA
ENDBRANCH  92  93
ENDBRANCH  60  85
ENDBRANCH  34  35
ENDBRANCH  26  29
ENDBRANCH  24  25
ENDBRANCH  23  24
ENDBRANCH   1  23
TORSDOF 17
ENDMDL
MODEL 3
REMARK VINA RESULT:     -11.7      4.778      6.485
REMARK SMILES CN(Cc1ccnn1C)C(=O)c1c(C(=O)NCCCNC(=O)c2ccc(-c3c4nc(c(-c5c(F)cc(S(=O)(=O)[O-])cc5F)c5ccc([nH]5)c(-c5c(F)cc(S(=O)(=O)[O-])cc5F)c5nc(c(-c6c(F)cc(S(=O)(=O)[O-])cc6F)c6ccc3[nH]6)C=C5)C=C4)cc2)cnn1C
REMARK SMILES IDX 17 1 16 2 14 3 15 4 13 6 12 7 91 8 89 9 90 10 92 11 10 12
REMARK SMILES IDX 11 13 2 14 1 15 3 16 4 17 5 18 8 19 6 20 7 21 9 22 18 23
REMARK SMILES IDX 19 24 20 25 21 26 22 28 23 29 24 30 88 31 25 32 87 33 26 34
REMARK SMILES IDX 27 35 28 36 81 37 29 38 86 39 80 40 82 41 30 42 85 43 79 44
REMARK SMILES IDX 78 45 31 47 65 48 44 49 64 50 45 51 48 52 63 53 83 54 46 55
REMARK SMILES IDX 47 56 62 58 84 59 49 60 32 61 33 62 42 63 34 64 35 65 41 66
REMARK SMILES IDX 43 67 36 68 37 69 38 70 39 71 40 72 66 73 67 74 76 75 68 76
REMARK SMILES IDX 69 77 75 78 77 79 70 80 71 81 72 82 73 83 74 84 50 85 51 86
REMARK SMILES IDX 60 87 52 88 53 89 59 90 61 91 54 92 55 93 56 94 57 95 58 96
REMARK H PARENT 16 5 20 27 82 46 48 57
REMARK Flexibility Score: inf
ROOT
ATOM      1  C   UNL A   1      33.033  26.107  26.151  1.00  0.00     0.118 C 
ENDROOT
BRANCH   1   2
ATOM      2  N   UNL A   1      31.919  25.304  26.612  1.00  0.00    -0.352 N 
ATOM      3  C   UNL A   1      31.754  23.964  26.820  1.00  0.00     0.255 C 
ATOM      4  O   UNL A   1      30.662  23.627  27.284  1.00  0.00    -0.269 OA
ATOM      5  H   UNL A   1      31.116  25.833  26.819  1.00  0.00     0.163 HD
BRANCH   3   6
ATOM      6  C   UNL A   1      32.788  22.960  26.615  1.00  0.00     0.090 A 
ATOM      7  C   UNL A   1      33.312  22.286  25.511  1.00  0.00     0.138 A 
ATOM      8  N   UNL A   1      34.313  21.484  26.012  1.00  0.00    -0.262 N 
ATOM      9  C   UNL A   1      33.454  22.354  27.715  1.00  0.00     0.149 A 
ATOM     10  N   UNL A   1      34.363  21.454  27.354  1.00  0.00    -0.180 NA
ATOM     11  C   UNL A   1      35.257  20.668  25.284  1.00  0.00     0.174 C 
BRANCH   7  12
ATOM     12  C   UNL A   1      33.002  22.346  24.106  1.00  0.00     0.273 C 
ATOM     13  O   UNL A   1      32.354  21.450  23.569  1.00  0.00    -0.267 OA
BRANCH  12  14
ATOM     14  N   UNL A   1      33.432  23.464  23.391  1.00  0.00    -0.334 N 
ATOM     15  C   UNL A   1      34.758  24.010  23.657  1.00  0.00     0.147 C 
BRANCH  14  16
ATOM     16  C   UNL A   1      32.679  24.077  22.300  1.00  0.00     0.175 C 
BRANCH  16  17
ATOM     17  C   UNL A   1      31.621  24.975  22.861  1.00  0.00     0.057 A 
ATOM     18  C   UNL A   1      30.378  24.714  23.414  1.00  0.00     0.047 A 
ATOM     19  N   UNL A   1      31.739  26.345  22.894  1.00  0.00    -0.271 N 
ATOM     20  C   UNL A   1      29.858  25.964  23.777  1.00  0.00     0.135 A 
ATOM     21  N   UNL A   1      30.695  26.958  23.488  1.00  0.00    -0.181 NA
ATOM     22  C   UNL A   1      32.832  27.153  22.409  1.00  0.00     0.174 C 
ENDBRANCH  16  17
ENDBRANCH  14  16
ENDBRANCH  12  14
ENDBRANCH   7  12
ENDBRANCH   3   6
ENDBRANCH   1   2
BRANCH   1  23
ATOM     23  C   UNL A   1      32.847  27.565  26.573  1.00  0.00     0.042 C 
BRANCH  23  24
ATOM     24  C   UNL A   1      33.924  28.507  26.036  1.00  0.00     0.118 C 
BRANCH  24  25
ATOM     25  N   UNL A   1      33.688  29.881  26.442  1.00  0.00    -0.352 N 
ATOM     26  C   UNL A   1      34.366  30.649  27.356  1.00  0.00     0.251 C 
ATOM     27  H   UNL A   1      32.931  30.326  25.997  1.00  0.00     0.163 HD
ATOM     28  O   UNL A   1      33.877  31.721  27.708  1.00  0.00    -0.269 OA
BRANCH  26  29
ATOM     29  C   UNL A   1      35.660  30.210  27.930  1.00  0.00     0.039 A 
ATOM     30  C   UNL A   1      35.662  29.666  29.220  1.00  0.00     0.014 A 
ATOM     31  C   UNL A   1      36.874  30.407  27.263  1.00  0.00     0.014 A 
ATOM     32  C   UNL A   1      36.868  29.306  29.832  1.00  0.00     0.010 A 
ATOM     33  C   UNL A   1      38.076  30.014  27.860  1.00  0.00     0.010 A 
ATOM     34  C   UNL A   1      38.085  29.475  29.156  1.00  0.00    -0.014 A 
BRANCH  34  35
ATOM     35  C   UNL A   1      39.370  29.129  29.816  1.00  0.00     0.031 A 
ATOM     36  C   UNL A   1      39.825  29.884  31.035  1.00  0.00     0.074 A 
ATOM     37  C   UNL A   1      40.142  28.149  29.309  1.00  0.00     0.049 A 
ATOM     38  N   UNL A   1      40.927  29.748  31.729  1.00  0.00    -0.248 NA
ATOM     39  C   UNL A   1      38.933  30.946  31.527  1.00  0.00     0.031 C 
ATOM     40  C   UNL A   1      39.836  27.364  28.113  1.00  0.00     0.029 A 
ATOM     41  N   UNL A   1      41.346  27.649  29.737  1.00  0.00    -0.354 N 
ATOM     42  C   UNL A   1      40.875  30.719  32.721  1.00  0.00     0.074 A 
ATOM     43  C   UNL A   1      39.641  31.451  32.527  1.00  0.00     0.031 C 
ATOM     44  C   UNL A   1      40.819  26.470  27.912  1.00  0.00     0.029 A 
ATOM     45  C   UNL A   1      41.829  26.628  28.955  1.00  0.00     0.049 A 
ATOM     46  H   UNL A   1      41.820  27.991  30.530  1.00  0.00     0.167 HD
ATOM     47  C   UNL A   1      41.767  30.974  33.708  1.00  0.00     0.037 A 
ATOM     48  C   UNL A   1      42.954  25.897  29.069  1.00  0.00     0.037 A 
ATOM     49  C   UNL A   1      42.976  30.224  33.930  1.00  0.00     0.049 A 
ATOM     50  C   UNL A   1      43.891  26.147  30.215  1.00  0.00     0.074 A 
ATOM     51  C   UNL A   1      43.923  30.386  34.927  1.00  0.00     0.029 A 
ATOM     52  N   UNL A   1      43.398  29.159  33.150  1.00  0.00    -0.354 N 
ATOM     53  N   UNL A   1      43.811  27.053  31.160  1.00  0.00    -0.248 NA
ATOM     54  C   UNL A   1      45.065  25.267  30.318  1.00  0.00     0.031 C 
ATOM     55  C   UNL A   1      44.922  29.422  34.744  1.00  0.00     0.029 A 
ATOM     56  C   UNL A   1      44.587  28.650  33.644  1.00  0.00     0.049 A 
ATOM     57  H   UNL A   1      42.921  28.813  32.360  1.00  0.00     0.167 HD
ATOM     58  C   UNL A   1      44.916  26.846  31.977  1.00  0.00     0.074 A 
ATOM     59  C   UNL A   1      45.644  25.722  31.421  1.00  0.00     0.031 C 
ATOM     60  C   UNL A   1      45.294  27.528  33.085  1.00  0.00     0.037 A 
BRANCH  47  61
ATOM     61  C   UNL A   1      41.463  32.123  34.624  1.00  0.00     0.058 A 
ATOM     62  C   UNL A   1      40.646  31.962  35.754  1.00  0.00     0.135 A 
ATOM     63  C   UNL A   1      41.988  33.398  34.367  1.00  0.00     0.135 A 
ATOM     64  F   UNL A   1      40.107  30.764  36.033  1.00  0.00    -0.206 F 
ATOM     65  C   UNL A   1      40.335  33.035  36.583  1.00  0.00     0.059 A 
ATOM     66  C   UNL A   1      41.704  34.483  35.191  1.00  0.00     0.059 A 
ATOM     67  F   UNL A   1      42.773  33.604  33.297  1.00  0.00    -0.206 F 
ATOM     68  C   UNL A   1      40.860  34.294  36.286  1.00  0.00     0.060 A 
BRANCH  68  69
ATOM     69  S   UNL A   1      40.435  35.692  37.348  1.00  0.00     0.124 S 
ATOM     70  O   UNL A   1      39.753  36.573  36.404  1.00  0.00    -0.237 OA
ATOM     71  O   UNL A   1      39.588  35.078  38.365  1.00  0.00    -0.237 OA
ATOM     72  O   UNL A   1      41.734  36.159  37.820  1.00  0.00    -0.744 OA
ENDBRANCH  68  69
ENDBRANCH  47  61
BRANCH  48  73
ATOM     73  C   UNL A   1      43.232  24.826  28.082  1.00  0.00     0.058 A 
ATOM     74  C   UNL A   1      43.954  25.101  26.912  1.00  0.00     0.135 A 
ATOM     75  C   UNL A   1      42.815  23.506  28.305  1.00  0.00     0.135 A 
ATOM     76  F   UNL A   1      44.368  26.352  26.659  1.00  0.00    -0.206 F 
ATOM     77  C   UNL A   1      44.255  24.104  25.993  1.00  0.00     0.059 A 
ATOM     78  C   UNL A   1      43.115  22.488  27.406  1.00  0.00     0.059 A 
ATOM     79  F   UNL A   1      42.134  23.195  29.418  1.00  0.00    -0.206 F 
ATOM     80  C   UNL A   1      43.832  22.798  26.249  1.00  0.00     0.060 A 
BRANCH  80  81
ATOM     81  S   UNL A   1      44.292  21.484  25.099  1.00  0.00     0.124 S 
ATOM     82  O   UNL A   1      43.291  20.467  25.401  1.00  0.00    -0.237 OA
ATOM     83  O   UNL A   1      44.163  22.141  23.802  1.00  0.00    -0.237 OA
ATOM     84  O   UNL A   1      45.661  21.166  25.494  1.00  0.00    -0.744 OA
ENDBRANCH  80  81
ENDBRANCH  48  73
BRANCH  60  85
ATOM     85  C   UNL A   1      46.540  27.064  33.778  1.00  0.00     0.058 A 
ATOM     86  C   UNL A   1      46.507  26.026  34.721  1.00  0.00     0.135 A 
ATOM     87  C   UNL A   1      47.782  27.645  33.476  1.00  0.00     0.135 A 
ATOM     88  F   UNL A   1      45.341  25.445  35.045  1.00  0.00    -0.206 F 
ATOM     89  C   UNL A   1      47.664  25.589  35.357  1.00  0.00     0.059 A 
ATOM     90  C   UNL A   1      48.953  27.215  34.093  1.00  0.00     0.059 A 
ATOM     91  F   UNL A   1      47.863  28.637  32.578  1.00  0.00    -0.206 F 
ATOM     92  C   UNL A   1      48.882  26.194  35.041  1.00  0.00     0.060 A 
BRANCH  92  93
ATOM     93  S   UNL A   1      50.388  25.613  35.852  1.00  0.00     0.124 S 
ATOM     94  O   UNL A   1      50.057  25.812  37.259  1.00  0.00    -0.237 OA
ATOM     95  O   UNL A   1      50.474  24.223  35.413  1.00  0.00    -0.237 OA
ATOM     96  O   UNL A   1      51.418  26.496  35.314  1.00  0.00    -0.744 OA
ENDBRANCH  92  93
ENDBRANCH  60  85
ENDBRANCH  34  35
ENDBRANCH  26  29
ENDBRANCH  24  25
ENDBRANCH  23  24
ENDBRANCH   1  23
TORSDOF 17
ENDMDL
