MODEL 1
REMARK VINA RESULT:      -9.5      0.000      0.000
REMARK SMILES Cc1ccc(S(=O)(=O)n2cc(C(=O)C(=O)N[C@H](Cc3c[nH]c4ccccc34)C(=O)NCC(=O)NCCCNC(=O)c3ccc(-c4c5nc(c(-c6c(F)cc(S(=O)(=O)[O-])cc6F)c6ccc([nH]6)c(-c6c(F)cc(S(=O)(=O)[O-])cc6F)c6nc(c(-c7c(F)cc(S(=O)(=O)[O-])cc7F)c7ccc4[nH]7)C=C6)C=C5)cc3)c3ccccc32)cc1
REMARK SMILES IDX 32 1 33 2 34 3 31 5 30 6 28 7 29 8 17 10 16 11 14 12 15 13
REMARK SMILES IDX 12 15 13 16 11 17 9 18 10 19 112 20 107 21 111 22 108 23
REMARK SMILES IDX 110 24 109 25 6 26 7 27 8 28 5 29 1 30 2 31 3 32 114 33 4 34
REMARK SMILES IDX 113 35 18 36 19 37 20 38 27 39 21 40 22 41 26 42 23 44 25 45
REMARK SMILES IDX 24 46 35 47 36 48 37 49 38 50 39 51 40 53 41 54 42 55 106 56
REMARK SMILES IDX 43 57 105 58 44 59 45 60 46 61 99 62 47 63 104 64 98 65
REMARK SMILES IDX 100 66 48 67 103 68 97 69 96 70 49 72 83 73 62 74 82 75
REMARK SMILES IDX 63 76 66 77 81 78 101 79 64 80 65 81 80 83 102 84 67 85
REMARK SMILES IDX 50 86 51 87 60 88 52 89 53 90 59 91 61 92 54 93 55 94 56 95
REMARK SMILES IDX 57 96 58 97 84 98 85 99 94 100 86 101 87 102 93 103 95 104
REMARK SMILES IDX 88 105 89 106 90 107 91 108 92 109 68 110 69 111 78 112
REMARK SMILES IDX 70 113 71 114 77 115 79 116 72 117 73 118 74 119 75 120
REMARK SMILES IDX 76 121
REMARK H PARENT 34 4 30 9 16 14 21 43 38 52 100 71 66 82
REMARK Flexibility Score: inf
ROOT
ATOM      1  C   UNL A   1      40.055  35.452  36.074  1.00  0.00     0.239 C 
ATOM      2  O   UNL A   1      39.725  36.626  35.891  1.00  0.00    -0.273 OA
ATOM      3  N   UNL A   1      40.950  35.185  37.067  1.00  0.00    -0.355 N 
ATOM      4  H   UNL A   1      41.380  35.970  37.477  1.00  0.00     0.163 HD
ENDROOT
BRANCH   1   5
ATOM      5  C   UNL A   1      39.331  34.319  35.332  1.00  0.00     0.216 C 
BRANCH   5   6
ATOM      6  N   UNL A   1      37.991  34.024  35.788  1.00  0.00    -0.345 N 
ATOM      7  C   UNL A   1      36.826  33.702  35.186  1.00  0.00     0.243 C 
ATOM      8  O   UNL A   1      35.918  33.453  35.994  1.00  0.00    -0.273 OA
ATOM      9  H   UNL A   1      37.909  34.069  36.769  1.00  0.00     0.164 HD
BRANCH   7  10
ATOM     10  C   UNL A   1      36.537  33.614  33.648  1.00  0.00     0.176 C 
BRANCH  10  11
ATOM     11  N   UNL A   1      37.391  34.395  32.676  1.00  0.00    -0.337 N 
ATOM     12  C   UNL A   1      38.274  34.066  31.648  1.00  0.00     0.293 C 
ATOM     13  O   UNL A   1      38.877  34.953  31.051  1.00  0.00    -0.265 OA
ATOM     14  H   UNL A   1      37.305  35.367  32.798  1.00  0.00     0.164 HD
BRANCH  12  15
ATOM     15  C   UNL A   1      38.457  32.617  31.225  1.00  0.00     0.252 C 
ATOM     16  O   UNL A   1      38.027  32.378  30.098  1.00  0.00    -0.283 OA
BRANCH  15  17
ATOM     17  C   UNL A   1      39.047  31.499  31.972  1.00  0.00     0.054 A 
ATOM     18  N   UNL A   1      39.501  29.693  33.249  1.00  0.00    -0.240 N 
ATOM     19  C   UNL A   1      39.186  31.077  33.301  1.00  0.00     0.117 A 
ATOM     20  C   UNL A   1      39.246  29.317  31.910  1.00  0.00     0.065 A 
ATOM     21  C   UNL A   1      39.682  30.456  31.256  1.00  0.00     0.012 A 
ATOM     22  C   UNL A   1      39.260  28.066  31.282  1.00  0.00     0.028 A 
ATOM     23  C   UNL A   1      40.452  30.330  30.094  1.00  0.00     0.011 A 
ATOM     24  C   UNL A   1      40.104  27.959  30.169  1.00  0.00     0.002 A 
ATOM     25  C   UNL A   1      40.731  29.064  29.604  1.00  0.00     0.001 A 
BRANCH  18  26
ATOM     26  S   UNL A   1      41.036  28.954  33.741  1.00  0.00     0.268 S 
ATOM     27  O   UNL A   1      40.709  27.560  33.999  1.00  0.00    -0.201 OA
ATOM     28  O   UNL A   1      41.466  29.852  34.803  1.00  0.00    -0.201 OA
BRANCH  26  29
ATOM     29  C   UNL A   1      42.492  28.922  32.778  1.00  0.00     0.088 A 
ATOM     30  C   UNL A   1      46.226  27.858  30.940  1.00  0.00     0.044 C 
ATOM     31  C   UNL A   1      44.892  28.266  31.490  1.00  0.00    -0.051 A 
ATOM     32  C   UNL A   1      44.053  27.246  31.912  1.00  0.00     0.005 A 
ATOM     33  C   UNL A   1      44.491  29.611  31.662  1.00  0.00     0.005 A 
ATOM     34  C   UNL A   1      42.864  27.578  32.521  1.00  0.00     0.022 A 
ATOM     35  C   UNL A   1      43.285  29.955  32.318  1.00  0.00     0.022 A 
ENDBRANCH  26  29
ENDBRANCH  18  26
ENDBRANCH  15  17
ENDBRANCH  12  15
ENDBRANCH  10  11
BRANCH  10  36
ATOM     36  C   UNL A   1      35.081  33.295  33.170  1.00  0.00     0.072 C 
BRANCH  36  37
ATOM     37  C   UNL A   1      34.708  33.455  31.718  1.00  0.00    -0.020 A 
ATOM     38  C   UNL A   1      34.778  32.448  30.772  1.00  0.00     0.087 A 
ATOM     39  C   UNL A   1      34.105  34.575  31.045  1.00  0.00     0.003 A 
ATOM     40  N   UNL A   1      34.302  32.917  29.572  1.00  0.00    -0.361 N 
ATOM     41  C   UNL A   1      33.992  34.252  29.688  1.00  0.00     0.046 A 
ATOM     42  C   UNL A   1      33.657  35.848  31.456  1.00  0.00     0.010 A 
ATOM     43  H   UNL A   1      34.198  32.379  28.754  1.00  0.00     0.166 HD
ATOM     44  C   UNL A   1      33.584  35.179  28.715  1.00  0.00     0.026 A 
ATOM     45  C   UNL A   1      33.205  36.772  30.505  1.00  0.00     0.001 A 
ATOM     46  C   UNL A   1      33.202  36.451  29.150  1.00  0.00     0.002 A 
ENDBRANCH  36  37
ENDBRANCH  10  36
ENDBRANCH   7  10
ENDBRANCH   5   6
ENDBRANCH   1   5
BRANCH   3  47
ATOM     47  C   UNL A   1      41.351  33.897  37.596  1.00  0.00     0.117 C 
BRANCH  47  48
ATOM     48  C   UNL A   1      42.771  33.570  37.186  1.00  0.00     0.042 C 
BRANCH  48  49
ATOM     49  C   UNL A   1      42.810  32.812  35.880  1.00  0.00     0.118 C 
BRANCH  49  50
ATOM     50  N   UNL A   1      43.827  33.316  34.982  1.00  0.00    -0.352 N 
ATOM     51  C   UNL A   1      43.873  34.370  34.110  1.00  0.00     0.251 C 
ATOM     52  H   UNL A   1      44.659  32.790  35.001  1.00  0.00     0.163 HD
ATOM     53  O   UNL A   1      44.996  34.708  33.771  1.00  0.00    -0.269 OA
BRANCH  51  54
ATOM     54  C   UNL A   1      42.688  35.235  33.706  1.00  0.00     0.039 A 
ATOM     55  C   UNL A   1      41.888  34.441  32.866  1.00  0.00     0.014 A 
ATOM     56  C   UNL A   1      43.093  36.441  33.172  1.00  0.00     0.014 A 
ATOM     57  C   UNL A   1      42.304  34.340  31.550  1.00  0.00     0.010 A 
ATOM     58  C   UNL A   1      43.639  36.342  31.924  1.00  0.00     0.010 A 
ATOM     59  C   UNL A   1      43.311  35.213  31.161  1.00  0.00    -0.014 A 
BRANCH  59  60
ATOM     60  C   UNL A   1      43.957  35.175  29.881  1.00  0.00     0.031 A 
ATOM     61  C   UNL A   1      45.060  34.213  29.830  1.00  0.00     0.074 A 
ATOM     62  C   UNL A   1      43.392  35.868  28.872  1.00  0.00     0.049 A 
ATOM     63  N   UNL A   1      45.942  34.149  28.912  1.00  0.00    -0.248 NA
ATOM     64  C   UNL A   1      45.300  33.258  30.918  1.00  0.00     0.031 C 
ATOM     65  C   UNL A   1      43.631  35.782  27.439  1.00  0.00     0.029 A 
ATOM     66  N   UNL A   1      42.622  37.024  29.023  1.00  0.00    -0.354 N 
ATOM     67  C   UNL A   1      46.621  32.962  29.092  1.00  0.00     0.074 A 
ATOM     68  C   UNL A   1      46.302  32.540  30.423  1.00  0.00     0.031 C 
ATOM     69  C   UNL A   1      43.287  36.958  26.876  1.00  0.00     0.029 A 
ATOM     70  C   UNL A   1      42.951  37.877  27.962  1.00  0.00     0.049 A 
ATOM     71  H   UNL A   1      41.972  37.205  29.740  1.00  0.00     0.167 HD
ATOM     72  C   UNL A   1      47.207  32.414  27.994  1.00  0.00     0.037 A 
ATOM     73  C   UNL A   1      43.661  39.010  28.253  1.00  0.00     0.037 A 
ATOM     74  C   UNL A   1      47.208  33.424  26.925  1.00  0.00     0.049 A 
ATOM     75  C   UNL A   1      45.093  38.892  27.729  1.00  0.00     0.074 A 
ATOM     76  C   UNL A   1      46.359  33.656  25.854  1.00  0.00     0.029 A 
ATOM     77  N   UNL A   1      47.868  34.634  27.164  1.00  0.00    -0.354 N 
ATOM     78  N   UNL A   1      45.754  37.766  27.586  1.00  0.00    -0.248 NA
ATOM     79  C   UNL A   1      45.820  40.032  27.175  1.00  0.00     0.031 C 
ATOM     80  C   UNL A   1      46.418  35.050  25.547  1.00  0.00     0.029 A 
ATOM     81  C   UNL A   1      47.312  35.660  26.415  1.00  0.00     0.049 A 
ATOM     82  H   UNL A   1      48.627  34.741  27.781  1.00  0.00     0.167 HD
ATOM     83  C   UNL A   1      46.932  37.998  26.910  1.00  0.00     0.074 A 
ATOM     84  C   UNL A   1      46.919  39.435  26.680  1.00  0.00     0.031 C 
ATOM     85  C   UNL A   1      47.825  37.023  26.537  1.00  0.00     0.037 A 
BRANCH  72  86
ATOM     86  C   UNL A   1      47.480  30.931  27.808  1.00  0.00     0.058 A 
ATOM     87  C   UNL A   1      46.420  30.068  27.456  1.00  0.00     0.135 A 
ATOM     88  C   UNL A   1      48.707  30.264  28.034  1.00  0.00     0.135 A 
ATOM     89  F   UNL A   1      45.194  30.544  27.198  1.00  0.00    -0.206 F 
ATOM     90  C   UNL A   1      46.559  28.678  27.364  1.00  0.00     0.059 A 
ATOM     91  C   UNL A   1      48.867  28.879  27.965  1.00  0.00     0.059 A 
ATOM     92  F   UNL A   1      49.841  30.906  28.318  1.00  0.00    -0.206 F 
ATOM     93  C   UNL A   1      47.787  28.089  27.626  1.00  0.00     0.060 A 
BRANCH  93  94
ATOM     94  S   UNL A   1      47.968  26.304  27.480  1.00  0.00     0.124 S 
ATOM     95  O   UNL A   1      48.976  26.016  28.496  1.00  0.00    -0.237 OA
ATOM     96  O   UNL A   1      46.617  25.839  27.774  1.00  0.00    -0.237 OA
ATOM     97  O   UNL A   1      48.405  26.115  26.100  1.00  0.00    -0.744 OA
ENDBRANCH  93  94
ENDBRANCH  72  86
BRANCH  73  98
ATOM     98  C   UNL A   1      43.151  39.710  29.492  1.00  0.00     0.058 A 
ATOM     99  C   UNL A   1      44.011  39.767  30.615  1.00  0.00     0.135 A 
ATOM    100  C   UNL A   1      42.068  40.594  29.524  1.00  0.00     0.135 A 
ATOM    101  F   UNL A   1      45.014  38.887  30.711  1.00  0.00    -0.206 F 
ATOM    102  C   UNL A   1      43.911  40.730  31.627  1.00  0.00     0.059 A 
ATOM    103  C   UNL A   1      41.919  41.553  30.554  1.00  0.00     0.059 A 
ATOM    104  F   UNL A   1      41.170  40.590  28.529  1.00  0.00    -0.206 F 
ATOM    105  C   UNL A   1      42.876  41.651  31.575  1.00  0.00     0.060 A 
BRANCH 105 106
ATOM    106  S   UNL A   1      42.790  42.940  32.869  1.00  0.00     0.124 S 
ATOM    107  O   UNL A   1      44.191  43.044  33.272  1.00  0.00    -0.237 OA
ATOM    108  O   UNL A   1      42.279  44.136  32.200  1.00  0.00    -0.237 OA
ATOM    109  O   UNL A   1      41.903  42.354  33.872  1.00  0.00    -0.744 OA
ENDBRANCH 105 106
ENDBRANCH  73  98
BRANCH  85 110
ATOM    110  C   UNL A   1      49.282  37.266  26.161  1.00  0.00     0.058 A 
ATOM    111  C   UNL A   1      50.239  37.812  27.034  1.00  0.00     0.135 A 
ATOM    112  C   UNL A   1      49.807  36.780  24.932  1.00  0.00     0.135 A 
ATOM    113  F   UNL A   1      49.925  38.188  28.280  1.00  0.00    -0.206 F 
ATOM    114  C   UNL A   1      51.584  37.950  26.684  1.00  0.00     0.059 A 
ATOM    115  C   UNL A   1      51.157  36.826  24.603  1.00  0.00     0.059 A 
ATOM    116  F   UNL A   1      49.026  36.215  23.999  1.00  0.00    -0.206 F 
ATOM    117  C   UNL A   1      52.035  37.452  25.469  1.00  0.00     0.060 A 
BRANCH 117 118
ATOM    118  S   UNL A   1      53.777  37.594  25.042  1.00  0.00     0.124 S 
ATOM    119  O   UNL A   1      54.393  37.632  26.364  1.00  0.00    -0.237 OA
ATOM    120  O   UNL A   1      54.016  36.379  24.268  1.00  0.00    -0.237 OA
ATOM    121  O   UNL A   1      53.839  38.836  24.279  1.00  0.00    -0.744 OA
ENDBRANCH 117 118
ENDBRANCH  85 110
ENDBRANCH  59  60
ENDBRANCH  51  54
ENDBRANCH  49  50
ENDBRANCH  48  49
ENDBRANCH  47  48
ENDBRANCH   3  47
TORSDOF 22
ENDMDL
MODEL 2
REMARK VINA RESULT:      -9.3      5.161     12.553
REMARK SMILES Cc1ccc(S(=O)(=O)n2cc(C(=O)C(=O)N[C@H](Cc3c[nH]c4ccccc34)C(=O)NCC(=O)NCCCNC(=O)c3ccc(-c4c5nc(c(-c6c(F)cc(S(=O)(=O)[O-])cc6F)c6ccc([nH]6)c(-c6c(F)cc(S(=O)(=O)[O-])cc6F)c6nc(c(-c7c(F)cc(S(=O)(=O)[O-])cc7F)c7ccc4[nH]7)C=C6)C=C5)cc3)c3ccccc32)cc1
REMARK SMILES IDX 32 1 33 2 34 3 31 5 30 6 28 7 29 8 17 10 16 11 14 12 15 13
REMARK SMILES IDX 12 15 13 16 11 17 9 18 10 19 112 20 107 21 111 22 108 23
REMARK SMILES IDX 110 24 109 25 6 26 7 27 8 28 5 29 1 30 2 31 3 32 114 33 4 34
REMARK SMILES IDX 113 35 18 36 19 37 20 38 27 39 21 40 22 41 26 42 23 44 25 45
REMARK SMILES IDX 24 46 35 47 36 48 37 49 38 50 39 51 40 53 41 54 42 55 106 56
REMARK SMILES IDX 43 57 105 58 44 59 45 60 46 61 99 62 47 63 104 64 98 65
REMARK SMILES IDX 100 66 48 67 103 68 97 69 96 70 49 72 83 73 62 74 82 75
REMARK SMILES IDX 63 76 66 77 81 78 101 79 64 80 65 81 80 83 102 84 67 85
REMARK SMILES IDX 50 86 51 87 60 88 52 89 53 90 59 91 61 92 54 93 55 94 56 95
REMARK SMILES IDX 57 96 58 97 84 98 85 99 94 100 86 101 87 102 93 103 95 104
REMARK SMILES IDX 88 105 89 106 90 107 91 108 92 109 68 110 69 111 78 112
REMARK SMILES IDX 70 113 71 114 77 115 79 116 72 117 73 118 74 119 75 120
REMARK SMILES IDX 76 121
REMARK H PARENT 34 4 30 9 16 14 21 43 38 52 100 71 66 82
REMARK Flexibility Score: inf
ROOT
ATOM      1  C   UNL A   1      44.692  24.019  26.232  1.00  0.00     0.239 C 
ATOM      2  O   UNL A   1      44.918  23.218  27.143  1.00  0.00    -0.273 OA
ATOM      3  N   UNL A   1      45.522  25.093  26.103  1.00  0.00    -0.355 N 
ATOM      4  H   UNL A   1      46.163  25.230  26.837  1.00  0.00     0.163 HD
ENDROOT
BRANCH   1   5
ATOM      5  C   UNL A   1      43.628  23.705  25.171  1.00  0.00     0.216 C 
BRANCH   5   6
ATOM      6  N   UNL A   1      42.593  24.702  25.005  1.00  0.00    -0.345 N 
ATOM      7  C   UNL A   1      41.875  25.482  25.841  1.00  0.00     0.243 C 
ATOM      8  O   UNL A   1      41.127  26.270  25.243  1.00  0.00    -0.273 OA
ATOM      9  H   UNL A   1      42.357  24.845  24.060  1.00  0.00     0.164 HD
BRANCH   7  10
ATOM     10  C   UNL A   1      41.905  25.484  27.409  1.00  0.00     0.176 C 
BRANCH  10  11
ATOM     11  N   UNL A   1      42.864  26.392  28.142  1.00  0.00    -0.337 N 
ATOM     12  C   UNL A   1      43.005  27.771  28.292  1.00  0.00     0.293 C 
ATOM     13  O   UNL A   1      43.949  28.225  28.932  1.00  0.00    -0.265 OA
ATOM     14  H   UNL A   1      43.557  25.891  28.631  1.00  0.00     0.164 HD
BRANCH  12  15
ATOM     15  C   UNL A   1      41.967  28.718  27.709  1.00  0.00     0.252 C 
ATOM     16  O   UNL A   1      42.372  29.344  26.732  1.00  0.00    -0.283 OA
BRANCH  15  17
ATOM     17  C   UNL A   1      40.596  28.982  28.159  1.00  0.00     0.054 A 
ATOM     18  N   UNL A   1      38.377  29.006  28.582  1.00  0.00    -0.240 N 
ATOM     19  C   UNL A   1      39.356  29.338  27.608  1.00  0.00     0.117 A 
ATOM     20  C   UNL A   1      39.067  28.213  29.528  1.00  0.00     0.065 A 
ATOM     21  C   UNL A   1      40.290  28.860  29.536  1.00  0.00     0.012 A 
ATOM     22  C   UNL A   1      38.612  27.502  30.646  1.00  0.00     0.028 A 
ATOM     23  C   UNL A   1      40.934  29.101  30.754  1.00  0.00     0.011 A 
ATOM     24  C   UNL A   1      39.229  27.828  31.861  1.00  0.00     0.002 A 
ATOM     25  C   UNL A   1      40.347  28.652  31.928  1.00  0.00     0.001 A 
BRANCH  18  26
ATOM     26  S   UNL A   1      37.360  30.156  29.470  1.00  0.00     0.268 S 
ATOM     27  O   UNL A   1      36.189  29.387  29.862  1.00  0.00    -0.201 OA
ATOM     28  O   UNL A   1      37.275  31.260  28.526  1.00  0.00    -0.201 OA
BRANCH  26  29
ATOM     29  C   UNL A   1      37.844  31.031  30.902  1.00  0.00     0.088 A 
ATOM     30  C   UNL A   1      37.941  33.064  34.685  1.00  0.00     0.044 C 
ATOM     31  C   UNL A   1      37.999  32.314  33.388  1.00  0.00    -0.051 A 
ATOM     32  C   UNL A   1      37.056  31.315  33.203  1.00  0.00     0.005 A 
ATOM     33  C   UNL A   1      38.901  32.619  32.343  1.00  0.00     0.005 A 
ATOM     34  C   UNL A   1      37.004  30.673  31.986  1.00  0.00     0.022 A 
ATOM     35  C   UNL A   1      38.828  31.984  31.080  1.00  0.00     0.022 A 
ENDBRANCH  26  29
ENDBRANCH  18  26
ENDBRANCH  15  17
ENDBRANCH  12  15
ENDBRANCH  10  11
BRANCH  10  36
ATOM     36  C   UNL A   1      41.476  24.187  28.173  1.00  0.00     0.072 C 
BRANCH  36  37
ATOM     37  C   UNL A   1      40.750  23.084  27.445  1.00  0.00    -0.020 A 
ATOM     38  C   UNL A   1      41.161  21.764  27.405  1.00  0.00     0.087 A 
ATOM     39  C   UNL A   1      39.475  23.111  26.778  1.00  0.00     0.003 A 
ATOM     40  N   UNL A   1      40.236  21.020  26.715  1.00  0.00    -0.361 N 
ATOM     41  C   UNL A   1      39.252  21.846  26.222  1.00  0.00     0.046 A 
ATOM     42  C   UNL A   1      38.489  24.100  26.576  1.00  0.00     0.010 A 
ATOM     43  H   UNL A   1      40.271  20.043  26.591  1.00  0.00     0.166 HD
ATOM     44  C   UNL A   1      38.171  21.567  25.372  1.00  0.00     0.026 A 
ATOM     45  C   UNL A   1      37.379  23.826  25.765  1.00  0.00     0.001 A 
ATOM     46  C   UNL A   1      37.242  22.587  25.146  1.00  0.00     0.002 A 
ENDBRANCH  36  37
ENDBRANCH  10  36
ENDBRANCH   7  10
ENDBRANCH   5   6
ENDBRANCH   1   5
BRANCH   3  47
ATOM     47  C   UNL A   1      45.582  26.059  25.024  1.00  0.00     0.117 C 
BRANCH  47  48
ATOM     48  C   UNL A   1      46.694  27.058  25.264  1.00  0.00     0.042 C 
BRANCH  48  49
ATOM     49  C   UNL A   1      47.915  26.395  25.858  1.00  0.00     0.118 C 
BRANCH  49  50
ATOM     50  N   UNL A   1      48.519  27.193  26.904  1.00  0.00    -0.352 N 
ATOM     51  C   UNL A   1      49.032  26.894  28.137  1.00  0.00     0.251 C 
ATOM     52  H   UNL A   1      48.572  28.151  26.681  1.00  0.00     0.163 HD
ATOM     53  O   UNL A   1      49.770  27.746  28.606  1.00  0.00    -0.269 OA
BRANCH  51  54
ATOM     54  C   UNL A   1      48.909  25.553  28.844  1.00  0.00     0.039 A 
ATOM     55  C   UNL A   1      47.607  25.090  28.586  1.00  0.00     0.014 A 
ATOM     56  C   UNL A   1      49.251  25.643  30.177  1.00  0.00     0.014 A 
ATOM     57  C   UNL A   1      46.603  25.631  29.370  1.00  0.00     0.010 A 
ATOM     58  C   UNL A   1      48.334  26.303  30.945  1.00  0.00     0.010 A 
ATOM     59  C   UNL A   1      47.020  26.378  30.463  1.00  0.00    -0.014 A 
BRANCH  59  60
ATOM     60  C   UNL A   1      46.135  27.119  31.315  1.00  0.00     0.031 A 
ATOM     61  C   UNL A   1      46.312  28.567  31.196  1.00  0.00     0.074 A 
ATOM     62  C   UNL A   1      45.172  26.434  31.964  1.00  0.00     0.049 A 
ATOM     63  N   UNL A   1      45.836  29.437  31.997  1.00  0.00    -0.248 NA
ATOM     64  C   UNL A   1      47.155  29.157  30.149  1.00  0.00     0.031 C 
ATOM     65  C   UNL A   1      43.977  26.925  32.635  1.00  0.00     0.029 A 
ATOM     66  N   UNL A   1      45.262  25.097  32.357  1.00  0.00    -0.354 N 
ATOM     67  C   UNL A   1      45.998  30.667  31.393  1.00  0.00     0.074 A 
ATOM     68  C   UNL A   1      46.953  30.455  30.348  1.00  0.00     0.031 C 
ATOM     69  C   UNL A   1      43.609  26.024  33.568  1.00  0.00     0.029 A 
ATOM     70  C   UNL A   1      44.648  24.996  33.613  1.00  0.00     0.049 A 
ATOM     71  H   UNL A   1      45.679  24.364  31.849  1.00  0.00     0.167 HD
ATOM     72  C   UNL A   1      45.134  31.651  31.759  1.00  0.00     0.037 A 
ATOM     73  C   UNL A   1      45.450  24.766  34.697  1.00  0.00     0.037 A 
ATOM     74  C   UNL A   1      44.416  31.205  32.963  1.00  0.00     0.049 A 
ATOM     75  C   UNL A   1      45.532  26.014  35.576  1.00  0.00     0.074 A 
ATOM     76  C   UNL A   1      43.179  30.609  33.150  1.00  0.00     0.029 A 
ATOM     77  N   UNL A   1      45.169  30.897  34.100  1.00  0.00    -0.354 N 
ATOM     78  N   UNL A   1      45.413  27.250  35.145  1.00  0.00    -0.248 NA
ATOM     79  C   UNL A   1      45.593  25.943  37.034  1.00  0.00     0.031 C 
ATOM     80  C   UNL A   1      43.249  29.829  34.345  1.00  0.00     0.029 A 
ATOM     81  C   UNL A   1      44.517  29.964  34.891  1.00  0.00     0.049 A 
ATOM     82  H   UNL A   1      46.046  31.292  34.311  1.00  0.00     0.167 HD
ATOM     83  C   UNL A   1      45.338  28.112  36.216  1.00  0.00     0.074 A 
ATOM     84  C   UNL A   1      45.458  27.237  37.372  1.00  0.00     0.031 C 
ATOM     85  C   UNL A   1      45.143  29.468  36.116  1.00  0.00     0.037 A 
BRANCH  72  86
ATOM     86  C   UNL A   1      44.738  32.826  30.880  1.00  0.00     0.058 A 
ATOM     87  C   UNL A   1      43.747  32.652  29.890  1.00  0.00     0.135 A 
ATOM     88  C   UNL A   1      45.327  34.113  30.878  1.00  0.00     0.135 A 
ATOM     89  F   UNL A   1      43.086  31.492  29.766  1.00  0.00    -0.206 F 
ATOM     90  C   UNL A   1      43.395  33.648  28.972  1.00  0.00     0.059 A 
ATOM     91  C   UNL A   1      45.005  35.117  29.963  1.00  0.00     0.059 A 
ATOM     92  F   UNL A   1      46.238  34.496  31.772  1.00  0.00    -0.206 F 
ATOM     93  C   UNL A   1      44.033  34.879  29.011  1.00  0.00     0.060 A 
BRANCH  93  94
ATOM     94  S   UNL A   1      43.559  36.166  27.846  1.00  0.00     0.124 S 
ATOM     95  O   UNL A   1      42.496  35.513  27.087  1.00  0.00    -0.237 OA
ATOM     96  O   UNL A   1      43.138  37.241  28.737  1.00  0.00    -0.237 OA
ATOM     97  O   UNL A   1      44.788  36.422  27.098  1.00  0.00    -0.744 OA
ENDBRANCH  93  94
ENDBRANCH  72  86
BRANCH  73  98
ATOM     98  C   UNL A   1      46.504  23.717  34.424  1.00  0.00     0.058 A 
ATOM     99  C   UNL A   1      47.851  24.145  34.348  1.00  0.00     0.135 A 
ATOM    100  C   UNL A   1      46.324  22.339  34.580  1.00  0.00     0.135 A 
ATOM    101  F   UNL A   1      48.111  25.434  34.099  1.00  0.00    -0.206 F 
ATOM    102  C   UNL A   1      48.951  23.307  34.567  1.00  0.00     0.059 A 
ATOM    103  C   UNL A   1      47.418  21.461  34.766  1.00  0.00     0.059 A 
ATOM    104  F   UNL A   1      45.087  21.826  34.620  1.00  0.00    -0.206 F 
ATOM    105  C   UNL A   1      48.727  21.960  34.812  1.00  0.00     0.060 A 
BRANCH 105 106
ATOM    106  S   UNL A   1      50.167  20.886  35.156  1.00  0.00     0.124 S 
ATOM    107  O   UNL A   1      51.200  21.872  35.470  1.00  0.00    -0.237 OA
ATOM    108  O   UNL A   1      49.777  20.059  36.298  1.00  0.00    -0.237 OA
ATOM    109  O   UNL A   1      50.363  20.168  33.898  1.00  0.00    -0.744 OA
ENDBRANCH 105 106
ENDBRANCH  73  98
BRANCH  85 110
ATOM    110  C   UNL A   1      45.449  30.482  37.212  1.00  0.00     0.058 A 
ATOM    111  C   UNL A   1      46.738  30.963  37.501  1.00  0.00     0.135 A 
ATOM    112  C   UNL A   1      44.399  31.145  37.905  1.00  0.00     0.135 A 
ATOM    113  F   UNL A   1      47.817  30.536  36.833  1.00  0.00    -0.206 F 
ATOM    114  C   UNL A   1      46.976  31.950  38.460  1.00  0.00     0.059 A 
ATOM    115  C   UNL A   1      44.608  32.191  38.797  1.00  0.00     0.059 A 
ATOM    116  F   UNL A   1      43.110  30.815  37.727  1.00  0.00    -0.206 F 
ATOM    117  C   UNL A   1      45.906  32.560  39.101  1.00  0.00     0.060 A 
BRANCH 117 118
ATOM    118  S   UNL A   1      46.215  33.861  40.304  1.00  0.00     0.124 S 
ATOM    119  O   UNL A   1      45.483  34.977  39.714  1.00  0.00    -0.237 OA
ATOM    120  O   UNL A   1      45.641  33.307  41.528  1.00  0.00    -0.237 OA
ATOM    121  O   UNL A   1      47.668  33.986  40.303  1.00  0.00    -0.744 OA
ENDBRANCH 117 118
ENDBRANCH  85 110
ENDBRANCH  59  60
ENDBRANCH  51  54
ENDBRANCH  49  50
ENDBRANCH  48  49
ENDBRANCH  47  48
ENDBRANCH   3  47
TORSDOF 22
ENDMDL
MODEL 3
REMARK VINA RESULT:      -9.2      3.027      8.709
REMARK SMILES Cc1ccc(S(=O)(=O)n2cc(C(=O)C(=O)N[C@H](Cc3c[nH]c4ccccc34)C(=O)NCC(=O)NCCCNC(=O)c3ccc(-c4c5nc(c(-c6c(F)cc(S(=O)(=O)[O-])cc6F)c6ccc([nH]6)c(-c6c(F)cc(S(=O)(=O)[O-])cc6F)c6nc(c(-c7c(F)cc(S(=O)(=O)[O-])cc7F)c7ccc4[nH]7)C=C6)C=C5)cc3)c3ccccc32)cc1
REMARK SMILES IDX 32 1 33 2 34 3 31 5 30 6 28 7 29 8 17 10 16 11 14 12 15 13
REMARK SMILES IDX 12 15 13 16 11 17 9 18 10 19 112 20 107 21 111 22 108 23
REMARK SMILES IDX 110 24 109 25 6 26 7 27 8 28 5 29 1 30 2 31 3 32 114 33 4 34
REMARK SMILES IDX 113 35 18 36 19 37 20 38 27 39 21 40 22 41 26 42 23 44 25 45
REMARK SMILES IDX 24 46 35 47 36 48 37 49 38 50 39 51 40 53 41 54 42 55 106 56
REMARK SMILES IDX 43 57 105 58 44 59 45 60 46 61 99 62 47 63 104 64 98 65
REMARK SMILES IDX 100 66 48 67 103 68 97 69 96 70 49 72 83 73 62 74 82 75
REMARK SMILES IDX 63 76 66 77 81 78 101 79 64 80 65 81 80 83 102 84 67 85
REMARK SMILES IDX 50 86 51 87 60 88 52 89 53 90 59 91 61 92 54 93 55 94 56 95
REMARK SMILES IDX 57 96 58 97 84 98 85 99 94 100 86 101 87 102 93 103 95 104
REMARK SMILES IDX 88 105 89 106 90 107 91 108 92 109 68 110 69 111 78 112
REMARK SMILES IDX 70 113 71 114 77 115 79 116 72 117 73 118 74 119 75 120
REMARK SMILES IDX 76 121
REMARK H PARENT 34 4 30 9 16 14 21 43 38 52 100 71 66 82
REMARK Flexibility Score: inf
ROOT
ATOM      1  C   UNL A   1      37.695  30.212  29.327  1.00  0.00     0.239 C 
ATOM      2  O   UNL A   1      37.505  30.860  28.295  1.00  0.00    -0.273 OA
ATOM      3  N   UNL A   1      37.959  28.880  29.209  1.00  0.00    -0.355 N 
ATOM      4  H   UNL A   1      37.839  28.498  28.310  1.00  0.00     0.163 HD
ENDROOT
BRANCH   1   5
ATOM      5  C   UNL A   1      37.817  30.929  30.680  1.00  0.00     0.216 C 
BRANCH   5   6
ATOM      6  N   UNL A   1      38.502  32.203  30.656  1.00  0.00    -0.345 N 
ATOM      7  C   UNL A   1      38.640  33.231  31.522  1.00  0.00     0.243 C 
ATOM      8  O   UNL A   1      39.402  34.115  31.104  1.00  0.00    -0.273 OA
ATOM      9  H   UNL A   1      38.982  32.357  29.810  1.00  0.00     0.164 HD
BRANCH   7  10
ATOM     10  C   UNL A   1      37.965  33.392  32.928  1.00  0.00     0.176 C 
BRANCH  10  11
ATOM     11  N   UNL A   1      38.765  33.130  34.182  1.00  0.00    -0.337 N 
ATOM     12  C   UNL A   1      39.282  31.996  34.809  1.00  0.00     0.293 C 
ATOM     13  O   UNL A   1      39.865  32.103  35.883  1.00  0.00    -0.265 OA
ATOM     14  H   UNL A   1      38.970  33.956  34.676  1.00  0.00     0.164 HD
BRANCH  12  15
ATOM     15  C   UNL A   1      39.171  30.633  34.145  1.00  0.00     0.252 C 
ATOM     16  O   UNL A   1      38.063  30.116  34.272  1.00  0.00    -0.283 OA
BRANCH  15  17
ATOM     17  C   UNL A   1      40.189  29.873  33.409  1.00  0.00     0.054 A 
ATOM     18  N   UNL A   1      41.376  28.512  32.053  1.00  0.00    -0.240 N 
ATOM     19  C   UNL A   1      40.585  28.540  33.232  1.00  0.00     0.117 A 
ATOM     20  C   UNL A   1      41.163  29.773  31.448  1.00  0.00     0.065 A 
ATOM     21  C   UNL A   1      41.097  30.571  32.578  1.00  0.00     0.012 A 
ATOM     22  C   UNL A   1      41.580  30.289  30.216  1.00  0.00     0.028 A 
ATOM     23  C   UNL A   1      41.759  31.804  32.589  1.00  0.00     0.011 A 
ATOM     24  C   UNL A   1      42.307  31.485  30.276  1.00  0.00     0.002 A 
ATOM     25  C   UNL A   1      42.438  32.215  31.452  1.00  0.00     0.001 A 
BRANCH  18  26
ATOM     26  S   UNL A   1      43.111  28.153  31.971  1.00  0.00     0.268 S 
ATOM     27  O   UNL A   1      43.757  29.313  32.566  1.00  0.00    -0.201 OA
ATOM     28  O   UNL A   1      43.275  27.818  30.565  1.00  0.00    -0.201 OA
BRANCH  26  29
ATOM     29  C   UNL A   1      43.886  26.765  32.695  1.00  0.00     0.088 A 
ATOM     30  C   UNL A   1      45.237  22.803  33.657  1.00  0.00     0.044 C 
ATOM     31  C   UNL A   1      44.861  24.219  33.343  1.00  0.00    -0.051 A 
ATOM     32  C   UNL A   1      44.538  24.502  32.025  1.00  0.00     0.005 A 
ATOM     33  C   UNL A   1      44.751  25.238  34.318  1.00  0.00     0.005 A 
ATOM     34  C   UNL A   1      44.083  25.763  31.711  1.00  0.00     0.022 A 
ATOM     35  C   UNL A   1      44.253  26.525  34.004  1.00  0.00     0.022 A 
ENDBRANCH  26  29
ENDBRANCH  18  26
ENDBRANCH  15  17
ENDBRANCH  12  15
ENDBRANCH  10  11
BRANCH  10  36
ATOM     36  C   UNL A   1      36.418  33.181  33.051  1.00  0.00     0.072 C 
BRANCH  36  37
ATOM     37  C   UNL A   1      35.468  34.123  32.356  1.00  0.00    -0.020 A 
ATOM     38  C   UNL A   1      35.080  35.355  32.849  1.00  0.00     0.087 A 
ATOM     39  C   UNL A   1      34.884  34.031  31.044  1.00  0.00     0.003 A 
ATOM     40  N   UNL A   1      34.265  35.975  31.934  1.00  0.00    -0.361 N 
ATOM     41  C   UNL A   1      34.038  35.133  30.870  1.00  0.00     0.046 A 
ATOM     42  C   UNL A   1      34.979  33.104  29.984  1.00  0.00     0.010 A 
ATOM     43  H   UNL A   1      33.898  36.885  32.025  1.00  0.00     0.166 HD
ATOM     44  C   UNL A   1      33.191  35.277  29.760  1.00  0.00     0.026 A 
ATOM     45  C   UNL A   1      34.174  33.255  28.848  1.00  0.00     0.001 A 
ATOM     46  C   UNL A   1      33.269  34.308  28.754  1.00  0.00     0.002 A 
ENDBRANCH  36  37
ENDBRANCH  10  36
ENDBRANCH   7  10
ENDBRANCH   5   6
ENDBRANCH   1   5
BRANCH   3  47
ATOM     47  C   UNL A   1      38.394  27.954  30.236  1.00  0.00     0.117 C 
BRANCH  47  48
ATOM     48  C   UNL A   1      39.251  26.858  29.638  1.00  0.00     0.042 C 
BRANCH  48  49
ATOM     49  C   UNL A   1      39.991  27.341  28.413  1.00  0.00     0.118 C 
BRANCH  49  50
ATOM     50  N   UNL A   1      41.268  26.680  28.246  1.00  0.00    -0.352 N 
ATOM     51  C   UNL A   1      42.271  26.792  27.322  1.00  0.00     0.251 C 
ATOM     52  H   UNL A   1      41.453  26.008  28.943  1.00  0.00     0.163 HD
ATOM     53  O   UNL A   1      43.347  26.335  27.674  1.00  0.00    -0.269 OA
BRANCH  51  54
ATOM     54  C   UNL A   1      42.193  27.582  26.024  1.00  0.00     0.039 A 
ATOM     55  C   UNL A   1      43.476  27.526  25.451  1.00  0.00     0.014 A 
ATOM     56  C   UNL A   1      41.690  28.850  26.227  1.00  0.00     0.014 A 
ATOM     57  C   UNL A   1      44.410  28.406  25.968  1.00  0.00     0.010 A 
ATOM     58  C   UNL A   1      42.551  29.696  26.866  1.00  0.00     0.010 A 
ATOM     59  C   UNL A   1      43.917  29.391  26.814  1.00  0.00    -0.014 A 
BRANCH  59  60
ATOM     60  C   UNL A   1      44.743  30.311  27.541  1.00  0.00     0.031 A 
ATOM     61  C   UNL A   1      44.756  31.651  26.951  1.00  0.00     0.074 A 
ATOM     62  C   UNL A   1      45.246  29.902  28.723  1.00  0.00     0.049 A 
ATOM     63  N   UNL A   1      45.578  32.579  27.246  1.00  0.00    -0.248 NA
ATOM     64  C   UNL A   1      43.840  32.025  25.867  1.00  0.00     0.031 C 
ATOM     65  C   UNL A   1      45.844  30.682  29.797  1.00  0.00     0.029 A 
ATOM     66  N   UNL A   1      45.537  28.578  29.057  1.00  0.00    -0.354 N 
ATOM     67  C   UNL A   1      45.091  33.739  26.680  1.00  0.00     0.074 A 
ATOM     68  C   UNL A   1      44.123  33.314  25.715  1.00  0.00     0.031 C 
ATOM     69  C   UNL A   1      46.665  29.879  30.503  1.00  0.00     0.029 A 
ATOM     70  C   UNL A   1      46.720  28.595  29.808  1.00  0.00     0.049 A 
ATOM     71  H   UNL A   1      45.012  27.782  28.812  1.00  0.00     0.167 HD
ATOM     72  C   UNL A   1      45.455  34.911  27.266  1.00  0.00     0.037 A 
ATOM     73  C   UNL A   1      47.850  28.088  29.227  1.00  0.00     0.037 A 
ATOM     74  C   UNL A   1      46.551  34.631  28.206  1.00  0.00     0.049 A 
ATOM     75  C   UNL A   1      48.830  29.213  28.892  1.00  0.00     0.074 A 
ATOM     76  C   UNL A   1      46.578  34.409  29.574  1.00  0.00     0.029 A 
ATOM     77  N   UNL A   1      47.723  34.061  27.699  1.00  0.00    -0.354 N 
ATOM     78  N   UNL A   1      48.490  30.450  28.610  1.00  0.00    -0.248 NA
ATOM     79  C   UNL A   1      50.277  29.053  29.013  1.00  0.00     0.031 C 
ATOM     80  C   UNL A   1      47.708  33.582  29.858  1.00  0.00     0.029 A 
ATOM     81  C   UNL A   1      48.375  33.317  28.670  1.00  0.00     0.049 A 
ATOM     82  H   UNL A   1      48.042  34.174  26.775  1.00  0.00     0.167 HD
ATOM     83  C   UNL A   1      49.616  31.243  28.555  1.00  0.00     0.074 A 
ATOM     84  C   UNL A   1      50.704  30.312  28.814  1.00  0.00     0.031 C 
ATOM     85  C   UNL A   1      49.607  32.600  28.347  1.00  0.00     0.037 A 
BRANCH  72  86
ATOM     86  C   UNL A   1      44.641  36.193  27.215  1.00  0.00     0.058 A 
ATOM     87  C   UNL A   1      45.282  37.413  26.912  1.00  0.00     0.135 A 
ATOM     88  C   UNL A   1      43.268  36.332  27.529  1.00  0.00     0.135 A 
ATOM     89  F   UNL A   1      46.581  37.451  26.583  1.00  0.00    -0.206 F 
ATOM     90  C   UNL A   1      44.632  38.652  26.944  1.00  0.00     0.059 A 
ATOM     91  C   UNL A   1      42.601  37.558  27.584  1.00  0.00     0.059 A 
ATOM     92  F   UNL A   1      42.472  35.294  27.785  1.00  0.00    -0.206 F 
ATOM     93  C   UNL A   1      43.289  38.717  27.286  1.00  0.00     0.060 A 
BRANCH  93  94
ATOM     94  S   UNL A   1      42.450  40.309  27.300  1.00  0.00     0.124 S 
ATOM     95  O   UNL A   1      41.822  40.335  25.983  1.00  0.00    -0.237 OA
ATOM     96  O   UNL A   1      41.545  40.163  28.435  1.00  0.00    -0.237 OA
ATOM     97  O   UNL A   1      43.536  41.268  27.490  1.00  0.00    -0.744 OA
ENDBRANCH  93  94
ENDBRANCH  72  86
BRANCH  73  98
ATOM     98  C   UNL A   1      47.590  26.795  28.488  1.00  0.00     0.058 A 
ATOM     99  C   UNL A   1      47.059  25.711  29.227  1.00  0.00     0.135 A 
ATOM    100  C   UNL A   1      47.497  26.670  27.098  1.00  0.00     0.135 A 
ATOM    101  F   UNL A   1      47.197  25.704  30.558  1.00  0.00    -0.206 F 
ATOM    102  C   UNL A   1      46.345  24.651  28.657  1.00  0.00     0.059 A 
ATOM    103  C   UNL A   1      46.814  25.591  26.490  1.00  0.00     0.059 A 
ATOM    104  F   UNL A   1      48.008  27.622  26.305  1.00  0.00    -0.206 F 
ATOM    105  C   UNL A   1      46.193  24.612  27.279  1.00  0.00     0.060 A 
BRANCH 105 106
ATOM    106  S   UNL A   1      45.208  23.255  26.549  1.00  0.00     0.124 S 
ATOM    107  O   UNL A   1      44.559  23.934  25.428  1.00  0.00    -0.237 OA
ATOM    108  O   UNL A   1      46.178  22.240  26.140  1.00  0.00    -0.237 OA
ATOM    109  O   UNL A   1      44.310  22.865  27.635  1.00  0.00    -0.744 OA
ENDBRANCH 105 106
ENDBRANCH  73  98
BRANCH  85 110
ATOM    110  C   UNL A   1      50.803  33.426  27.889  1.00  0.00     0.058 A 
ATOM    111  C   UNL A   1      51.340  33.380  26.590  1.00  0.00     0.135 A 
ATOM    112  C   UNL A   1      51.349  34.441  28.721  1.00  0.00     0.135 A 
ATOM    113  F   UNL A   1      50.839  32.570  25.648  1.00  0.00    -0.206 F 
ATOM    114  C   UNL A   1      52.388  34.205  26.179  1.00  0.00     0.059 A 
ATOM    115  C   UNL A   1      52.331  35.333  28.301  1.00  0.00     0.059 A 
ATOM    116  F   UNL A   1      50.932  34.627  29.983  1.00  0.00    -0.206 F 
ATOM    117  C   UNL A   1      52.876  35.180  27.039  1.00  0.00     0.060 A 
BRANCH 117 118
ATOM    118  S   UNL A   1      54.197  36.270  26.490  1.00  0.00     0.124 S 
ATOM    119  O   UNL A   1      53.831  37.519  27.150  1.00  0.00    -0.237 OA
ATOM    120  O   UNL A   1      55.392  35.609  27.008  1.00  0.00    -0.237 OA
ATOM    121  O   UNL A   1      54.064  36.259  25.037  1.00  0.00    -0.744 OA
ENDBRANCH 117 118
ENDBRANCH  85 110
ENDBRANCH  59  60
ENDBRANCH  51  54
ENDBRANCH  49  50
ENDBRANCH  48  49
ENDBRANCH  47  48
ENDBRANCH   3  47
TORSDOF 22
ENDMDL
