MODEL 1
REMARK VINA RESULT:     -11.9      0.000      0.000
REMARK SMILES O=C(NCCCNC(=O)c1cn(C[C@@H]2CCS(=O)(=O)C2)c(=O)[nH]c1=O)c1ccc(-c2c3nc(c(-c4c(F)cc(S(=O)(=O)[O-])cc4F)c4ccc([nH]4)c(-c4c(F)cc(S(=O)(=O)[O-])cc4F)c4nc(c(-c5c(F)cc(S(=O)(=O)[O-])cc5F)c5ccc2[nH]5)C=C4)C=C3)cc1
REMARK SMILES IDX 4 1 3 2 1 3 2 4 26 6 27 7 91 8 28 9 90 10 29 11 30 12 31 13
REMARK SMILES IDX 84 14 32 15 89 16 83 17 85 18 33 19 88 20 82 21 81 22 34 24
REMARK SMILES IDX 68 25 47 26 67 27 48 28 51 29 66 30 86 31 49 32 50 33 65 35
REMARK SMILES IDX 87 36 52 37 35 38 36 39 45 40 37 41 38 42 44 43 46 44 39 45
REMARK SMILES IDX 40 46 41 47 42 48 43 49 69 50 70 51 79 52 71 53 72 54 78 55
REMARK SMILES IDX 80 56 73 57 74 58 75 59 76 60 77 61 53 62 54 63 63 64 55 65
REMARK SMILES IDX 56 66 62 67 64 68 57 69 58 70 59 71 60 72 61 73 5 74 6 75
REMARK SMILES IDX 7 76 8 77 9 79 10 80 11 81 24 82 12 83 23 84 25 85 21 86
REMARK SMILES IDX 22 88 13 89 14 90 15 91 20 92 16 93 17 94 18 95 19 96
REMARK H PARENT 3 5 85 23 51 34 7 78 23 87
REMARK Flexibility Score: inf
ROOT
ATOM      1  C   UNL A   1      33.317  28.606  27.281  1.00  0.00     0.118 C 
ENDROOT
BRANCH   1   2
ATOM      2  N   UNL A   1      33.387  30.022  27.612  1.00  0.00    -0.352 N 
ATOM      3  O   UNL A   1      34.095  31.862  28.674  1.00  0.00    -0.269 OA
ATOM      4  C   UNL A   1      34.367  30.743  28.246  1.00  0.00     0.251 C 
ATOM      5  H   UNL A   1      32.603  30.549  27.336  1.00  0.00     0.163 HD
BRANCH   4   6
ATOM      6  C   UNL A   1      35.732  30.196  28.407  1.00  0.00     0.039 A 
ATOM      7  C   UNL A   1      36.127  29.709  29.658  1.00  0.00     0.014 A 
ATOM      8  C   UNL A   1      36.656  30.248  27.360  1.00  0.00     0.014 A 
ATOM      9  C   UNL A   1      37.438  29.270  29.852  1.00  0.00     0.010 A 
ATOM     10  C   UNL A   1      37.930  29.717  27.525  1.00  0.00     0.010 A 
ATOM     11  C   UNL A   1      38.348  29.270  28.784  1.00  0.00    -0.014 A 
BRANCH  11  12
ATOM     12  C   UNL A   1      39.781  28.938  28.974  1.00  0.00     0.031 A 
ATOM     13  C   UNL A   1      40.702  29.981  29.553  1.00  0.00     0.074 A 
ATOM     14  C   UNL A   1      40.262  27.739  28.601  1.00  0.00     0.049 A 
ATOM     15  N   UNL A   1      42.002  29.961  29.684  1.00  0.00    -0.248 NA
ATOM     16  C   UNL A   1      40.070  31.226  30.022  1.00  0.00     0.031 C 
ATOM     17  C   UNL A   1      39.469  26.642  28.046  1.00  0.00     0.029 A 
ATOM     18  N   UNL A   1      41.541  27.247  28.632  1.00  0.00    -0.354 N 
ATOM     19  C   UNL A   1      42.342  31.189  30.240  1.00  0.00     0.074 A 
ATOM     20  C   UNL A   1      41.122  31.958  30.347  1.00  0.00     0.031 C 
ATOM     21  C   UNL A   1      40.276  25.592  27.820  1.00  0.00     0.029 A 
ATOM     22  C   UNL A   1      41.647  25.960  28.164  1.00  0.00     0.049 A 
ATOM     23  H   UNL A   1      42.311  27.766  28.959  1.00  0.00     0.167 HD
ATOM     24  C   UNL A   1      43.554  31.627  30.658  1.00  0.00     0.037 A 
ATOM     25  C   UNL A   1      42.729  25.172  28.023  1.00  0.00     0.037 A 
ATOM     26  C   UNL A   1      44.763  30.852  30.555  1.00  0.00     0.049 A 
ATOM     27  C   UNL A   1      44.081  25.704  28.416  1.00  0.00     0.074 A 
ATOM     28  C   UNL A   1      46.045  31.198  30.940  1.00  0.00     0.029 A 
ATOM     29  N   UNL A   1      44.836  29.569  30.031  1.00  0.00    -0.354 N 
ATOM     30  N   UNL A   1      44.393  26.872  28.926  1.00  0.00    -0.248 NA
ATOM     31  C   UNL A   1      45.227  24.811  28.206  1.00  0.00     0.031 C 
ATOM     32  C   UNL A   1      46.901  30.142  30.607  1.00  0.00     0.029 A 
ATOM     33  C   UNL A   1      46.144  29.115  30.066  1.00  0.00     0.049 A 
ATOM     34  H   UNL A   1      44.070  29.056  29.685  1.00  0.00     0.167 HD
ATOM     35  C   UNL A   1      45.770  26.847  29.122  1.00  0.00     0.074 A 
ATOM     36  C   UNL A   1      46.225  25.540  28.688  1.00  0.00     0.031 C 
ATOM     37  C   UNL A   1      46.584  27.815  29.616  1.00  0.00     0.037 A 
BRANCH  24  38
ATOM     38  C   UNL A   1      43.615  33.005  31.261  1.00  0.00     0.058 A 
ATOM     39  C   UNL A   1      43.780  34.151  30.464  1.00  0.00     0.135 A 
ATOM     40  C   UNL A   1      43.528  33.187  32.651  1.00  0.00     0.135 A 
ATOM     41  F   UNL A   1      43.889  34.036  29.130  1.00  0.00    -0.206 F 
ATOM     42  C   UNL A   1      43.908  35.417  31.023  1.00  0.00     0.059 A 
ATOM     43  C   UNL A   1      43.617  34.450  33.231  1.00  0.00     0.059 A 
ATOM     44  F   UNL A   1      43.369  32.131  33.464  1.00  0.00    -0.206 F 
ATOM     45  C   UNL A   1      43.830  35.556  32.409  1.00  0.00     0.060 A 
BRANCH  45  46
ATOM     46  S   UNL A   1      44.032  37.204  33.118  1.00  0.00     0.124 S 
ATOM     47  O   UNL A   1      43.987  38.042  31.923  1.00  0.00    -0.237 OA
ATOM     48  O   UNL A   1      42.878  37.304  34.005  1.00  0.00    -0.237 OA
ATOM     49  O   UNL A   1      45.329  37.133  33.784  1.00  0.00    -0.744 OA
ENDBRANCH  45  46
ENDBRANCH  24  38
BRANCH  25  50
ATOM     50  C   UNL A   1      42.562  23.778  27.534  1.00  0.00     0.058 A 
ATOM     51  C   UNL A   1      42.593  23.501  26.160  1.00  0.00     0.135 A 
ATOM     52  C   UNL A   1      42.433  22.696  28.418  1.00  0.00     0.135 A 
ATOM     53  F   UNL A   1      42.703  24.504  25.276  1.00  0.00    -0.206 F 
ATOM     54  C   UNL A   1      42.517  22.199  25.677  1.00  0.00     0.059 A 
ATOM     55  C   UNL A   1      42.379  21.382  27.961  1.00  0.00     0.059 A 
ATOM     56  F   UNL A   1      42.408  22.908  29.743  1.00  0.00    -0.206 F 
ATOM     57  C   UNL A   1      42.426  21.145  26.588  1.00  0.00     0.060 A 
BRANCH  57  58
ATOM     58  S   UNL A   1      42.432  19.455  25.948  1.00  0.00     0.124 S 
ATOM     59  O   UNL A   1      41.020  19.245  25.654  1.00  0.00    -0.237 OA
ATOM     60  O   UNL A   1      43.316  19.575  24.792  1.00  0.00    -0.237 OA
ATOM     61  O   UNL A   1      42.969  18.676  27.059  1.00  0.00    -0.744 OA
ENDBRANCH  57  58
ENDBRANCH  25  50
BRANCH  37  62
ATOM     62  C   UNL A   1      48.050  27.493  29.724  1.00  0.00     0.058 A 
ATOM     63  C   UNL A   1      48.949  27.792  28.689  1.00  0.00     0.135 A 
ATOM     64  C   UNL A   1      48.570  26.913  30.894  1.00  0.00     0.135 A 
ATOM     65  F   UNL A   1      48.506  28.344  27.547  1.00  0.00    -0.206 F 
ATOM     66  C   UNL A   1      50.304  27.494  28.793  1.00  0.00     0.059 A 
ATOM     67  C   UNL A   1      49.926  26.637  31.033  1.00  0.00     0.059 A 
ATOM     68  F   UNL A   1      47.758  26.620  31.923  1.00  0.00    -0.206 F 
ATOM     69  C   UNL A   1      50.783  26.916  29.969  1.00  0.00     0.060 A 
BRANCH  69  70
ATOM     70  S   UNL A   1      52.544  26.540  30.089  1.00  0.00     0.124 S 
ATOM     71  O   UNL A   1      52.837  26.068  28.740  1.00  0.00    -0.237 OA
ATOM     72  O   UNL A   1      53.114  27.836  30.445  1.00  0.00    -0.237 OA
ATOM     73  O   UNL A   1      52.607  25.525  31.137  1.00  0.00    -0.744 OA
ENDBRANCH  69  70
ENDBRANCH  37  62
ENDBRANCH  11  12
ENDBRANCH   4   6
ENDBRANCH   1   2
BRANCH   1  74
ATOM     74  C   UNL A   1      33.495  28.361  25.792  1.00  0.00     0.042 C 
BRANCH  74  75
ATOM     75  C   UNL A   1      32.234  28.599  24.979  1.00  0.00     0.118 C 
BRANCH  75  76
ATOM     76  N   UNL A   1      31.095  27.805  25.427  1.00  0.00    -0.352 N 
ATOM     77  C   UNL A   1      30.504  26.701  24.865  1.00  0.00     0.258 C 
ATOM     78  H   UNL A   1      30.684  28.111  26.268  1.00  0.00     0.163 HD
ATOM     79  O   UNL A   1      29.534  26.188  25.411  1.00  0.00    -0.269 OA
BRANCH  77  80
ATOM     80  C   UNL A   1      31.071  26.174  23.609  1.00  0.00     0.121 A 
ATOM     81  C   UNL A   1      31.813  25.059  23.646  1.00  0.00     0.110 A 
ATOM     82  C   UNL A   1      30.895  26.853  22.313  1.00  0.00     0.266 A 
ATOM     83  N   UNL A   1      32.575  24.638  22.572  1.00  0.00    -0.299 N 
ATOM     84  N   UNL A   1      31.667  26.367  21.290  1.00  0.00    -0.273 N 
ATOM     85  O   UNL A   1      30.166  27.823  22.146  1.00  0.00    -0.268 OA
ATOM     86  C   UNL A   1      32.569  25.342  21.371  1.00  0.00     0.328 A 
ATOM     87  H   UNL A   1      31.561  26.797  20.411  1.00  0.00     0.175 HD
ATOM     88  O   UNL A   1      33.299  25.076  20.420  1.00  0.00    -0.248 OA
BRANCH  83  89
ATOM     89  C   UNL A   1      33.534  23.554  22.766  1.00  0.00     0.131 C 
BRANCH  89  90
ATOM     90  C   UNL A   1      34.936  23.945  23.268  1.00  0.00     0.025 C 
ATOM     91  C   UNL A   1      36.026  22.879  23.084  1.00  0.00     0.022 C 
ATOM     92  C   UNL A   1      34.993  24.377  24.735  1.00  0.00     0.142 C 
ATOM     93  C   UNL A   1      36.038  21.957  24.298  1.00  0.00     0.137 C 
ATOM     94  S   UNL A   1      35.511  22.953  25.675  1.00  0.00     0.150 S 
ATOM     95  O   UNL A   1      34.344  22.340  26.279  1.00  0.00    -0.229 OA
ATOM     96  O   UNL A   1      36.672  23.320  26.456  1.00  0.00    -0.229 OA
ENDBRANCH  89  90
ENDBRANCH  83  89
ENDBRANCH  77  80
ENDBRANCH  75  76
ENDBRANCH  74  75
ENDBRANCH   1  74
TORSDOF 15
ENDMDL
MODEL 2
REMARK VINA RESULT:     -11.6      1.055      1.578
REMARK SMILES O=C(NCCCNC(=O)c1cn(C[C@@H]2CCS(=O)(=O)C2)c(=O)[nH]c1=O)c1ccc(-c2c3nc(c(-c4c(F)cc(S(=O)(=O)[O-])cc4F)c4ccc([nH]4)c(-c4c(F)cc(S(=O)(=O)[O-])cc4F)c4nc(c(-c5c(F)cc(S(=O)(=O)[O-])cc5F)c5ccc2[nH]5)C=C4)C=C3)cc1
REMARK SMILES IDX 4 1 3 2 1 3 2 4 26 6 27 7 91 8 28 9 90 10 29 11 30 12 31 13
REMARK SMILES IDX 84 14 32 15 89 16 83 17 85 18 33 19 88 20 82 21 81 22 34 24
REMARK SMILES IDX 68 25 47 26 67 27 48 28 51 29 66 30 86 31 49 32 50 33 65 35
REMARK SMILES IDX 87 36 52 37 35 38 36 39 45 40 37 41 38 42 44 43 46 44 39 45
REMARK SMILES IDX 40 46 41 47 42 48 43 49 69 50 70 51 79 52 71 53 72 54 78 55
REMARK SMILES IDX 80 56 73 57 74 58 75 59 76 60 77 61 53 62 54 63 63 64 55 65
REMARK SMILES IDX 56 66 62 67 64 68 57 69 58 70 59 71 60 72 61 73 5 74 6 75
REMARK SMILES IDX 7 76 8 77 9 79 10 80 11 81 24 82 12 83 23 84 25 85 21 86
REMARK SMILES IDX 22 88 13 89 14 90 15 91 20 92 16 93 17 94 18 95 19 96
REMARK H PARENT 3 5 85 23 51 34 7 78 23 87
REMARK Flexibility Score: inf
ROOT
ATOM      1  C   UNL A   1      33.489  28.596  26.988  1.00  0.00     0.118 C 
ENDROOT
BRANCH   1   2
ATOM      2  N   UNL A   1      33.515  29.989  27.412  1.00  0.00    -0.352 N 
ATOM      3  O   UNL A   1      34.138  31.768  28.620  1.00  0.00    -0.269 OA
ATOM      4  C   UNL A   1      34.451  30.684  28.134  1.00  0.00     0.251 C 
ATOM      5  H   UNL A   1      32.734  30.518  27.134  1.00  0.00     0.163 HD
BRANCH   4   6
ATOM      6  C   UNL A   1      35.819  30.152  28.323  1.00  0.00     0.039 A 
ATOM      7  C   UNL A   1      36.190  29.660  29.579  1.00  0.00     0.014 A 
ATOM      8  C   UNL A   1      36.766  30.222  27.298  1.00  0.00     0.014 A 
ATOM      9  C   UNL A   1      37.501  29.234  29.800  1.00  0.00     0.010 A 
ATOM     10  C   UNL A   1      38.041  29.705  27.488  1.00  0.00     0.010 A 
ATOM     11  C   UNL A   1      38.435  29.253  28.754  1.00  0.00    -0.014 A 
BRANCH  11  12
ATOM     12  C   UNL A   1      39.868  28.936  28.974  1.00  0.00     0.031 A 
ATOM     13  C   UNL A   1      40.766  29.990  29.567  1.00  0.00     0.074 A 
ATOM     14  C   UNL A   1      40.368  27.740  28.616  1.00  0.00     0.049 A 
ATOM     15  N   UNL A   1      42.064  29.984  29.724  1.00  0.00    -0.248 NA
ATOM     16  C   UNL A   1      40.112  31.231  30.017  1.00  0.00     0.031 C 
ATOM     17  C   UNL A   1      39.597  26.633  28.049  1.00  0.00     0.029 A 
ATOM     18  N   UNL A   1      41.651  27.261  28.675  1.00  0.00    -0.354 N 
ATOM     19  C   UNL A   1      42.380  31.218  30.281  1.00  0.00     0.074 A 
ATOM     20  C   UNL A   1      41.151  31.975  30.360  1.00  0.00     0.031 C 
ATOM     21  C   UNL A   1      40.419  25.591  27.845  1.00  0.00     0.029 A 
ATOM     22  C   UNL A   1      41.779  25.973  28.215  1.00  0.00     0.049 A 
ATOM     23  H   UNL A   1      42.409  27.789  29.015  1.00  0.00     0.167 HD
ATOM     24  C   UNL A   1      43.579  31.669  30.722  1.00  0.00     0.037 A 
ATOM     25  C   UNL A   1      42.871  25.195  28.100  1.00  0.00     0.037 A 
ATOM     26  C   UNL A   1      44.798  30.906  30.647  1.00  0.00     0.049 A 
ATOM     27  C   UNL A   1      44.210  25.742  28.517  1.00  0.00     0.074 A 
ATOM     28  C   UNL A   1      46.068  31.266  31.057  1.00  0.00     0.029 A 
ATOM     29  N   UNL A   1      44.893  29.621  30.130  1.00  0.00    -0.354 N 
ATOM     30  N   UNL A   1      44.500  26.915  29.029  1.00  0.00    -0.248 NA
ATOM     31  C   UNL A   1      45.369  24.860  28.335  1.00  0.00     0.031 C 
ATOM     32  C   UNL A   1      46.941  30.217  30.746  1.00  0.00     0.029 A 
ATOM     33  C   UNL A   1      46.206  29.180  30.194  1.00  0.00     0.049 A 
ATOM     34  H   UNL A   1      44.140  29.099  29.771  1.00  0.00     0.167 HD
ATOM     35  C   UNL A   1      45.873  26.905  29.253  1.00  0.00     0.074 A 
ATOM     36  C   UNL A   1      46.349  25.601  28.834  1.00  0.00     0.031 C 
ATOM     37  C   UNL A   1      46.667  27.883  29.758  1.00  0.00     0.037 A 
BRANCH  24  38
ATOM     38  C   UNL A   1      43.614  33.050  31.321  1.00  0.00     0.058 A 
ATOM     39  C   UNL A   1      43.868  34.187  30.533  1.00  0.00     0.135 A 
ATOM     40  C   UNL A   1      43.413  33.244  32.697  1.00  0.00     0.135 A 
ATOM     41  F   UNL A   1      44.087  34.061  29.214  1.00  0.00    -0.206 F 
ATOM     42  C   UNL A   1      43.971  35.455  31.094  1.00  0.00     0.059 A 
ATOM     43  C   UNL A   1      43.477  34.510  33.275  1.00  0.00     0.059 A 
ATOM     44  F   UNL A   1      43.166  32.197  33.499  1.00  0.00    -0.206 F 
ATOM     45  C   UNL A   1      43.779  35.606  32.467  1.00  0.00     0.060 A 
BRANCH  45  46
ATOM     46  S   UNL A   1      43.950  37.255  33.182  1.00  0.00     0.124 S 
ATOM     47  O   UNL A   1      43.849  38.098  31.993  1.00  0.00    -0.237 OA
ATOM     48  O   UNL A   1      42.817  37.315  34.099  1.00  0.00    -0.237 OA
ATOM     49  O   UNL A   1      45.265  37.219  33.813  1.00  0.00    -0.744 OA
ENDBRANCH  45  46
ENDBRANCH  24  38
BRANCH  25  50
ATOM     50  C   UNL A   1      42.727  23.798  27.613  1.00  0.00     0.058 A 
ATOM     51  C   UNL A   1      42.546  22.746  28.521  1.00  0.00     0.135 A 
ATOM     52  C   UNL A   1      42.702  23.492  26.243  1.00  0.00     0.135 A 
ATOM     53  F   UNL A   1      42.575  22.987  29.841  1.00  0.00    -0.206 F 
ATOM     54  C   UNL A   1      42.331  21.441  28.092  1.00  0.00     0.059 A 
ATOM     55  C   UNL A   1      42.465  22.198  25.788  1.00  0.00     0.059 A 
ATOM     56  F   UNL A   1      42.860  24.466  25.333  1.00  0.00    -0.206 F 
ATOM     57  C   UNL A   1      42.276  21.181  26.723  1.00  0.00     0.060 A 
BRANCH  57  58
ATOM     58  S   UNL A   1      41.893  19.499  26.183  1.00  0.00     0.124 S 
ATOM     59  O   UNL A   1      40.443  19.554  26.048  1.00  0.00    -0.237 OA
ATOM     60  O   UNL A   1      42.649  19.404  24.938  1.00  0.00    -0.237 OA
ATOM     61  O   UNL A   1      42.394  18.672  27.277  1.00  0.00    -0.744 OA
ENDBRANCH  57  58
ENDBRANCH  25  50
BRANCH  37  62
ATOM     62  C   UNL A   1      48.134  27.576  29.898  1.00  0.00     0.058 A 
ATOM     63  C   UNL A   1      49.043  27.838  28.862  1.00  0.00     0.135 A 
ATOM     64  C   UNL A   1      48.643  27.049  31.097  1.00  0.00     0.135 A 
ATOM     65  F   UNL A   1      48.611  28.338  27.693  1.00  0.00    -0.206 F 
ATOM     66  C   UNL A   1      50.399  27.553  28.995  1.00  0.00     0.059 A 
ATOM     67  C   UNL A   1      49.999  26.788  31.264  1.00  0.00     0.059 A 
ATOM     68  F   UNL A   1      47.820  26.794  32.128  1.00  0.00    -0.206 F 
ATOM     69  C   UNL A   1      50.867  27.028  30.200  1.00  0.00     0.060 A 
BRANCH  69  70
ATOM     70  S   UNL A   1      52.629  26.670  30.357  1.00  0.00     0.124 S 
ATOM     71  O   UNL A   1      53.142  27.936  30.870  1.00  0.00    -0.237 OA
ATOM     72  O   UNL A   1      52.635  25.554  31.298  1.00  0.00    -0.237 OA
ATOM     73  O   UNL A   1      53.032  26.335  28.994  1.00  0.00    -0.744 OA
ENDBRANCH  69  70
ENDBRANCH  37  62
ENDBRANCH  11  12
ENDBRANCH   4   6
ENDBRANCH   1   2
BRANCH   1  74
ATOM     74  C   UNL A   1      32.170  27.923  27.328  1.00  0.00     0.042 C 
BRANCH  74  75
ATOM     75  C   UNL A   1      31.709  26.920  26.284  1.00  0.00     0.118 C 
BRANCH  75  76
ATOM     76  N   UNL A   1      30.657  26.029  26.758  1.00  0.00    -0.352 N 
ATOM     77  C   UNL A   1      30.250  24.804  26.291  1.00  0.00     0.258 C 
ATOM     78  H   UNL A   1      30.158  26.359  27.541  1.00  0.00     0.163 HD
ATOM     79  O   UNL A   1      29.323  24.221  26.841  1.00  0.00    -0.269 OA
BRANCH  77  80
ATOM     80  C   UNL A   1      30.958  24.236  25.128  1.00  0.00     0.121 A 
ATOM     81  C   UNL A   1      31.939  23.346  25.332  1.00  0.00     0.110 A 
ATOM     82  C   UNL A   1      30.664  24.643  23.742  1.00  0.00     0.266 A 
ATOM     83  N   UNL A   1      32.807  22.953  24.330  1.00  0.00    -0.299 N 
ATOM     84  N   UNL A   1      31.555  24.199  22.801  1.00  0.00    -0.273 N 
ATOM     85  O   UNL A   1      29.732  25.376  23.433  1.00  0.00    -0.268 OA
ATOM     86  C   UNL A   1      32.669  23.441  23.034  1.00  0.00     0.328 A 
ATOM     87  H   UNL A   1      31.375  24.449  21.866  1.00  0.00     0.175 HD
ATOM     88  O   UNL A   1      33.466  23.208  22.129  1.00  0.00    -0.248 OA
BRANCH  83  89
ATOM     89  C   UNL A   1      33.987  22.169  24.682  1.00  0.00     0.131 C 
BRANCH  89  90
ATOM     90  C   UNL A   1      35.013  22.835  25.618  1.00  0.00     0.025 C 
ATOM     91  C   UNL A   1      35.828  23.980  24.999  1.00  0.00     0.022 C 
ATOM     92  C   UNL A   1      36.022  21.874  26.250  1.00  0.00     0.142 C 
ATOM     93  C   UNL A   1      37.072  23.407  24.329  1.00  0.00     0.137 C 
ATOM     94  S   UNL A   1      37.503  21.952  25.259  1.00  0.00     0.150 S 
ATOM     95  O   UNL A   1      37.527  20.812  24.363  1.00  0.00    -0.229 OA
ATOM     96  O   UNL A   1      38.616  22.266  26.126  1.00  0.00    -0.229 OA
ENDBRANCH  89  90
ENDBRANCH  83  89
ENDBRANCH  77  80
ENDBRANCH  75  76
ENDBRANCH  74  75
ENDBRANCH   1  74
TORSDOF 15
ENDMDL
MODEL 3
REMARK VINA RESULT:     -11.6      1.010      2.160
REMARK SMILES O=C(NCCCNC(=O)c1cn(C[C@@H]2CCS(=O)(=O)C2)c(=O)[nH]c1=O)c1ccc(-c2c3nc(c(-c4c(F)cc(S(=O)(=O)[O-])cc4F)c4ccc([nH]4)c(-c4c(F)cc(S(=O)(=O)[O-])cc4F)c4nc(c(-c5c(F)cc(S(=O)(=O)[O-])cc5F)c5ccc2[nH]5)C=C4)C=C3)cc1
REMARK SMILES IDX 4 1 3 2 1 3 2 4 26 6 27 7 91 8 28 9 90 10 29 11 30 12 31 13
REMARK SMILES IDX 84 14 32 15 89 16 83 17 85 18 33 19 88 20 82 21 81 22 34 24
REMARK SMILES IDX 68 25 47 26 67 27 48 28 51 29 66 30 86 31 49 32 50 33 65 35
REMARK SMILES IDX 87 36 52 37 35 38 36 39 45 40 37 41 38 42 44 43 46 44 39 45
REMARK SMILES IDX 40 46 41 47 42 48 43 49 69 50 70 51 79 52 71 53 72 54 78 55
REMARK SMILES IDX 80 56 73 57 74 58 75 59 76 60 77 61 53 62 54 63 63 64 55 65
REMARK SMILES IDX 56 66 62 67 64 68 57 69 58 70 59 71 60 72 61 73 5 74 6 75
REMARK SMILES IDX 7 76 8 77 9 79 10 80 11 81 24 82 12 83 23 84 25 85 21 86
REMARK SMILES IDX 22 88 13 89 14 90 15 91 20 92 16 93 17 94 18 95 19 96
REMARK H PARENT 3 5 85 23 51 34 7 78 23 87
REMARK Flexibility Score: inf
ROOT
ATOM      1  C   UNL A   1      33.567  28.709  27.335  1.00  0.00     0.118 C 
ENDROOT
BRANCH   1   2
ATOM      2  N   UNL A   1      33.618  30.104  27.750  1.00  0.00    -0.352 N 
ATOM      3  O   UNL A   1      34.295  31.887  28.924  1.00  0.00    -0.269 OA
ATOM      4  C   UNL A   1      34.583  30.797  28.434  1.00  0.00     0.251 C 
ATOM      5  H   UNL A   1      32.830  30.638  27.496  1.00  0.00     0.163 HD
BRANCH   4   6
ATOM      6  C   UNL A   1      35.953  30.257  28.576  1.00  0.00     0.039 A 
ATOM      7  C   UNL A   1      36.345  29.712  29.804  1.00  0.00     0.014 A 
ATOM      8  C   UNL A   1      36.883  30.370  27.540  1.00  0.00     0.014 A 
ATOM      9  C   UNL A   1      37.659  29.276  29.985  1.00  0.00     0.010 A 
ATOM     10  C   UNL A   1      38.161  29.845  27.686  1.00  0.00     0.010 A 
ATOM     11  C   UNL A   1      38.576  29.339  28.925  1.00  0.00    -0.014 A 
BRANCH  11  12
ATOM     12  C   UNL A   1      40.011  29.012  29.108  1.00  0.00     0.031 A 
ATOM     13  C   UNL A   1      40.930  30.057  29.684  1.00  0.00     0.074 A 
ATOM     14  C   UNL A   1      40.495  27.816  28.729  1.00  0.00     0.049 A 
ATOM     15  N   UNL A   1      42.232  30.042  29.810  1.00  0.00    -0.248 NA
ATOM     16  C   UNL A   1      40.295  31.299  30.159  1.00  0.00     0.031 C 
ATOM     17  C   UNL A   1      39.704  26.717  28.175  1.00  0.00     0.029 A 
ATOM     18  N   UNL A   1      41.776  27.329  28.753  1.00  0.00    -0.354 N 
ATOM     19  C   UNL A   1      42.569  31.270  30.367  1.00  0.00     0.074 A 
ATOM     20  C   UNL A   1      41.347  32.034  30.481  1.00  0.00     0.031 C 
ATOM     21  C   UNL A   1      40.514  25.671  27.943  1.00  0.00     0.029 A 
ATOM     22  C   UNL A   1      41.885  26.043  28.281  1.00  0.00     0.049 A 
ATOM     23  H   UNL A   1      42.546  27.850  29.078  1.00  0.00     0.167 HD
ATOM     24  C   UNL A   1      43.781  31.711  30.781  1.00  0.00     0.037 A 
ATOM     25  C   UNL A   1      42.970  25.260  28.134  1.00  0.00     0.037 A 
ATOM     26  C   UNL A   1      44.993  30.942  30.670  1.00  0.00     0.049 A 
ATOM     27  C   UNL A   1      44.321  25.796  28.522  1.00  0.00     0.074 A 
ATOM     28  C   UNL A   1      46.275  31.292  31.050  1.00  0.00     0.029 A 
ATOM     29  N   UNL A   1      45.068  29.660  30.143  1.00  0.00    -0.354 N 
ATOM     30  N   UNL A   1      44.631  26.964  29.034  1.00  0.00    -0.248 NA
ATOM     31  C   UNL A   1      45.470  24.908  28.305  1.00  0.00     0.031 C 
ATOM     32  C   UNL A   1      47.133  30.240  30.711  1.00  0.00     0.029 A 
ATOM     33  C   UNL A   1      46.379  29.211  30.171  1.00  0.00     0.049 A 
ATOM     34  H   UNL A   1      44.303  29.145  29.799  1.00  0.00     0.167 HD
ATOM     35  C   UNL A   1      46.009  26.944  29.223  1.00  0.00     0.074 A 
ATOM     36  C   UNL A   1      46.467  25.640  28.784  1.00  0.00     0.031 C 
ATOM     37  C   UNL A   1      46.821  27.914  29.716  1.00  0.00     0.037 A 
BRANCH  24  38
ATOM     38  C   UNL A   1      43.840  33.088  31.387  1.00  0.00     0.058 A 
ATOM     39  C   UNL A   1      43.809  33.281  32.780  1.00  0.00     0.135 A 
ATOM     40  C   UNL A   1      43.907  34.231  30.574  1.00  0.00     0.135 A 
ATOM     41  F   UNL A   1      43.726  32.226  33.606  1.00  0.00    -0.206 F 
ATOM     42  C   UNL A   1      43.792  34.553  33.339  1.00  0.00     0.059 A 
ATOM     43  C   UNL A   1      43.926  35.514  31.114  1.00  0.00     0.059 A 
ATOM     44  F   UNL A   1      43.939  34.110  29.237  1.00  0.00    -0.206 F 
ATOM     45  C   UNL A   1      43.845  35.665  32.498  1.00  0.00     0.060 A 
BRANCH  45  46
ATOM     46  S   UNL A   1      43.788  37.308  33.243  1.00  0.00     0.124 S 
ATOM     47  O   UNL A   1      42.562  37.226  34.033  1.00  0.00    -0.237 OA
ATOM     48  O   UNL A   1      45.030  37.347  34.006  1.00  0.00    -0.237 OA
ATOM     49  O   UNL A   1      43.731  38.203  32.092  1.00  0.00    -0.744 OA
ENDBRANCH  45  46
ENDBRANCH  24  38
BRANCH  25  50
ATOM     50  C   UNL A   1      42.805  23.867  27.642  1.00  0.00     0.058 A 
ATOM     51  C   UNL A   1      42.649  22.808  28.548  1.00  0.00     0.135 A 
ATOM     52  C   UNL A   1      42.734  23.571  26.271  1.00  0.00     0.135 A 
ATOM     53  F   UNL A   1      42.720  23.040  29.868  1.00  0.00    -0.206 F 
ATOM     54  C   UNL A   1      42.416  21.508  28.116  1.00  0.00     0.059 A 
ATOM     55  C   UNL A   1      42.479  22.282  25.815  1.00  0.00     0.059 A 
ATOM     56  F   UNL A   1      42.868  24.551  25.364  1.00  0.00    -0.206 F 
ATOM     57  C   UNL A   1      42.316  21.258  26.747  1.00  0.00     0.060 A 
BRANCH  57  58
ATOM     58  S   UNL A   1      41.910  19.581  26.208  1.00  0.00     0.124 S 
ATOM     59  O   UNL A   1      42.697  19.464  24.986  1.00  0.00    -0.237 OA
ATOM     60  O   UNL A   1      42.365  18.783  27.342  1.00  0.00    -0.237 OA
ATOM     61  O   UNL A   1      40.463  19.627  26.024  1.00  0.00    -0.744 OA
ENDBRANCH  57  58
ENDBRANCH  25  50
BRANCH  37  62
ATOM     62  C   UNL A   1      48.289  27.598  29.817  1.00  0.00     0.058 A 
ATOM     63  C   UNL A   1      48.828  26.956  30.942  1.00  0.00     0.135 A 
ATOM     64  C   UNL A   1      49.161  27.907  28.760  1.00  0.00     0.135 A 
ATOM     65  F   UNL A   1      48.041  26.640  31.983  1.00  0.00    -0.206 F 
ATOM     66  C   UNL A   1      50.186  26.665  31.033  1.00  0.00     0.059 A 
ATOM     67  C   UNL A   1      50.516  27.596  28.814  1.00  0.00     0.059 A 
ATOM     68  F   UNL A   1      48.697  28.508  27.652  1.00  0.00    -0.206 F 
ATOM     69  C   UNL A   1      51.023  26.989  29.963  1.00  0.00     0.060 A 
BRANCH  69  70
ATOM     70  S   UNL A   1      52.780  26.601  30.095  1.00  0.00     0.124 S 
ATOM     71  O   UNL A   1      52.777  25.572  31.130  1.00  0.00    -0.237 OA
ATOM     72  O   UNL A   1      53.097  26.143  28.745  1.00  0.00    -0.237 OA
ATOM     73  O   UNL A   1      53.384  27.874  30.477  1.00  0.00    -0.744 OA
ENDBRANCH  69  70
ENDBRANCH  37  62
ENDBRANCH  11  12
ENDBRANCH   4   6
ENDBRANCH   1   2
BRANCH   1  74
ATOM     74  C   UNL A   1      34.085  28.516  25.921  1.00  0.00     0.042 C 
BRANCH  74  75
ATOM     75  C   UNL A   1      33.282  29.263  24.870  1.00  0.00     0.118 C 
BRANCH  75  76
ATOM     76  N   UNL A   1      33.817  29.122  23.520  1.00  0.00    -0.352 N 
ATOM     77  C   UNL A   1      33.641  28.125  22.593  1.00  0.00     0.258 C 
ATOM     78  H   UNL A   1      34.397  29.862  23.227  1.00  0.00     0.163 HD
ATOM     79  O   UNL A   1      34.201  28.203  21.505  1.00  0.00    -0.269 OA
BRANCH  77  80
ATOM     80  C   UNL A   1      32.774  26.988  22.954  1.00  0.00     0.121 A 
ATOM     81  C   UNL A   1      33.329  25.787  23.167  1.00  0.00     0.110 A 
ATOM     82  C   UNL A   1      31.307  27.105  23.044  1.00  0.00     0.266 A 
ATOM     83  N   UNL A   1      32.579  24.629  23.267  1.00  0.00    -0.299 N 
ATOM     84  N   UNL A   1      30.634  25.918  23.163  1.00  0.00    -0.273 N 
ATOM     85  O   UNL A   1      30.704  28.167  22.959  1.00  0.00    -0.268 OA
ATOM     86  C   UNL A   1      31.190  24.669  23.194  1.00  0.00     0.328 A 
ATOM     87  H   UNL A   1      29.653  25.970  23.235  1.00  0.00     0.175 HD
ATOM     88  O   UNL A   1      30.478  23.668  23.175  1.00  0.00    -0.248 OA
BRANCH  83  89
ATOM     89  C   UNL A   1      33.264  23.340  23.261  1.00  0.00     0.131 C 
BRANCH  89  90
ATOM     90  C   UNL A   1      33.735  22.794  24.621  1.00  0.00     0.025 C 
ATOM     91  C   UNL A   1      34.361  23.828  25.569  1.00  0.00     0.022 C 
ATOM     92  C   UNL A   1      34.723  21.628  24.537  1.00  0.00     0.142 C 
ATOM     93  C   UNL A   1      35.855  23.929  25.287  1.00  0.00     0.137 C 
ATOM     94  S   UNL A   1      36.357  22.319  24.720  1.00  0.00     0.150 S 
ATOM     95  O   UNL A   1      36.960  22.450  23.407  1.00  0.00    -0.229 OA
ATOM     96  O   UNL A   1      37.024  21.631  25.802  1.00  0.00    -0.229 OA
ENDBRANCH  89  90
ENDBRANCH  83  89
ENDBRANCH  77  80
ENDBRANCH  75  76
ENDBRANCH  74  75
ENDBRANCH   1  74
TORSDOF 15
ENDMDL
