MODEL 1
REMARK VINA RESULT:     -15.3      0.000      0.000
REMARK SMILES C[C@]12C(=O)N(c3ccc(C(=O)NCCCNC(=O)c4ccc(-c5c6nc(c(-c7c(F)cc(S(=O)(=O)[O-])cc7F)c7ccc([nH]7)c(-c7c(F)cc(S(=O)(=O)[O-])cc7F)c7nc(c(-c8c(F)cc(S(=O)(=O)[O-])cc8F)c8ccc5[nH]8)C=C7)C=C6)cc4)cc3)C(=O)[C@H]1[C@H]1c3ccccc3[C@@H]2c2ccccc21
REMARK SMILES IDX 15 1 14 2 13 3 12 4 10 5 11 6 9 8 6 9 7 10 86 11 8 12 85 13
REMARK SMILES IDX 5 14 1 15 2 16 3 17 89 18 97 19 4 20 87 21 90 22 96 23 98 24
REMARK SMILES IDX 88 25 91 26 103 27 95 28 99 29 92 30 102 31 94 32 100 33
REMARK SMILES IDX 93 34 101 35 16 36 17 37 18 39 19 40 20 41 84 42 21 43 83 44
REMARK SMILES IDX 22 45 23 46 24 47 77 48 25 49 82 50 76 51 78 52 26 53 81 54
REMARK SMILES IDX 75 55 74 56 27 58 61 59 40 60 60 61 41 62 44 63 59 64 79 65
REMARK SMILES IDX 42 66 43 67 58 69 80 70 45 71 28 72 29 73 38 74 30 75 31 76
REMARK SMILES IDX 37 77 39 78 32 79 33 80 34 81 35 82 36 83 62 84 63 85 72 86
REMARK SMILES IDX 64 87 65 88 71 89 73 90 66 91 67 92 68 93 69 94 70 95 46 96
REMARK SMILES IDX 47 97 56 98 48 99 49 100 55 101 57 102 50 103 51 104 52 105
REMARK SMILES IDX 53 106 54 107
REMARK H PARENT 12 7 16 38 78 57 44 68
REMARK Flexibility Score: inf
ROOT
ATOM      1  C   UNL A   1      39.878  23.111  27.057  1.00  0.00     0.118 C 
ENDROOT
BRANCH   1   2
ATOM      2  C   UNL A   1      38.948  22.117  26.374  1.00  0.00     0.042 C 
BRANCH   2   3
ATOM      3  C   UNL A   1      37.646  22.738  25.892  1.00  0.00     0.118 C 
BRANCH   3   4
ATOM      4  N   UNL A   1      37.538  22.764  24.441  1.00  0.00    -0.352 N 
ATOM      5  C   UNL A   1      36.503  23.072  23.597  1.00  0.00     0.251 C 
ATOM      6  O   UNL A   1      36.645  22.842  22.395  1.00  0.00    -0.269 OA
ATOM      7  H   UNL A   1      38.368  22.511  23.976  1.00  0.00     0.163 HD
BRANCH   5   8
ATOM      8  C   UNL A   1      35.231  23.672  24.066  1.00  0.00     0.039 A 
ATOM      9  C   UNL A   1      32.739  24.914  24.678  1.00  0.00     0.052 A 
ATOM     10  C   UNL A   1      32.817  23.796  23.829  1.00  0.00     0.027 A 
ATOM     11  C   UNL A   1      33.942  25.367  25.237  1.00  0.00     0.027 A 
ATOM     12  C   UNL A   1      34.041  23.182  23.528  1.00  0.00     0.016 A 
ATOM     13  C   UNL A   1      35.172  24.784  24.900  1.00  0.00     0.016 A 
BRANCH   9  14
ATOM     14  N   UNL A   1      31.537  25.683  24.794  1.00  0.00    -0.250 N 
ATOM     15  C   UNL A   1      28.244  26.652  23.994  1.00  0.00     0.024 C 
ATOM     16  C   UNL A   1      29.754  26.903  23.886  1.00  0.00     0.071 C 
ATOM     17  C   UNL A   1      30.478  25.581  23.917  1.00  0.00     0.241 C 
ATOM     18  C   UNL A   1      30.294  27.661  25.129  1.00  0.00     0.107 C 
ATOM     19  C   UNL A   1      30.182  27.659  22.575  1.00  0.00     0.066 C 
ATOM     20  O   UNL A   1      30.137  24.640  23.218  1.00  0.00    -0.273 OA
ATOM     21  C   UNL A   1      31.340  26.722  25.684  1.00  0.00     0.238 C 
ATOM     22  C   UNL A   1      30.945  29.018  24.704  1.00  0.00     0.063 C 
ATOM     23  C   UNL A   1      31.700  27.907  22.636  1.00  0.00    -0.036 A 
ATOM     24  C   UNL A   1      29.528  29.034  22.679  1.00  0.00    -0.036 A 
ATOM     25  O   UNL A   1      31.900  26.952  26.750  1.00  0.00    -0.274 OA
ATOM     26  C   UNL A   1      32.105  28.661  23.771  1.00  0.00    -0.036 A 
ATOM     27  C   UNL A   1      29.914  29.754  23.842  1.00  0.00    -0.036 A 
ATOM     28  C   UNL A   1      32.650  27.403  21.759  1.00  0.00     0.005 A 
ATOM     29  C   UNL A   1      28.647  29.575  21.755  1.00  0.00     0.005 A 
ATOM     30  C   UNL A   1      33.446  28.921  24.019  1.00  0.00     0.004 A 
ATOM     31  C   UNL A   1      29.410  31.024  24.073  1.00  0.00     0.004 A 
ATOM     32  C   UNL A   1      34.001  27.656  22.017  1.00  0.00     0.000 A 
ATOM     33  C   UNL A   1      28.142  30.851  21.995  1.00  0.00     0.000 A 
ATOM     34  C   UNL A   1      34.395  28.412  23.132  1.00  0.00     0.000 A 
ATOM     35  C   UNL A   1      28.518  31.568  23.144  1.00  0.00     0.000 A 
ENDBRANCH   9  14
ENDBRANCH   5   8
ENDBRANCH   3   4
ENDBRANCH   2   3
ENDBRANCH   1   2
BRANCH   1  36
ATOM     36  N   UNL A   1      40.610  23.946  26.110  1.00  0.00    -0.352 N 
ATOM     37  C   UNL A   1      41.002  25.263  26.168  1.00  0.00     0.251 C 
ATOM     38  H   UNL A   1      40.869  23.484  25.281  1.00  0.00     0.163 HD
ATOM     39  O   UNL A   1      41.418  25.805  25.147  1.00  0.00    -0.269 OA
BRANCH  37  40
ATOM     40  C   UNL A   1      40.904  26.039  27.425  1.00  0.00     0.039 A 
ATOM     41  C   UNL A   1      39.821  25.883  28.288  1.00  0.00     0.014 A 
ATOM     42  C   UNL A   1      41.937  26.919  27.771  1.00  0.00     0.014 A 
ATOM     43  C   UNL A   1      39.667  26.740  29.372  1.00  0.00     0.010 A 
ATOM     44  C   UNL A   1      41.834  27.704  28.924  1.00  0.00     0.010 A 
ATOM     45  C   UNL A   1      40.670  27.665  29.705  1.00  0.00    -0.014 A 
BRANCH  45  46
ATOM     46  C   UNL A   1      40.459  28.578  30.862  1.00  0.00     0.031 A 
ATOM     47  C   UNL A   1      41.375  28.527  32.057  1.00  0.00     0.074 A 
ATOM     48  C   UNL A   1      39.489  29.513  30.798  1.00  0.00     0.049 A 
ATOM     49  N   UNL A   1      41.367  29.274  33.134  1.00  0.00    -0.248 NA
ATOM     50  C   UNL A   1      42.435  27.507  32.050  1.00  0.00     0.031 C 
ATOM     51  C   UNL A   1      38.542  29.671  29.691  1.00  0.00     0.029 A 
ATOM     52  N   UNL A   1      39.161  30.530  31.659  1.00  0.00    -0.354 N 
ATOM     53  C   UNL A   1      42.401  28.803  33.934  1.00  0.00     0.074 A 
ATOM     54  C   UNL A   1      42.999  27.687  33.237  1.00  0.00     0.031 C 
ATOM     55  C   UNL A   1      37.794  30.763  29.903  1.00  0.00     0.029 A 
ATOM     56  C   UNL A   1      38.157  31.345  31.190  1.00  0.00     0.049 A 
ATOM     57  H   UNL A   1      39.602  30.664  32.528  1.00  0.00     0.167 HD
ATOM     58  C   UNL A   1      42.825  29.268  35.134  1.00  0.00     0.037 A 
ATOM     59  C   UNL A   1      37.586  32.437  31.734  1.00  0.00     0.037 A 
ATOM     60  C   UNL A   1      42.249  30.400  35.813  1.00  0.00     0.049 A 
ATOM     61  C   UNL A   1      38.054  32.915  33.078  1.00  0.00     0.074 A 
ATOM     62  C   UNL A   1      42.618  30.954  37.028  1.00  0.00     0.029 A 
ATOM     63  N   UNL A   1      41.190  31.157  35.334  1.00  0.00    -0.354 N 
ATOM     64  N   UNL A   1      39.022  32.444  33.827  1.00  0.00    -0.248 NA
ATOM     65  C   UNL A   1      37.342  34.061  33.660  1.00  0.00     0.031 C 
ATOM     66  C   UNL A   1      41.761  32.026  37.297  1.00  0.00     0.029 A 
ATOM     67  C   UNL A   1      40.882  32.165  36.235  1.00  0.00     0.049 A 
ATOM     68  H   UNL A   1      40.726  31.003  34.480  1.00  0.00     0.167 HD
ATOM     69  C   UNL A   1      39.038  33.236  34.968  1.00  0.00     0.074 A 
ATOM     70  C   UNL A   1      37.997  34.230  34.802  1.00  0.00     0.031 C 
ATOM     71  C   UNL A   1      39.838  33.141  36.059  1.00  0.00     0.037 A 
BRANCH  58  72
ATOM     72  C   UNL A   1      43.966  28.550  35.799  1.00  0.00     0.058 A 
ATOM     73  C   UNL A   1      45.301  28.924  35.578  1.00  0.00     0.135 A 
ATOM     74  C   UNL A   1      43.720  27.503  36.703  1.00  0.00     0.135 A 
ATOM     75  F   UNL A   1      45.592  29.906  34.711  1.00  0.00    -0.206 F 
ATOM     76  C   UNL A   1      46.353  28.273  36.214  1.00  0.00     0.059 A 
ATOM     77  C   UNL A   1      44.757  26.852  37.367  1.00  0.00     0.059 A 
ATOM     78  F   UNL A   1      42.462  27.105  36.949  1.00  0.00    -0.206 F 
ATOM     79  C   UNL A   1      46.071  27.237  37.107  1.00  0.00     0.060 A 
BRANCH  79  80
ATOM     80  S   UNL A   1      47.449  26.406  37.928  1.00  0.00     0.124 S 
ATOM     81  O   UNL A   1      46.807  25.187  38.410  1.00  0.00    -0.237 OA
ATOM     82  O   UNL A   1      48.402  26.231  36.836  1.00  0.00    -0.237 OA
ATOM     83  O   UNL A   1      47.851  27.355  38.961  1.00  0.00    -0.744 OA
ENDBRANCH  79  80
ENDBRANCH  58  72
BRANCH  59  84
ATOM     84  C   UNL A   1      36.507  33.146  30.998  1.00  0.00     0.058 A 
ATOM     85  C   UNL A   1      35.169  33.040  31.402  1.00  0.00     0.135 A 
ATOM     86  C   UNL A   1      36.800  33.982  29.909  1.00  0.00     0.135 A 
ATOM     87  F   UNL A   1      34.841  32.246  32.433  1.00  0.00    -0.206 F 
ATOM     88  C   UNL A   1      34.156  33.741  30.756  1.00  0.00     0.059 A 
ATOM     89  C   UNL A   1      35.807  34.711  29.261  1.00  0.00     0.059 A 
ATOM     90  F   UNL A   1      38.067  34.126  29.492  1.00  0.00    -0.206 F 
ATOM     91  C   UNL A   1      34.488  34.582  29.691  1.00  0.00     0.060 A 
BRANCH  91  92
ATOM     92  S   UNL A   1      33.178  35.550  28.911  1.00  0.00     0.124 S 
ATOM     93  O   UNL A   1      33.949  36.536  28.162  1.00  0.00    -0.237 OA
ATOM     94  O   UNL A   1      32.484  34.543  28.115  1.00  0.00    -0.237 OA
ATOM     95  O   UNL A   1      32.422  36.068  30.047  1.00  0.00    -0.744 OA
ENDBRANCH  91  92
ENDBRANCH  59  84
BRANCH  71  96
ATOM     96  C   UNL A   1      39.619  34.137  37.161  1.00  0.00     0.058 A 
ATOM     97  C   UNL A   1      38.904  33.796  38.319  1.00  0.00     0.135 A 
ATOM     98  C   UNL A   1      40.183  35.420  37.087  1.00  0.00     0.135 A 
ATOM     99  F   UNL A   1      38.340  32.584  38.433  1.00  0.00    -0.206 F 
ATOM    100  C   UNL A   1      38.744  34.701  39.363  1.00  0.00     0.059 A 
ATOM    101  C   UNL A   1      40.052  36.333  38.128  1.00  0.00     0.059 A 
ATOM    102  F   UNL A   1      40.882  35.791  36.002  1.00  0.00    -0.206 F 
ATOM    103  C   UNL A   1      39.324  35.967  39.259  1.00  0.00     0.060 A 
BRANCH 103 104
ATOM    104  S   UNL A   1      39.144  37.114  40.641  1.00  0.00     0.124 S 
ATOM    105  O   UNL A   1      38.258  38.124  40.071  1.00  0.00    -0.237 OA
ATOM    106  O   UNL A   1      38.559  36.268  41.677  1.00  0.00    -0.237 OA
ATOM    107  O   UNL A   1      40.513  37.553  40.899  1.00  0.00    -0.744 OA
ENDBRANCH 103 104
ENDBRANCH  71  96
ENDBRANCH  45  46
ENDBRANCH  37  40
ENDBRANCH   1  36
TORSDOF 14
ENDMDL
MODEL 2
REMARK VINA RESULT:     -15.1      6.406     12.012
REMARK SMILES C[C@]12C(=O)N(c3ccc(C(=O)NCCCNC(=O)c4ccc(-c5c6nc(c(-c7c(F)cc(S(=O)(=O)[O-])cc7F)c7ccc([nH]7)c(-c7c(F)cc(S(=O)(=O)[O-])cc7F)c7nc(c(-c8c(F)cc(S(=O)(=O)[O-])cc8F)c8ccc5[nH]8)C=C7)C=C6)cc4)cc3)C(=O)[C@H]1[C@H]1c3ccccc3[C@@H]2c2ccccc21
REMARK SMILES IDX 15 1 14 2 13 3 12 4 10 5 11 6 9 8 6 9 7 10 86 11 8 12 85 13
REMARK SMILES IDX 5 14 1 15 2 16 3 17 89 18 97 19 4 20 87 21 90 22 96 23 98 24
REMARK SMILES IDX 88 25 91 26 103 27 95 28 99 29 92 30 102 31 94 32 100 33
REMARK SMILES IDX 93 34 101 35 16 36 17 37 18 39 19 40 20 41 84 42 21 43 83 44
REMARK SMILES IDX 22 45 23 46 24 47 77 48 25 49 82 50 76 51 78 52 26 53 81 54
REMARK SMILES IDX 75 55 74 56 27 58 61 59 40 60 60 61 41 62 44 63 59 64 79 65
REMARK SMILES IDX 42 66 43 67 58 69 80 70 45 71 28 72 29 73 38 74 30 75 31 76
REMARK SMILES IDX 37 77 39 78 32 79 33 80 34 81 35 82 36 83 62 84 63 85 72 86
REMARK SMILES IDX 64 87 65 88 71 89 73 90 66 91 67 92 68 93 69 94 70 95 46 96
REMARK SMILES IDX 47 97 56 98 48 99 49 100 55 101 57 102 50 103 51 104 52 105
REMARK SMILES IDX 53 106 54 107
REMARK H PARENT 12 7 16 38 78 57 44 68
REMARK Flexibility Score: inf
ROOT
ATOM      1  C   UNL A   1      35.577  31.532  28.039  1.00  0.00     0.118 C 
ENDROOT
BRANCH   1   2
ATOM      2  C   UNL A   1      34.245  31.313  27.333  1.00  0.00     0.042 C 
BRANCH   2   3
ATOM      3  C   UNL A   1      33.983  29.858  26.973  1.00  0.00     0.118 C 
BRANCH   3   4
ATOM      4  N   UNL A   1      32.848  29.297  27.690  1.00  0.00    -0.352 N 
ATOM      5  C   UNL A   1      32.054  28.206  27.453  1.00  0.00     0.251 C 
ATOM      6  O   UNL A   1      31.043  28.062  28.143  1.00  0.00    -0.269 OA
ATOM      7  H   UNL A   1      32.604  29.798  28.502  1.00  0.00     0.163 HD
BRANCH   5   8
ATOM      8  C   UNL A   1      32.359  27.197  26.412  1.00  0.00     0.039 A 
ATOM      9  C   UNL A   1      32.797  25.053  24.583  1.00  0.00     0.052 A 
ATOM     10  C   UNL A   1      31.506  25.543  24.850  1.00  0.00     0.027 A 
ATOM     11  C   UNL A   1      33.861  25.694  25.232  1.00  0.00     0.027 A 
ATOM     12  C   UNL A   1      31.288  26.597  25.748  1.00  0.00     0.016 A 
ATOM     13  C   UNL A   1      33.642  26.717  26.165  1.00  0.00     0.016 A 
BRANCH   9  14
ATOM     14  N   UNL A   1      32.999  23.833  23.863  1.00  0.00    -0.250 N 
ATOM     15  C   UNL A   1      32.038  20.922  22.123  1.00  0.00     0.024 C 
ATOM     16  C   UNL A   1      32.535  21.580  23.418  1.00  0.00     0.071 C 
ATOM     17  C   UNL A   1      31.978  22.978  23.507  1.00  0.00     0.241 C 
ATOM     18  C   UNL A   1      34.074  21.784  23.396  1.00  0.00     0.107 C 
ATOM     19  C   UNL A   1      32.118  20.809  24.724  1.00  0.00     0.066 C 
ATOM     20  O   UNL A   1      30.796  23.217  23.317  1.00  0.00    -0.273 OA
ATOM     21  C   UNL A   1      34.231  23.277  23.570  1.00  0.00     0.238 C 
ATOM     22  C   UNL A   1      34.745  21.020  24.585  1.00  0.00     0.063 C 
ATOM     23  C   UNL A   1      32.743  21.534  25.930  1.00  0.00    -0.036 A 
ATOM     24  C   UNL A   1      32.828  19.461  24.631  1.00  0.00    -0.036 A 
ATOM     25  O   UNL A   1      35.328  23.816  23.484  1.00  0.00    -0.274 OA
ATOM     26  C   UNL A   1      34.159  21.624  25.865  1.00  0.00    -0.036 A 
ATOM     27  C   UNL A   1      34.241  19.575  24.525  1.00  0.00    -0.036 A 
ATOM     28  C   UNL A   1      32.052  22.142  26.969  1.00  0.00     0.005 A 
ATOM     29  C   UNL A   1      32.204  18.223  24.654  1.00  0.00     0.005 A 
ATOM     30  C   UNL A   1      34.882  22.303  26.837  1.00  0.00     0.004 A 
ATOM     31  C   UNL A   1      35.026  18.436  24.441  1.00  0.00     0.004 A 
ATOM     32  C   UNL A   1      32.781  22.836  27.940  1.00  0.00     0.000 A 
ATOM     33  C   UNL A   1      33.000  17.083  24.567  1.00  0.00     0.000 A 
ATOM     34  C   UNL A   1      34.181  22.912  27.878  1.00  0.00     0.000 A 
ATOM     35  C   UNL A   1      34.396  17.188  24.460  1.00  0.00     0.000 A 
ENDBRANCH   9  14
ENDBRANCH   5   8
ENDBRANCH   3   4
ENDBRANCH   2   3
ENDBRANCH   1   2
BRANCH   1  36
ATOM     36  N   UNL A   1      35.516  31.238  29.467  1.00  0.00    -0.352 N 
ATOM     37  C   UNL A   1      36.320  30.468  30.276  1.00  0.00     0.251 C 
ATOM     38  H   UNL A   1      34.765  31.668  29.937  1.00  0.00     0.163 HD
ATOM     39  O   UNL A   1      35.935  30.197  31.411  1.00  0.00    -0.269 OA
BRANCH  37  40
ATOM     40  C   UNL A   1      37.616  29.942  29.793  1.00  0.00     0.039 A 
ATOM     41  C   UNL A   1      38.562  29.430  30.678  1.00  0.00     0.014 A 
ATOM     42  C   UNL A   1      37.880  29.923  28.418  1.00  0.00     0.014 A 
ATOM     43  C   UNL A   1      39.833  29.098  30.221  1.00  0.00     0.010 A 
ATOM     44  C   UNL A   1      39.123  29.484  27.947  1.00  0.00     0.010 A 
ATOM     45  C   UNL A   1      40.133  29.122  28.850  1.00  0.00    -0.014 A 
BRANCH  45  46
ATOM     46  C   UNL A   1      41.511  28.779  28.402  1.00  0.00     0.031 A 
ATOM     47  C   UNL A   1      42.621  29.795  28.488  1.00  0.00     0.074 A 
ATOM     48  C   UNL A   1      41.781  27.522  27.996  1.00  0.00     0.049 A 
ATOM     49  N   UNL A   1      43.888  29.658  28.184  1.00  0.00    -0.248 NA
ATOM     50  C   UNL A   1      42.268  31.139  28.973  1.00  0.00     0.031 C 
ATOM     51  C   UNL A   1      40.795  26.445  27.878  1.00  0.00     0.029 A 
ATOM     52  N   UNL A   1      42.965  26.924  27.645  1.00  0.00    -0.354 N 
ATOM     53  C   UNL A   1      44.475  30.896  28.420  1.00  0.00     0.074 A 
ATOM     54  C   UNL A   1      43.423  31.782  28.865  1.00  0.00     0.031 C 
ATOM     55  C   UNL A   1      41.424  25.304  27.558  1.00  0.00     0.029 A 
ATOM     56  C   UNL A   1      42.845  25.580  27.379  1.00  0.00     0.049 A 
ATOM     57  H   UNL A   1      43.819  27.410  27.589  1.00  0.00     0.167 HD
ATOM     58  C   UNL A   1      45.775  31.257  28.295  1.00  0.00     0.037 A 
ATOM     59  C   UNL A   1      43.771  24.668  27.027  1.00  0.00     0.037 A 
ATOM     60  C   UNL A   1      46.827  30.365  27.882  1.00  0.00     0.049 A 
ATOM     61  C   UNL A   1      45.199  25.099  26.866  1.00  0.00     0.074 A 
ATOM     62  C   UNL A   1      48.177  30.636  27.736  1.00  0.00     0.029 A 
ATOM     63  N   UNL A   1      46.651  29.027  27.559  1.00  0.00    -0.354 N 
ATOM     64  N   UNL A   1      45.730  26.280  27.077  1.00  0.00    -0.248 NA
ATOM     65  C   UNL A   1      46.153  24.083  26.401  1.00  0.00     0.031 C 
ATOM     66  C   UNL A   1      48.812  29.470  27.294  1.00  0.00     0.029 A 
ATOM     67  C   UNL A   1      47.865  28.463  27.199  1.00  0.00     0.049 A 
ATOM     68  H   UNL A   1      45.791  28.549  27.582  1.00  0.00     0.167 HD
ATOM     69  C   UNL A   1      47.080  26.149  26.773  1.00  0.00     0.074 A 
ATOM     70  C   UNL A   1      47.289  24.769  26.385  1.00  0.00     0.031 C 
ATOM     71  C   UNL A   1      48.055  27.090  26.807  1.00  0.00     0.037 A 
BRANCH  58  72
ATOM     72  C   UNL A   1      46.136  32.684  28.601  1.00  0.00     0.058 A 
ATOM     73  C   UNL A   1      46.532  33.085  29.886  1.00  0.00     0.135 A 
ATOM     74  C   UNL A   1      46.129  33.655  27.585  1.00  0.00     0.135 A 
ATOM     75  F   UNL A   1      46.540  32.201  30.896  1.00  0.00    -0.206 F 
ATOM     76  C   UNL A   1      46.890  34.401  30.159  1.00  0.00     0.059 A 
ATOM     77  C   UNL A   1      46.504  34.973  27.832  1.00  0.00     0.059 A 
ATOM     78  F   UNL A   1      45.757  33.326  26.338  1.00  0.00    -0.206 F 
ATOM     79  C   UNL A   1      46.873  35.339  29.126  1.00  0.00     0.060 A 
BRANCH  79  80
ATOM     80  S   UNL A   1      47.345  37.042  29.497  1.00  0.00     0.124 S 
ATOM     81  O   UNL A   1      47.713  37.537  28.174  1.00  0.00    -0.237 OA
ATOM     82  O   UNL A   1      46.114  37.591  30.059  1.00  0.00    -0.237 OA
ATOM     83  O   UNL A   1      48.448  36.891  30.440  1.00  0.00    -0.744 OA
ENDBRANCH  79  80
ENDBRANCH  58  72
BRANCH  59  84
ATOM     84  C   UNL A   1      43.364  23.256  26.803  1.00  0.00     0.058 A 
ATOM     85  C   UNL A   1      43.309  22.718  25.510  1.00  0.00     0.135 A 
ATOM     86  C   UNL A   1      43.073  22.405  27.881  1.00  0.00     0.135 A 
ATOM     87  F   UNL A   1      43.571  23.495  24.448  1.00  0.00    -0.206 F 
ATOM     88  C   UNL A   1      42.983  21.383  25.290  1.00  0.00     0.059 A 
ATOM     89  C   UNL A   1      42.767  21.062  27.689  1.00  0.00     0.059 A 
ATOM     90  F   UNL A   1      43.125  22.870  29.139  1.00  0.00    -0.206 F 
ATOM     91  C   UNL A   1      42.722  20.561  26.388  1.00  0.00     0.060 A 
BRANCH  91  92
ATOM     92  S   UNL A   1      42.379  18.811  26.100  1.00  0.00     0.124 S 
ATOM     93  O   UNL A   1      40.971  18.846  25.721  1.00  0.00    -0.237 OA
ATOM     94  O   UNL A   1      43.320  18.487  25.032  1.00  0.00    -0.237 OA
ATOM     95  O   UNL A   1      42.672  18.195  27.390  1.00  0.00    -0.744 OA
ENDBRANCH  91  92
ENDBRANCH  59  84
BRANCH  71  96
ATOM     96  C   UNL A   1      49.438  26.662  26.410  1.00  0.00     0.058 A 
ATOM     97  C   UNL A   1      50.287  26.010  27.316  1.00  0.00     0.135 A 
ATOM     98  C   UNL A   1      49.894  26.849  25.095  1.00  0.00     0.135 A 
ATOM     99  F   UNL A   1      49.899  25.816  28.586  1.00  0.00    -0.206 F 
ATOM    100  C   UNL A   1      51.549  25.568  26.936  1.00  0.00     0.059 A 
ATOM    101  C   UNL A   1      51.144  26.396  24.688  1.00  0.00     0.059 A 
ATOM    102  F   UNL A   1      49.115  27.461  24.189  1.00  0.00    -0.206 F 
ATOM    103  C   UNL A   1      51.969  25.763  25.618  1.00  0.00     0.060 A 
BRANCH 103 104
ATOM    104  S   UNL A   1      53.592  25.144  25.128  1.00  0.00     0.124 S 
ATOM    105  O   UNL A   1      53.450  23.715  25.382  1.00  0.00    -0.237 OA
ATOM    106  O   UNL A   1      53.665  25.535  23.723  1.00  0.00    -0.237 OA
ATOM    107  O   UNL A   1      54.508  25.853  26.018  1.00  0.00    -0.744 OA
ENDBRANCH 103 104
ENDBRANCH  71  96
ENDBRANCH  45  46
ENDBRANCH  37  40
ENDBRANCH   1  36
TORSDOF 14
ENDMDL
MODEL 3
REMARK VINA RESULT:     -15.0      0.982      1.973
REMARK SMILES C[C@]12C(=O)N(c3ccc(C(=O)NCCCNC(=O)c4ccc(-c5c6nc(c(-c7c(F)cc(S(=O)(=O)[O-])cc7F)c7ccc([nH]7)c(-c7c(F)cc(S(=O)(=O)[O-])cc7F)c7nc(c(-c8c(F)cc(S(=O)(=O)[O-])cc8F)c8ccc5[nH]8)C=C7)C=C6)cc4)cc3)C(=O)[C@H]1[C@H]1c3ccccc3[C@@H]2c2ccccc21
REMARK SMILES IDX 15 1 14 2 13 3 12 4 10 5 11 6 9 8 6 9 7 10 86 11 8 12 85 13
REMARK SMILES IDX 5 14 1 15 2 16 3 17 89 18 97 19 4 20 87 21 90 22 96 23 98 24
REMARK SMILES IDX 88 25 91 26 103 27 95 28 99 29 92 30 102 31 94 32 100 33
REMARK SMILES IDX 93 34 101 35 16 36 17 37 18 39 19 40 20 41 84 42 21 43 83 44
REMARK SMILES IDX 22 45 23 46 24 47 77 48 25 49 82 50 76 51 78 52 26 53 81 54
REMARK SMILES IDX 75 55 74 56 27 58 61 59 40 60 60 61 41 62 44 63 59 64 79 65
REMARK SMILES IDX 42 66 43 67 58 69 80 70 45 71 28 72 29 73 38 74 30 75 31 76
REMARK SMILES IDX 37 77 39 78 32 79 33 80 34 81 35 82 36 83 62 84 63 85 72 86
REMARK SMILES IDX 64 87 65 88 71 89 73 90 66 91 67 92 68 93 69 94 70 95 46 96
REMARK SMILES IDX 47 97 56 98 48 99 49 100 55 101 57 102 50 103 51 104 52 105
REMARK SMILES IDX 53 106 54 107
REMARK H PARENT 12 7 16 38 78 57 44 68
REMARK Flexibility Score: inf
ROOT
ATOM      1  C   UNL A   1      40.081  23.065  27.108  1.00  0.00     0.118 C 
ENDROOT
BRANCH   1   2
ATOM      2  C   UNL A   1      39.229  21.975  26.473  1.00  0.00     0.042 C 
BRANCH   2   3
ATOM      3  C   UNL A   1      37.996  22.510  25.758  1.00  0.00     0.118 C 
BRANCH   3   4
ATOM      4  N   UNL A   1      36.759  21.939  26.270  1.00  0.00    -0.352 N 
ATOM      5  C   UNL A   1      35.449  22.328  26.163  1.00  0.00     0.251 C 
ATOM      6  O   UNL A   1      34.611  21.741  26.849  1.00  0.00    -0.269 OA
ATOM      7  H   UNL A   1      36.888  21.115  26.793  1.00  0.00     0.163 HD
BRANCH   5   8
ATOM      8  C   UNL A   1      35.001  23.414  25.260  1.00  0.00     0.039 A 
ATOM      9  C   UNL A   1      33.880  25.511  23.686  1.00  0.00     0.052 A 
ATOM     10  C   UNL A   1      34.197  25.697  25.044  1.00  0.00     0.027 A 
ATOM     11  C   UNL A   1      34.175  24.256  23.135  1.00  0.00     0.027 A 
ATOM     12  C   UNL A   1      34.750  24.668  25.819  1.00  0.00     0.016 A 
ATOM     13  C   UNL A   1      34.684  23.212  23.920  1.00  0.00     0.016 A 
BRANCH   9  14
ATOM     14  N   UNL A   1      33.101  26.469  22.963  1.00  0.00    -0.250 N 
ATOM     15  C   UNL A   1      32.246  29.664  21.744  1.00  0.00     0.024 C 
ATOM     16  C   UNL A   1      32.013  28.535  22.757  1.00  0.00     0.071 C 
ATOM     17  C   UNL A   1      33.320  27.829  23.018  1.00  0.00     0.241 C 
ATOM     18  C   UNL A   1      31.094  27.429  22.173  1.00  0.00     0.107 C 
ATOM     19  C   UNL A   1      31.445  29.026  24.138  1.00  0.00     0.066 C 
ATOM     20  O   UNL A   1      34.347  28.440  23.267  1.00  0.00    -0.273 OA
ATOM     21  C   UNL A   1      31.950  26.185  22.252  1.00  0.00     0.238 C 
ATOM     22  C   UNL A   1      29.809  27.265  23.050  1.00  0.00     0.063 C 
ATOM     23  C   UNL A   1      31.192  27.791  25.022  1.00  0.00    -0.036 A 
ATOM     24  C   UNL A   1      30.067  29.600  23.817  1.00  0.00    -0.036 A 
ATOM     25  O   UNL A   1      31.578  25.125  21.763  1.00  0.00    -0.274 OA
ATOM     26  C   UNL A   1      30.292  26.856  24.444  1.00  0.00    -0.036 A 
ATOM     27  C   UNL A   1      29.196  28.661  23.202  1.00  0.00    -0.036 A 
ATOM     28  C   UNL A   1      31.813  27.506  26.230  1.00  0.00     0.005 A 
ATOM     29  C   UNL A   1      29.656  30.896  24.087  1.00  0.00     0.005 A 
ATOM     30  C   UNL A   1      30.002  25.653  25.074  1.00  0.00     0.004 A 
ATOM     31  C   UNL A   1      27.905  29.031  22.858  1.00  0.00     0.004 A 
ATOM     32  C   UNL A   1      31.529  26.288  26.857  1.00  0.00     0.000 A 
ATOM     33  C   UNL A   1      28.358  31.262  23.736  1.00  0.00     0.000 A 
ATOM     34  C   UNL A   1      30.629  25.374  26.288  1.00  0.00     0.000 A 
ATOM     35  C   UNL A   1      27.492  30.340  23.126  1.00  0.00     0.000 A 
ENDBRANCH   9  14
ENDBRANCH   5   8
ENDBRANCH   3   4
ENDBRANCH   2   3
ENDBRANCH   1   2
BRANCH   1  36
ATOM     36  N   UNL A   1      40.703  23.945  26.122  1.00  0.00    -0.352 N 
ATOM     37  C   UNL A   1      40.997  25.288  26.155  1.00  0.00     0.251 C 
ATOM     38  H   UNL A   1      40.957  23.496  25.284  1.00  0.00     0.163 HD
ATOM     39  O   UNL A   1      41.322  25.851  25.111  1.00  0.00    -0.269 OA
BRANCH  37  40
ATOM     40  C   UNL A   1      40.900  26.066  27.410  1.00  0.00     0.039 A 
ATOM     41  C   UNL A   1      39.805  25.931  28.261  1.00  0.00     0.014 A 
ATOM     42  C   UNL A   1      41.946  26.925  27.768  1.00  0.00     0.014 A 
ATOM     43  C   UNL A   1      39.656  26.790  29.343  1.00  0.00     0.010 A 
ATOM     44  C   UNL A   1      41.845  27.713  28.920  1.00  0.00     0.010 A 
ATOM     45  C   UNL A   1      40.672  27.695  29.688  1.00  0.00    -0.014 A 
BRANCH  45  46
ATOM     46  C   UNL A   1      40.466  28.613  30.842  1.00  0.00     0.031 A 
ATOM     47  C   UNL A   1      41.392  28.571  32.031  1.00  0.00     0.074 A 
ATOM     48  C   UNL A   1      39.491  29.542  30.783  1.00  0.00     0.049 A 
ATOM     49  N   UNL A   1      41.389  29.323  33.104  1.00  0.00    -0.248 NA
ATOM     50  C   UNL A   1      42.458  27.556  32.019  1.00  0.00     0.031 C 
ATOM     51  C   UNL A   1      38.534  29.691  29.683  1.00  0.00     0.029 A 
ATOM     52  N   UNL A   1      39.164  30.561  31.642  1.00  0.00    -0.354 N 
ATOM     53  C   UNL A   1      42.432  28.861  33.898  1.00  0.00     0.074 A 
ATOM     54  C   UNL A   1      43.030  27.745  33.200  1.00  0.00     0.031 C 
ATOM     55  C   UNL A   1      37.782  30.780  29.896  1.00  0.00     0.029 A 
ATOM     56  C   UNL A   1      38.153  31.369  31.178  1.00  0.00     0.049 A 
ATOM     57  H   UNL A   1      39.612  30.701  32.507  1.00  0.00     0.167 HD
ATOM     58  C   UNL A   1      42.864  29.333  35.092  1.00  0.00     0.037 A 
ATOM     59  C   UNL A   1      37.581  32.461  31.722  1.00  0.00     0.037 A 
ATOM     60  C   UNL A   1      42.287  30.465  35.771  1.00  0.00     0.049 A 
ATOM     61  C   UNL A   1      38.057  32.947  33.059  1.00  0.00     0.074 A 
ATOM     62  C   UNL A   1      42.663  31.026  36.980  1.00  0.00     0.029 A 
ATOM     63  N   UNL A   1      41.220  31.215  35.298  1.00  0.00    -0.354 N 
ATOM     64  N   UNL A   1      39.034  32.484  33.802  1.00  0.00    -0.248 NA
ATOM     65  C   UNL A   1      37.344  34.092  33.643  1.00  0.00     0.031 C 
ATOM     66  C   UNL A   1      41.803  32.095  37.252  1.00  0.00     0.029 A 
ATOM     67  C   UNL A   1      40.915  32.225  36.197  1.00  0.00     0.049 A 
ATOM     68  H   UNL A   1      40.750  31.055  34.448  1.00  0.00     0.167 HD
ATOM     69  C   UNL A   1      39.055  33.281  34.941  1.00  0.00     0.074 A 
ATOM     70  C   UNL A   1      38.008  34.269  34.778  1.00  0.00     0.031 C 
ATOM     71  C   UNL A   1      39.864  33.195  36.025  1.00  0.00     0.037 A 
BRANCH  58  72
ATOM     72  C   UNL A   1      44.014  28.624  35.750  1.00  0.00     0.058 A 
ATOM     73  C   UNL A   1      45.343  29.020  35.537  1.00  0.00     0.135 A 
ATOM     74  C   UNL A   1      43.782  27.562  36.641  1.00  0.00     0.135 A 
ATOM     75  F   UNL A   1      45.622  30.017  34.682  1.00  0.00    -0.206 F 
ATOM     76  C   UNL A   1      46.404  28.376  36.167  1.00  0.00     0.059 A 
ATOM     77  C   UNL A   1      44.826  26.919  37.299  1.00  0.00     0.059 A 
ATOM     78  F   UNL A   1      42.529  27.143  36.880  1.00  0.00    -0.206 F 
ATOM     79  C   UNL A   1      46.135  27.326  37.047  1.00  0.00     0.060 A 
BRANCH  79  80
ATOM     80  S   UNL A   1      47.523  26.505  37.860  1.00  0.00     0.124 S 
ATOM     81  O   UNL A   1      47.448  27.070  39.205  1.00  0.00    -0.237 OA
ATOM     82  O   UNL A   1      47.163  25.095  37.744  1.00  0.00    -0.237 OA
ATOM     83  O   UNL A   1      48.676  26.922  37.069  1.00  0.00    -0.744 OA
ENDBRANCH  79  80
ENDBRANCH  58  72
BRANCH  59  84
ATOM     84  C   UNL A   1      36.492  33.161  30.992  1.00  0.00     0.058 A 
ATOM     85  C   UNL A   1      35.158  33.046  31.404  1.00  0.00     0.135 A 
ATOM     86  C   UNL A   1      36.772  33.998  29.900  1.00  0.00     0.135 A 
ATOM     87  F   UNL A   1      34.841  32.251  32.438  1.00  0.00    -0.206 F 
ATOM     88  C   UNL A   1      34.136  33.739  30.764  1.00  0.00     0.059 A 
ATOM     89  C   UNL A   1      35.770  34.719  29.258  1.00  0.00     0.059 A 
ATOM     90  F   UNL A   1      38.036  34.150  29.475  1.00  0.00    -0.206 F 
ATOM     91  C   UNL A   1      34.454  34.581  29.696  1.00  0.00     0.060 A 
BRANCH  91  92
ATOM     92  S   UNL A   1      33.133  35.539  28.922  1.00  0.00     0.124 S 
ATOM     93  O   UNL A   1      32.469  34.523  28.113  1.00  0.00    -0.237 OA
ATOM     94  O   UNL A   1      32.387  36.022  30.080  1.00  0.00    -0.237 OA
ATOM     95  O   UNL A   1      33.856  36.567  28.180  1.00  0.00    -0.744 OA
ENDBRANCH  91  92
ENDBRANCH  59  84
BRANCH  71  96
ATOM     96  C   UNL A   1      39.649  34.194  37.124  1.00  0.00     0.058 A 
ATOM     97  C   UNL A   1      38.840  33.897  38.231  1.00  0.00     0.135 A 
ATOM     98  C   UNL A   1      40.308  35.433  37.103  1.00  0.00     0.135 A 
ATOM     99  F   UNL A   1      38.183  32.728  38.294  1.00  0.00    -0.206 F 
ATOM    100  C   UNL A   1      38.680  34.801  39.275  1.00  0.00     0.059 A 
ATOM    101  C   UNL A   1      40.179  36.344  38.146  1.00  0.00     0.059 A 
ATOM    102  F   UNL A   1      41.100  35.761  36.069  1.00  0.00    -0.206 F 
ATOM    103  C   UNL A   1      39.357  36.022  39.225  1.00  0.00     0.060 A 
BRANCH 103 104
ATOM    104  S   UNL A   1      39.174  37.168  40.608  1.00  0.00     0.124 S 
ATOM    105  O   UNL A   1      38.234  38.141  40.061  1.00  0.00    -0.237 OA
ATOM    106  O   UNL A   1      38.651  36.304  41.663  1.00  0.00    -0.237 OA
ATOM    107  O   UNL A   1      40.532  37.659  40.824  1.00  0.00    -0.744 OA
ENDBRANCH 103 104
ENDBRANCH  71  96
ENDBRANCH  45  46
ENDBRANCH  37  40
ENDBRANCH   1  36
TORSDOF 14
ENDMDL
