MODEL 1
REMARK VINA RESULT:     -13.1      0.000      0.000
REMARK SMILES Nc1ccc(-c2cc(Cl)cc3c2O[C@H](C(F)(F)F)C(C(=O)NCCCNC(=O)c2ccc(-c4c5nc(c(-c6c(F)cc(S(=O)(=O)[O-])cc6F)c6ccc([nH]6)c(-c6c(F)cc(S(=O)(=O)[O-])cc6F)c6nc(c(-c7c(F)cc(S(=O)(=O)[O-])cc7F)c7ccc4[nH]7)C=C6)C=C5)cc2)=C3)cc1
REMARK SMILES IDX 24 1 23 2 22 3 20 4 21 5 19 7 6 8 7 9 12 10 8 11 11 12 13 13
REMARK SMILES IDX 9 14 10 15 95 16 14 17 5 18 2 19 3 20 97 21 4 22 96 23 1 24
REMARK SMILES IDX 15 27 16 28 17 29 18 30 25 31 26 32 27 33 28 35 29 36 30 37
REMARK SMILES IDX 94 38 31 39 93 40 32 41 33 42 34 43 87 44 35 45 92 46 86 47
REMARK SMILES IDX 88 48 36 49 91 50 85 51 84 52 37 54 71 55 50 56 70 57 51 58
REMARK SMILES IDX 54 59 69 60 89 61 52 62 53 63 68 65 90 66 55 67 38 68 39 69
REMARK SMILES IDX 48 70 40 71 41 72 47 73 49 74 42 75 43 76 44 77 45 78 46 79
REMARK SMILES IDX 72 80 73 81 82 82 74 83 75 84 81 85 83 86 76 87 77 88 78 89
REMARK SMILES IDX 79 90 80 91 56 92 57 93 66 94 58 95 59 96 65 97 67 98 60 99
REMARK SMILES IDX 61 100 62 101 63 102 64 103
REMARK H PARENT 22 6 1 25 1 26 26 34 88 53 54 64
REMARK Flexibility Score: inf
ROOT
ATOM      1  C   UNL A   1      33.982  28.241  25.782  1.00  0.00     0.042 C 
ENDROOT
BRANCH   1   2
ATOM      2  C   UNL A   1      32.898  27.730  24.846  1.00  0.00     0.118 C 
BRANCH   2   3
ATOM      3  N   UNL A   1      31.833  27.036  25.553  1.00  0.00    -0.352 N 
ATOM      4  C   UNL A   1      31.579  25.771  25.968  1.00  0.00     0.251 C 
ATOM      5  O   UNL A   1      30.528  25.623  26.599  1.00  0.00    -0.270 OA
ATOM      6  H   UNL A   1      31.099  27.648  25.794  1.00  0.00     0.163 HD
BRANCH   4   7
ATOM      7  C   UNL A   1      32.462  24.594  25.724  1.00  0.00     0.067 C 
ATOM      8  C   UNL A   1      34.983  21.253  25.280  1.00  0.00     0.026 A 
ATOM      9  C   UNL A   1      36.366  21.428  25.440  1.00  0.00     0.033 A 
ATOM     10  C   UNL A   1      34.147  22.360  25.519  1.00  0.00     0.135 A 
ATOM     11  C   UNL A   1      36.882  22.669  25.821  1.00  0.00     0.042 A 
ATOM     12  C   UNL A   1      34.662  23.607  25.893  1.00  0.00     0.019 A 
ATOM     13  O   UNL A   1      32.792  22.164  25.426  1.00  0.00    -0.475 OA
ATOM     14  Cl  UNL A   1      38.584  22.860  26.003  1.00  0.00    -0.084 Cl
ATOM     15  C   UNL A   1      36.040  23.757  26.048  1.00  0.00     0.032 A 
ATOM     16  C   UNL A   1      33.741  24.716  26.130  1.00  0.00     0.025 C 
ATOM     17  C   UNL A   1      32.012  23.328  25.056  1.00  0.00     0.314 C 
BRANCH   8  18
ATOM     18  C   UNL A   1      34.428  19.958  24.853  1.00  0.00    -0.014 A 
ATOM     19  C   UNL A   1      33.322  17.429  24.221  1.00  0.00     0.031 A 
ATOM     20  C   UNL A   1      32.501  18.547  24.358  1.00  0.00     0.026 A 
ATOM     21  C   UNL A   1      34.704  17.601  24.319  1.00  0.00     0.026 A 
ATOM     22  C   UNL A   1      33.044  19.794  24.679  1.00  0.00     0.011 A 
ATOM     23  C   UNL A   1      35.253  18.846  24.646  1.00  0.00     0.011 A 
BRANCH  19  24
ATOM     24  N   UNL A   1      32.787  16.204  23.851  1.00  0.00    -0.399 N 
ATOM     25  H   UNL A   1      33.237  15.656  23.167  1.00  0.00     0.156 HD
ATOM     26  H   UNL A   1      31.957  15.881  24.272  1.00  0.00     0.156 HD
ENDBRANCH  19  24
ENDBRANCH   8  18
BRANCH  17  27
ATOM     27  C   UNL A   1      31.960  23.445  23.519  1.00  0.00     0.429 C 
ATOM     28  F   UNL A   1      32.021  22.219  22.943  1.00  0.00    -0.167 F 
ATOM     29  F   UNL A   1      30.813  24.020  23.080  1.00  0.00    -0.167 F 
ATOM     30  F   UNL A   1      32.977  24.179  23.011  1.00  0.00    -0.167 F 
ENDBRANCH  17  27
ENDBRANCH   4   7
ENDBRANCH   2   3
ENDBRANCH   1   2
BRANCH   1  31
ATOM     31  C   UNL A   1      33.485  28.441  27.208  1.00  0.00     0.118 C 
BRANCH  31  32
ATOM     32  N   UNL A   1      33.482  29.847  27.609  1.00  0.00    -0.352 N 
ATOM     33  C   UNL A   1      34.462  30.604  28.207  1.00  0.00     0.251 C 
ATOM     34  H   UNL A   1      32.644  30.328  27.422  1.00  0.00     0.163 HD
ATOM     35  O   UNL A   1      34.192  31.732  28.612  1.00  0.00    -0.269 OA
BRANCH  33  36
ATOM     36  C   UNL A   1      35.822  30.054  28.384  1.00  0.00     0.039 A 
ATOM     37  C   UNL A   1      36.215  29.532  29.615  1.00  0.00     0.014 A 
ATOM     38  C   UNL A   1      36.721  30.077  27.314  1.00  0.00     0.014 A 
ATOM     39  C   UNL A   1      37.552  29.236  29.836  1.00  0.00     0.010 A 
ATOM     40  C   UNL A   1      38.044  29.667  27.509  1.00  0.00     0.010 A 
ATOM     41  C   UNL A   1      38.487  29.301  28.789  1.00  0.00    -0.014 A 
BRANCH  41  42
ATOM     42  C   UNL A   1      39.911  28.997  29.089  1.00  0.00     0.031 A 
ATOM     43  C   UNL A   1      40.520  27.676  28.696  1.00  0.00     0.074 A 
ATOM     44  C   UNL A   1      40.684  29.971  29.613  1.00  0.00     0.049 A 
ATOM     45  N   UNL A   1      41.769  27.292  28.777  1.00  0.00    -0.248 NA
ATOM     46  C   UNL A   1      39.617  26.651  28.148  1.00  0.00     0.031 C 
ATOM     47  C   UNL A   1      40.203  31.291  30.030  1.00  0.00     0.029 A 
ATOM     48  N   UNL A   1      42.037  30.030  29.829  1.00  0.00    -0.354 N 
ATOM     49  C   UNL A   1      41.799  25.983  28.311  1.00  0.00     0.074 A 
ATOM     50  C   UNL A   1      40.438  25.623  27.979  1.00  0.00     0.031 C 
ATOM     51  C   UNL A   1      41.251  32.059  30.355  1.00  0.00     0.029 A 
ATOM     52  C   UNL A   1      42.472  31.270  30.239  1.00  0.00     0.049 A 
ATOM     53  H   UNL A   1      42.638  29.261  29.702  1.00  0.00     0.167 HD
ATOM     54  C   UNL A   1      42.864  25.162  28.155  1.00  0.00     0.037 A 
ATOM     55  C   UNL A   1      43.714  31.723  30.493  1.00  0.00     0.037 A 
ATOM     56  C   UNL A   1      44.221  25.539  28.454  1.00  0.00     0.049 A 
ATOM     57  C   UNL A   1      44.875  30.786  30.339  1.00  0.00     0.074 A 
ATOM     58  C   UNL A   1      45.374  24.787  28.309  1.00  0.00     0.029 A 
ATOM     59  N   UNL A   1      44.608  26.774  28.953  1.00  0.00    -0.354 N 
ATOM     60  N   UNL A   1      44.881  29.552  29.894  1.00  0.00    -0.248 NA
ATOM     61  C   UNL A   1      46.195  31.289  30.747  1.00  0.00     0.031 C 
ATOM     62  C   UNL A   1      46.455  25.555  28.755  1.00  0.00     0.029 A 
ATOM     63  C   UNL A   1      45.979  26.798  29.144  1.00  0.00     0.049 A 
ATOM     64  H   UNL A   1      43.998  27.523  29.144  1.00  0.00     0.167 HD
ATOM     65  C   UNL A   1      46.201  29.128  29.973  1.00  0.00     0.074 A 
ATOM     66  C   UNL A   1      46.971  30.244  30.484  1.00  0.00     0.031 C 
ATOM     67  C   UNL A   1      46.725  27.917  29.664  1.00  0.00     0.037 A 
BRANCH  54  68
ATOM     68  C   UNL A   1      42.610  23.772  27.641  1.00  0.00     0.058 A 
ATOM     69  C   UNL A   1      42.523  23.501  26.266  1.00  0.00     0.135 A 
ATOM     70  C   UNL A   1      42.493  22.691  28.530  1.00  0.00     0.135 A 
ATOM     71  F   UNL A   1      42.613  24.499  25.374  1.00  0.00    -0.206 F 
ATOM     72  C   UNL A   1      42.305  22.211  25.792  1.00  0.00     0.059 A 
ATOM     73  C   UNL A   1      42.297  21.390  28.078  1.00  0.00     0.059 A 
ATOM     74  F   UNL A   1      42.569  22.896  29.855  1.00  0.00    -0.206 F 
ATOM     75  C   UNL A   1      42.191  21.162  26.707  1.00  0.00     0.060 A 
BRANCH  75  76
ATOM     76  S   UNL A   1      41.903  19.496  26.072  1.00  0.00     0.124 S 
ATOM     77  O   UNL A   1      42.770  19.478  24.899  1.00  0.00    -0.237 OA
ATOM     78  O   UNL A   1      42.330  18.658  27.188  1.00  0.00    -0.237 OA
ATOM     79  O   UNL A   1      40.470  19.481  25.792  1.00  0.00    -0.744 OA
ENDBRANCH  75  76
ENDBRANCH  54  68
BRANCH  55  80
ATOM     80  C   UNL A   1      43.908  33.136  30.913  1.00  0.00     0.058 A 
ATOM     81  C   UNL A   1      44.052  34.157  29.963  1.00  0.00     0.135 A 
ATOM     82  C   UNL A   1      43.897  33.499  32.269  1.00  0.00     0.135 A 
ATOM     83  F   UNL A   1      44.075  33.859  28.656  1.00  0.00    -0.206 F 
ATOM     84  C   UNL A   1      44.170  35.491  30.342  1.00  0.00     0.059 A 
ATOM     85  C   UNL A   1      43.989  34.826  32.672  1.00  0.00     0.059 A 
ATOM     86  F   UNL A   1      43.747  32.559  33.216  1.00  0.00    -0.206 F 
ATOM     87  C   UNL A   1      44.129  35.816  31.699  1.00  0.00     0.060 A 
BRANCH  87  88
ATOM     88  S   UNL A   1      44.202  37.556  32.177  1.00  0.00     0.124 S 
ATOM     89  O   UNL A   1      43.271  37.591  33.299  1.00  0.00    -0.237 OA
ATOM     90  O   UNL A   1      45.613  37.724  32.510  1.00  0.00    -0.237 OA
ATOM     91  O   UNL A   1      43.764  38.253  30.970  1.00  0.00    -0.744 OA
ENDBRANCH  87  88
ENDBRANCH  55  80
BRANCH  67  92
ATOM     92  C   UNL A   1      48.196  27.721  29.884  1.00  0.00     0.058 A 
ATOM     93  C   UNL A   1      48.683  27.220  31.101  1.00  0.00     0.135 A 
ATOM     94  C   UNL A   1      49.113  27.937  28.844  1.00  0.00     0.135 A 
ATOM     95  F   UNL A   1      47.844  27.008  32.128  1.00  0.00    -0.206 F 
ATOM     96  C   UNL A   1      50.031  26.934  31.278  1.00  0.00     0.059 A 
ATOM     97  C   UNL A   1      50.463  27.639  28.993  1.00  0.00     0.059 A 
ATOM     98  F   UNL A   1      48.693  28.411  27.660  1.00  0.00    -0.206 F 
ATOM     99  C   UNL A   1      50.912  27.136  30.214  1.00  0.00     0.060 A 
BRANCH  99 100
ATOM    100  S   UNL A   1      52.645  26.682  30.434  1.00  0.00     0.124 S 
ATOM    101  O   UNL A   1      53.208  27.918  30.969  1.00  0.00    -0.237 OA
ATOM    102  O   UNL A   1      52.557  25.568  31.372  1.00  0.00    -0.237 OA
ATOM    103  O   UNL A   1      53.078  26.327  29.087  1.00  0.00    -0.744 OA
ENDBRANCH  99 100
ENDBRANCH  67  92
ENDBRANCH  41  42
ENDBRANCH  33  36
ENDBRANCH  31  32
ENDBRANCH   1  31
TORSDOF 16
ENDMDL
MODEL 2
REMARK VINA RESULT:     -12.7      4.966      9.763
REMARK SMILES Nc1ccc(-c2cc(Cl)cc3c2O[C@H](C(F)(F)F)C(C(=O)NCCCNC(=O)c2ccc(-c4c5nc(c(-c6c(F)cc(S(=O)(=O)[O-])cc6F)c6ccc([nH]6)c(-c6c(F)cc(S(=O)(=O)[O-])cc6F)c6nc(c(-c7c(F)cc(S(=O)(=O)[O-])cc7F)c7ccc4[nH]7)C=C6)C=C5)cc2)=C3)cc1
REMARK SMILES IDX 24 1 23 2 22 3 20 4 21 5 19 7 6 8 7 9 12 10 8 11 11 12 13 13
REMARK SMILES IDX 9 14 10 15 95 16 14 17 5 18 2 19 3 20 97 21 4 22 96 23 1 24
REMARK SMILES IDX 15 27 16 28 17 29 18 30 25 31 26 32 27 33 28 35 29 36 30 37
REMARK SMILES IDX 94 38 31 39 93 40 32 41 33 42 34 43 87 44 35 45 92 46 86 47
REMARK SMILES IDX 88 48 36 49 91 50 85 51 84 52 37 54 71 55 50 56 70 57 51 58
REMARK SMILES IDX 54 59 69 60 89 61 52 62 53 63 68 65 90 66 55 67 38 68 39 69
REMARK SMILES IDX 48 70 40 71 41 72 47 73 49 74 42 75 43 76 44 77 45 78 46 79
REMARK SMILES IDX 72 80 73 81 82 82 74 83 75 84 81 85 83 86 76 87 77 88 78 89
REMARK SMILES IDX 79 90 80 91 56 92 57 93 66 94 58 95 59 96 65 97 67 98 60 99
REMARK SMILES IDX 61 100 62 101 63 102 64 103
REMARK H PARENT 22 6 1 25 1 26 26 34 88 53 54 64
REMARK Flexibility Score: inf
ROOT
ATOM      1  C   UNL A   1      31.614  31.984  26.909  1.00  0.00     0.042 C 
ENDROOT
BRANCH   1   2
ATOM      2  C   UNL A   1      31.983  30.583  26.448  1.00  0.00     0.118 C 
BRANCH   2   3
ATOM      3  N   UNL A   1      31.469  30.279  25.122  1.00  0.00    -0.352 N 
ATOM      4  C   UNL A   1      31.276  29.173  24.364  1.00  0.00     0.251 C 
ATOM      5  O   UNL A   1      30.749  29.372  23.264  1.00  0.00    -0.270 OA
ATOM      6  H   UNL A   1      31.186  31.095  24.648  1.00  0.00     0.163 HD
BRANCH   4   7
ATOM      7  C   UNL A   1      31.640  27.783  24.764  1.00  0.00     0.067 C 
ATOM      8  C   UNL A   1      32.527  23.778  25.706  1.00  0.00     0.026 A 
ATOM      9  C   UNL A   1      31.556  23.012  26.368  1.00  0.00     0.033 A 
ATOM     10  C   UNL A   1      32.183  25.087  25.318  1.00  0.00     0.135 A 
ATOM     11  C   UNL A   1      30.293  23.547  26.632  1.00  0.00     0.042 A 
ATOM     12  C   UNL A   1      30.920  25.629  25.589  1.00  0.00     0.019 A 
ATOM     13  O   UNL A   1      33.114  25.806  24.612  1.00  0.00    -0.475 OA
ATOM     14  Cl  UNL A   1      29.120  22.589  27.453  1.00  0.00    -0.084 Cl
ATOM     15  C   UNL A   1      29.969  24.848  26.246  1.00  0.00     0.032 A 
ATOM     16  C   UNL A   1      30.623  26.992  25.158  1.00  0.00     0.025 C 
ATOM     17  C   UNL A   1      33.041  27.245  24.761  1.00  0.00     0.314 C 
BRANCH   8  18
ATOM     18  C   UNL A   1      33.870  23.236  25.446  1.00  0.00    -0.014 A 
ATOM     19  C   UNL A   1      36.512  22.377  24.893  1.00  0.00     0.031 A 
ATOM     20  C   UNL A   1      36.187  22.913  26.138  1.00  0.00     0.026 A 
ATOM     21  C   UNL A   1      35.491  22.197  23.959  1.00  0.00     0.026 A 
ATOM     22  C   UNL A   1      34.886  23.347  26.409  1.00  0.00     0.011 A 
ATOM     23  C   UNL A   1      34.187  22.634  24.223  1.00  0.00     0.011 A 
BRANCH  19  24
ATOM     24  N   UNL A   1      37.790  21.900  24.644  1.00  0.00    -0.399 N 
ATOM     25  H   UNL A   1      38.122  21.840  23.719  1.00  0.00     0.156 HD
ATOM     26  H   UNL A   1      38.367  21.621  25.393  1.00  0.00     0.156 HD
ENDBRANCH  19  24
ENDBRANCH   8  18
BRANCH  17  27
ATOM     27  C   UNL A   1      33.852  27.677  26.000  1.00  0.00     0.429 C 
ATOM     28  F   UNL A   1      34.814  26.764  26.284  1.00  0.00    -0.167 F 
ATOM     29  F   UNL A   1      34.486  28.861  25.820  1.00  0.00    -0.167 F 
ATOM     30  F   UNL A   1      33.089  27.814  27.109  1.00  0.00    -0.167 F 
ENDBRANCH  17  27
ENDBRANCH   4   7
ENDBRANCH   2   3
ENDBRANCH   1   2
BRANCH   1  31
ATOM     31  C   UNL A   1      32.791  32.736  27.517  1.00  0.00     0.118 C 
BRANCH  31  32
ATOM     32  N   UNL A   1      32.486  34.141  27.776  1.00  0.00    -0.352 N 
ATOM     33  C   UNL A   1      33.032  35.018  28.685  1.00  0.00     0.251 C 
ATOM     34  H   UNL A   1      31.776  34.522  27.210  1.00  0.00     0.163 HD
ATOM     35  O   UNL A   1      32.511  36.118  28.852  1.00  0.00    -0.269 OA
BRANCH  33  36
ATOM     36  C   UNL A   1      34.218  34.627  29.474  1.00  0.00     0.039 A 
ATOM     37  C   UNL A   1      35.498  34.784  28.946  1.00  0.00     0.014 A 
ATOM     38  C   UNL A   1      34.050  34.078  30.749  1.00  0.00     0.014 A 
ATOM     39  C   UNL A   1      36.580  34.204  29.591  1.00  0.00     0.010 A 
ATOM     40  C   UNL A   1      35.161  33.597  31.451  1.00  0.00     0.010 A 
ATOM     41  C   UNL A   1      36.428  33.601  30.851  1.00  0.00    -0.014 A 
BRANCH  41  42
ATOM     42  C   UNL A   1      37.618  32.973  31.485  1.00  0.00     0.031 A 
ATOM     43  C   UNL A   1      38.079  33.398  32.855  1.00  0.00     0.074 A 
ATOM     44  C   UNL A   1      38.208  31.931  30.864  1.00  0.00     0.049 A 
ATOM     45  N   UNL A   1      39.022  32.879  33.601  1.00  0.00    -0.248 NA
ATOM     46  C   UNL A   1      37.404  34.553  33.468  1.00  0.00     0.031 C 
ATOM     47  C   UNL A   1      37.845  31.432  29.535  1.00  0.00     0.029 A 
ATOM     48  N   UNL A   1      39.190  31.070  31.282  1.00  0.00    -0.354 N 
ATOM     49  C   UNL A   1      39.066  33.650  34.756  1.00  0.00     0.074 A 
ATOM     50  C   UNL A   1      38.079  34.696  34.602  1.00  0.00     0.031 C 
ATOM     51  C   UNL A   1      38.518  30.299  29.290  1.00  0.00     0.029 A 
ATOM     52  C   UNL A   1      39.413  30.029  30.410  1.00  0.00     0.049 A 
ATOM     53  H   UNL A   1      39.686  31.186  32.124  1.00  0.00     0.167 HD
ATOM     54  C   UNL A   1      39.844  33.492  35.853  1.00  0.00     0.037 A 
ATOM     55  C   UNL A   1      40.243  28.972  30.500  1.00  0.00     0.037 A 
ATOM     56  C   UNL A   1      40.800  32.428  36.014  1.00  0.00     0.049 A 
ATOM     57  C   UNL A   1      41.115  28.834  31.713  1.00  0.00     0.074 A 
ATOM     58  C   UNL A   1      41.621  32.167  37.097  1.00  0.00     0.029 A 
ATOM     59  N   UNL A   1      41.059  31.446  35.070  1.00  0.00    -0.354 N 
ATOM     60  N   UNL A   1      41.138  29.575  32.795  1.00  0.00    -0.248 NA
ATOM     61  C   UNL A   1      42.091  27.736  31.709  1.00  0.00     0.031 C 
ATOM     62  C   UNL A   1      42.403  31.048  36.793  1.00  0.00     0.029 A 
ATOM     63  C   UNL A   1      42.044  30.591  35.534  1.00  0.00     0.049 A 
ATOM     64  H   UNL A   1      40.610  31.369  34.197  1.00  0.00     0.167 HD
ATOM     65  C   UNL A   1      42.135  29.038  33.599  1.00  0.00     0.074 A 
ATOM     66  C   UNL A   1      42.674  27.894  32.891  1.00  0.00     0.031 C 
ATOM     67  C   UNL A   1      42.573  29.463  34.809  1.00  0.00     0.037 A 
BRANCH  54  68
ATOM     68  C   UNL A   1      39.699  34.493  36.966  1.00  0.00     0.058 A 
ATOM     69  C   UNL A   1      40.343  35.739  36.921  1.00  0.00     0.135 A 
ATOM     70  C   UNL A   1      38.875  34.221  38.070  1.00  0.00     0.135 A 
ATOM     71  F   UNL A   1      41.154  36.045  35.896  1.00  0.00    -0.206 F 
ATOM     72  C   UNL A   1      40.194  36.672  37.943  1.00  0.00     0.059 A 
ATOM     73  C   UNL A   1      38.694  35.146  39.093  1.00  0.00     0.059 A 
ATOM     74  F   UNL A   1      38.236  33.043  38.161  1.00  0.00    -0.206 F 
ATOM     75  C   UNL A   1      39.368  36.365  39.027  1.00  0.00     0.060 A 
BRANCH  75  76
ATOM     76  S   UNL A   1      39.192  37.585  40.346  1.00  0.00     0.124 S 
ATOM     77  O   UNL A   1      38.834  36.738  41.479  1.00  0.00    -0.237 OA
ATOM     78  O   UNL A   1      40.523  38.183  40.398  1.00  0.00    -0.237 OA
ATOM     79  O   UNL A   1      38.132  38.462  39.860  1.00  0.00    -0.744 OA
ENDBRANCH  75  76
ENDBRANCH  54  68
BRANCH  55  80
ATOM     80  C   UNL A   1      40.275  27.969  29.403  1.00  0.00     0.058 A 
ATOM     81  C   UNL A   1      41.153  28.113  28.320  1.00  0.00     0.135 A 
ATOM     82  C   UNL A   1      39.470  26.820  29.446  1.00  0.00     0.135 A 
ATOM     83  F   UNL A   1      41.938  29.197  28.232  1.00  0.00    -0.206 F 
ATOM     84  C   UNL A   1      41.239  27.149  27.321  1.00  0.00     0.059 A 
ATOM     85  C   UNL A   1      39.554  25.831  28.473  1.00  0.00     0.059 A 
ATOM     86  F   UNL A   1      38.624  26.630  30.471  1.00  0.00    -0.206 F 
ATOM     87  C   UNL A   1      40.440  26.007  27.410  1.00  0.00     0.060 A 
BRANCH  87  88
ATOM     88  S   UNL A   1      40.616  24.725  26.152  1.00  0.00     0.124 S 
ATOM     89  O   UNL A   1      41.316  25.446  25.095  1.00  0.00    -0.237 OA
ATOM     90  O   UNL A   1      41.393  23.708  26.855  1.00  0.00    -0.237 OA
ATOM     91  O   UNL A   1      39.235  24.353  25.855  1.00  0.00    -0.744 OA
ENDBRANCH  87  88
ENDBRANCH  55  80
BRANCH  67  92
ATOM     92  C   UNL A   1      43.704  28.707  35.442  1.00  0.00     0.058 A 
ATOM     93  C   UNL A   1      45.038  29.070  35.205  1.00  0.00     0.135 A 
ATOM     94  C   UNL A   1      43.452  27.682  36.367  1.00  0.00     0.135 A 
ATOM     95  F   UNL A   1      45.328  30.038  34.321  1.00  0.00    -0.206 F 
ATOM     96  C   UNL A   1      46.086  28.446  35.870  1.00  0.00     0.059 A 
ATOM     97  C   UNL A   1      44.484  27.057  37.058  1.00  0.00     0.059 A 
ATOM     98  F   UNL A   1      42.190  27.303  36.630  1.00  0.00    -0.206 F 
ATOM     99  C   UNL A   1      45.799  27.448  36.803  1.00  0.00     0.060 A 
BRANCH  99 100
ATOM    100  S   UNL A   1      47.168  26.705  37.716  1.00  0.00     0.124 S 
ATOM    101  O   UNL A   1      46.788  25.295  37.720  1.00  0.00    -0.237 OA
ATOM    102  O   UNL A   1      48.318  27.050  36.887  1.00  0.00    -0.237 OA
ATOM    103  O   UNL A   1      47.114  27.373  39.012  1.00  0.00    -0.744 OA
ENDBRANCH  99 100
ENDBRANCH  67  92
ENDBRANCH  41  42
ENDBRANCH  33  36
ENDBRANCH  31  32
ENDBRANCH   1  31
TORSDOF 16
ENDMDL
MODEL 3
REMARK VINA RESULT:     -12.7      4.846      9.666
REMARK SMILES Nc1ccc(-c2cc(Cl)cc3c2O[C@H](C(F)(F)F)C(C(=O)NCCCNC(=O)c2ccc(-c4c5nc(c(-c6c(F)cc(S(=O)(=O)[O-])cc6F)c6ccc([nH]6)c(-c6c(F)cc(S(=O)(=O)[O-])cc6F)c6nc(c(-c7c(F)cc(S(=O)(=O)[O-])cc7F)c7ccc4[nH]7)C=C6)C=C5)cc2)=C3)cc1
REMARK SMILES IDX 24 1 23 2 22 3 20 4 21 5 19 7 6 8 7 9 12 10 8 11 11 12 13 13
REMARK SMILES IDX 9 14 10 15 95 16 14 17 5 18 2 19 3 20 97 21 4 22 96 23 1 24
REMARK SMILES IDX 15 27 16 28 17 29 18 30 25 31 26 32 27 33 28 35 29 36 30 37
REMARK SMILES IDX 94 38 31 39 93 40 32 41 33 42 34 43 87 44 35 45 92 46 86 47
REMARK SMILES IDX 88 48 36 49 91 50 85 51 84 52 37 54 71 55 50 56 70 57 51 58
REMARK SMILES IDX 54 59 69 60 89 61 52 62 53 63 68 65 90 66 55 67 38 68 39 69
REMARK SMILES IDX 48 70 40 71 41 72 47 73 49 74 42 75 43 76 44 77 45 78 46 79
REMARK SMILES IDX 72 80 73 81 82 82 74 83 75 84 81 85 83 86 76 87 77 88 78 89
REMARK SMILES IDX 79 90 80 91 56 92 57 93 66 94 58 95 59 96 65 97 67 98 60 99
REMARK SMILES IDX 61 100 62 101 63 102 64 103
REMARK H PARENT 22 6 1 25 1 26 26 34 88 53 54 64
REMARK Flexibility Score: inf
ROOT
ATOM      1  C   UNL A   1      31.670  31.778  26.846  1.00  0.00     0.042 C 
ENDROOT
BRANCH   1   2
ATOM      2  C   UNL A   1      32.108  30.488  26.170  1.00  0.00     0.118 C 
BRANCH   2   3
ATOM      3  N   UNL A   1      33.490  30.144  26.469  1.00  0.00    -0.352 N 
ATOM      4  C   UNL A   1      34.330  29.111  26.220  1.00  0.00     0.251 C 
ATOM      5  O   UNL A   1      35.483  29.254  26.638  1.00  0.00    -0.270 OA
ATOM      6  H   UNL A   1      33.933  30.851  26.993  1.00  0.00     0.163 HD
BRANCH   4   7
ATOM      7  C   UNL A   1      33.962  27.862  25.492  1.00  0.00     0.067 C 
ATOM      8  C   UNL A   1      33.151  24.338  23.337  1.00  0.00     0.026 A 
ATOM      9  C   UNL A   1      32.873  24.438  21.966  1.00  0.00     0.033 A 
ATOM     10  C   UNL A   1      33.508  25.514  24.025  1.00  0.00     0.135 A 
ATOM     11  C   UNL A   1      32.948  25.672  21.317  1.00  0.00     0.042 A 
ATOM     12  C   UNL A   1      33.576  26.755  23.379  1.00  0.00     0.019 A 
ATOM     13  O   UNL A   1      33.843  25.398  25.350  1.00  0.00    -0.475 OA
ATOM     14  Cl  UNL A   1      32.595  25.769  19.634  1.00  0.00    -0.084 Cl
ATOM     15  C   UNL A   1      33.298  26.830  22.014  1.00  0.00     0.032 A 
ATOM     16  C   UNL A   1      33.955  27.938  24.146  1.00  0.00     0.025 C 
ATOM     17  C   UNL A   1      33.599  26.571  26.165  1.00  0.00     0.314 C 
BRANCH   8  18
ATOM     18  C   UNL A   1      33.050  23.048  24.039  1.00  0.00    -0.014 A 
ATOM     19  C   UNL A   1      32.900  20.662  25.556  1.00  0.00     0.031 A 
ATOM     20  C   UNL A   1      31.797  21.509  25.457  1.00  0.00     0.026 A 
ATOM     21  C   UNL A   1      34.047  20.974  24.826  1.00  0.00     0.026 A 
ATOM     22  C   UNL A   1      31.872  22.692  24.716  1.00  0.00     0.011 A 
ATOM     23  C   UNL A   1      34.130  22.160  24.087  1.00  0.00     0.011 A 
BRANCH  19  24
ATOM     24  N   UNL A   1      32.806  19.464  26.249  1.00  0.00    -0.399 N 
ATOM     25  H   UNL A   1      33.593  18.875  26.322  1.00  0.00     0.156 HD
ATOM     26  H   UNL A   1      31.954  19.201  26.666  1.00  0.00     0.156 HD
ENDBRANCH  19  24
ENDBRANCH   8  18
BRANCH  17  27
ATOM     27  C   UNL A   1      32.143  26.549  26.675  1.00  0.00     0.429 C 
ATOM     28  F   UNL A   1      32.009  27.337  27.771  1.00  0.00    -0.167 F 
ATOM     29  F   UNL A   1      31.262  27.015  25.757  1.00  0.00    -0.167 F 
ATOM     30  F   UNL A   1      31.723  25.310  27.018  1.00  0.00    -0.167 F 
ENDBRANCH  17  27
ENDBRANCH   4   7
ENDBRANCH   2   3
ENDBRANCH   1   2
BRANCH   1  31
ATOM     31  C   UNL A   1      32.835  32.562  27.434  1.00  0.00     0.118 C 
BRANCH  31  32
ATOM     32  N   UNL A   1      32.495  33.959  27.700  1.00  0.00    -0.352 N 
ATOM     33  C   UNL A   1      33.014  34.843  28.618  1.00  0.00     0.251 C 
ATOM     34  H   UNL A   1      31.780  34.325  27.133  1.00  0.00     0.163 HD
ATOM     35  O   UNL A   1      32.467  35.929  28.788  1.00  0.00    -0.269 OA
BRANCH  33  36
ATOM     36  C   UNL A   1      34.205  34.476  29.411  1.00  0.00     0.039 A 
ATOM     37  C   UNL A   1      35.483  34.656  28.887  1.00  0.00     0.014 A 
ATOM     38  C   UNL A   1      34.043  33.927  30.687  1.00  0.00     0.014 A 
ATOM     39  C   UNL A   1      36.575  34.098  29.536  1.00  0.00     0.010 A 
ATOM     40  C   UNL A   1      35.160  33.468  31.393  1.00  0.00     0.010 A 
ATOM     41  C   UNL A   1      36.430  33.495  30.797  1.00  0.00    -0.014 A 
BRANCH  41  42
ATOM     42  C   UNL A   1      37.629  32.891  31.437  1.00  0.00     0.031 A 
ATOM     43  C   UNL A   1      38.093  33.345  32.796  1.00  0.00     0.074 A 
ATOM     44  C   UNL A   1      38.226  31.843  30.832  1.00  0.00     0.049 A 
ATOM     45  N   UNL A   1      39.045  32.850  33.546  1.00  0.00    -0.248 NA
ATOM     46  C   UNL A   1      37.410  34.505  33.391  1.00  0.00     0.031 C 
ATOM     47  C   UNL A   1      37.861  31.315  29.515  1.00  0.00     0.029 A 
ATOM     48  N   UNL A   1      39.218  31.000  31.261  1.00  0.00    -0.354 N 
ATOM     49  C   UNL A   1      39.087  33.644  34.686  1.00  0.00     0.074 A 
ATOM     50  C   UNL A   1      38.089  34.676  34.518  1.00  0.00     0.031 C 
ATOM     51  C   UNL A   1      38.544  30.185  29.288  1.00  0.00     0.029 A 
ATOM     52  C   UNL A   1      39.448  29.945  30.407  1.00  0.00     0.049 A 
ATOM     53  H   UNL A   1      39.718  31.136  32.098  1.00  0.00     0.167 HD
ATOM     54  C   UNL A   1      39.872  33.513  35.781  1.00  0.00     0.037 A 
ATOM     55  C   UNL A   1      40.288  28.898  30.512  1.00  0.00     0.037 A 
ATOM     56  C   UNL A   1      40.840  32.463  35.958  1.00  0.00     0.049 A 
ATOM     57  C   UNL A   1      41.168  28.791  31.723  1.00  0.00     0.074 A 
ATOM     58  C   UNL A   1      41.669  32.230  37.041  1.00  0.00     0.029 A 
ATOM     59  N   UNL A   1      41.104  31.465  35.031  1.00  0.00    -0.354 N 
ATOM     60  N   UNL A   1      41.190  29.552  32.791  1.00  0.00    -0.248 NA
ATOM     61  C   UNL A   1      42.155  27.703  31.735  1.00  0.00     0.031 C 
ATOM     62  C   UNL A   1      42.461  31.113  36.753  1.00  0.00     0.029 A 
ATOM     63  C   UNL A   1      42.100  30.629  35.506  1.00  0.00     0.049 A 
ATOM     64  H   UNL A   1      40.651  31.367  34.162  1.00  0.00     0.167 HD
ATOM     65  C   UNL A   1      42.196  29.041  33.600  1.00  0.00     0.074 A 
ATOM     66  C   UNL A   1      42.742  27.889  32.911  1.00  0.00     0.031 C 
ATOM     67  C   UNL A   1      42.636  29.493  34.799  1.00  0.00     0.037 A 
BRANCH  54  68
ATOM     68  C   UNL A   1      39.724  34.534  36.876  1.00  0.00     0.058 A 
ATOM     69  C   UNL A   1      40.385  35.771  36.822  1.00  0.00     0.135 A 
ATOM     70  C   UNL A   1      38.879  34.290  37.971  1.00  0.00     0.135 A 
ATOM     71  F   UNL A   1      41.215  36.050  35.805  1.00  0.00    -0.206 F 
ATOM     72  C   UNL A   1      40.232  36.721  37.827  1.00  0.00     0.059 A 
ATOM     73  C   UNL A   1      38.694  35.234  38.977  1.00  0.00     0.059 A 
ATOM     74  F   UNL A   1      38.224  33.123  38.071  1.00  0.00    -0.206 F 
ATOM     75  C   UNL A   1      39.386  36.442  38.902  1.00  0.00     0.060 A 
BRANCH  75  76
ATOM     76  S   UNL A   1      39.205  37.686  40.199  1.00  0.00     0.124 S 
ATOM     77  O   UNL A   1      38.788  36.866  41.332  1.00  0.00    -0.237 OA
ATOM     78  O   UNL A   1      40.550  38.246  40.285  1.00  0.00    -0.237 OA
ATOM     79  O   UNL A   1      38.186  38.587  39.669  1.00  0.00    -0.744 OA
ENDBRANCH  75  76
ENDBRANCH  54  68
BRANCH  55  80
ATOM     80  C   UNL A   1      40.325  27.874  29.435  1.00  0.00     0.058 A 
ATOM     81  C   UNL A   1      41.249  27.966  28.385  1.00  0.00     0.135 A 
ATOM     82  C   UNL A   1      39.475  26.757  29.466  1.00  0.00     0.135 A 
ATOM     83  F   UNL A   1      42.077  29.019  28.310  1.00  0.00    -0.206 F 
ATOM     84  C   UNL A   1      41.336  26.982  27.406  1.00  0.00     0.059 A 
ATOM     85  C   UNL A   1      39.559  25.749  28.512  1.00  0.00     0.059 A 
ATOM     86  F   UNL A   1      38.584  26.617  30.459  1.00  0.00    -0.206 F 
ATOM     87  C   UNL A   1      40.492  25.872  27.483  1.00  0.00     0.060 A 
BRANCH  87  88
ATOM     88  S   UNL A   1      40.668  24.562  26.254  1.00  0.00     0.124 S 
ATOM     89  O   UNL A   1      39.299  24.068  26.154  1.00  0.00    -0.237 OA
ATOM     90  O   UNL A   1      41.170  25.293  25.094  1.00  0.00    -0.237 OA
ATOM     91  O   UNL A   1      41.626  23.648  26.871  1.00  0.00    -0.744 OA
ENDBRANCH  87  88
ENDBRANCH  55  80
BRANCH  67  92
ATOM     92  C   UNL A   1      43.777  28.760  35.440  1.00  0.00     0.058 A 
ATOM     93  C   UNL A   1      45.104  29.167  35.234  1.00  0.00     0.135 A 
ATOM     94  C   UNL A   1      43.540  27.712  36.343  1.00  0.00     0.135 A 
ATOM     95  F   UNL A   1      45.380  30.158  34.371  1.00  0.00    -0.206 F 
ATOM     96  C   UNL A   1      46.159  28.563  35.907  1.00  0.00     0.059 A 
ATOM     97  C   UNL A   1      44.579  27.107  37.042  1.00  0.00     0.059 A 
ATOM     98  F   UNL A   1      42.286  27.291  36.576  1.00  0.00    -0.206 F 
ATOM     99  C   UNL A   1      45.885  27.541  36.818  1.00  0.00     0.060 A 
BRANCH  99 100
ATOM    100  S   UNL A   1      47.259  26.823  37.744  1.00  0.00     0.124 S 
ATOM    101  O   UNL A   1      48.231  27.911  37.720  1.00  0.00    -0.237 OA
ATOM    102  O   UNL A   1      46.648  26.547  39.040  1.00  0.00    -0.237 OA
ATOM    103  O   UNL A   1      47.617  25.644  36.962  1.00  0.00    -0.744 OA
ENDBRANCH  99 100
ENDBRANCH  67  92
ENDBRANCH  41  42
ENDBRANCH  33  36
ENDBRANCH  31  32
ENDBRANCH   1  31
TORSDOF 16
ENDMDL
