MODEL 1
REMARK VINA RESULT:     -11.9      0.000      0.000
REMARK SMILES CCCCOC(=O)[C@@H]1[C@H]2c3ccccc3[C@H](c3ccccc32)[C@@H]1C(=O)NCCCNC(=O)c1ccc(-c2c3nc(c(-c4c(F)cc(S(=O)(=O)[O-])cc4F)c4ccc([nH]4)c(-c4c(F)cc(S(=O)(=O)[O-])cc4F)c4nc(c(-c5c(F)cc(S(=O)(=O)[O-])cc5F)c5ccc2[nH]5)C=C4)C=C3)cc1
REMARK SMILES IDX 27 1 26 2 24 3 25 4 23 6 8 7 9 8 22 9 10 10 16 11 21 12
REMARK SMILES IDX 17 13 15 14 11 15 20 16 18 17 14 18 12 19 19 20 13 21 6 22
REMARK SMILES IDX 7 23 5 24 4 25 3 26 2 27 1 28 28 29 29 30 30 31 31 32 32 34
REMARK SMILES IDX 33 35 34 36 98 37 35 38 97 39 36 40 37 41 38 42 91 43 39 44
REMARK SMILES IDX 96 45 90 46 92 47 40 48 95 49 89 50 88 51 41 53 75 54 54 55
REMARK SMILES IDX 74 56 55 57 58 58 73 59 93 60 56 61 57 62 72 64 94 65 59 66
REMARK SMILES IDX 42 67 43 68 52 69 44 70 45 71 51 72 53 73 46 74 47 75 48 76
REMARK SMILES IDX 49 77 50 78 76 79 77 80 86 81 78 82 79 83 85 84 87 85 80 86
REMARK SMILES IDX 81 87 82 88 83 89 84 90 60 91 61 92 70 93 62 94 63 95 69 96
REMARK SMILES IDX 71 97 64 98 65 99 66 100 67 101 68 102
REMARK H PARENT 26 5 30 33 92 52 58 63
REMARK Flexibility Score: inf
ROOT
ATOM      1  C   UNL A   1      31.424  27.308  26.446  1.00  0.00     0.117 C 
ENDROOT
BRANCH   1   2
ATOM      2  N   UNL A   1      31.009  25.938  26.693  1.00  0.00    -0.356 N 
ATOM      3  C   UNL A   1      31.681  24.765  26.587  1.00  0.00     0.224 C 
ATOM      4  O   UNL A   1      31.181  23.797  27.176  1.00  0.00    -0.275 OA
ATOM      5  H   UNL A   1      30.075  25.845  26.992  1.00  0.00     0.163 HD
BRANCH   3   6
ATOM      6  C   UNL A   1      32.949  24.539  25.759  1.00  0.00     0.105 C 
ATOM      7  C   UNL A   1      32.936  24.595  24.190  1.00  0.00     0.124 C 
ATOM      8  C   UNL A   1      33.685  23.345  23.622  1.00  0.00     0.065 C 
ATOM      9  C   UNL A   1      33.138  22.059  24.251  1.00  0.00    -0.036 A 
ATOM     10  C   UNL A   1      35.124  23.448  24.192  1.00  0.00    -0.036 A 
ATOM     11  C   UNL A   1      33.786  23.330  26.267  1.00  0.00     0.063 C 
ATOM     12  C   UNL A   1      32.733  20.921  23.565  1.00  0.00     0.004 A 
ATOM     13  C   UNL A   1      33.242  22.038  25.671  1.00  0.00    -0.036 A 
ATOM     14  C   UNL A   1      35.166  23.476  25.619  1.00  0.00    -0.036 A 
ATOM     15  C   UNL A   1      36.304  23.340  23.470  1.00  0.00     0.004 A 
ATOM     16  C   UNL A   1      32.462  19.759  24.294  1.00  0.00     0.000 A 
ATOM     17  C   UNL A   1      33.018  20.867  26.386  1.00  0.00     0.004 A 
ATOM     18  C   UNL A   1      36.369  23.445  26.309  1.00  0.00     0.004 A 
ATOM     19  C   UNL A   1      37.515  23.289  24.172  1.00  0.00     0.000 A 
ATOM     20  C   UNL A   1      32.623  19.726  25.689  1.00  0.00     0.000 A 
ATOM     21  C   UNL A   1      37.548  23.353  25.574  1.00  0.00     0.000 A 
BRANCH   7  22
ATOM     22  C   UNL A   1      31.609  24.976  23.560  1.00  0.00     0.310 C 
ATOM     23  O   UNL A   1      30.563  24.355  23.705  1.00  0.00    -0.252 OA
BRANCH  22  24
ATOM     24  O   UNL A   1      31.641  26.192  22.945  1.00  0.00    -0.465 OA
BRANCH  24  25
ATOM     25  C   UNL A   1      32.541  26.257  21.815  1.00  0.00     0.233 C 
BRANCH  25  26
ATOM     26  C   UNL A   1      33.575  27.367  21.990  1.00  0.00     0.041 C 
BRANCH  26  27
ATOM     27  C   UNL A   1      33.728  27.900  23.417  1.00  0.00     0.000 C 
ATOM     28  C   UNL A   1      32.934  29.169  23.685  1.00  0.00     0.004 C 
ENDBRANCH  26  27
ENDBRANCH  25  26
ENDBRANCH  24  25
ENDBRANCH  22  24
ENDBRANCH   7  22
ENDBRANCH   3   6
ENDBRANCH   1   2
BRANCH   1  29
ATOM     29  C   UNL A   1      32.163  27.902  27.626  1.00  0.00     0.042 C 
BRANCH  29  30
ATOM     30  C   UNL A   1      33.477  28.520  27.196  1.00  0.00     0.118 C 
BRANCH  30  31
ATOM     31  N   UNL A   1      33.589  29.918  27.624  1.00  0.00    -0.352 N 
ATOM     32  C   UNL A   1      34.616  30.614  28.224  1.00  0.00     0.251 C 
ATOM     33  H   UNL A   1      32.784  30.458  27.452  1.00  0.00     0.163 HD
ATOM     34  O   UNL A   1      34.394  31.720  28.711  1.00  0.00    -0.269 OA
BRANCH  32  35
ATOM     35  C   UNL A   1      35.970  30.022  28.318  1.00  0.00     0.039 A 
ATOM     36  C   UNL A   1      36.372  29.397  29.489  1.00  0.00     0.014 A 
ATOM     37  C   UNL A   1      36.864  30.110  27.247  1.00  0.00     0.014 A 
ATOM     38  C   UNL A   1      37.716  29.176  29.718  1.00  0.00     0.010 A 
ATOM     39  C   UNL A   1      38.189  29.686  27.413  1.00  0.00     0.010 A 
ATOM     40  C   UNL A   1      38.648  29.289  28.677  1.00  0.00    -0.014 A 
BRANCH  40  41
ATOM     41  C   UNL A   1      40.076  28.979  28.966  1.00  0.00     0.031 A 
ATOM     42  C   UNL A   1      40.683  27.662  28.554  1.00  0.00     0.074 A 
ATOM     43  C   UNL A   1      40.847  29.933  29.531  1.00  0.00     0.049 A 
ATOM     44  N   UNL A   1      41.911  27.240  28.716  1.00  0.00    -0.248 NA
ATOM     45  C   UNL A   1      39.803  26.688  27.888  1.00  0.00     0.031 C 
ATOM     46  C   UNL A   1      40.372  31.251  29.967  1.00  0.00     0.029 A 
ATOM     47  N   UNL A   1      42.192  29.970  29.795  1.00  0.00    -0.354 N 
ATOM     48  C   UNL A   1      41.938  25.942  28.216  1.00  0.00     0.074 A 
ATOM     49  C   UNL A   1      40.599  25.636  27.766  1.00  0.00     0.031 C 
ATOM     50  C   UNL A   1      41.414  31.994  30.357  1.00  0.00     0.029 A 
ATOM     51  C   UNL A   1      42.616  31.173  30.314  1.00  0.00     0.049 A 
ATOM     52  H   UNL A   1      42.795  29.209  29.633  1.00  0.00     0.167 HD
ATOM     53  C   UNL A   1      42.990  25.091  28.132  1.00  0.00     0.037 A 
ATOM     54  C   UNL A   1      43.828  31.569  30.743  1.00  0.00     0.037 A 
ATOM     55  C   UNL A   1      44.328  25.430  28.544  1.00  0.00     0.049 A 
ATOM     56  C   UNL A   1      44.968  30.600  30.669  1.00  0.00     0.074 A 
ATOM     57  C   UNL A   1      45.473  24.659  28.457  1.00  0.00     0.029 A 
ATOM     58  N   UNL A   1      44.701  26.635  29.123  1.00  0.00    -0.354 N 
ATOM     59  N   UNL A   1      44.977  29.384  30.177  1.00  0.00    -0.248 NA
ATOM     60  C   UNL A   1      46.254  31.041  31.220  1.00  0.00     0.031 C 
ATOM     61  C   UNL A   1      46.524  25.372  29.040  1.00  0.00     0.029 A 
ATOM     62  C   UNL A   1      46.049  26.613  29.436  1.00  0.00     0.049 A 
ATOM     63  H   UNL A   1      44.096  27.395  29.286  1.00  0.00     0.167 HD
ATOM     64  C   UNL A   1      46.267  28.908  30.368  1.00  0.00     0.074 A 
ATOM     65  C   UNL A   1      47.018  29.981  30.987  1.00  0.00     0.031 C 
ATOM     66  C   UNL A   1      46.777  27.688  30.067  1.00  0.00     0.037 A 
BRANCH  53  67
ATOM     67  C   UNL A   1      42.736  23.703  27.605  1.00  0.00     0.058 A 
ATOM     68  C   UNL A   1      42.779  23.402  26.234  1.00  0.00     0.135 A 
ATOM     69  C   UNL A   1      42.483  22.645  28.495  1.00  0.00     0.135 A 
ATOM     70  F   UNL A   1      43.001  24.374  25.334  1.00  0.00    -0.206 F 
ATOM     71  C   UNL A   1      42.552  22.111  25.764  1.00  0.00     0.059 A 
ATOM     72  C   UNL A   1      42.283  21.341  28.049  1.00  0.00     0.059 A 
ATOM     73  F   UNL A   1      42.429  22.872  29.817  1.00  0.00    -0.206 F 
ATOM     74  C   UNL A   1      42.305  21.087  26.679  1.00  0.00     0.060 A 
BRANCH  74  75
ATOM     75  S   UNL A   1      42.009  19.421  26.049  1.00  0.00     0.124 S 
ATOM     76  O   UNL A   1      42.816  19.422  24.833  1.00  0.00    -0.237 OA
ATOM     77  O   UNL A   1      42.507  18.587  27.139  1.00  0.00    -0.237 OA
ATOM     78  O   UNL A   1      40.565  19.383  25.843  1.00  0.00    -0.744 OA
ENDBRANCH  74  75
ENDBRANCH  53  67
BRANCH  54  79
ATOM     79  C   UNL A   1      43.986  32.935  31.309  1.00  0.00     0.058 A 
ATOM     80  C   UNL A   1      44.396  34.010  30.510  1.00  0.00     0.135 A 
ATOM     81  C   UNL A   1      43.642  33.209  32.645  1.00  0.00     0.135 A 
ATOM     82  F   UNL A   1      44.744  33.800  29.231  1.00  0.00    -0.206 F 
ATOM     83  C   UNL A   1      44.443  35.310  31.006  1.00  0.00     0.059 A 
ATOM     84  C   UNL A   1      43.650  34.503  33.154  1.00  0.00     0.059 A 
ATOM     85  F   UNL A   1      43.227  32.217  33.449  1.00  0.00    -0.206 F 
ATOM     86  C   UNL A   1      44.053  35.547  32.325  1.00  0.00     0.060 A 
BRANCH  86  87
ATOM     87  S   UNL A   1      44.023  37.250  32.926  1.00  0.00     0.124 S 
ATOM     88  O   UNL A   1      43.792  37.993  31.692  1.00  0.00    -0.237 OA
ATOM     89  O   UNL A   1      42.913  37.218  33.871  1.00  0.00    -0.237 OA
ATOM     90  O   UNL A   1      45.344  37.420  33.525  1.00  0.00    -0.744 OA
ENDBRANCH  86  87
ENDBRANCH  54  79
BRANCH  66  91
ATOM     91  C   UNL A   1      48.216  27.437  30.418  1.00  0.00     0.058 A 
ATOM     92  C   UNL A   1      48.584  26.957  31.684  1.00  0.00     0.135 A 
ATOM     93  C   UNL A   1      49.225  27.593  29.455  1.00  0.00     0.135 A 
ATOM     94  F   UNL A   1      47.657  26.801  32.644  1.00  0.00    -0.206 F 
ATOM     95  C   UNL A   1      49.904  26.646  31.986  1.00  0.00     0.059 A 
ATOM     96  C   UNL A   1      50.549  27.260  29.726  1.00  0.00     0.059 A 
ATOM     97  F   UNL A   1      48.925  28.043  28.225  1.00  0.00    -0.206 F 
ATOM     98  C   UNL A   1      50.878  26.791  30.996  1.00  0.00     0.060 A 
BRANCH  98  99
ATOM     99  S   UNL A   1      52.576  26.324  31.390  1.00  0.00     0.124 S 
ATOM    100  O   UNL A   1      53.202  26.349  30.073  1.00  0.00    -0.237 OA
ATOM    101  O   UNL A   1      52.983  27.384  32.307  1.00  0.00    -0.237 OA
ATOM    102  O   UNL A   1      52.435  25.001  31.991  1.00  0.00    -0.744 OA
ENDBRANCH  98  99
ENDBRANCH  66  91
ENDBRANCH  40  41
ENDBRANCH  32  35
ENDBRANCH  30  31
ENDBRANCH  29  30
ENDBRANCH   1  29
TORSDOF 18
ENDMDL
MODEL 2
REMARK VINA RESULT:     -11.9      4.748      9.578
REMARK SMILES CCCCOC(=O)[C@@H]1[C@H]2c3ccccc3[C@H](c3ccccc32)[C@@H]1C(=O)NCCCNC(=O)c1ccc(-c2c3nc(c(-c4c(F)cc(S(=O)(=O)[O-])cc4F)c4ccc([nH]4)c(-c4c(F)cc(S(=O)(=O)[O-])cc4F)c4nc(c(-c5c(F)cc(S(=O)(=O)[O-])cc5F)c5ccc2[nH]5)C=C4)C=C3)cc1
REMARK SMILES IDX 27 1 26 2 24 3 25 4 23 6 8 7 9 8 22 9 10 10 16 11 21 12
REMARK SMILES IDX 17 13 15 14 11 15 20 16 18 17 14 18 12 19 19 20 13 21 6 22
REMARK SMILES IDX 7 23 5 24 4 25 3 26 2 27 1 28 28 29 29 30 30 31 31 32 32 34
REMARK SMILES IDX 33 35 34 36 98 37 35 38 97 39 36 40 37 41 38 42 91 43 39 44
REMARK SMILES IDX 96 45 90 46 92 47 40 48 95 49 89 50 88 51 41 53 75 54 54 55
REMARK SMILES IDX 74 56 55 57 58 58 73 59 93 60 56 61 57 62 72 64 94 65 59 66
REMARK SMILES IDX 42 67 43 68 52 69 44 70 45 71 51 72 53 73 46 74 47 75 48 76
REMARK SMILES IDX 49 77 50 78 76 79 77 80 86 81 78 82 79 83 85 84 87 85 80 86
REMARK SMILES IDX 81 87 82 88 83 89 84 90 60 91 61 92 70 93 62 94 63 95 69 96
REMARK SMILES IDX 71 97 64 98 65 99 66 100 67 101 68 102
REMARK H PARENT 26 5 30 33 92 52 58 63
REMARK Flexibility Score: inf
ROOT
ATOM      1  C   UNL A   1      37.632  23.664  26.042  1.00  0.00     0.117 C 
ENDROOT
BRANCH   1   2
ATOM      2  N   UNL A   1      36.741  23.396  24.926  1.00  0.00    -0.356 N 
ATOM      3  C   UNL A   1      35.610  24.020  24.513  1.00  0.00     0.224 C 
ATOM      4  O   UNL A   1      35.250  23.779  23.353  1.00  0.00    -0.275 OA
ATOM      5  H   UNL A   1      37.005  22.626  24.372  1.00  0.00     0.163 HD
BRANCH   3   6
ATOM      6  C   UNL A   1      34.730  24.928  25.376  1.00  0.00     0.105 C 
ATOM      7  C   UNL A   1      33.641  24.349  26.348  1.00  0.00     0.124 C 
ATOM      8  C   UNL A   1      32.297  25.122  26.137  1.00  0.00     0.065 C 
ATOM      9  C   UNL A   1      31.922  25.152  24.652  1.00  0.00    -0.036 A 
ATOM     10  C   UNL A   1      32.632  26.601  26.460  1.00  0.00    -0.036 A 
ATOM     11  C   UNL A   1      34.180  26.151  24.586  1.00  0.00     0.063 C 
ATOM     12  C   UNL A   1      30.688  24.811  24.113  1.00  0.00     0.004 A 
ATOM     13  C   UNL A   1      32.919  25.752  23.830  1.00  0.00    -0.036 A 
ATOM     14  C   UNL A   1      33.674  27.137  25.644  1.00  0.00    -0.036 A 
ATOM     15  C   UNL A   1      31.919  27.440  27.305  1.00  0.00     0.004 A 
ATOM     16  C   UNL A   1      30.441  25.097  22.766  1.00  0.00     0.000 A 
ATOM     17  C   UNL A   1      32.651  26.078  22.506  1.00  0.00     0.004 A 
ATOM     18  C   UNL A   1      34.027  28.477  25.705  1.00  0.00     0.004 A 
ATOM     19  C   UNL A   1      32.265  28.796  27.349  1.00  0.00     0.000 A 
ATOM     20  C   UNL A   1      31.405  25.743  21.976  1.00  0.00     0.000 A 
ATOM     21  C   UNL A   1      33.314  29.306  26.568  1.00  0.00     0.000 A 
BRANCH   7  22
ATOM     22  C   UNL A   1      33.585  22.836  26.440  1.00  0.00     0.310 C 
ATOM     23  O   UNL A   1      34.442  22.136  26.966  1.00  0.00    -0.252 OA
BRANCH  22  24
ATOM     24  O   UNL A   1      32.391  22.321  26.032  1.00  0.00    -0.465 OA
BRANCH  24  25
ATOM     25  C   UNL A   1      32.511  21.169  25.166  1.00  0.00     0.233 C 
BRANCH  25  26
ATOM     26  C   UNL A   1      32.526  21.579  23.695  1.00  0.00     0.041 C 
BRANCH  26  27
ATOM     27  C   UNL A   1      32.102  20.489  22.708  1.00  0.00     0.000 C 
ATOM     28  C   UNL A   1      32.448  19.080  23.164  1.00  0.00     0.004 C 
ENDBRANCH  26  27
ENDBRANCH  25  26
ENDBRANCH  24  25
ENDBRANCH  22  24
ENDBRANCH   7  22
ENDBRANCH   3   6
ENDBRANCH   1   2
BRANCH   1  29
ATOM     29  C   UNL A   1      38.727  22.624  26.159  1.00  0.00     0.042 C 
BRANCH  29  30
ATOM     30  C   UNL A   1      39.872  23.128  27.013  1.00  0.00     0.118 C 
BRANCH  30  31
ATOM     31  N   UNL A   1      40.898  23.801  26.211  1.00  0.00    -0.352 N 
ATOM     32  C   UNL A   1      41.308  25.116  26.160  1.00  0.00     0.251 C 
ATOM     33  H   UNL A   1      41.383  23.204  25.595  1.00  0.00     0.163 HD
ATOM     34  O   UNL A   1      42.022  25.491  25.234  1.00  0.00    -0.269 OA
BRANCH  32  35
ATOM     35  C   UNL A   1      40.863  26.081  27.190  1.00  0.00     0.039 A 
ATOM     36  C   UNL A   1      41.366  27.373  27.192  1.00  0.00     0.014 A 
ATOM     37  C   UNL A   1      39.959  25.697  28.185  1.00  0.00     0.014 A 
ATOM     38  C   UNL A   1      41.251  28.149  28.329  1.00  0.00     0.010 A 
ATOM     39  C   UNL A   1      39.674  26.574  29.240  1.00  0.00     0.010 A 
ATOM     40  C   UNL A   1      40.382  27.779  29.364  1.00  0.00    -0.014 A 
BRANCH  40  41
ATOM     41  C   UNL A   1      40.251  28.685  30.538  1.00  0.00     0.031 A 
ATOM     42  C   UNL A   1      41.200  28.585  31.705  1.00  0.00     0.074 A 
ATOM     43  C   UNL A   1      39.317  29.660  30.506  1.00  0.00     0.049 A 
ATOM     44  N   UNL A   1      41.234  29.305  32.798  1.00  0.00    -0.248 NA
ATOM     45  C   UNL A   1      42.234  27.539  31.652  1.00  0.00     0.031 C 
ATOM     46  C   UNL A   1      38.346  29.860  29.425  1.00  0.00     0.029 A 
ATOM     47  N   UNL A   1      39.054  30.690  31.372  1.00  0.00    -0.354 N 
ATOM     48  C   UNL A   1      42.256  28.773  33.575  1.00  0.00     0.074 A 
ATOM     49  C   UNL A   1      42.804  27.654  32.843  1.00  0.00     0.031 C 
ATOM     50  C   UNL A   1      37.660  30.987  29.645  1.00  0.00     0.029 A 
ATOM     51  C   UNL A   1      38.054  31.530  30.937  1.00  0.00     0.049 A 
ATOM     52  H   UNL A   1      39.533  30.816  32.223  1.00  0.00     0.167 HD
ATOM     53  C   UNL A   1      42.702  29.189  34.786  1.00  0.00     0.037 A 
ATOM     54  C   UNL A   1      37.485  32.600  31.523  1.00  0.00     0.037 A 
ATOM     55  C   UNL A   1      42.173  30.335  35.481  1.00  0.00     0.049 A 
ATOM     56  C   UNL A   1      37.974  33.023  32.874  1.00  0.00     0.074 A 
ATOM     57  C   UNL A   1      42.585  30.871  36.688  1.00  0.00     0.029 A 
ATOM     58  N   UNL A   1      41.118  31.120  35.036  1.00  0.00    -0.354 N 
ATOM     59  N   UNL A   1      38.953  32.517  33.586  1.00  0.00    -0.248 NA
ATOM     60  C   UNL A   1      37.276  34.143  33.514  1.00  0.00     0.031 C 
ATOM     61  C   UNL A   1      41.740  31.938  37.003  1.00  0.00     0.029 A 
ATOM     62  C   UNL A   1      40.838  32.108  35.964  1.00  0.00     0.049 A 
ATOM     63  H   UNL A   1      40.639  30.992  34.185  1.00  0.00     0.167 HD
ATOM     64  C   UNL A   1      38.985  33.251  34.763  1.00  0.00     0.074 A 
ATOM     65  C   UNL A   1      37.949  34.258  34.652  1.00  0.00     0.031 C 
ATOM     66  C   UNL A   1      39.791  33.094  35.842  1.00  0.00     0.037 A 
BRANCH  53  67
ATOM     67  C   UNL A   1      43.790  28.390  35.452  1.00  0.00     0.058 A 
ATOM     68  C   UNL A   1      43.512  27.336  36.337  1.00  0.00     0.135 A 
ATOM     69  C   UNL A   1      45.140  28.661  35.168  1.00  0.00     0.135 A 
ATOM     70  F   UNL A   1      42.242  27.040  36.659  1.00  0.00    -0.206 F 
ATOM     71  C   UNL A   1      44.530  26.600  36.937  1.00  0.00     0.059 A 
ATOM     72  C   UNL A   1      46.174  27.918  35.733  1.00  0.00     0.059 A 
ATOM     73  F   UNL A   1      45.467  29.658  34.330  1.00  0.00    -0.206 F 
ATOM     74  C   UNL A   1      45.858  26.898  36.628  1.00  0.00     0.060 A 
BRANCH  74  75
ATOM     75  S   UNL A   1      47.165  25.935  37.419  1.00  0.00     0.124 S 
ATOM     76  O   UNL A   1      46.522  25.545  38.671  1.00  0.00    -0.237 OA
ATOM     77  O   UNL A   1      47.380  24.859  36.456  1.00  0.00    -0.237 OA
ATOM     78  O   UNL A   1      48.263  26.887  37.549  1.00  0.00    -0.744 OA
ENDBRANCH  74  75
ENDBRANCH  53  67
BRANCH  54  79
ATOM     79  C   UNL A   1      36.372  33.300  30.829  1.00  0.00     0.058 A 
ATOM     80  C   UNL A   1      35.053  33.204  31.290  1.00  0.00     0.135 A 
ATOM     81  C   UNL A   1      36.622  34.154  29.740  1.00  0.00     0.135 A 
ATOM     82  F   UNL A   1      34.760  32.396  32.321  1.00  0.00    -0.206 F 
ATOM     83  C   UNL A   1      34.023  33.940  30.711  1.00  0.00     0.059 A 
ATOM     84  C   UNL A   1      35.617  34.924  29.165  1.00  0.00     0.059 A 
ATOM     85  F   UNL A   1      37.871  34.294  29.269  1.00  0.00    -0.206 F 
ATOM     86  C   UNL A   1      34.319  34.809  29.659  1.00  0.00     0.060 A 
BRANCH  86  87
ATOM     87  S   UNL A   1      32.993  35.833  28.983  1.00  0.00     0.124 S 
ATOM     88  O   UNL A   1      33.746  36.910  28.350  1.00  0.00    -0.237 OA
ATOM     89  O   UNL A   1      32.324  34.902  28.080  1.00  0.00    -0.237 OA
ATOM     90  O   UNL A   1      32.223  36.211  30.165  1.00  0.00    -0.744 OA
ENDBRANCH  86  87
ENDBRANCH  54  79
BRANCH  66  91
ATOM     91  C   UNL A   1      39.578  34.025  37.002  1.00  0.00     0.058 A 
ATOM     92  C   UNL A   1      38.779  33.655  38.095  1.00  0.00     0.135 A 
ATOM     93  C   UNL A   1      40.247  35.258  37.063  1.00  0.00     0.135 A 
ATOM     94  F   UNL A   1      38.109  32.491  38.080  1.00  0.00    -0.206 F 
ATOM     95  C   UNL A   1      38.645  34.478  39.207  1.00  0.00     0.059 A 
ATOM     96  C   UNL A   1      40.151  36.084  38.179  1.00  0.00     0.059 A 
ATOM     97  F   UNL A   1      41.030  35.655  36.047  1.00  0.00    -0.206 F 
ATOM     98  C   UNL A   1      39.345  35.686  39.243  1.00  0.00     0.060 A 
BRANCH  98  99
ATOM     99  S   UNL A   1      39.205  36.712  40.721  1.00  0.00     0.124 S 
ATOM    100  O   UNL A   1      40.601  36.842  41.123  1.00  0.00    -0.237 OA
ATOM    101  O   UNL A   1      38.579  37.923  40.199  1.00  0.00    -0.237 OA
ATOM    102  O   UNL A   1      38.368  35.914  41.612  1.00  0.00    -0.744 OA
ENDBRANCH  98  99
ENDBRANCH  66  91
ENDBRANCH  40  41
ENDBRANCH  32  35
ENDBRANCH  30  31
ENDBRANCH  29  30
ENDBRANCH   1  29
TORSDOF 18
ENDMDL
MODEL 3
REMARK VINA RESULT:     -11.6      2.933      9.170
REMARK SMILES CCCCOC(=O)[C@@H]1[C@H]2c3ccccc3[C@H](c3ccccc32)[C@@H]1C(=O)NCCCNC(=O)c1ccc(-c2c3nc(c(-c4c(F)cc(S(=O)(=O)[O-])cc4F)c4ccc([nH]4)c(-c4c(F)cc(S(=O)(=O)[O-])cc4F)c4nc(c(-c5c(F)cc(S(=O)(=O)[O-])cc5F)c5ccc2[nH]5)C=C4)C=C3)cc1
REMARK SMILES IDX 27 1 26 2 24 3 25 4 23 6 8 7 9 8 22 9 10 10 16 11 21 12
REMARK SMILES IDX 17 13 15 14 11 15 20 16 18 17 14 18 12 19 19 20 13 21 6 22
REMARK SMILES IDX 7 23 5 24 4 25 3 26 2 27 1 28 28 29 29 30 30 31 31 32 32 34
REMARK SMILES IDX 33 35 34 36 98 37 35 38 97 39 36 40 37 41 38 42 91 43 39 44
REMARK SMILES IDX 96 45 90 46 92 47 40 48 95 49 89 50 88 51 41 53 75 54 54 55
REMARK SMILES IDX 74 56 55 57 58 58 73 59 93 60 56 61 57 62 72 64 94 65 59 66
REMARK SMILES IDX 42 67 43 68 52 69 44 70 45 71 51 72 53 73 46 74 47 75 48 76
REMARK SMILES IDX 49 77 50 78 76 79 77 80 86 81 78 82 79 83 85 84 87 85 80 86
REMARK SMILES IDX 81 87 82 88 83 89 84 90 60 91 61 92 70 93 62 94 63 95 69 96
REMARK SMILES IDX 71 97 64 98 65 99 66 100 67 101 68 102
REMARK H PARENT 26 5 30 33 92 52 58 63
REMARK Flexibility Score: inf
ROOT
ATOM      1  C   UNL A   1      35.091  22.907  23.710  1.00  0.00     0.117 C 
ENDROOT
BRANCH   1   2
ATOM      2  N   UNL A   1      34.294  23.659  22.756  1.00  0.00    -0.356 N 
ATOM      3  C   UNL A   1      33.678  24.862  22.855  1.00  0.00     0.224 C 
ATOM      4  O   UNL A   1      33.355  25.396  21.785  1.00  0.00    -0.275 OA
ATOM      5  H   UNL A   1      34.183  23.216  21.883  1.00  0.00     0.163 HD
BRANCH   3   6
ATOM      6  C   UNL A   1      33.302  25.563  24.163  1.00  0.00     0.105 C 
ATOM      7  C   UNL A   1      32.129  25.051  25.072  1.00  0.00     0.124 C 
ATOM      8  C   UNL A   1      31.213  26.257  25.464  1.00  0.00     0.065 C 
ATOM      9  C   UNL A   1      30.800  27.045  24.216  1.00  0.00    -0.036 A 
ATOM     10  C   UNL A   1      32.147  27.237  26.222  1.00  0.00    -0.036 A 
ATOM     11  C   UNL A   1      33.260  27.112  24.019  1.00  0.00     0.063 C 
ATOM     12  C   UNL A   1      29.506  27.422  23.880  1.00  0.00     0.004 A 
ATOM     13  C   UNL A   1      31.906  27.544  23.471  1.00  0.00    -0.036 A 
ATOM     14  C   UNL A   1      33.267  27.664  25.448  1.00  0.00    -0.036 A 
ATOM     15  C   UNL A   1      31.892  27.829  27.451  1.00  0.00     0.004 A 
ATOM     16  C   UNL A   1      29.322  28.319  22.822  1.00  0.00     0.000 A 
ATOM     17  C   UNL A   1      31.721  28.472  22.454  1.00  0.00     0.004 A 
ATOM     18  C   UNL A   1      34.144  28.632  25.915  1.00  0.00     0.004 A 
ATOM     19  C   UNL A   1      32.769  28.820  27.910  1.00  0.00     0.000 A 
ATOM     20  C   UNL A   1      30.419  28.855  22.130  1.00  0.00     0.000 A 
ATOM     21  C   UNL A   1      33.888  29.209  27.156  1.00  0.00     0.000 A 
BRANCH   7  22
ATOM     22  C   UNL A   1      31.459  23.768  24.614  1.00  0.00     0.310 C 
ATOM     23  O   UNL A   1      31.101  23.540  23.465  1.00  0.00    -0.252 OA
BRANCH  22  24
ATOM     24  O   UNL A   1      31.447  22.801  25.574  1.00  0.00    -0.465 OA
BRANCH  24  25
ATOM     25  C   UNL A   1      31.992  21.534  25.141  1.00  0.00     0.233 C 
BRANCH  25  26
ATOM     26  C   UNL A   1      33.133  21.080  26.048  1.00  0.00     0.041 C 
BRANCH  26  27
ATOM     27  C   UNL A   1      33.296  21.878  27.344  1.00  0.00     0.000 C 
ATOM     28  C   UNL A   1      34.414  22.908  27.293  1.00  0.00     0.004 C 
ENDBRANCH  26  27
ENDBRANCH  25  26
ENDBRANCH  24  25
ENDBRANCH  22  24
ENDBRANCH   7  22
ENDBRANCH   3   6
ENDBRANCH   1   2
BRANCH   1  29
ATOM     29  C   UNL A   1      36.566  23.234  23.605  1.00  0.00     0.042 C 
BRANCH  29  30
ATOM     30  C   UNL A   1      37.132  23.649  24.947  1.00  0.00     0.118 C 
BRANCH  30  31
ATOM     31  N   UNL A   1      38.262  22.806  25.348  1.00  0.00    -0.352 N 
ATOM     32  C   UNL A   1      39.395  23.078  26.085  1.00  0.00     0.251 C 
ATOM     33  H   UNL A   1      38.201  21.875  25.033  1.00  0.00     0.163 HD
ATOM     34  O   UNL A   1      40.323  22.273  26.087  1.00  0.00    -0.269 OA
BRANCH  32  35
ATOM     35  C   UNL A   1      39.513  24.347  26.837  1.00  0.00     0.039 A 
ATOM     36  C   UNL A   1      40.217  25.411  26.294  1.00  0.00     0.014 A 
ATOM     37  C   UNL A   1      38.947  24.478  28.109  1.00  0.00     0.014 A 
ATOM     38  C   UNL A   1      40.642  26.438  27.114  1.00  0.00     0.010 A 
ATOM     39  C   UNL A   1      39.205  25.628  28.868  1.00  0.00     0.010 A 
ATOM     40  C   UNL A   1      40.123  26.583  28.408  1.00  0.00    -0.014 A 
BRANCH  40  41
ATOM     41  C   UNL A   1      40.570  27.745  29.225  1.00  0.00     0.031 A 
ATOM     42  C   UNL A   1      39.664  28.929  29.451  1.00  0.00     0.074 A 
ATOM     43  C   UNL A   1      41.772  27.686  29.837  1.00  0.00     0.049 A 
ATOM     44  N   UNL A   1      39.892  30.014  30.147  1.00  0.00    -0.248 NA
ATOM     45  C   UNL A   1      38.342  28.905  28.806  1.00  0.00     0.031 C 
ATOM     46  C   UNL A   1      42.734  26.587  29.699  1.00  0.00     0.029 A 
ATOM     47  N   UNL A   1      42.378  28.536  30.726  1.00  0.00    -0.354 N 
ATOM     48  C   UNL A   1      38.766  30.815  29.986  1.00  0.00     0.074 A 
ATOM     49  C   UNL A   1      37.865  30.104  29.108  1.00  0.00     0.031 C 
ATOM     50  C   UNL A   1      43.758  26.783  30.538  1.00  0.00     0.029 A 
ATOM     51  C   UNL A   1      43.590  28.075  31.187  1.00  0.00     0.049 A 
ATOM     52  H   UNL A   1      41.984  29.393  31.007  1.00  0.00     0.167 HD
ATOM     53  C   UNL A   1      38.507  32.028  30.533  1.00  0.00     0.037 A 
ATOM     54  C   UNL A   1      44.492  28.639  32.011  1.00  0.00     0.037 A 
ATOM     55  C   UNL A   1      39.398  32.701  31.443  1.00  0.00     0.049 A 
ATOM     56  C   UNL A   1      44.197  29.994  32.578  1.00  0.00     0.074 A 
ATOM     57  C   UNL A   1      39.210  33.909  32.090  1.00  0.00     0.029 A 
ATOM     58  N   UNL A   1      40.644  32.230  31.832  1.00  0.00    -0.354 N 
ATOM     59  N   UNL A   1      43.120  30.727  32.428  1.00  0.00    -0.248 NA
ATOM     60  C   UNL A   1      45.238  30.609  33.408  1.00  0.00     0.031 C 
ATOM     61  C   UNL A   1      40.367  34.198  32.819  1.00  0.00     0.029 A 
ATOM     62  C   UNL A   1      41.254  33.142  32.677  1.00  0.00     0.049 A 
ATOM     63  H   UNL A   1      41.037  31.372  31.549  1.00  0.00     0.167 HD
ATOM     64  C   UNL A   1      43.356  31.897  33.137  1.00  0.00     0.074 A 
ATOM     65  C   UNL A   1      44.664  31.757  33.745  1.00  0.00     0.031 C 
ATOM     66  C   UNL A   1      42.565  32.991  33.261  1.00  0.00     0.037 A 
BRANCH  53  67
ATOM     67  C   UNL A   1      37.229  32.721  30.142  1.00  0.00     0.058 A 
ATOM     68  C   UNL A   1      37.165  33.628  29.071  1.00  0.00     0.135 A 
ATOM     69  C   UNL A   1      36.035  32.442  30.829  1.00  0.00     0.135 A 
ATOM     70  F   UNL A   1      38.276  33.946  28.386  1.00  0.00    -0.206 F 
ATOM     71  C   UNL A   1      35.972  34.253  28.715  1.00  0.00     0.059 A 
ATOM     72  C   UNL A   1      34.826  33.032  30.472  1.00  0.00     0.059 A 
ATOM     73  F   UNL A   1      36.035  31.584  31.862  1.00  0.00    -0.206 F 
ATOM     74  C   UNL A   1      34.808  33.948  29.421  1.00  0.00     0.060 A 
BRANCH  74  75
ATOM     75  S   UNL A   1      33.272  34.772  28.948  1.00  0.00     0.124 S 
ATOM     76  O   UNL A   1      32.560  34.815  30.222  1.00  0.00    -0.237 OA
ATOM     77  O   UNL A   1      33.753  36.056  28.447  1.00  0.00    -0.237 OA
ATOM     78  O   UNL A   1      32.701  33.882  27.942  1.00  0.00    -0.744 OA
ENDBRANCH  74  75
ENDBRANCH  53  67
BRANCH  54  79
ATOM     79  C   UNL A   1      45.761  27.918  32.300  1.00  0.00     0.058 A 
ATOM     80  C   UNL A   1      45.891  27.103  33.432  1.00  0.00     0.135 A 
ATOM     81  C   UNL A   1      46.839  27.962  31.399  1.00  0.00     0.135 A 
ATOM     82  F   UNL A   1      44.894  27.033  34.327  1.00  0.00    -0.206 F 
ATOM     83  C   UNL A   1      47.036  26.343  33.653  1.00  0.00     0.059 A 
ATOM     84  C   UNL A   1      47.979  27.188  31.581  1.00  0.00     0.059 A 
ATOM     85  F   UNL A   1      46.758  28.716  30.291  1.00  0.00    -0.206 F 
ATOM     86  C   UNL A   1      48.068  26.380  32.712  1.00  0.00     0.060 A 
BRANCH  86  87
ATOM     87  S   UNL A   1      49.503  25.313  32.960  1.00  0.00     0.124 S 
ATOM     88  O   UNL A   1      49.980  25.138  31.593  1.00  0.00    -0.237 OA
ATOM     89  O   UNL A   1      50.342  26.131  33.830  1.00  0.00    -0.237 OA
ATOM     90  O   UNL A   1      48.935  24.123  33.587  1.00  0.00    -0.744 OA
ENDBRANCH  86  87
ENDBRANCH  54  79
BRANCH  66  91
ATOM     91  C   UNL A   1      43.096  34.137  34.074  1.00  0.00     0.058 A 
ATOM     92  C   UNL A   1      43.728  35.232  33.464  1.00  0.00     0.135 A 
ATOM     93  C   UNL A   1      42.894  34.184  35.463  1.00  0.00     0.135 A 
ATOM     94  F   UNL A   1      43.955  35.230  32.140  1.00  0.00    -0.206 F 
ATOM     95  C   UNL A   1      44.147  36.331  34.204  1.00  0.00     0.059 A 
ATOM     96  C   UNL A   1      43.279  35.287  36.218  1.00  0.00     0.059 A 
ATOM     97  F   UNL A   1      42.288  33.165  36.094  1.00  0.00    -0.206 F 
ATOM     98  C   UNL A   1      43.908  36.354  35.579  1.00  0.00     0.060 A 
BRANCH  98  99
ATOM     99  S   UNL A   1      44.406  37.816  36.511  1.00  0.00     0.124 S 
ATOM    100  O   UNL A   1      44.233  38.871  35.519  1.00  0.00    -0.237 OA
ATOM    101  O   UNL A   1      43.452  37.819  37.615  1.00  0.00    -0.237 OA
ATOM    102  O   UNL A   1      45.788  37.528  36.884  1.00  0.00    -0.744 OA
ENDBRANCH  98  99
ENDBRANCH  66  91
ENDBRANCH  40  41
ENDBRANCH  32  35
ENDBRANCH  30  31
ENDBRANCH  29  30
ENDBRANCH   1  29
TORSDOF 18
ENDMDL
