MODEL 1
REMARK VINA RESULT:     -10.8      0.000      0.000
REMARK SMILES Cc1cc(O[C@@H](C)C(=O)NCCCNC(=O)c2ccc(-c3c4nc(c(-c5c(F)cc(S(=O)(=O)[O-])cc5F)c5ccc([nH]5)c(-c5c(F)cc(S(=O)(=O)[O-])cc5F)c5nc(c(-c6c(F)cc(S(=O)(=O)[O-])cc6F)c6ccc3[nH]6)C=C5)C=C4)cc2)n(C)n1
REMARK SMILES IDX 12 1 11 2 10 3 8 4 9 5 6 7 7 8 5 9 4 10 1 11 2 12 3 13 85 14
REMARK SMILES IDX 83 15 84 16 13 17 14 18 15 19 16 21 17 22 18 23 82 24 19 25
REMARK SMILES IDX 81 26 20 27 21 28 22 29 75 30 23 31 80 32 74 33 76 34 24 35
REMARK SMILES IDX 79 36 73 37 72 38 25 40 59 41 38 42 58 43 39 44 42 45 57 46
REMARK SMILES IDX 77 47 40 48 41 49 56 51 78 52 43 53 26 54 27 55 36 56 28 57
REMARK SMILES IDX 29 58 35 59 37 60 30 61 31 62 32 63 33 64 34 65 60 66 61 67
REMARK SMILES IDX 70 68 62 69 63 70 69 71 71 72 64 73 65 74 66 75 67 76 68 77
REMARK SMILES IDX 44 78 45 79 54 80 46 81 47 82 53 83 55 84 48 85 49 86 50 87
REMARK SMILES IDX 51 88 52 89
REMARK H PARENT 10 6 14 20 76 39 42 50
REMARK Flexibility Score: inf
ROOT
ATOM      1  C   UNL A   1      32.792  27.307  26.093  1.00  0.00     0.042 C 
ENDROOT
BRANCH   1   2
ATOM      2  C   UNL A   1      32.872  25.786  26.088  1.00  0.00     0.118 C 
BRANCH   2   3
ATOM      3  N   UNL A   1      31.659  25.195  26.606  1.00  0.00    -0.353 N 
ATOM      4  C   UNL A   1      31.309  23.895  26.792  1.00  0.00     0.260 C 
ATOM      5  O   UNL A   1      30.140  23.701  27.154  1.00  0.00    -0.271 OA
ATOM      6  H   UNL A   1      30.969  25.845  26.869  1.00  0.00     0.163 HD
BRANCH   4   7
ATOM      7  C   UNL A   1      32.293  22.695  26.660  1.00  0.00     0.260 C 
ATOM      8  C   UNL A   1      33.080  22.428  27.942  1.00  0.00     0.064 C 
BRANCH   7   9
ATOM      9  O   UNL A   1      32.956  22.415  25.435  1.00  0.00    -0.465 OA
BRANCH   9  10
ATOM     10  C   UNL A   1      34.047  21.654  25.362  1.00  0.00     0.212 A 
ATOM     11  C   UNL A   1      37.447  20.413  24.789  1.00  0.00     0.069 C 
ATOM     12  C   UNL A   1      36.012  20.643  25.094  1.00  0.00     0.063 A 
ATOM     13  C   UNL A   1      35.400  21.825  25.578  1.00  0.00     0.093 A 
ATOM     14  N   UNL A   1      35.103  19.710  24.805  1.00  0.00    -0.175 NA
ATOM     15  N   UNL A   1      33.926  20.314  25.058  1.00  0.00    -0.237 N 
ATOM     16  C   UNL A   1      32.714  19.540  24.943  1.00  0.00     0.178 C 
ENDBRANCH   9  10
ENDBRANCH   7   9
ENDBRANCH   4   7
ENDBRANCH   2   3
ENDBRANCH   1   2
BRANCH   1  17
ATOM     17  C   UNL A   1      34.002  27.974  26.723  1.00  0.00     0.118 C 
BRANCH  17  18
ATOM     18  N   UNL A   1      33.736  29.365  27.089  1.00  0.00    -0.352 N 
ATOM     19  C   UNL A   1      34.474  30.266  27.819  1.00  0.00     0.251 C 
ATOM     20  H   UNL A   1      32.881  29.717  26.753  1.00  0.00     0.163 HD
ATOM     21  O   UNL A   1      33.938  31.313  28.183  1.00  0.00    -0.269 OA
BRANCH  19  22
ATOM     22  C   UNL A   1      35.882  29.991  28.186  1.00  0.00     0.039 A 
ATOM     23  C   UNL A   1      36.190  29.589  29.491  1.00  0.00     0.014 A 
ATOM     24  C   UNL A   1      36.910  30.155  27.259  1.00  0.00     0.014 A 
ATOM     25  C   UNL A   1      37.509  29.272  29.834  1.00  0.00     0.010 A 
ATOM     26  C   UNL A   1      38.194  29.725  27.563  1.00  0.00     0.010 A 
ATOM     27  C   UNL A   1      38.516  29.293  28.858  1.00  0.00    -0.014 A 
BRANCH  27  28
ATOM     28  C   UNL A   1      39.928  28.920  29.138  1.00  0.00     0.031 A 
ATOM     29  C   UNL A   1      40.883  29.986  29.612  1.00  0.00     0.074 A 
ATOM     30  C   UNL A   1      40.379  27.684  28.842  1.00  0.00     0.049 A 
ATOM     31  N   UNL A   1      42.189  29.966  29.665  1.00  0.00    -0.248 NA
ATOM     32  C   UNL A   1      40.286  31.267  30.034  1.00  0.00     0.031 C 
ATOM     33  C   UNL A   1      39.561  26.576  28.343  1.00  0.00     0.029 A 
ATOM     34  N   UNL A   1      41.649  27.163  28.881  1.00  0.00    -0.354 N 
ATOM     35  C   UNL A   1      42.568  31.240  30.073  1.00  0.00     0.074 A 
ATOM     36  C   UNL A   1      41.361  32.021  30.212  1.00  0.00     0.031 C 
ATOM     37  C   UNL A   1      40.348  25.508  28.129  1.00  0.00     0.029 A 
ATOM     38  C   UNL A   1      41.732  25.871  28.417  1.00  0.00     0.049 A 
ATOM     39  H   UNL A   1      42.428  27.668  29.212  1.00  0.00     0.167 HD
ATOM     40  C   UNL A   1      43.813  31.709  30.326  1.00  0.00     0.037 A 
ATOM     41  C   UNL A   1      42.804  25.079  28.214  1.00  0.00     0.037 A 
ATOM     42  C   UNL A   1      45.000  30.901  30.244  1.00  0.00     0.049 A 
ATOM     43  C   UNL A   1      44.178  25.617  28.524  1.00  0.00     0.074 A 
ATOM     44  C   UNL A   1      46.302  31.256  30.551  1.00  0.00     0.029 A 
ATOM     45  N   UNL A   1      45.027  29.575  29.840  1.00  0.00    -0.354 N 
ATOM     46  N   UNL A   1      44.518  26.810  28.948  1.00  0.00    -0.248 NA
ATOM     47  C   UNL A   1      45.314  24.704  28.332  1.00  0.00     0.031 C 
ATOM     48  C   UNL A   1      47.123  30.157  30.291  1.00  0.00     0.029 A 
ATOM     49  C   UNL A   1      46.325  29.099  29.879  1.00  0.00     0.049 A 
ATOM     50  H   UNL A   1      44.241  29.050  29.566  1.00  0.00     0.167 HD
ATOM     51  C   UNL A   1      45.898  26.777  29.117  1.00  0.00     0.074 A 
ATOM     52  C   UNL A   1      46.332  25.447  28.745  1.00  0.00     0.031 C 
ATOM     53  C   UNL A   1      46.729  27.755  29.549  1.00  0.00     0.037 A 
BRANCH  40  54
ATOM     54  C   UNL A   1      43.960  33.151  30.726  1.00  0.00     0.058 A 
ATOM     55  C   UNL A   1      43.933  33.553  32.071  1.00  0.00     0.135 A 
ATOM     56  C   UNL A   1      44.192  34.139  29.754  1.00  0.00     0.135 A 
ATOM     57  F   UNL A   1      43.698  32.655  33.041  1.00  0.00    -0.206 F 
ATOM     58  C   UNL A   1      44.108  34.883  32.437  1.00  0.00     0.059 A 
ATOM     59  C   UNL A   1      44.403  35.471  30.099  1.00  0.00     0.059 A 
ATOM     60  F   UNL A   1      44.226  33.812  28.452  1.00  0.00    -0.206 F 
ATOM     61  C   UNL A   1      44.347  35.835  31.444  1.00  0.00     0.060 A 
BRANCH  61  62
ATOM     62  S   UNL A   1      44.603  37.550  31.941  1.00  0.00     0.124 S 
ATOM     63  O   UNL A   1      43.931  37.581  33.237  1.00  0.00    -0.237 OA
ATOM     64  O   UNL A   1      46.059  37.650  31.981  1.00  0.00    -0.237 OA
ATOM     65  O   UNL A   1      43.954  38.313  30.879  1.00  0.00    -0.744 OA
ENDBRANCH  61  62
ENDBRANCH  40  54
BRANCH  41  66
ATOM     66  C   UNL A   1      42.629  23.695  27.693  1.00  0.00     0.058 A 
ATOM     67  C   UNL A   1      42.567  23.447  26.314  1.00  0.00     0.135 A 
ATOM     68  C   UNL A   1      42.515  22.595  28.558  1.00  0.00     0.135 A 
ATOM     69  F   UNL A   1      42.667  24.465  25.445  1.00  0.00    -0.206 F 
ATOM     70  C   UNL A   1      42.366  22.167  25.809  1.00  0.00     0.059 A 
ATOM     71  C   UNL A   1      42.344  21.299  28.077  1.00  0.00     0.059 A 
ATOM     72  F   UNL A   1      42.585  22.772  29.886  1.00  0.00    -0.206 F 
ATOM     73  C   UNL A   1      42.255  21.098  26.700  1.00  0.00     0.060 A 
BRANCH  73  74
ATOM     74  S   UNL A   1      42.010  19.437  26.033  1.00  0.00     0.124 S 
ATOM     75  O   UNL A   1      42.853  19.472  24.843  1.00  0.00    -0.237 OA
ATOM     76  O   UNL A   1      42.485  18.595  27.126  1.00  0.00    -0.237 OA
ATOM     77  O   UNL A   1      40.573  19.382  25.787  1.00  0.00    -0.744 OA
ENDBRANCH  73  74
ENDBRANCH  41  66
BRANCH  53  78
ATOM     78  C   UNL A   1      48.183  27.422  29.728  1.00  0.00     0.058 A 
ATOM     79  C   UNL A   1      49.133  27.680  28.729  1.00  0.00     0.135 A 
ATOM     80  C   UNL A   1      48.642  26.952  30.970  1.00  0.00     0.135 A 
ATOM     81  F   UNL A   1      48.743  28.124  27.524  1.00  0.00    -0.206 F 
ATOM     82  C   UNL A   1      50.492  27.487  28.958  1.00  0.00     0.059 A 
ATOM     83  C   UNL A   1      49.996  26.777  31.228  1.00  0.00     0.059 A 
ATOM     84  F   UNL A   1      47.771  26.698  31.960  1.00  0.00    -0.206 F 
ATOM     85  C   UNL A   1      50.915  27.049  30.215  1.00  0.00     0.060 A 
BRANCH  85  86
ATOM     86  S   UNL A   1      52.685  26.893  30.526  1.00  0.00     0.124 S 
ATOM     87  O   UNL A   1      52.711  25.894  31.590  1.00  0.00    -0.237 OA
ATOM     88  O   UNL A   1      53.192  26.452  29.230  1.00  0.00    -0.237 OA
ATOM     89  O   UNL A   1      53.082  28.241  30.921  1.00  0.00    -0.744 OA
ENDBRANCH  85  86
ENDBRANCH  53  78
ENDBRANCH  27  28
ENDBRANCH  19  22
ENDBRANCH  17  18
ENDBRANCH   1  17
TORSDOF 15
ENDMDL
MODEL 2
REMARK VINA RESULT:     -10.8      3.358      5.803
REMARK SMILES Cc1cc(O[C@@H](C)C(=O)NCCCNC(=O)c2ccc(-c3c4nc(c(-c5c(F)cc(S(=O)(=O)[O-])cc5F)c5ccc([nH]5)c(-c5c(F)cc(S(=O)(=O)[O-])cc5F)c5nc(c(-c6c(F)cc(S(=O)(=O)[O-])cc6F)c6ccc3[nH]6)C=C5)C=C4)cc2)n(C)n1
REMARK SMILES IDX 12 1 11 2 10 3 8 4 9 5 6 7 7 8 5 9 4 10 1 11 2 12 3 13 85 14
REMARK SMILES IDX 83 15 84 16 13 17 14 18 15 19 16 21 17 22 18 23 82 24 19 25
REMARK SMILES IDX 81 26 20 27 21 28 22 29 75 30 23 31 80 32 74 33 76 34 24 35
REMARK SMILES IDX 79 36 73 37 72 38 25 40 59 41 38 42 58 43 39 44 42 45 57 46
REMARK SMILES IDX 77 47 40 48 41 49 56 51 78 52 43 53 26 54 27 55 36 56 28 57
REMARK SMILES IDX 29 58 35 59 37 60 30 61 31 62 32 63 33 64 34 65 60 66 61 67
REMARK SMILES IDX 70 68 62 69 63 70 69 71 71 72 64 73 65 74 66 75 67 76 68 77
REMARK SMILES IDX 44 78 45 79 54 80 46 81 47 82 53 83 55 84 48 85 49 86 50 87
REMARK SMILES IDX 51 88 52 89
REMARK H PARENT 10 6 14 20 76 39 42 50
REMARK Flexibility Score: inf
ROOT
ATOM      1  C   UNL A   1      34.608  32.715  30.656  1.00  0.00     0.042 C 
ENDROOT
BRANCH   1   2
ATOM      2  C   UNL A   1      35.045  34.048  31.249  1.00  0.00     0.118 C 
BRANCH   2   3
ATOM      3  N   UNL A   1      36.468  34.250  31.098  1.00  0.00    -0.353 N 
ATOM      4  C   UNL A   1      37.473  34.238  32.012  1.00  0.00     0.260 C 
ATOM      5  O   UNL A   1      38.591  34.561  31.585  1.00  0.00    -0.271 OA
ATOM      6  H   UNL A   1      36.758  34.427  30.174  1.00  0.00     0.163 HD
BRANCH   4   7
ATOM      7  C   UNL A   1      37.309  33.773  33.489  1.00  0.00     0.260 C 
ATOM      8  C   UNL A   1      38.188  34.557  34.461  1.00  0.00     0.064 C 
BRANCH   7   9
ATOM      9  O   UNL A   1      37.062  32.411  33.811  1.00  0.00    -0.465 OA
BRANCH   9  10
ATOM     10  C   UNL A   1      38.013  31.478  33.782  1.00  0.00     0.212 A 
ATOM     11  C   UNL A   1      40.168  28.669  32.838  1.00  0.00     0.069 C 
ATOM     12  C   UNL A   1      39.451  29.810  33.462  1.00  0.00     0.063 A 
ATOM     13  C   UNL A   1      38.817  30.901  32.820  1.00  0.00     0.093 A 
ATOM     14  N   UNL A   1      39.240  29.833  34.779  1.00  0.00    -0.175 NA
ATOM     15  N   UNL A   1      38.440  30.902  34.961  1.00  0.00    -0.237 N 
ATOM     16  C   UNL A   1      38.092  31.283  36.307  1.00  0.00     0.178 C 
ENDBRANCH   9  10
ENDBRANCH   7   9
ENDBRANCH   4   7
ENDBRANCH   2   3
ENDBRANCH   1   2
BRANCH   1  17
ATOM     17  C   UNL A   1      34.859  32.607  29.163  1.00  0.00     0.118 C 
BRANCH  17  18
ATOM     18  N   UNL A   1      34.275  31.393  28.594  1.00  0.00    -0.352 N 
ATOM     19  C   UNL A   1      34.856  30.228  28.153  1.00  0.00     0.251 C 
ATOM     20  H   UNL A   1      33.294  31.414  28.512  1.00  0.00     0.163 HD
ATOM     21  O   UNL A   1      34.175  29.433  27.506  1.00  0.00    -0.269 OA
BRANCH  19  22
ATOM     22  C   UNL A   1      36.281  29.927  28.427  1.00  0.00     0.039 A 
ATOM     23  C   UNL A   1      36.647  29.390  29.667  1.00  0.00     0.014 A 
ATOM     24  C   UNL A   1      37.266  30.198  27.479  1.00  0.00     0.014 A 
ATOM     25  C   UNL A   1      37.982  29.050  29.916  1.00  0.00     0.010 A 
ATOM     26  C   UNL A   1      38.564  29.749  27.680  1.00  0.00     0.010 A 
ATOM     27  C   UNL A   1      38.945  29.184  28.906  1.00  0.00    -0.014 A 
BRANCH  27  28
ATOM     28  C   UNL A   1      40.369  28.795  29.083  1.00  0.00     0.031 A 
ATOM     29  C   UNL A   1      41.367  29.851  29.485  1.00  0.00     0.074 A 
ATOM     30  C   UNL A   1      40.784  27.555  28.756  1.00  0.00     0.049 A 
ATOM     31  N   UNL A   1      42.673  29.817  29.443  1.00  0.00    -0.248 NA
ATOM     32  C   UNL A   1      40.817  31.138  29.947  1.00  0.00     0.031 C 
ATOM     33  C   UNL A   1      39.920  26.455  28.320  1.00  0.00     0.029 A 
ATOM     34  N   UNL A   1      42.047  27.020  28.704  1.00  0.00    -0.354 N 
ATOM     35  C   UNL A   1      43.095  31.087  29.821  1.00  0.00     0.074 A 
ATOM     36  C   UNL A   1      41.909  31.881  30.046  1.00  0.00     0.031 C 
ATOM     37  C   UNL A   1      40.678  25.379  28.051  1.00  0.00     0.029 A 
ATOM     38  C   UNL A   1      42.082  25.726  28.236  1.00  0.00     0.049 A 
ATOM     39  H   UNL A   1      42.854  27.516  28.976  1.00  0.00     0.167 HD
ATOM     40  C   UNL A   1      44.360  31.542  29.982  1.00  0.00     0.037 A 
ATOM     41  C   UNL A   1      43.128  24.923  27.957  1.00  0.00     0.037 A 
ATOM     42  C   UNL A   1      45.529  30.721  29.815  1.00  0.00     0.049 A 
ATOM     43  C   UNL A   1      44.526  25.445  28.166  1.00  0.00     0.074 A 
ATOM     44  C   UNL A   1      46.853  31.062  30.026  1.00  0.00     0.029 A 
ATOM     45  N   UNL A   1      45.512  29.395  29.412  1.00  0.00    -0.354 N 
ATOM     46  N   UNL A   1      44.909  26.635  28.562  1.00  0.00    -0.248 NA
ATOM     47  C   UNL A   1      45.635  24.520  27.893  1.00  0.00     0.031 C 
ATOM     48  C   UNL A   1      47.642  29.953  29.709  1.00  0.00     0.029 A 
ATOM     49  C   UNL A   1      46.804  28.905  29.357  1.00  0.00     0.049 A 
ATOM     50  H   UNL A   1      44.702  28.879  29.196  1.00  0.00     0.167 HD
ATOM     51  C   UNL A   1      46.298  26.587  28.631  1.00  0.00     0.074 A 
ATOM     52  C   UNL A   1      46.689  25.252  28.230  1.00  0.00     0.031 C 
ATOM     53  C   UNL A   1      47.168  27.556  29.000  1.00  0.00     0.037 A 
BRANCH  40  54
ATOM     54  C   UNL A   1      44.551  32.983  30.369  1.00  0.00     0.058 A 
ATOM     55  C   UNL A   1      44.706  33.993  29.407  1.00  0.00     0.135 A 
ATOM     56  C   UNL A   1      44.520  33.366  31.720  1.00  0.00     0.135 A 
ATOM     57  F   UNL A   1      44.760  33.683  28.102  1.00  0.00    -0.206 F 
ATOM     58  C   UNL A   1      44.844  35.329  29.770  1.00  0.00     0.059 A 
ATOM     59  C   UNL A   1      44.624  34.700  32.105  1.00  0.00     0.059 A 
ATOM     60  F   UNL A   1      44.377  32.442  32.683  1.00  0.00    -0.206 F 
ATOM     61  C   UNL A   1      44.797  35.673  31.122  1.00  0.00     0.060 A 
BRANCH  61  62
ATOM     62  S   UNL A   1      44.947  37.414  31.571  1.00  0.00     0.124 S 
ATOM     63  O   UNL A   1      45.509  37.320  32.914  1.00  0.00    -0.237 OA
ATOM     64  O   UNL A   1      45.848  37.925  30.542  1.00  0.00    -0.237 OA
ATOM     65  O   UNL A   1      43.574  37.905  31.498  1.00  0.00    -0.744 OA
ENDBRANCH  61  62
ENDBRANCH  40  54
BRANCH  41  66
ATOM     66  C   UNL A   1      42.900  23.540  27.452  1.00  0.00     0.058 A 
ATOM     67  C   UNL A   1      42.602  22.492  28.336  1.00  0.00     0.135 A 
ATOM     68  C   UNL A   1      42.980  23.236  26.084  1.00  0.00     0.135 A 
ATOM     69  F   UNL A   1      42.518  22.730  29.653  1.00  0.00    -0.206 F 
ATOM     70  C   UNL A   1      42.422  21.188  27.888  1.00  0.00     0.059 A 
ATOM     71  C   UNL A   1      42.774  21.944  25.608  1.00  0.00     0.059 A 
ATOM     72  F   UNL A   1      43.244  24.204  25.193  1.00  0.00    -0.206 F 
ATOM     73  C   UNL A   1      42.511  20.922  26.520  1.00  0.00     0.060 A 
BRANCH  73  74
ATOM     74  S   UNL A   1      42.260  19.228  25.949  1.00  0.00     0.124 S 
ATOM     75  O   UNL A   1      43.097  19.195  24.754  1.00  0.00    -0.237 OA
ATOM     76  O   UNL A   1      42.739  18.447  27.085  1.00  0.00    -0.237 OA
ATOM     77  O   UNL A   1      40.822  19.162  25.714  1.00  0.00    -0.744 OA
ENDBRANCH  73  74
ENDBRANCH  41  66
BRANCH  53  78
ATOM     78  C   UNL A   1      48.627  27.207  29.073  1.00  0.00     0.058 A 
ATOM     79  C   UNL A   1      49.494  27.403  27.988  1.00  0.00     0.135 A 
ATOM     80  C   UNL A   1      49.183  26.787  30.294  1.00  0.00     0.135 A 
ATOM     81  F   UNL A   1      49.011  27.797  26.800  1.00  0.00    -0.206 F 
ATOM     82  C   UNL A   1      50.865  27.198  28.113  1.00  0.00     0.059 A 
ATOM     83  C   UNL A   1      50.552  26.602  30.447  1.00  0.00     0.059 A 
ATOM     84  F   UNL A   1      48.395  26.594  31.364  1.00  0.00    -0.206 F 
ATOM     85  C   UNL A   1      51.386  26.811  29.350  1.00  0.00     0.060 A 
BRANCH  85  86
ATOM     86  S   UNL A   1      53.174  26.639  29.519  1.00  0.00     0.124 S 
ATOM     87  O   UNL A   1      53.522  25.940  28.286  1.00  0.00    -0.237 OA
ATOM     88  O   UNL A   1      53.614  28.029  29.606  1.00  0.00    -0.237 OA
ATOM     89  O   UNL A   1      53.328  25.862  30.746  1.00  0.00    -0.744 OA
ENDBRANCH  85  86
ENDBRANCH  53  78
ENDBRANCH  27  28
ENDBRANCH  19  22
ENDBRANCH  17  18
ENDBRANCH   1  17
TORSDOF 15
ENDMDL
MODEL 3
REMARK VINA RESULT:     -10.6      1.204      2.016
REMARK SMILES Cc1cc(O[C@@H](C)C(=O)NCCCNC(=O)c2ccc(-c3c4nc(c(-c5c(F)cc(S(=O)(=O)[O-])cc5F)c5ccc([nH]5)c(-c5c(F)cc(S(=O)(=O)[O-])cc5F)c5nc(c(-c6c(F)cc(S(=O)(=O)[O-])cc6F)c6ccc3[nH]6)C=C5)C=C4)cc2)n(C)n1
REMARK SMILES IDX 12 1 11 2 10 3 8 4 9 5 6 7 7 8 5 9 4 10 1 11 2 12 3 13 85 14
REMARK SMILES IDX 83 15 84 16 13 17 14 18 15 19 16 21 17 22 18 23 82 24 19 25
REMARK SMILES IDX 81 26 20 27 21 28 22 29 75 30 23 31 80 32 74 33 76 34 24 35
REMARK SMILES IDX 79 36 73 37 72 38 25 40 59 41 38 42 58 43 39 44 42 45 57 46
REMARK SMILES IDX 77 47 40 48 41 49 56 51 78 52 43 53 26 54 27 55 36 56 28 57
REMARK SMILES IDX 29 58 35 59 37 60 30 61 31 62 32 63 33 64 34 65 60 66 61 67
REMARK SMILES IDX 70 68 62 69 63 70 69 71 71 72 64 73 65 74 66 75 67 76 68 77
REMARK SMILES IDX 44 78 45 79 54 80 46 81 47 82 53 83 55 84 48 85 49 86 50 87
REMARK SMILES IDX 51 88 52 89
REMARK H PARENT 10 6 14 20 76 39 42 50
REMARK Flexibility Score: inf
ROOT
ATOM      1  C   UNL A   1      34.030  27.691  25.301  1.00  0.00     0.042 C 
ENDROOT
BRANCH   1   2
ATOM      2  C   UNL A   1      32.740  27.583  24.498  1.00  0.00     0.118 C 
BRANCH   2   3
ATOM      3  N   UNL A   1      32.997  27.139  23.147  1.00  0.00    -0.353 N 
ATOM      4  C   UNL A   1      33.358  25.923  22.661  1.00  0.00     0.260 C 
ATOM      5  O   UNL A   1      33.618  25.885  21.449  1.00  0.00    -0.271 OA
ATOM      6  H   UNL A   1      32.894  27.839  22.462  1.00  0.00     0.163 HD
BRANCH   4   7
ATOM      7  C   UNL A   1      33.375  24.612  23.502  1.00  0.00     0.260 C 
ATOM      8  C   UNL A   1      34.747  23.941  23.529  1.00  0.00     0.064 C 
BRANCH   7   9
ATOM      9  O   UNL A   1      32.244  23.754  23.554  1.00  0.00    -0.465 OA
BRANCH   9  10
ATOM     10  C   UNL A   1      32.331  22.465  23.879  1.00  0.00     0.212 A 
ATOM     11  C   UNL A   1      32.446  18.804  23.776  1.00  0.00     0.069 C 
ATOM     12  C   UNL A   1      32.412  20.252  24.104  1.00  0.00     0.063 A 
ATOM     13  C   UNL A   1      32.905  21.334  23.334  1.00  0.00     0.093 A 
ATOM     14  N   UNL A   1      31.760  20.683  25.185  1.00  0.00    -0.175 NA
ATOM     15  N   UNL A   1      31.800  22.024  25.075  1.00  0.00    -0.237 N 
ATOM     16  C   UNL A   1      31.263  22.823  26.150  1.00  0.00     0.178 C 
ENDBRANCH   9  10
ENDBRANCH   7   9
ENDBRANCH   4   7
ENDBRANCH   2   3
ENDBRANCH   1   2
BRANCH   1  17
ATOM     17  C   UNL A   1      33.802  27.916  26.785  1.00  0.00     0.118 C 
BRANCH  17  18
ATOM     18  N   UNL A   1      33.546  29.323  27.095  1.00  0.00    -0.352 N 
ATOM     19  C   UNL A   1      34.293  30.248  27.785  1.00  0.00     0.251 C 
ATOM     20  H   UNL A   1      32.692  29.666  26.749  1.00  0.00     0.163 HD
ATOM     21  O   UNL A   1      33.765  31.312  28.108  1.00  0.00    -0.269 OA
BRANCH  19  22
ATOM     22  C   UNL A   1      35.701  29.978  28.158  1.00  0.00     0.039 A 
ATOM     23  C   UNL A   1      36.007  29.590  29.467  1.00  0.00     0.014 A 
ATOM     24  C   UNL A   1      36.730  30.134  27.230  1.00  0.00     0.014 A 
ATOM     25  C   UNL A   1      37.326  29.279  29.815  1.00  0.00     0.010 A 
ATOM     26  C   UNL A   1      38.014  29.709  27.541  1.00  0.00     0.010 A 
ATOM     27  C   UNL A   1      38.335  29.291  28.841  1.00  0.00    -0.014 A 
BRANCH  27  28
ATOM     28  C   UNL A   1      39.747  28.922  29.127  1.00  0.00     0.031 A 
ATOM     29  C   UNL A   1      40.691  29.988  29.624  1.00  0.00     0.074 A 
ATOM     30  C   UNL A   1      40.208  27.694  28.817  1.00  0.00     0.049 A 
ATOM     31  N   UNL A   1      41.996  29.975  29.687  1.00  0.00    -0.248 NA
ATOM     32  C   UNL A   1      40.083  31.258  30.059  1.00  0.00     0.031 C 
ATOM     33  C   UNL A   1      39.401  26.588  28.296  1.00  0.00     0.029 A 
ATOM     34  N   UNL A   1      41.481  27.180  28.859  1.00  0.00    -0.354 N 
ATOM     35  C   UNL A   1      42.364  31.245  30.117  1.00  0.00     0.074 A 
ATOM     36  C   UNL A   1      41.151  32.016  30.257  1.00  0.00     0.031 C 
ATOM     37  C   UNL A   1      40.197  25.528  28.073  1.00  0.00     0.029 A 
ATOM     38  C   UNL A   1      41.575  25.895  28.377  1.00  0.00     0.049 A 
ATOM     39  H   UNL A   1      42.254  27.685  29.203  1.00  0.00     0.167 HD
ATOM     40  C   UNL A   1      43.604  31.718  30.387  1.00  0.00     0.037 A 
ATOM     41  C   UNL A   1      42.654  25.113  28.171  1.00  0.00     0.037 A 
ATOM     42  C   UNL A   1      44.797  30.919  30.303  1.00  0.00     0.049 A 
ATOM     43  C   UNL A   1      44.022  25.655  28.501  1.00  0.00     0.074 A 
ATOM     44  C   UNL A   1      46.094  31.277  30.626  1.00  0.00     0.029 A 
ATOM     45  N   UNL A   1      44.835  29.599  29.880  1.00  0.00    -0.354 N 
ATOM     46  N   UNL A   1      44.351  26.844  28.944  1.00  0.00    -0.248 NA
ATOM     47  C   UNL A   1      45.165  24.752  28.305  1.00  0.00     0.031 C 
ATOM     48  C   UNL A   1      46.924  30.187  30.357  1.00  0.00     0.029 A 
ATOM     49  C   UNL A   1      46.136  29.131  29.923  1.00  0.00     0.049 A 
ATOM     50  H   UNL A   1      44.055  29.074  29.592  1.00  0.00     0.167 HD
ATOM     51  C   UNL A   1      45.730  26.817  29.125  1.00  0.00     0.074 A 
ATOM     52  C   UNL A   1      46.176  25.496  28.736  1.00  0.00     0.031 C 
ATOM     53  C   UNL A   1      46.551  27.794  29.577  1.00  0.00     0.037 A 
BRANCH  40  54
ATOM     54  C   UNL A   1      43.739  33.155  30.809  1.00  0.00     0.058 A 
ATOM     55  C   UNL A   1      43.747  33.532  32.161  1.00  0.00     0.135 A 
ATOM     56  C   UNL A   1      43.923  34.164  29.849  1.00  0.00     0.135 A 
ATOM     57  F   UNL A   1      43.558  32.613  33.121  1.00  0.00    -0.206 F 
ATOM     58  C   UNL A   1      43.910  34.858  32.546  1.00  0.00     0.059 A 
ATOM     59  C   UNL A   1      44.121  35.493  30.212  1.00  0.00     0.059 A 
ATOM     60  F   UNL A   1      43.922  33.862  28.541  1.00  0.00    -0.206 F 
ATOM     61  C   UNL A   1      44.102  35.832  31.564  1.00  0.00     0.060 A 
BRANCH  61  62
ATOM     62  S   UNL A   1      44.343  37.542  32.085  1.00  0.00     0.124 S 
ATOM     63  O   UNL A   1      45.772  37.556  32.385  1.00  0.00    -0.237 OA
ATOM     64  O   UNL A   1      43.939  38.290  30.898  1.00  0.00    -0.237 OA
ATOM     65  O   UNL A   1      43.458  37.676  33.239  1.00  0.00    -0.744 OA
ENDBRANCH  61  62
ENDBRANCH  40  54
BRANCH  41  66
ATOM     66  C   UNL A   1      42.492  23.735  27.630  1.00  0.00     0.058 A 
ATOM     67  C   UNL A   1      42.372  22.634  28.490  1.00  0.00     0.135 A 
ATOM     68  C   UNL A   1      42.458  23.490  26.248  1.00  0.00     0.135 A 
ATOM     69  F   UNL A   1      42.402  22.815  29.819  1.00  0.00    -0.206 F 
ATOM     70  C   UNL A   1      42.256  21.336  28.004  1.00  0.00     0.059 A 
ATOM     71  C   UNL A   1      42.313  22.203  25.736  1.00  0.00     0.059 A 
ATOM     72  F   UNL A   1      42.550  24.508  25.380  1.00  0.00    -0.206 F 
ATOM     73  C   UNL A   1      42.229  21.130  26.623  1.00  0.00     0.060 A 
BRANCH  73  74
ATOM     74  S   UNL A   1      42.063  19.441  26.003  1.00  0.00     0.124 S 
ATOM     75  O   UNL A   1      40.625  19.354  25.773  1.00  0.00    -0.237 OA
ATOM     76  O   UNL A   1      42.899  19.470  24.808  1.00  0.00    -0.237 OA
ATOM     77  O   UNL A   1      42.577  18.628  27.100  1.00  0.00    -0.744 OA
ENDBRANCH  73  74
ENDBRANCH  41  66
BRANCH  53  78
ATOM     78  C   UNL A   1      48.005  27.467  29.763  1.00  0.00     0.058 A 
ATOM     79  C   UNL A   1      48.958  27.721  28.766  1.00  0.00     0.135 A 
ATOM     80  C   UNL A   1      48.462  27.008  31.010  1.00  0.00     0.135 A 
ATOM     81  F   UNL A   1      48.570  28.154  27.556  1.00  0.00    -0.206 F 
ATOM     82  C   UNL A   1      50.317  27.535  29.001  1.00  0.00     0.059 A 
ATOM     83  C   UNL A   1      49.817  26.841  31.274  1.00  0.00     0.059 A 
ATOM     84  F   UNL A   1      47.589  26.759  31.999  1.00  0.00    -0.206 F 
ATOM     85  C   UNL A   1      50.737  27.107  30.262  1.00  0.00     0.060 A 
BRANCH  85  86
ATOM     86  S   UNL A   1      52.507  26.960  30.579  1.00  0.00     0.124 S 
ATOM     87  O   UNL A   1      52.536  25.942  31.624  1.00  0.00    -0.237 OA
ATOM     88  O   UNL A   1      53.025  26.548  29.278  1.00  0.00    -0.237 OA
ATOM     89  O   UNL A   1      52.891  28.304  31.003  1.00  0.00    -0.744 OA
ENDBRANCH  85  86
ENDBRANCH  53  78
ENDBRANCH  27  28
ENDBRANCH  19  22
ENDBRANCH  17  18
ENDBRANCH   1  17
TORSDOF 15
ENDMDL
