MODEL 1
REMARK VINA RESULT:     -14.2      0.000      0.000
REMARK SMILES Cc1cccc(-c2cc(C(=O)NCCCNC(=O)c3ccc(-c4c5nc(c(-c6c(F)cc(S(=O)(=O)[O-])cc6F)c6ccc([nH]6)c(-c6c(F)cc(S(=O)(=O)[O-])cc6F)c6nc(c(-c7c(F)cc(S(=O)(=O)[O-])cc7F)c7ccc4[nH]7)C=C6)C=C5)cc3)ccn2)c1
REMARK SMILES IDX 15 1 14 2 13 3 12 4 10 5 11 6 9 8 7 9 8 10 87 11 86 12 85 13
REMARK SMILES IDX 6 14 1 15 2 16 3 17 88 18 4 19 5 20 16 21 17 22 18 24 19 25
REMARK SMILES IDX 20 26 84 27 21 28 83 29 22 30 23 31 24 32 77 33 25 34 82 35
REMARK SMILES IDX 76 36 78 37 26 38 81 39 75 40 74 41 27 43 61 44 40 45 60 46
REMARK SMILES IDX 41 47 44 48 59 49 79 50 42 51 43 52 58 54 80 55 45 56 28 57
REMARK SMILES IDX 29 58 38 59 30 60 31 61 37 62 39 63 32 64 33 65 34 66 35 67
REMARK SMILES IDX 36 68 62 69 63 70 72 71 64 72 65 73 71 74 73 75 66 76 67 77
REMARK SMILES IDX 68 78 69 79 70 80 46 81 47 82 56 83 48 84 49 85 55 86 57 87
REMARK SMILES IDX 50 88 51 89 52 90 53 91 54 92
REMARK H PARENT 12 7 16 23 78 42 44 53
REMARK Flexibility Score: inf
ROOT
ATOM      1  C   UNL A   1      34.475  30.219  27.590  1.00  0.00     0.118 C 
ENDROOT
BRANCH   1   2
ATOM      2  C   UNL A   1      33.185  30.739  26.969  1.00  0.00     0.042 C 
BRANCH   2   3
ATOM      3  C   UNL A   1      32.550  29.772  25.964  1.00  0.00     0.118 C 
BRANCH   3   4
ATOM      4  N   UNL A   1      33.293  29.699  24.705  1.00  0.00    -0.352 N 
ATOM      5  C   UNL A   1      33.512  28.699  23.788  1.00  0.00     0.251 C 
ATOM      6  O   UNL A   1      34.091  29.006  22.745  1.00  0.00    -0.269 OA
ATOM      7  H   UNL A   1      33.730  30.548  24.464  1.00  0.00     0.163 HD
BRANCH   5   8
ATOM      8  C   UNL A   1      33.102  27.273  23.960  1.00  0.00     0.043 A 
ATOM      9  C   UNL A   1      33.493  24.924  24.340  1.00  0.00     0.071 A 
ATOM     10  C   UNL A   1      33.972  26.226  24.219  1.00  0.00     0.042 A 
ATOM     11  N   UNL A   1      32.191  24.609  24.172  1.00  0.00    -0.256 NA
ATOM     12  C   UNL A   1      31.350  25.635  23.913  1.00  0.00     0.112 A 
ATOM     13  C   UNL A   1      31.750  26.958  23.805  1.00  0.00     0.034 A 
BRANCH   9  14
ATOM     14  C   UNL A   1      34.425  23.841  24.678  1.00  0.00     0.000 A 
ATOM     15  C   UNL A   1      34.359  20.022  24.833  1.00  0.00     0.044 C 
ATOM     16  C   UNL A   1      34.832  21.440  24.960  1.00  0.00    -0.050 A 
ATOM     17  C   UNL A   1      36.076  21.728  25.529  1.00  0.00     0.003 A 
ATOM     18  C   UNL A   1      34.022  22.499  24.537  1.00  0.00     0.013 A 
ATOM     19  C   UNL A   1      36.503  23.051  25.658  1.00  0.00     0.001 A 
ATOM     20  C   UNL A   1      35.685  24.101  25.230  1.00  0.00     0.010 A 
ENDBRANCH   9  14
ENDBRANCH   5   8
ENDBRANCH   3   4
ENDBRANCH   2   3
ENDBRANCH   1   2
BRANCH   1  21
ATOM     21  N   UNL A   1      35.193  31.234  28.340  1.00  0.00    -0.352 N 
ATOM     22  C   UNL A   1      36.415  31.090  29.020  1.00  0.00     0.251 C 
ATOM     23  H   UNL A   1      34.776  32.124  28.377  1.00  0.00     0.163 HD
ATOM     24  O   UNL A   1      36.903  31.933  29.711  1.00  0.00    -0.269 OA
BRANCH  22  25
ATOM     25  C   UNL A   1      37.133  29.832  28.719  1.00  0.00     0.039 A 
ATOM     26  C   UNL A   1      37.340  28.978  29.804  1.00  0.00     0.014 A 
ATOM     27  C   UNL A   1      37.892  29.754  27.557  1.00  0.00     0.014 A 
ATOM     28  C   UNL A   1      38.467  28.165  29.807  1.00  0.00     0.010 A 
ATOM     29  C   UNL A   1      39.050  28.996  27.590  1.00  0.00     0.010 A 
ATOM     30  C   UNL A   1      39.369  28.266  28.745  1.00  0.00    -0.014 A 
BRANCH  30  31
ATOM     31  C   UNL A   1      40.722  27.729  28.839  1.00  0.00     0.031 A 
ATOM     32  C   UNL A   1      40.982  26.324  28.467  1.00  0.00     0.074 A 
ATOM     33  C   UNL A   1      41.728  28.501  29.304  1.00  0.00     0.049 A 
ATOM     34  N   UNL A   1      41.961  25.611  28.910  1.00  0.00    -0.248 NA
ATOM     35  C   UNL A   1      40.063  25.581  27.617  1.00  0.00     0.031 C 
ATOM     36  C   UNL A   1      43.155  28.198  29.278  1.00  0.00     0.029 A 
ATOM     37  N   UNL A   1      41.619  29.628  30.131  1.00  0.00    -0.354 N 
ATOM     38  C   UNL A   1      41.970  24.425  28.207  1.00  0.00     0.074 A 
ATOM     39  C   UNL A   1      40.709  24.419  27.503  1.00  0.00     0.031 C 
ATOM     40  C   UNL A   1      43.761  28.907  30.242  1.00  0.00     0.029 A 
ATOM     41  C   UNL A   1      42.728  29.593  30.998  1.00  0.00     0.049 A 
ATOM     42  H   UNL A   1      40.909  30.309  30.110  1.00  0.00     0.167 HD
ATOM     43  C   UNL A   1      43.109  23.670  28.188  1.00  0.00     0.037 A 
ATOM     44  C   UNL A   1      42.575  29.511  32.350  1.00  0.00     0.037 A 
ATOM     45  C   UNL A   1      44.075  24.160  29.179  1.00  0.00     0.049 A 
ATOM     46  C   UNL A   1      43.193  28.280  32.968  1.00  0.00     0.074 A 
ATOM     47  C   UNL A   1      45.214  24.945  29.081  1.00  0.00     0.029 A 
ATOM     48  N   UNL A   1      43.760  24.104  30.536  1.00  0.00    -0.354 N 
ATOM     49  N   UNL A   1      43.540  27.218  32.293  1.00  0.00    -0.248 NA
ATOM     50  C   UNL A   1      43.465  28.148  34.396  1.00  0.00     0.031 C 
ATOM     51  C   UNL A   1      45.534  25.427  30.376  1.00  0.00     0.029 A 
ATOM     52  C   UNL A   1      44.611  24.912  31.271  1.00  0.00     0.049 A 
ATOM     53  H   UNL A   1      43.033  23.564  30.920  1.00  0.00     0.167 HD
ATOM     54  C   UNL A   1      44.052  26.276  33.149  1.00  0.00     0.074 A 
ATOM     55  C   UNL A   1      44.009  26.919  34.451  1.00  0.00     0.031 C 
ATOM     56  C   UNL A   1      44.468  25.046  32.717  1.00  0.00     0.037 A 
BRANCH  43  57
ATOM     57  C   UNL A   1      43.463  22.739  27.026  1.00  0.00     0.058 A 
ATOM     58  C   UNL A   1      42.796  21.505  26.854  1.00  0.00     0.135 A 
ATOM     59  C   UNL A   1      44.528  22.937  26.123  1.00  0.00     0.135 A 
ATOM     60  F   UNL A   1      41.676  21.214  27.530  1.00  0.00    -0.206 F 
ATOM     61  C   UNL A   1      43.245  20.502  25.984  1.00  0.00     0.059 A 
ATOM     62  C   UNL A   1      45.033  21.935  25.288  1.00  0.00     0.059 A 
ATOM     63  F   UNL A   1      45.089  24.137  25.950  1.00  0.00    -0.206 F 
ATOM     64  C   UNL A   1      44.397  20.707  25.239  1.00  0.00     0.060 A 
BRANCH  64  65
ATOM     65  S   UNL A   1      45.036  19.380  24.201  1.00  0.00     0.124 S 
ATOM     66  O   UNL A   1      44.351  18.210  24.740  1.00  0.00    -0.237 OA
ATOM     67  O   UNL A   1      44.619  19.805  22.870  1.00  0.00    -0.237 OA
ATOM     68  O   UNL A   1      46.476  19.419  24.446  1.00  0.00    -0.744 OA
ENDBRANCH  64  65
ENDBRANCH  43  57
BRANCH  44  69
ATOM     69  C   UNL A   1      41.419  30.280  32.879  1.00  0.00     0.058 A 
ATOM     70  C   UNL A   1      40.226  29.575  33.127  1.00  0.00     0.135 A 
ATOM     71  C   UNL A   1      41.564  31.534  33.487  1.00  0.00     0.135 A 
ATOM     72  F   UNL A   1      40.027  28.373  32.561  1.00  0.00    -0.206 F 
ATOM     73  C   UNL A   1      39.278  30.027  34.040  1.00  0.00     0.059 A 
ATOM     74  C   UNL A   1      40.627  32.007  34.411  1.00  0.00     0.059 A 
ATOM     75  F   UNL A   1      42.675  32.258  33.282  1.00  0.00    -0.206 F 
ATOM     76  C   UNL A   1      39.521  31.215  34.724  1.00  0.00     0.060 A 
BRANCH  76  77
ATOM     77  S   UNL A   1      38.432  31.622  36.110  1.00  0.00     0.124 S 
ATOM     78  O   UNL A   1      39.272  32.512  36.905  1.00  0.00    -0.237 OA
ATOM     79  O   UNL A   1      37.309  32.266  35.429  1.00  0.00    -0.237 OA
ATOM     80  O   UNL A   1      38.148  30.322  36.705  1.00  0.00    -0.744 OA
ENDBRANCH  76  77
ENDBRANCH  44  69
BRANCH  56  81
ATOM     81  C   UNL A   1      44.883  23.888  33.603  1.00  0.00     0.058 A 
ATOM     82  C   UNL A   1      44.017  22.865  34.028  1.00  0.00     0.135 A 
ATOM     83  C   UNL A   1      46.245  23.706  33.950  1.00  0.00     0.135 A 
ATOM     84  F   UNL A   1      42.725  22.850  33.669  1.00  0.00    -0.206 F 
ATOM     85  C   UNL A   1      44.450  21.782  34.799  1.00  0.00     0.059 A 
ATOM     86  C   UNL A   1      46.709  22.606  34.667  1.00  0.00     0.059 A 
ATOM     87  F   UNL A   1      47.184  24.593  33.586  1.00  0.00    -0.206 F 
ATOM     88  C   UNL A   1      45.799  21.657  35.112  1.00  0.00     0.060 A 
BRANCH  88  89
ATOM     89  S   UNL A   1      46.392  20.223  36.029  1.00  0.00     0.124 S 
ATOM     90  O   UNL A   1      45.890  19.124  35.212  1.00  0.00    -0.237 OA
ATOM     91  O   UNL A   1      47.841  20.403  36.018  1.00  0.00    -0.237 OA
ATOM     92  O   UNL A   1      45.760  20.385  37.335  1.00  0.00    -0.744 OA
ENDBRANCH  88  89
ENDBRANCH  56  81
ENDBRANCH  30  31
ENDBRANCH  22  25
ENDBRANCH   1  21
TORSDOF 14
ENDMDL
MODEL 2
REMARK VINA RESULT:     -14.0      5.130     11.757
REMARK SMILES Cc1cccc(-c2cc(C(=O)NCCCNC(=O)c3ccc(-c4c5nc(c(-c6c(F)cc(S(=O)(=O)[O-])cc6F)c6ccc([nH]6)c(-c6c(F)cc(S(=O)(=O)[O-])cc6F)c6nc(c(-c7c(F)cc(S(=O)(=O)[O-])cc7F)c7ccc4[nH]7)C=C6)C=C5)cc3)ccn2)c1
REMARK SMILES IDX 15 1 14 2 13 3 12 4 10 5 11 6 9 8 7 9 8 10 87 11 86 12 85 13
REMARK SMILES IDX 6 14 1 15 2 16 3 17 88 18 4 19 5 20 16 21 17 22 18 24 19 25
REMARK SMILES IDX 20 26 84 27 21 28 83 29 22 30 23 31 24 32 77 33 25 34 82 35
REMARK SMILES IDX 76 36 78 37 26 38 81 39 75 40 74 41 27 43 61 44 40 45 60 46
REMARK SMILES IDX 41 47 44 48 59 49 79 50 42 51 43 52 58 54 80 55 45 56 28 57
REMARK SMILES IDX 29 58 38 59 30 60 31 61 37 62 39 63 32 64 33 65 34 66 35 67
REMARK SMILES IDX 36 68 62 69 63 70 72 71 64 72 65 73 71 74 73 75 66 76 67 77
REMARK SMILES IDX 68 78 69 79 70 80 46 81 47 82 56 83 48 84 49 85 55 86 57 87
REMARK SMILES IDX 50 88 51 89 52 90 53 91 54 92
REMARK H PARENT 12 7 16 23 78 42 44 53
REMARK Flexibility Score: inf
ROOT
ATOM      1  C   UNL A   1      38.727  23.220  26.027  1.00  0.00     0.118 C 
ENDROOT
BRANCH   1   2
ATOM      2  C   UNL A   1      38.177  21.827  25.751  1.00  0.00     0.042 C 
BRANCH   2   3
ATOM      3  C   UNL A   1      37.112  21.791  24.650  1.00  0.00     0.118 C 
BRANCH   3   4
ATOM      4  N   UNL A   1      35.889  21.105  25.070  1.00  0.00    -0.352 N 
ATOM      5  C   UNL A   1      34.550  21.387  24.942  1.00  0.00     0.251 C 
ATOM      6  O   UNL A   1      33.753  20.518  25.304  1.00  0.00    -0.269 OA
ATOM      7  H   UNL A   1      36.063  20.262  25.548  1.00  0.00     0.163 HD
BRANCH   5   8
ATOM      8  C   UNL A   1      33.989  22.660  24.400  1.00  0.00     0.043 A 
ATOM      9  C   UNL A   1      33.045  24.872  24.571  1.00  0.00     0.071 A 
ATOM     10  C   UNL A   1      33.577  23.734  25.172  1.00  0.00     0.042 A 
ATOM     11  N   UNL A   1      32.864  24.973  23.237  1.00  0.00    -0.256 NA
ATOM     12  C   UNL A   1      33.262  23.919  22.491  1.00  0.00     0.112 A 
ATOM     13  C   UNL A   1      33.825  22.765  23.016  1.00  0.00     0.034 A 
BRANCH   9  14
ATOM     14  C   UNL A   1      32.674  26.023  25.404  1.00  0.00     0.000 A 
ATOM     15  C   UNL A   1      34.438  28.999  27.031  1.00  0.00     0.044 C 
ATOM     16  C   UNL A   1      33.368  28.021  26.645  1.00  0.00    -0.050 A 
ATOM     17  C   UNL A   1      32.084  28.117  27.188  1.00  0.00     0.003 A 
ATOM     18  C   UNL A   1      33.648  26.977  25.756  1.00  0.00     0.013 A 
ATOM     19  C   UNL A   1      31.098  27.193  26.835  1.00  0.00     0.001 A 
ATOM     20  C   UNL A   1      31.390  26.156  25.945  1.00  0.00     0.010 A 
ENDBRANCH   9  14
ENDBRANCH   5   8
ENDBRANCH   3   4
ENDBRANCH   2   3
ENDBRANCH   1   2
BRANCH   1  21
ATOM     21  N   UNL A   1      40.120  23.208  26.436  1.00  0.00    -0.352 N 
ATOM     22  C   UNL A   1      40.886  24.294  26.896  1.00  0.00     0.251 C 
ATOM     23  H   UNL A   1      40.581  22.340  26.386  1.00  0.00     0.163 HD
ATOM     24  O   UNL A   1      42.058  24.245  27.116  1.00  0.00    -0.269 OA
BRANCH  22  25
ATOM     25  C   UNL A   1      40.095  25.504  27.210  1.00  0.00     0.039 A 
ATOM     26  C   UNL A   1      40.441  26.656  26.499  1.00  0.00     0.014 A 
ATOM     27  C   UNL A   1      39.391  25.555  28.407  1.00  0.00     0.014 A 
ATOM     28  C   UNL A   1      40.260  27.894  27.105  1.00  0.00     0.010 A 
ATOM     29  C   UNL A   1      39.274  26.781  29.038  1.00  0.00     0.010 A 
ATOM     30  C   UNL A   1      39.779  27.934  28.416  1.00  0.00    -0.014 A 
BRANCH  30  31
ATOM     31  C   UNL A   1      39.895  29.135  29.235  1.00  0.00     0.031 A 
ATOM     32  C   UNL A   1      38.862  30.185  29.149  1.00  0.00     0.074 A 
ATOM     33  C   UNL A   1      40.967  29.306  30.040  1.00  0.00     0.049 A 
ATOM     34  N   UNL A   1      39.047  31.430  29.434  1.00  0.00    -0.248 NA
ATOM     35  C   UNL A   1      37.534  29.903  28.624  1.00  0.00     0.031 C 
ATOM     36  C   UNL A   1      41.146  30.334  31.060  1.00  0.00     0.029 A 
ATOM     37  N   UNL A   1      42.229  28.711  29.909  1.00  0.00    -0.354 N 
ATOM     38  C   UNL A   1      37.819  32.056  29.402  1.00  0.00     0.074 A 
ATOM     39  C   UNL A   1      36.941  31.087  28.788  1.00  0.00     0.031 C 
ATOM     40  C   UNL A   1      42.460  30.504  31.269  1.00  0.00     0.029 A 
ATOM     41  C   UNL A   1      43.169  29.682  30.305  1.00  0.00     0.049 A 
ATOM     42  H   UNL A   1      42.421  27.796  29.601  1.00  0.00     0.167 HD
ATOM     43  C   UNL A   1      37.665  33.255  30.038  1.00  0.00     0.037 A 
ATOM     44  C   UNL A   1      44.123  30.144  29.447  1.00  0.00     0.037 A 
ATOM     45  C   UNL A   1      38.968  33.802  30.440  1.00  0.00     0.049 A 
ATOM     46  C   UNL A   1      44.047  31.627  29.181  1.00  0.00     0.074 A 
ATOM     47  C   UNL A   1      39.648  33.837  31.648  1.00  0.00     0.029 A 
ATOM     48  N   UNL A   1      39.899  34.154  29.462  1.00  0.00    -0.354 N 
ATOM     49  N   UNL A   1      43.002  32.365  29.440  1.00  0.00    -0.248 NA
ATOM     50  C   UNL A   1      45.142  32.397  28.598  1.00  0.00     0.031 C 
ATOM     51  C   UNL A   1      41.010  34.131  31.382  1.00  0.00     0.029 A 
ATOM     52  C   UNL A   1      41.158  34.308  30.017  1.00  0.00     0.049 A 
ATOM     53  H   UNL A   1      39.690  34.277  28.509  1.00  0.00     0.167 HD
ATOM     54  C   UNL A   1      43.249  33.662  29.064  1.00  0.00     0.074 A 
ATOM     55  C   UNL A   1      44.615  33.634  28.570  1.00  0.00     0.031 C 
ATOM     56  C   UNL A   1      42.312  34.651  29.192  1.00  0.00     0.037 A 
BRANCH  43  57
ATOM     57  C   UNL A   1      36.323  33.724  30.604  1.00  0.00     0.058 A 
ATOM     58  C   UNL A   1      35.311  34.226  29.754  1.00  0.00     0.135 A 
ATOM     59  C   UNL A   1      36.011  33.826  31.975  1.00  0.00     0.135 A 
ATOM     60  F   UNL A   1      35.380  34.080  28.423  1.00  0.00    -0.206 F 
ATOM     61  C   UNL A   1      34.181  34.908  30.222  1.00  0.00     0.059 A 
ATOM     62  C   UNL A   1      34.922  34.551  32.471  1.00  0.00     0.059 A 
ATOM     63  F   UNL A   1      36.707  33.165  32.905  1.00  0.00    -0.206 F 
ATOM     64  C   UNL A   1      34.019  35.110  31.585  1.00  0.00     0.060 A 
BRANCH  64  65
ATOM     65  S   UNL A   1      32.622  36.079  32.183  1.00  0.00     0.124 S 
ATOM     66  O   UNL A   1      31.693  35.042  32.622  1.00  0.00    -0.237 OA
ATOM     67  O   UNL A   1      33.233  36.875  33.242  1.00  0.00    -0.237 OA
ATOM     68  O   UNL A   1      32.197  36.829  31.004  1.00  0.00    -0.744 OA
ENDBRANCH  64  65
ENDBRANCH  43  57
BRANCH  44  69
ATOM     69  C   UNL A   1      44.673  29.109  28.534  1.00  0.00     0.058 A 
ATOM     70  C   UNL A   1      44.129  29.027  27.239  1.00  0.00     0.135 A 
ATOM     71  C   UNL A   1      45.915  28.499  28.751  1.00  0.00     0.135 A 
ATOM     72  F   UNL A   1      42.935  29.585  26.977  1.00  0.00    -0.206 F 
ATOM     73  C   UNL A   1      44.839  28.484  26.173  1.00  0.00     0.059 A 
ATOM     74  C   UNL A   1      46.650  27.949  27.694  1.00  0.00     0.059 A 
ATOM     75  F   UNL A   1      46.482  28.535  29.966  1.00  0.00    -0.206 F 
ATOM     76  C   UNL A   1      46.126  28.005  26.401  1.00  0.00     0.060 A 
BRANCH  76  77
ATOM     77  S   UNL A   1      47.134  27.587  24.958  1.00  0.00     0.124 S 
ATOM     78  O   UNL A   1      48.487  27.668  25.498  1.00  0.00    -0.237 OA
ATOM     79  O   UNL A   1      46.665  26.236  24.648  1.00  0.00    -0.237 OA
ATOM     80  O   UNL A   1      46.776  28.617  23.991  1.00  0.00    -0.744 OA
ENDBRANCH  76  77
ENDBRANCH  44  69
BRANCH  56  81
ATOM     81  C   UNL A   1      42.432  36.062  28.652  1.00  0.00     0.058 A 
ATOM     82  C   UNL A   1      43.029  37.129  29.347  1.00  0.00     0.135 A 
ATOM     83  C   UNL A   1      42.050  36.352  27.318  1.00  0.00     0.135 A 
ATOM     84  F   UNL A   1      43.543  36.961  30.574  1.00  0.00    -0.206 F 
ATOM     85  C   UNL A   1      43.171  38.405  28.792  1.00  0.00     0.059 A 
ATOM     86  C   UNL A   1      42.234  37.599  26.726  1.00  0.00     0.059 A 
ATOM     87  F   UNL A   1      41.491  35.418  26.532  1.00  0.00    -0.206 F 
ATOM     88  C   UNL A   1      42.775  38.630  27.479  1.00  0.00     0.060 A 
BRANCH  88  89
ATOM     89  S   UNL A   1      43.031  40.244  26.716  1.00  0.00     0.124 S 
ATOM     90  O   UNL A   1      44.178  39.982  25.853  1.00  0.00    -0.237 OA
ATOM     91  O   UNL A   1      41.767  40.485  26.026  1.00  0.00    -0.237 OA
ATOM     92  O   UNL A   1      43.283  41.112  27.862  1.00  0.00    -0.744 OA
ENDBRANCH  88  89
ENDBRANCH  56  81
ENDBRANCH  30  31
ENDBRANCH  22  25
ENDBRANCH   1  21
TORSDOF 14
ENDMDL
MODEL 3
REMARK VINA RESULT:     -13.9      1.581      3.206
REMARK SMILES Cc1cccc(-c2cc(C(=O)NCCCNC(=O)c3ccc(-c4c5nc(c(-c6c(F)cc(S(=O)(=O)[O-])cc6F)c6ccc([nH]6)c(-c6c(F)cc(S(=O)(=O)[O-])cc6F)c6nc(c(-c7c(F)cc(S(=O)(=O)[O-])cc7F)c7ccc4[nH]7)C=C6)C=C5)cc3)ccn2)c1
REMARK SMILES IDX 15 1 14 2 13 3 12 4 10 5 11 6 9 8 7 9 8 10 87 11 86 12 85 13
REMARK SMILES IDX 6 14 1 15 2 16 3 17 88 18 4 19 5 20 16 21 17 22 18 24 19 25
REMARK SMILES IDX 20 26 84 27 21 28 83 29 22 30 23 31 24 32 77 33 25 34 82 35
REMARK SMILES IDX 76 36 78 37 26 38 81 39 75 40 74 41 27 43 61 44 40 45 60 46
REMARK SMILES IDX 41 47 44 48 59 49 79 50 42 51 43 52 58 54 80 55 45 56 28 57
REMARK SMILES IDX 29 58 38 59 30 60 31 61 37 62 39 63 32 64 33 65 34 66 35 67
REMARK SMILES IDX 36 68 62 69 63 70 72 71 64 72 65 73 71 74 73 75 66 76 67 77
REMARK SMILES IDX 68 78 69 79 70 80 46 81 47 82 56 83 48 84 49 85 55 86 57 87
REMARK SMILES IDX 50 88 51 89 52 90 53 91 54 92
REMARK H PARENT 12 7 16 23 78 42 44 53
REMARK Flexibility Score: inf
ROOT
ATOM      1  C   UNL A   1      34.909  30.603  27.248  1.00  0.00     0.118 C 
ENDROOT
BRANCH   1   2
ATOM      2  C   UNL A   1      34.117  29.402  27.749  1.00  0.00     0.042 C 
BRANCH   2   3
ATOM      3  C   UNL A   1      33.263  28.730  26.669  1.00  0.00     0.118 C 
BRANCH   3   4
ATOM      4  N   UNL A   1      33.631  27.331  26.448  1.00  0.00    -0.352 N 
ATOM      5  C   UNL A   1      33.432  26.448  25.414  1.00  0.00     0.251 C 
ATOM      6  O   UNL A   1      33.994  25.353  25.490  1.00  0.00    -0.269 OA
ATOM      7  H   UNL A   1      34.126  26.939  27.203  1.00  0.00     0.163 HD
BRANCH   5   8
ATOM      8  C   UNL A   1      32.591  26.714  24.209  1.00  0.00     0.043 A 
ATOM      9  C   UNL A   1      30.701  27.640  23.032  1.00  0.00     0.071 A 
ATOM     10  C   UNL A   1      31.430  27.469  24.207  1.00  0.00     0.042 A 
ATOM     11  N   UNL A   1      31.054  27.057  21.866  1.00  0.00    -0.256 NA
ATOM     12  C   UNL A   1      32.184  26.316  21.878  1.00  0.00     0.112 A 
ATOM     13  C   UNL A   1      32.974  26.124  23.002  1.00  0.00     0.034 A 
BRANCH   9  14
ATOM     14  C   UNL A   1      29.510  28.497  23.040  1.00  0.00     0.000 A 
ATOM     15  C   UNL A   1      28.738  32.237  23.210  1.00  0.00     0.044 C 
ATOM     16  C   UNL A   1      28.550  30.750  23.171  1.00  0.00    -0.050 A 
ATOM     17  C   UNL A   1      27.276  30.188  23.292  1.00  0.00     0.003 A 
ATOM     18  C   UNL A   1      29.652  29.898  23.042  1.00  0.00     0.013 A 
ATOM     19  C   UNL A   1      27.111  28.802  23.270  1.00  0.00     0.001 A 
ATOM     20  C   UNL A   1      28.220  27.962  23.139  1.00  0.00     0.010 A 
ENDBRANCH   9  14
ENDBRANCH   5   8
ENDBRANCH   3   4
ENDBRANCH   2   3
ENDBRANCH   1   2
BRANCH   1  21
ATOM     21  N   UNL A   1      35.449  31.415  28.323  1.00  0.00    -0.352 N 
ATOM     22  C   UNL A   1      36.457  31.063  29.237  1.00  0.00     0.251 C 
ATOM     23  H   UNL A   1      35.065  32.316  28.423  1.00  0.00     0.163 HD
ATOM     24  O   UNL A   1      36.784  31.734  30.169  1.00  0.00    -0.269 OA
BRANCH  22  25
ATOM     25  C   UNL A   1      37.186  29.824  28.889  1.00  0.00     0.039 A 
ATOM     26  C   UNL A   1      37.394  28.927  29.939  1.00  0.00     0.014 A 
ATOM     27  C   UNL A   1      37.952  29.798  27.729  1.00  0.00     0.014 A 
ATOM     28  C   UNL A   1      38.527  28.122  29.915  1.00  0.00     0.010 A 
ATOM     29  C   UNL A   1      39.115  29.049  27.737  1.00  0.00     0.010 A 
ATOM     30  C   UNL A   1      39.434  28.273  28.863  1.00  0.00    -0.014 A 
BRANCH  30  31
ATOM     31  C   UNL A   1      40.790  27.743  28.942  1.00  0.00     0.031 A 
ATOM     32  C   UNL A   1      41.055  26.344  28.551  1.00  0.00     0.074 A 
ATOM     33  C   UNL A   1      41.795  28.515  29.412  1.00  0.00     0.049 A 
ATOM     34  N   UNL A   1      42.041  25.631  28.979  1.00  0.00    -0.248 NA
ATOM     35  C   UNL A   1      40.136  25.607  27.697  1.00  0.00     0.031 C 
ATOM     36  C   UNL A   1      43.223  28.220  29.374  1.00  0.00     0.029 A 
ATOM     37  N   UNL A   1      41.684  29.630  30.254  1.00  0.00    -0.354 N 
ATOM     38  C   UNL A   1      42.053  24.455  28.261  1.00  0.00     0.074 A 
ATOM     39  C   UNL A   1      40.788  24.451  27.564  1.00  0.00     0.031 C 
ATOM     40  C   UNL A   1      43.830  28.920  30.344  1.00  0.00     0.029 A 
ATOM     41  C   UNL A   1      42.798  29.590  31.114  1.00  0.00     0.049 A 
ATOM     42  H   UNL A   1      40.970  30.308  30.245  1.00  0.00     0.167 HD
ATOM     43  C   UNL A   1      43.195  23.706  28.226  1.00  0.00     0.037 A 
ATOM     44  C   UNL A   1      42.653  29.490  32.466  1.00  0.00     0.037 A 
ATOM     45  C   UNL A   1      44.165  24.189  29.217  1.00  0.00     0.049 A 
ATOM     46  C   UNL A   1      43.281  28.255  33.064  1.00  0.00     0.074 A 
ATOM     47  C   UNL A   1      45.299  24.981  29.123  1.00  0.00     0.029 A 
ATOM     48  N   UNL A   1      43.858  24.114  30.576  1.00  0.00    -0.354 N 
ATOM     49  N   UNL A   1      43.630  27.203  32.374  1.00  0.00    -0.248 NA
ATOM     50  C   UNL A   1      43.562  28.106  34.489  1.00  0.00     0.031 C 
ATOM     51  C   UNL A   1      45.624  25.448  30.423  1.00  0.00     0.029 A 
ATOM     52  C   UNL A   1      44.708  24.917  31.316  1.00  0.00     0.049 A 
ATOM     53  H   UNL A   1      43.136  23.565  30.957  1.00  0.00     0.167 HD
ATOM     54  C   UNL A   1      44.152  26.253  33.215  1.00  0.00     0.074 A 
ATOM     55  C   UNL A   1      44.113  26.879  34.525  1.00  0.00     0.031 C 
ATOM     56  C   UNL A   1      44.572  25.031  32.765  1.00  0.00     0.037 A 
BRANCH  43  57
ATOM     57  C   UNL A   1      43.548  22.792  27.050  1.00  0.00     0.058 A 
ATOM     58  C   UNL A   1      42.849  21.583  26.834  1.00  0.00     0.135 A 
ATOM     59  C   UNL A   1      44.639  22.979  26.175  1.00  0.00     0.135 A 
ATOM     60  F   UNL A   1      41.706  21.311  27.478  1.00  0.00    -0.206 F 
ATOM     61  C   UNL A   1      43.288  20.588  25.950  1.00  0.00     0.059 A 
ATOM     62  C   UNL A   1      45.133  21.983  25.328  1.00  0.00     0.059 A 
ATOM     63  F   UNL A   1      45.239  24.166  26.044  1.00  0.00    -0.206 F 
ATOM     64  C   UNL A   1      44.463  20.776  25.236  1.00  0.00     0.060 A 
BRANCH  64  65
ATOM     65  S   UNL A   1      45.086  19.455  24.181  1.00  0.00     0.124 S 
ATOM     66  O   UNL A   1      46.531  19.615  24.305  1.00  0.00    -0.237 OA
ATOM     67  O   UNL A   1      44.521  18.268  24.812  1.00  0.00    -0.237 OA
ATOM     68  O   UNL A   1      44.540  19.783  22.866  1.00  0.00    -0.744 OA
ENDBRANCH  64  65
ENDBRANCH  43  57
BRANCH  44  69
ATOM     69  C   UNL A   1      41.496  30.246  33.012  1.00  0.00     0.058 A 
ATOM     70  C   UNL A   1      40.302  29.535  33.238  1.00  0.00     0.135 A 
ATOM     71  C   UNL A   1      41.640  31.483  33.651  1.00  0.00     0.135 A 
ATOM     72  F   UNL A   1      40.104  28.348  32.641  1.00  0.00    -0.206 F 
ATOM     73  C   UNL A   1      39.352  29.964  34.160  1.00  0.00     0.059 A 
ATOM     74  C   UNL A   1      40.700  31.934  34.585  1.00  0.00     0.059 A 
ATOM     75  F   UNL A   1      42.751  32.212  33.468  1.00  0.00    -0.206 F 
ATOM     76  C   UNL A   1      39.593  31.134  34.874  1.00  0.00     0.060 A 
BRANCH  76  77
ATOM     77  S   UNL A   1      38.501  31.506  36.268  1.00  0.00     0.124 S 
ATOM     78  O   UNL A   1      39.360  32.324  37.118  1.00  0.00    -0.237 OA
ATOM     79  O   UNL A   1      37.410  32.224  35.609  1.00  0.00    -0.237 OA
ATOM     80  O   UNL A   1      38.164  30.188  36.790  1.00  0.00    -0.744 OA
ENDBRANCH  76  77
ENDBRANCH  44  69
BRANCH  56  81
ATOM     81  C   UNL A   1      44.999  23.864  33.633  1.00  0.00     0.058 A 
ATOM     82  C   UNL A   1      44.140  22.834  34.054  1.00  0.00     0.135 A 
ATOM     83  C   UNL A   1      46.365  23.682  33.966  1.00  0.00     0.135 A 
ATOM     84  F   UNL A   1      42.845  22.819  33.706  1.00  0.00    -0.206 F 
ATOM     85  C   UNL A   1      44.583  21.743  34.809  1.00  0.00     0.059 A 
ATOM     86  C   UNL A   1      46.838  22.576  34.667  1.00  0.00     0.059 A 
ATOM     87  F   UNL A   1      47.298  24.577  33.604  1.00  0.00    -0.206 F 
ATOM     88  C   UNL A   1      45.935  21.619  35.108  1.00  0.00     0.060 A 
BRANCH  88  89
ATOM     89  S   UNL A   1      46.540  20.176  36.003  1.00  0.00     0.124 S 
ATOM     90  O   UNL A   1      46.396  19.126  35.000  1.00  0.00    -0.237 OA
ATOM     91  O   UNL A   1      47.914  20.547  36.332  1.00  0.00    -0.237 OA
ATOM     92  O   UNL A   1      45.634  20.094  37.144  1.00  0.00    -0.744 OA
ENDBRANCH  88  89
ENDBRANCH  56  81
ENDBRANCH  30  31
ENDBRANCH  22  25
ENDBRANCH   1  21
TORSDOF 14
ENDMDL
