MODEL 1
REMARK VINA RESULT:     -13.4      0.000      0.000
REMARK SMILES CN1C(=O)C[C@@H](C(=O)NCCCNC(=O)c2ccc(-c3c4nc(c(-c5c(F)cc(S(=O)(=O)[O-])cc5F)c5ccc([nH]5)c(-c5c(F)cc(S(=O)(=O)[O-])cc5F)c5nc(c(-c6c(F)cc(S(=O)(=O)[O-])cc6F)c6ccc3[nH]6)C=C5)C=C4)cc2)C12CCN(S(=O)(=O)c1ccccc1F)CC2
REMARK SMILES IDX 11 1 10 2 9 3 7 4 8 5 6 7 1 8 2 9 3 10 82 11 4 12 5 13 83 14
REMARK SMILES IDX 97 15 84 16 96 17 85 18 86 19 87 20 88 21 89 22 90 23 94 24
REMARK SMILES IDX 91 25 93 26 95 27 92 28 12 29 13 30 14 31 15 33 16 34 17 35
REMARK SMILES IDX 81 36 18 37 80 38 19 39 20 40 21 41 74 42 22 43 79 44 73 45
REMARK SMILES IDX 75 46 23 47 78 48 72 49 71 50 24 52 58 53 37 54 57 55 38 56
REMARK SMILES IDX 41 57 56 58 76 59 39 60 40 61 55 63 77 64 42 65 25 66 26 67
REMARK SMILES IDX 35 68 27 69 28 70 34 71 36 72 29 73 30 74 31 75 32 76 33 77
REMARK SMILES IDX 59 78 60 79 69 80 61 81 62 82 68 83 70 84 63 85 64 86 65 87
REMARK SMILES IDX 66 88 67 89 43 90 44 91 53 92 45 93 46 94 52 95 54 96 47 97
REMARK SMILES IDX 48 98 49 99 50 100 51 101
REMARK H PARENT 9 6 13 32 75 51 41 62
REMARK Flexibility Score: inf
ROOT
ATOM      1  C   UNL A   1      34.811  29.375  27.679  1.00  0.00     0.042 C 
ENDROOT
BRANCH   1   2
ATOM      2  C   UNL A   1      34.327  29.350  26.227  1.00  0.00     0.117 C 
BRANCH   2   3
ATOM      3  N   UNL A   1      33.015  29.954  26.022  1.00  0.00    -0.356 N 
ATOM      4  C   UNL A   1      31.976  29.720  25.184  1.00  0.00     0.226 C 
ATOM      5  O   UNL A   1      30.995  30.461  25.328  1.00  0.00    -0.275 OA
ATOM      6  H   UNL A   1      32.845  30.706  26.634  1.00  0.00     0.163 HD
BRANCH   4   7
ATOM      7  C   UNL A   1      31.934  28.678  24.066  1.00  0.00     0.113 C 
ATOM      8  C   UNL A   1      28.712  26.797  23.767  1.00  0.00     0.147 C 
ATOM      9  N   UNL A   1      29.904  27.619  23.623  1.00  0.00    -0.339 N 
ATOM     10  C   UNL A   1      30.027  28.577  22.627  1.00  0.00     0.223 C 
ATOM     11  C   UNL A   1      31.167  27.361  24.335  1.00  0.00     0.057 C 
ATOM     12  O   UNL A   1      29.193  28.883  21.791  1.00  0.00    -0.275 OA
ATOM     13  C   UNL A   1      31.381  29.222  22.750  1.00  0.00     0.116 C 
ATOM     14  C   UNL A   1      30.984  27.059  25.835  1.00  0.00     0.046 C 
ATOM     15  C   UNL A   1      31.876  26.158  23.626  1.00  0.00     0.046 C 
ATOM     16  C   UNL A   1      32.234  26.485  26.483  1.00  0.00     0.105 C 
ATOM     17  C   UNL A   1      33.031  25.529  24.410  1.00  0.00     0.105 C 
ATOM     18  N   UNL A   1      32.646  25.235  25.819  1.00  0.00    -0.198 NA
BRANCH  18  19
ATOM     19  S   UNL A   1      31.694  23.815  26.021  1.00  0.00     0.245 S 
ATOM     20  O   UNL A   1      31.384  23.656  27.424  1.00  0.00    -0.207 OA
ATOM     21  O   UNL A   1      30.610  23.931  25.064  1.00  0.00    -0.207 OA
BRANCH  19  22
ATOM     22  C   UNL A   1      32.697  22.449  25.518  1.00  0.00     0.118 A 
ATOM     23  C   UNL A   1      32.203  21.524  24.590  1.00  0.00     0.025 A 
ATOM     24  C   UNL A   1      33.916  22.203  26.144  1.00  0.00     0.143 A 
ATOM     25  C   UNL A   1      32.954  20.387  24.273  1.00  0.00     0.002 A 
ATOM     26  C   UNL A   1      34.678  21.086  25.809  1.00  0.00     0.041 A 
ATOM     27  F   UNL A   1      34.412  23.033  27.069  1.00  0.00    -0.206 F 
ATOM     28  C   UNL A   1      34.195  20.173  24.874  1.00  0.00     0.003 A 
ENDBRANCH  19  22
ENDBRANCH  18  19
ENDBRANCH   4   7
ENDBRANCH   2   3
ENDBRANCH   1   2
BRANCH   1  29
ATOM     29  C   UNL A   1      35.379  30.716  28.140  1.00  0.00     0.118 C 
BRANCH  29  30
ATOM     30  N   UNL A   1      35.402  30.826  29.590  1.00  0.00    -0.352 N 
ATOM     31  C   UNL A   1      36.342  30.397  30.496  1.00  0.00     0.251 C 
ATOM     32  H   UNL A   1      34.622  31.278  29.985  1.00  0.00     0.163 HD
ATOM     33  O   UNL A   1      36.042  30.357  31.687  1.00  0.00    -0.269 OA
BRANCH  31  34
ATOM     34  C   UNL A   1      37.701  29.986  30.067  1.00  0.00     0.039 A 
ATOM     35  C   UNL A   1      38.596  29.516  31.033  1.00  0.00     0.014 A 
ATOM     36  C   UNL A   1      38.129  30.140  28.745  1.00  0.00     0.014 A 
ATOM     37  C   UNL A   1      39.901  29.162  30.669  1.00  0.00     0.010 A 
ATOM     38  C   UNL A   1      39.413  29.734  28.372  1.00  0.00     0.010 A 
ATOM     39  C   UNL A   1      40.315  29.249  29.331  1.00  0.00    -0.014 A 
BRANCH  39  40
ATOM     40  C   UNL A   1      41.689  28.850  28.923  1.00  0.00     0.031 A 
ATOM     41  C   UNL A   1      42.804  29.861  28.906  1.00  0.00     0.074 A 
ATOM     42  C   UNL A   1      41.924  27.587  28.516  1.00  0.00     0.049 A 
ATOM     43  N   UNL A   1      44.045  29.718  28.513  1.00  0.00    -0.248 NA
ATOM     44  C   UNL A   1      42.476  31.218  29.368  1.00  0.00     0.031 C 
ATOM     45  C   UNL A   1      40.923  26.522  28.443  1.00  0.00     0.029 A 
ATOM     46  N   UNL A   1      43.078  26.988  28.075  1.00  0.00    -0.354 N 
ATOM     47  C   UNL A   1      44.638  30.966  28.657  1.00  0.00     0.074 A 
ATOM     48  C   UNL A   1      43.611  31.866  29.140  1.00  0.00     0.031 C 
ATOM     49  C   UNL A   1      41.509  25.397  28.001  1.00  0.00     0.029 A 
ATOM     50  C   UNL A   1      42.918  25.667  27.733  1.00  0.00     0.049 A 
ATOM     51  H   UNL A   1      43.939  27.461  28.010  1.00  0.00     0.167 HD
ATOM     52  C   UNL A   1      45.923  31.329  28.425  1.00  0.00     0.037 A 
ATOM     53  C   UNL A   1      43.804  24.772  27.252  1.00  0.00     0.037 A 
ATOM     54  C   UNL A   1      46.955  30.427  27.984  1.00  0.00     0.049 A 
ATOM     55  C   UNL A   1      45.232  25.188  27.036  1.00  0.00     0.074 A 
ATOM     56  C   UNL A   1      48.299  30.688  27.782  1.00  0.00     0.029 A 
ATOM     57  N   UNL A   1      46.760  29.087  27.683  1.00  0.00    -0.354 N 
ATOM     58  N   UNL A   1      45.784  26.363  27.221  1.00  0.00    -0.248 NA
ATOM     59  C   UNL A   1      46.159  24.156  26.551  1.00  0.00     0.031 C 
ATOM     60  C   UNL A   1      48.913  29.511  27.335  1.00  0.00     0.029 A 
ATOM     61  C   UNL A   1      47.955  28.510  27.287  1.00  0.00     0.049 A 
ATOM     62  H   UNL A   1      45.898  28.615  27.743  1.00  0.00     0.167 HD
ATOM     63  C   UNL A   1      47.126  26.207  26.893  1.00  0.00     0.074 A 
ATOM     64  C   UNL A   1      47.305  24.822  26.508  1.00  0.00     0.031 C 
ATOM     65  C   UNL A   1      48.120  27.129  26.909  1.00  0.00     0.037 A 
BRANCH  52  66
ATOM     66  C   UNL A   1      46.287  32.771  28.647  1.00  0.00     0.058 A 
ATOM     67  C   UNL A   1      46.723  33.233  29.900  1.00  0.00     0.135 A 
ATOM     68  C   UNL A   1      46.218  33.696  27.594  1.00  0.00     0.135 A 
ATOM     69  F   UNL A   1      46.794  32.393  30.943  1.00  0.00    -0.206 F 
ATOM     70  C   UNL A   1      47.044  34.571  30.108  1.00  0.00     0.059 A 
ATOM     71  C   UNL A   1      46.557  35.034  27.775  1.00  0.00     0.059 A 
ATOM     72  F   UNL A   1      45.809  33.306  26.377  1.00  0.00    -0.206 F 
ATOM     73  C   UNL A   1      46.952  35.466  29.041  1.00  0.00     0.060 A 
BRANCH  73  74
ATOM     74  S   UNL A   1      47.356  37.202  29.326  1.00  0.00     0.124 S 
ATOM     75  O   UNL A   1      48.180  37.114  30.527  1.00  0.00    -0.237 OA
ATOM     76  O   UNL A   1      48.062  37.567  28.100  1.00  0.00    -0.237 OA
ATOM     77  O   UNL A   1      46.051  37.829  29.503  1.00  0.00    -0.744 OA
ENDBRANCH  73  74
ENDBRANCH  52  66
BRANCH  53  78
ATOM     78  C   UNL A   1      43.366  23.381  26.972  1.00  0.00     0.058 A 
ATOM     79  C   UNL A   1      43.162  22.944  25.654  1.00  0.00     0.135 A 
ATOM     80  C   UNL A   1      43.172  22.455  28.008  1.00  0.00     0.135 A 
ATOM     81  F   UNL A   1      43.330  23.799  24.633  1.00  0.00    -0.206 F 
ATOM     82  C   UNL A   1      42.774  21.640  25.372  1.00  0.00     0.059 A 
ATOM     83  C   UNL A   1      42.802  21.140  27.749  1.00  0.00     0.059 A 
ATOM     84  F   UNL A   1      43.370  22.823  29.283  1.00  0.00    -0.206 F 
ATOM     85  C   UNL A   1      42.598  20.744  26.428  1.00  0.00     0.060 A 
BRANCH  85  86
ATOM     86  S   UNL A   1      42.155  19.034  26.050  1.00  0.00     0.124 S 
ATOM     87  O   UNL A   1      42.562  18.349  27.271  1.00  0.00    -0.237 OA
ATOM     88  O   UNL A   1      40.717  19.131  25.820  1.00  0.00    -0.237 OA
ATOM     89  O   UNL A   1      42.952  18.739  24.863  1.00  0.00    -0.744 OA
ENDBRANCH  85  86
ENDBRANCH  53  78
BRANCH  65  90
ATOM     90  C   UNL A   1      49.493  26.668  26.518  1.00  0.00     0.058 A 
ATOM     91  C   UNL A   1      50.348  26.046  27.440  1.00  0.00     0.135 A 
ATOM     92  C   UNL A   1      49.942  26.809  25.195  1.00  0.00     0.135 A 
ATOM     93  F   UNL A   1      49.967  25.894  28.717  1.00  0.00    -0.206 F 
ATOM     94  C   UNL A   1      51.611  25.596  27.068  1.00  0.00     0.059 A 
ATOM     95  C   UNL A   1      51.193  26.349  24.797  1.00  0.00     0.059 A 
ATOM     96  F   UNL A   1      49.158  27.391  24.273  1.00  0.00    -0.206 F 
ATOM     97  C   UNL A   1      52.025  25.754  25.744  1.00  0.00     0.060 A 
BRANCH  97  98
ATOM     98  S   UNL A   1      53.653  25.138  25.263  1.00  0.00     0.124 S 
ATOM     99  O   UNL A   1      53.443  23.694  25.302  1.00  0.00    -0.237 OA
ATOM    100  O   UNL A   1      53.831  25.717  23.934  1.00  0.00    -0.237 OA
ATOM    101  O   UNL A   1      54.535  25.673  26.295  1.00  0.00    -0.744 OA
ENDBRANCH  97  98
ENDBRANCH  65  90
ENDBRANCH  39  40
ENDBRANCH  31  34
ENDBRANCH  29  30
ENDBRANCH   1  29
TORSDOF 15
ENDMDL
MODEL 2
REMARK VINA RESULT:     -13.2      2.982      4.009
REMARK SMILES CN1C(=O)C[C@@H](C(=O)NCCCNC(=O)c2ccc(-c3c4nc(c(-c5c(F)cc(S(=O)(=O)[O-])cc5F)c5ccc([nH]5)c(-c5c(F)cc(S(=O)(=O)[O-])cc5F)c5nc(c(-c6c(F)cc(S(=O)(=O)[O-])cc6F)c6ccc3[nH]6)C=C5)C=C4)cc2)C12CCN(S(=O)(=O)c1ccccc1F)CC2
REMARK SMILES IDX 11 1 10 2 9 3 7 4 8 5 6 7 1 8 2 9 3 10 82 11 4 12 5 13 83 14
REMARK SMILES IDX 97 15 84 16 96 17 85 18 86 19 87 20 88 21 89 22 90 23 94 24
REMARK SMILES IDX 91 25 93 26 95 27 92 28 12 29 13 30 14 31 15 33 16 34 17 35
REMARK SMILES IDX 81 36 18 37 80 38 19 39 20 40 21 41 74 42 22 43 79 44 73 45
REMARK SMILES IDX 75 46 23 47 78 48 72 49 71 50 24 52 58 53 37 54 57 55 38 56
REMARK SMILES IDX 41 57 56 58 76 59 39 60 40 61 55 63 77 64 42 65 25 66 26 67
REMARK SMILES IDX 35 68 27 69 28 70 34 71 36 72 29 73 30 74 31 75 32 76 33 77
REMARK SMILES IDX 59 78 60 79 69 80 61 81 62 82 68 83 70 84 63 85 64 86 65 87
REMARK SMILES IDX 66 88 67 89 43 90 44 91 53 92 45 93 46 94 52 95 54 96 47 97
REMARK SMILES IDX 48 98 49 99 50 100 51 101
REMARK H PARENT 9 6 13 32 75 51 41 62
REMARK Flexibility Score: inf
ROOT
ATOM      1  C   UNL A   1      34.087  27.982  25.069  1.00  0.00     0.042 C 
ENDROOT
BRANCH   1   2
ATOM      2  C   UNL A   1      32.915  27.952  24.085  1.00  0.00     0.117 C 
BRANCH   2   3
ATOM      3  N   UNL A   1      33.218  27.310  22.811  1.00  0.00    -0.356 N 
ATOM      4  C   UNL A   1      32.824  26.167  22.199  1.00  0.00     0.226 C 
ATOM      5  O   UNL A   1      33.307  25.966  21.076  1.00  0.00    -0.275 OA
ATOM      6  H   UNL A   1      33.858  27.827  22.270  1.00  0.00     0.163 HD
BRANCH   4   7
ATOM      7  C   UNL A   1      31.897  25.102  22.784  1.00  0.00     0.113 C 
ATOM      8  C   UNL A   1      31.851  24.915  26.522  1.00  0.00     0.147 C 
ATOM      9  N   UNL A   1      31.596  25.053  25.096  1.00  0.00    -0.339 N 
ATOM     10  C   UNL A   1      30.455  25.671  24.604  1.00  0.00     0.223 C 
ATOM     11  C   UNL A   1      32.368  24.354  24.055  1.00  0.00     0.057 C 
ATOM     12  O   UNL A   1      29.562  26.192  25.251  1.00  0.00    -0.275 OA
ATOM     13  C   UNL A   1      30.496  25.622  23.102  1.00  0.00     0.116 C 
ATOM     14  C   UNL A   1      33.894  24.415  24.267  1.00  0.00     0.046 C 
ATOM     15  C   UNL A   1      31.888  22.864  24.026  1.00  0.00     0.046 C 
ATOM     16  C   UNL A   1      34.656  23.438  23.387  1.00  0.00     0.105 C 
ATOM     17  C   UNL A   1      32.791  21.904  23.248  1.00  0.00     0.105 C 
ATOM     18  N   UNL A   1      34.221  22.052  23.639  1.00  0.00    -0.198 NA
BRANCH  18  19
ATOM     19  S   UNL A   1      34.640  21.290  25.126  1.00  0.00     0.245 S 
ATOM     20  O   UNL A   1      33.692  21.692  26.141  1.00  0.00    -0.207 OA
ATOM     21  O   UNL A   1      34.789  19.880  24.814  1.00  0.00    -0.207 OA
BRANCH  19  22
ATOM     22  C   UNL A   1      36.233  21.900  25.584  1.00  0.00     0.118 A 
ATOM     23  C   UNL A   1      36.357  23.177  26.147  1.00  0.00     0.025 A 
ATOM     24  C   UNL A   1      37.382  21.184  25.258  1.00  0.00     0.143 A 
ATOM     25  C   UNL A   1      37.627  23.702  26.410  1.00  0.00     0.002 A 
ATOM     26  C   UNL A   1      38.646  21.693  25.546  1.00  0.00     0.041 A 
ATOM     27  F   UNL A   1      37.319  19.979  24.681  1.00  0.00    -0.206 F 
ATOM     28  C   UNL A   1      38.770  22.956  26.120  1.00  0.00     0.003 A 
ENDBRANCH  19  22
ENDBRANCH  18  19
ENDBRANCH   4   7
ENDBRANCH   2   3
ENDBRANCH   1   2
BRANCH   1  29
ATOM     29  C   UNL A   1      33.683  28.080  26.540  1.00  0.00     0.118 C 
BRANCH  29  30
ATOM     30  N   UNL A   1      33.487  29.460  26.957  1.00  0.00    -0.352 N 
ATOM     31  C   UNL A   1      34.283  30.274  27.726  1.00  0.00     0.251 C 
ATOM     32  H   UNL A   1      32.654  29.876  26.639  1.00  0.00     0.163 HD
ATOM     33  O   UNL A   1      33.807  31.315  28.175  1.00  0.00    -0.269 OA
BRANCH  31  34
ATOM     34  C   UNL A   1      35.693  29.924  28.022  1.00  0.00     0.039 A 
ATOM     35  C   UNL A   1      36.030  29.538  29.324  1.00  0.00     0.014 A 
ATOM     36  C   UNL A   1      36.697  30.054  27.059  1.00  0.00     0.014 A 
ATOM     37  C   UNL A   1      37.359  29.244  29.648  1.00  0.00     0.010 A 
ATOM     38  C   UNL A   1      38.015  29.707  27.368  1.00  0.00     0.010 A 
ATOM     39  C   UNL A   1      38.362  29.306  28.668  1.00  0.00    -0.014 A 
BRANCH  39  40
ATOM     40  C   UNL A   1      39.774  28.969  28.989  1.00  0.00     0.031 A 
ATOM     41  C   UNL A   1      40.680  29.994  29.617  1.00  0.00     0.074 A 
ATOM     42  C   UNL A   1      40.261  27.754  28.667  1.00  0.00     0.049 A 
ATOM     43  N   UNL A   1      41.955  29.908  29.902  1.00  0.00    -0.248 NA
ATOM     44  C   UNL A   1      40.080  31.296  29.945  1.00  0.00     0.031 C 
ATOM     45  C   UNL A   1      39.502  26.685  28.016  1.00  0.00     0.029 A 
ATOM     46  N   UNL A   1      41.513  27.218  28.833  1.00  0.00    -0.354 N 
ATOM     47  C   UNL A   1      42.315  31.146  30.420  1.00  0.00     0.074 A 
ATOM     48  C   UNL A   1      41.132  31.980  30.376  1.00  0.00     0.031 C 
ATOM     49  C   UNL A   1      40.299  25.616  27.853  1.00  0.00     0.029 A 
ATOM     50  C   UNL A   1      41.631  25.932  28.361  1.00  0.00     0.049 A 
ATOM     51  H   UNL A   1      42.258  27.708  29.251  1.00  0.00     0.167 HD
ATOM     52  C   UNL A   1      43.515  31.550  30.902  1.00  0.00     0.037 A 
ATOM     53  C   UNL A   1      42.691  25.101  28.335  1.00  0.00     0.037 A 
ATOM     54  C   UNL A   1      44.682  30.709  30.984  1.00  0.00     0.049 A 
ATOM     55  C   UNL A   1      44.004  25.558  28.908  1.00  0.00     0.074 A 
ATOM     56  C   UNL A   1      45.925  31.010  31.515  1.00  0.00     0.029 A 
ATOM     57  N   UNL A   1      44.749  29.401  30.529  1.00  0.00    -0.354 N 
ATOM     58  N   UNL A   1      44.313  26.718  29.435  1.00  0.00    -0.248 NA
ATOM     59  C   UNL A   1      45.110  24.591  28.889  1.00  0.00     0.031 C 
ATOM     60  C   UNL A   1      46.752  29.890  31.358  1.00  0.00     0.029 A 
ATOM     61  C   UNL A   1      46.014  28.883  30.756  1.00  0.00     0.049 A 
ATOM     62  H   UNL A   1      44.007  28.913  30.105  1.00  0.00     0.167 HD
ATOM     63  C   UNL A   1      45.642  26.616  29.827  1.00  0.00     0.074 A 
ATOM     64  C   UNL A   1      46.076  25.276  29.486  1.00  0.00     0.031 C 
ATOM     65  C   UNL A   1      46.432  27.547  30.415  1.00  0.00     0.037 A 
BRANCH  52  66
ATOM     66  C   UNL A   1      43.627  32.969  31.385  1.00  0.00     0.058 A 
ATOM     67  C   UNL A   1      43.984  34.014  30.516  1.00  0.00     0.135 A 
ATOM     68  C   UNL A   1      43.356  33.293  32.724  1.00  0.00     0.135 A 
ATOM     69  F   UNL A   1      44.267  33.757  29.231  1.00  0.00    -0.206 F 
ATOM     70  C   UNL A   1      44.102  35.325  30.968  1.00  0.00     0.059 A 
ATOM     71  C   UNL A   1      43.445  34.601  33.191  1.00  0.00     0.059 A 
ATOM     72  F   UNL A   1      43.009  32.333  33.594  1.00  0.00    -0.206 F 
ATOM     73  C   UNL A   1      43.837  35.608  32.308  1.00  0.00     0.060 A 
BRANCH  73  74
ATOM     74  S   UNL A   1      44.009  37.310  32.887  1.00  0.00     0.124 S 
ATOM     75  O   UNL A   1      43.856  38.056  31.641  1.00  0.00    -0.237 OA
ATOM     76  O   UNL A   1      42.907  37.433  33.837  1.00  0.00    -0.237 OA
ATOM     77  O   UNL A   1      45.344  37.334  33.474  1.00  0.00    -0.744 OA
ENDBRANCH  73  74
ENDBRANCH  52  66
BRANCH  53  78
ATOM     78  C   UNL A   1      42.542  23.736  27.769  1.00  0.00     0.058 A 
ATOM     79  C   UNL A   1      42.580  23.526  26.383  1.00  0.00     0.135 A 
ATOM     80  C   UNL A   1      42.390  22.616  28.600  1.00  0.00     0.135 A 
ATOM     81  F   UNL A   1      42.719  24.570  25.551  1.00  0.00    -0.206 F 
ATOM     82  C   UNL A   1      42.464  22.253  25.837  1.00  0.00     0.059 A 
ATOM     83  C   UNL A   1      42.291  21.330  28.078  1.00  0.00     0.059 A 
ATOM     84  F   UNL A   1      42.363  22.766  29.933  1.00  0.00    -0.206 F 
ATOM     85  C   UNL A   1      42.322  21.160  26.694  1.00  0.00     0.060 A 
BRANCH  85  86
ATOM     86  S   UNL A   1      42.236  19.503  25.981  1.00  0.00     0.124 S 
ATOM     87  O   UNL A   1      40.811  19.379  25.697  1.00  0.00    -0.237 OA
ATOM     88  O   UNL A   1      43.111  19.620  24.818  1.00  0.00    -0.237 OA
ATOM     89  O   UNL A   1      42.744  18.653  27.053  1.00  0.00    -0.744 OA
ENDBRANCH  85  86
ENDBRANCH  53  78
BRANCH  65  90
ATOM     90  C   UNL A   1      47.840  27.146  30.745  1.00  0.00     0.058 A 
ATOM     91  C   UNL A   1      48.154  26.497  31.949  1.00  0.00     0.135 A 
ATOM     92  C   UNL A   1      48.879  27.375  29.828  1.00  0.00     0.135 A 
ATOM     93  F   UNL A   1      47.197  26.263  32.859  1.00  0.00    -0.206 F 
ATOM     94  C   UNL A   1      49.456  26.104  32.241  1.00  0.00     0.059 A 
ATOM     95  C   UNL A   1      50.184  26.972  30.093  1.00  0.00     0.059 A 
ATOM     96  F   UNL A   1      48.628  27.985  28.660  1.00  0.00    -0.206 F 
ATOM     97  C   UNL A   1      50.465  26.348  31.307  1.00  0.00     0.060 A 
BRANCH  97  98
ATOM     98  S   UNL A   1      52.146  25.804  31.682  1.00  0.00     0.124 S 
ATOM     99  O   UNL A   1      52.518  26.720  32.755  1.00  0.00    -0.237 OA
ATOM    100  O   UNL A   1      51.949  24.412  32.076  1.00  0.00    -0.237 OA
ATOM    101  O   UNL A   1      52.851  25.996  30.418  1.00  0.00    -0.744 OA
ENDBRANCH  97  98
ENDBRANCH  65  90
ENDBRANCH  39  40
ENDBRANCH  31  34
ENDBRANCH  29  30
ENDBRANCH   1  29
TORSDOF 15
ENDMDL
MODEL 3
REMARK VINA RESULT:     -13.2      6.321     11.939
REMARK SMILES CN1C(=O)C[C@@H](C(=O)NCCCNC(=O)c2ccc(-c3c4nc(c(-c5c(F)cc(S(=O)(=O)[O-])cc5F)c5ccc([nH]5)c(-c5c(F)cc(S(=O)(=O)[O-])cc5F)c5nc(c(-c6c(F)cc(S(=O)(=O)[O-])cc6F)c6ccc3[nH]6)C=C5)C=C4)cc2)C12CCN(S(=O)(=O)c1ccccc1F)CC2
REMARK SMILES IDX 11 1 10 2 9 3 7 4 8 5 6 7 1 8 2 9 3 10 82 11 4 12 5 13 83 14
REMARK SMILES IDX 97 15 84 16 96 17 85 18 86 19 87 20 88 21 89 22 90 23 94 24
REMARK SMILES IDX 91 25 93 26 95 27 92 28 12 29 13 30 14 31 15 33 16 34 17 35
REMARK SMILES IDX 81 36 18 37 80 38 19 39 20 40 21 41 74 42 22 43 79 44 73 45
REMARK SMILES IDX 75 46 23 47 78 48 72 49 71 50 24 52 58 53 37 54 57 55 38 56
REMARK SMILES IDX 41 57 56 58 76 59 39 60 40 61 55 63 77 64 42 65 25 66 26 67
REMARK SMILES IDX 35 68 27 69 28 70 34 71 36 72 29 73 30 74 31 75 32 76 33 77
REMARK SMILES IDX 59 78 60 79 69 80 61 81 62 82 68 83 70 84 63 85 64 86 65 87
REMARK SMILES IDX 66 88 67 89 43 90 44 91 53 92 45 93 46 94 52 95 54 96 47 97
REMARK SMILES IDX 48 98 49 99 50 100 51 101
REMARK H PARENT 9 6 13 32 75 51 41 62
REMARK Flexibility Score: inf
ROOT
ATOM      1  C   UNL A   1      39.004  22.782  26.531  1.00  0.00     0.042 C 
ENDROOT
BRANCH   1   2
ATOM      2  C   UNL A   1      38.076  23.876  25.997  1.00  0.00     0.117 C 
BRANCH   2   3
ATOM      3  N   UNL A   1      37.470  23.570  24.705  1.00  0.00    -0.356 N 
ATOM      4  C   UNL A   1      36.317  22.982  24.306  1.00  0.00     0.226 C 
ATOM      5  O   UNL A   1      36.145  22.915  23.082  1.00  0.00    -0.275 OA
ATOM      6  H   UNL A   1      38.029  23.859  23.948  1.00  0.00     0.163 HD
BRANCH   4   7
ATOM      7  C   UNL A   1      35.258  22.359  25.216  1.00  0.00     0.113 C 
ATOM      8  C   UNL A   1      32.274  20.949  23.450  1.00  0.00     0.147 C 
ATOM      9  N   UNL A   1      33.475  21.232  24.222  1.00  0.00    -0.339 N 
ATOM     10  C   UNL A   1      34.331  20.229  24.653  1.00  0.00     0.223 C 
ATOM     11  C   UNL A   1      33.771  22.542  24.825  1.00  0.00     0.057 C 
ATOM     12  O   UNL A   1      34.233  19.032  24.437  1.00  0.00    -0.275 OA
ATOM     13  C   UNL A   1      35.450  20.860  25.436  1.00  0.00     0.116 C 
ATOM     14  C   UNL A   1      33.534  23.732  23.873  1.00  0.00     0.046 C 
ATOM     15  C   UNL A   1      32.881  22.690  26.104  1.00  0.00     0.046 C 
ATOM     16  C   UNL A   1      33.530  25.073  24.588  1.00  0.00     0.105 C 
ATOM     17  C   UNL A   1      32.799  24.105  26.681  1.00  0.00     0.105 C 
ATOM     18  N   UNL A   1      32.486  25.113  25.629  1.00  0.00    -0.198 NA
BRANCH  18  19
ATOM     19  S   UNL A   1      30.829  25.174  25.164  1.00  0.00     0.245 S 
ATOM     20  O   UNL A   1      30.592  24.175  24.145  1.00  0.00    -0.207 OA
ATOM     21  O   UNL A   1      30.074  25.116  26.402  1.00  0.00    -0.207 OA
BRANCH  19  22
ATOM     22  C   UNL A   1      30.554  26.767  24.452  1.00  0.00     0.118 A 
ATOM     23  C   UNL A   1      31.437  27.818  24.729  1.00  0.00     0.025 A 
ATOM     24  C   UNL A   1      29.388  27.026  23.737  1.00  0.00     0.143 A 
ATOM     25  C   UNL A   1      31.160  29.104  24.252  1.00  0.00     0.002 A 
ATOM     26  C   UNL A   1      29.125  28.300  23.237  1.00  0.00     0.041 A 
ATOM     27  F   UNL A   1      28.491  26.067  23.482  1.00  0.00    -0.206 F 
ATOM     28  C   UNL A   1      30.011  29.343  23.497  1.00  0.00     0.003 A 
ENDBRANCH  19  22
ENDBRANCH  18  19
ENDBRANCH   4   7
ENDBRANCH   2   3
ENDBRANCH   1   2
BRANCH   1  29
ATOM     29  C   UNL A   1      40.296  23.295  27.164  1.00  0.00     0.118 C 
BRANCH  29  30
ATOM     30  N   UNL A   1      41.154  23.949  26.190  1.00  0.00    -0.352 N 
ATOM     31  C   UNL A   1      41.563  25.259  26.107  1.00  0.00     0.251 C 
ATOM     32  H   UNL A   1      41.497  23.363  25.477  1.00  0.00     0.163 HD
ATOM     33  O   UNL A   1      42.071  25.656  25.061  1.00  0.00    -0.269 OA
BRANCH  31  34
ATOM     34  C   UNL A   1      41.404  26.193  27.247  1.00  0.00     0.039 A 
ATOM     35  C   UNL A   1      40.327  26.008  28.121  1.00  0.00     0.014 A 
ATOM     36  C   UNL A   1      42.247  27.295  27.415  1.00  0.00     0.014 A 
ATOM     37  C   UNL A   1      40.121  26.897  29.182  1.00  0.00     0.010 A 
ATOM     38  C   UNL A   1      42.075  28.151  28.506  1.00  0.00     0.010 A 
ATOM     39  C   UNL A   1      41.005  27.967  29.396  1.00  0.00    -0.014 A 
BRANCH  39  40
ATOM     40  C   UNL A   1      40.817  28.904  30.535  1.00  0.00     0.031 A 
ATOM     41  C   UNL A   1      41.667  28.783  31.772  1.00  0.00     0.074 A 
ATOM     42  C   UNL A   1      39.844  29.834  30.481  1.00  0.00     0.049 A 
ATOM     43  N   UNL A   1      41.601  29.459  32.891  1.00  0.00    -0.248 NA
ATOM     44  C   UNL A   1      42.712  27.748  31.759  1.00  0.00     0.031 C 
ATOM     45  C   UNL A   1      38.922  30.030  29.360  1.00  0.00     0.029 A 
ATOM     46  N   UNL A   1      39.459  30.783  31.395  1.00  0.00    -0.354 N 
ATOM     47  C   UNL A   1      42.576  28.920  33.722  1.00  0.00     0.074 A 
ATOM     48  C   UNL A   1      43.196  27.834  32.991  1.00  0.00     0.031 C 
ATOM     49  C   UNL A   1      38.091  31.045  29.646  1.00  0.00     0.029 A 
ATOM     50  C   UNL A   1      38.400  31.555  30.979  1.00  0.00     0.049 A 
ATOM     51  H   UNL A   1      39.900  30.900  32.268  1.00  0.00     0.167 HD
ATOM     52  C   UNL A   1      42.934  29.301  34.971  1.00  0.00     0.037 A 
ATOM     53  C   UNL A   1      37.747  32.556  31.600  1.00  0.00     0.037 A 
ATOM     54  C   UNL A   1      42.346  30.406  35.683  1.00  0.00     0.049 A 
ATOM     55  C   UNL A   1      38.185  32.986  32.972  1.00  0.00     0.074 A 
ATOM     56  C   UNL A   1      42.685  30.908  36.929  1.00  0.00     0.029 A 
ATOM     57  N   UNL A   1      41.300  31.186  35.212  1.00  0.00    -0.354 N 
ATOM     58  N   UNL A   1      39.140  32.493  33.724  1.00  0.00    -0.248 NA
ATOM     59  C   UNL A   1      37.462  34.112  33.580  1.00  0.00     0.031 C 
ATOM     60  C   UNL A   1      41.827  31.976  37.220  1.00  0.00     0.029 A 
ATOM     61  C   UNL A   1      40.974  32.157  36.144  1.00  0.00     0.049 A 
ATOM     62  H   UNL A   1      40.855  31.065  34.342  1.00  0.00     0.167 HD
ATOM     63  C   UNL A   1      39.144  33.258  34.884  1.00  0.00     0.074 A 
ATOM     64  C   UNL A   1      38.104  34.255  34.731  1.00  0.00     0.031 C 
ATOM     65  C   UNL A   1      39.938  33.145  35.977  1.00  0.00     0.037 A 
BRANCH  52  66
ATOM     66  C   UNL A   1      44.020  28.515  35.652  1.00  0.00     0.058 A 
ATOM     67  C   UNL A   1      45.377  28.829  35.471  1.00  0.00     0.135 A 
ATOM     68  C   UNL A   1      43.702  27.449  36.509  1.00  0.00     0.135 A 
ATOM     69  F   UNL A   1      45.735  29.829  34.652  1.00  0.00    -0.206 F 
ATOM     70  C   UNL A   1      46.382  28.090  36.089  1.00  0.00     0.059 A 
ATOM     71  C   UNL A   1      44.690  26.713  37.155  1.00  0.00     0.059 A 
ATOM     72  F   UNL A   1      42.420  27.109  36.718  1.00  0.00    -0.206 F 
ATOM     73  C   UNL A   1      46.029  27.029  36.924  1.00  0.00     0.060 A 
BRANCH  73  74
ATOM     74  S   UNL A   1      47.340  26.068  37.708  1.00  0.00     0.124 S 
ATOM     75  O   UNL A   1      47.498  26.775  38.976  1.00  0.00    -0.237 OA
ATOM     76  O   UNL A   1      46.747  24.737  37.796  1.00  0.00    -0.237 OA
ATOM     77  O   UNL A   1      48.455  26.193  36.775  1.00  0.00    -0.744 OA
ENDBRANCH  73  74
ENDBRANCH  52  66
BRANCH  53  78
ATOM     78  C   UNL A   1      36.626  33.242  30.911  1.00  0.00     0.058 A 
ATOM     79  C   UNL A   1      35.299  33.029  31.312  1.00  0.00     0.135 A 
ATOM     80  C   UNL A   1      36.858  34.144  29.861  1.00  0.00     0.135 A 
ATOM     81  F   UNL A   1      35.030  32.171  32.308  1.00  0.00    -0.206 F 
ATOM     82  C   UNL A   1      34.238  33.680  30.692  1.00  0.00     0.059 A 
ATOM     83  C   UNL A   1      35.814  34.820  29.238  1.00  0.00     0.059 A 
ATOM     84  F   UNL A   1      38.112  34.391  29.452  1.00  0.00    -0.206 F 
ATOM     85  C   UNL A   1      34.507  34.576  29.656  1.00  0.00     0.060 A 
BRANCH  85  86
ATOM     86  S   UNL A   1      33.129  35.465  28.898  1.00  0.00     0.124 S 
ATOM     87  O   UNL A   1      33.829  36.484  28.123  1.00  0.00    -0.237 OA
ATOM     88  O   UNL A   1      32.471  34.415  28.126  1.00  0.00    -0.237 OA
ATOM     89  O   UNL A   1      32.374  35.952  30.049  1.00  0.00    -0.744 OA
ENDBRANCH  85  86
ENDBRANCH  53  78
BRANCH  65  90
ATOM     90  C   UNL A   1      39.727  34.134  37.086  1.00  0.00     0.058 A 
ATOM     91  C   UNL A   1      38.861  33.862  38.156  1.00  0.00     0.135 A 
ATOM     92  C   UNL A   1      40.431  35.349  37.100  1.00  0.00     0.135 A 
ATOM     93  F   UNL A   1      38.161  32.718  38.183  1.00  0.00    -0.206 F 
ATOM     94  C   UNL A   1      38.686  34.770  39.195  1.00  0.00     0.059 A 
ATOM     95  C   UNL A   1      40.285  36.263  38.139  1.00  0.00     0.059 A 
ATOM     96  F   UNL A   1      41.276  35.653  36.103  1.00  0.00    -0.206 F 
ATOM     97  C   UNL A   1      39.401  35.969  39.177  1.00  0.00     0.060 A 
BRANCH  97  98
ATOM     98  S   UNL A   1      39.193  37.127  40.547  1.00  0.00     0.124 S 
ATOM     99  O   UNL A   1      38.255  38.089  39.977  1.00  0.00    -0.237 OA
ATOM    100  O   UNL A   1      38.660  36.274  41.605  1.00  0.00    -0.237 OA
ATOM    101  O   UNL A   1      40.545  37.627  40.775  1.00  0.00    -0.744 OA
ENDBRANCH  97  98
ENDBRANCH  65  90
ENDBRANCH  39  40
ENDBRANCH  31  34
ENDBRANCH  29  30
ENDBRANCH   1  29
TORSDOF 15
ENDMDL
