MODEL 1
REMARK VINA RESULT:     -11.8      0.000      0.000
REMARK SMILES Cc1nc(CCc2ccc(S(=O)(=O)N3CCCC3)cc2)ncc1C(=O)NCCCNC(=O)c1ccc(-c2c3nc(c(-c4c(F)cc(S(=O)(=O)[O-])cc4F)c4ccc([nH]4)c(-c4c(F)cc(S(=O)(=O)[O-])cc4F)c4nc(c(-c5c(F)cc(S(=O)(=O)[O-])cc5F)c5ccc2[nH]5)C=C4)C=C3)cc1
REMARK SMILES IDX 27 1 26 2 24 3 25 4 23 6 1 7 2 8 3 9 4 10 22 11 21 12 5 13
REMARK SMILES IDX 6 14 7 15 8 16 20 17 9 18 19 19 10 20 11 21 12 22 13 23
REMARK SMILES IDX 14 24 15 25 18 26 16 27 17 28 28 29 29 30 30 31 31 32 32 34
REMARK SMILES IDX 33 35 34 36 98 37 35 38 97 39 36 40 37 41 38 42 91 43 39 44
REMARK SMILES IDX 96 45 90 46 92 47 40 48 95 49 89 50 88 51 41 53 75 54 54 55
REMARK SMILES IDX 74 56 55 57 58 58 73 59 93 60 56 61 57 62 72 64 94 65 59 66
REMARK SMILES IDX 42 67 43 68 52 69 44 70 45 71 51 72 53 73 46 74 47 75 48 76
REMARK SMILES IDX 49 77 50 78 76 79 77 80 86 81 78 82 79 83 85 84 87 85 80 86
REMARK SMILES IDX 81 87 82 88 83 89 84 90 60 91 61 92 70 93 62 94 63 95 69 96
REMARK SMILES IDX 71 97 64 98 65 99 66 100 67 101 68 102
REMARK H PARENT 26 5 30 33 92 52 58 63
REMARK Flexibility Score: inf
ROOT
ATOM      1  C   UNL A   1      43.286  22.270  26.368  1.00  0.00     0.118 C 
ENDROOT
BRANCH   1   2
ATOM      2  N   UNL A   1      43.057  21.053  27.107  1.00  0.00    -0.352 N 
ATOM      3  C   UNL A   1      41.952  20.237  27.179  1.00  0.00     0.254 C 
ATOM      4  O   UNL A   1      42.056  19.226  27.878  1.00  0.00    -0.269 OA
ATOM      5  H   UNL A   1      43.821  20.756  27.651  1.00  0.00     0.163 HD
BRANCH   3   6
ATOM      6  C   UNL A   1      40.627  20.517  26.565  1.00  0.00     0.079 A 
ATOM      7  C   UNL A   1      40.059  22.927  27.308  1.00  0.00     0.068 C 
ATOM      8  C   UNL A   1      39.834  21.653  26.571  1.00  0.00     0.054 A 
ATOM      9  N   UNL A   1      38.638  21.694  25.929  1.00  0.00    -0.237 NA
ATOM     10  C   UNL A   1      38.195  20.602  25.295  1.00  0.00     0.128 A 
ATOM     11  C   UNL A   1      40.120  19.483  25.783  1.00  0.00     0.129 A 
ATOM     12  N   UNL A   1      38.909  19.479  25.167  1.00  0.00    -0.241 NA
BRANCH  10  13
ATOM     13  C   UNL A   1      36.760  20.630  24.856  1.00  0.00     0.082 C 
BRANCH  13  14
ATOM     14  C   UNL A   1      35.899  21.519  25.767  1.00  0.00     0.043 C 
BRANCH  14  15
ATOM     15  C   UNL A   1      35.304  22.759  25.123  1.00  0.00    -0.047 A 
ATOM     16  C   UNL A   1      35.089  22.813  23.741  1.00  0.00     0.005 A 
ATOM     17  C   UNL A   1      34.949  23.876  25.901  1.00  0.00     0.005 A 
ATOM     18  C   UNL A   1      34.537  23.956  23.152  1.00  0.00     0.022 A 
ATOM     19  C   UNL A   1      34.398  25.026  25.316  1.00  0.00     0.022 A 
ATOM     20  C   UNL A   1      34.196  25.066  23.937  1.00  0.00     0.082 A 
BRANCH  20  21
ATOM     21  S   UNL A   1      33.526  26.503  23.111  1.00  0.00     0.243 S 
ATOM     22  O   UNL A   1      34.140  27.654  23.754  1.00  0.00    -0.207 OA
ATOM     23  O   UNL A   1      33.646  26.269  21.696  1.00  0.00    -0.207 OA
BRANCH  21  24
ATOM     24  N   UNL A   1      31.903  26.572  23.502  1.00  0.00    -0.198 NA
ATOM     25  C   UNL A   1      31.413  27.254  24.700  1.00  0.00     0.102 C 
ATOM     26  C   UNL A   1      30.945  25.559  23.032  1.00  0.00     0.102 C 
ATOM     27  C   UNL A   1      30.310  26.327  25.192  1.00  0.00     0.018 C 
ATOM     28  C   UNL A   1      29.717  25.782  23.909  1.00  0.00     0.018 C 
ENDBRANCH  21  24
ENDBRANCH  20  21
ENDBRANCH  14  15
ENDBRANCH  13  14
ENDBRANCH  10  13
ENDBRANCH   3   6
ENDBRANCH   1   2
BRANCH   1  29
ATOM     29  C   UNL A   1      44.540  23.043  26.728  1.00  0.00     0.042 C 
BRANCH  29  30
ATOM     30  C   UNL A   1      44.535  24.540  26.440  1.00  0.00     0.118 C 
BRANCH  30  31
ATOM     31  N   UNL A   1      43.421  25.023  25.630  1.00  0.00    -0.352 N 
ATOM     32  C   UNL A   1      42.410  25.922  25.895  1.00  0.00     0.251 C 
ATOM     33  H   UNL A   1      43.385  24.635  24.726  1.00  0.00     0.163 HD
ATOM     34  O   UNL A   1      41.558  26.114  25.028  1.00  0.00    -0.269 OA
BRANCH  32  35
ATOM     35  C   UNL A   1      42.295  26.607  27.206  1.00  0.00     0.039 A 
ATOM     36  C   UNL A   1      42.923  27.847  27.380  1.00  0.00     0.014 A 
ATOM     37  C   UNL A   1      41.573  26.056  28.260  1.00  0.00     0.014 A 
ATOM     38  C   UNL A   1      42.736  28.567  28.566  1.00  0.00     0.010 A 
ATOM     39  C   UNL A   1      41.283  26.823  29.384  1.00  0.00     0.010 A 
ATOM     40  C   UNL A   1      41.867  28.084  29.556  1.00  0.00    -0.014 A 
BRANCH  40  41
ATOM     41  C   UNL A   1      41.562  28.860  30.788  1.00  0.00     0.031 A 
ATOM     42  C   UNL A   1      40.402  29.821  30.803  1.00  0.00     0.074 A 
ATOM     43  C   UNL A   1      42.378  28.767  31.858  1.00  0.00     0.049 A 
ATOM     44  N   UNL A   1      40.043  30.671  31.730  1.00  0.00    -0.248 NA
ATOM     45  C   UNL A   1      39.552  29.856  29.599  1.00  0.00     0.031 C 
ATOM     46  C   UNL A   1      43.563  27.911  31.952  1.00  0.00     0.029 A 
ATOM     47  N   UNL A   1      42.343  29.412  33.071  1.00  0.00    -0.354 N 
ATOM     48  C   UNL A   1      38.945  31.352  31.215  1.00  0.00     0.074 A 
ATOM     49  C   UNL A   1      38.738  30.865  29.870  1.00  0.00     0.031 C 
ATOM     50  C   UNL A   1      44.123  28.061  33.163  1.00  0.00     0.029 A 
ATOM     51  C   UNL A   1      43.369  29.058  33.916  1.00  0.00     0.049 A 
ATOM     52  H   UNL A   1      41.648  30.066  33.312  1.00  0.00     0.167 HD
ATOM     53  C   UNL A   1      38.160  32.275  31.820  1.00  0.00     0.037 A 
ATOM     54  C   UNL A   1      43.675  29.495  35.153  1.00  0.00     0.037 A 
ATOM     55  C   UNL A   1      38.354  32.732  33.170  1.00  0.00     0.049 A 
ATOM     56  C   UNL A   1      42.796  30.532  35.800  1.00  0.00     0.074 A 
ATOM     57  C   UNL A   1      37.583  33.623  33.895  1.00  0.00     0.029 A 
ATOM     58  N   UNL A   1      39.393  32.335  34.000  1.00  0.00    -0.354 N 
ATOM     59  N   UNL A   1      41.726  31.122  35.320  1.00  0.00    -0.248 NA
ATOM     60  C   UNL A   1      43.160  30.962  37.157  1.00  0.00     0.031 C 
ATOM     61  C   UNL A   1      38.185  33.806  35.144  1.00  0.00     0.029 A 
ATOM     62  C   UNL A   1      39.296  32.980  35.221  1.00  0.00     0.049 A 
ATOM     63  H   UNL A   1      40.096  31.690  33.756  1.00  0.00     0.167 HD
ATOM     64  C   UNL A   1      41.271  31.965  36.329  1.00  0.00     0.074 A 
ATOM     65  C   UNL A   1      42.176  31.800  37.448  1.00  0.00     0.031 C 
ATOM     66  C   UNL A   1      40.200  32.797  36.330  1.00  0.00     0.037 A 
BRANCH  53  67
ATOM     67  C   UNL A   1      37.013  32.846  31.027  1.00  0.00     0.058 A 
ATOM     68  C   UNL A   1      37.204  33.865  30.081  1.00  0.00     0.135 A 
ATOM     69  C   UNL A   1      35.712  32.342  31.190  1.00  0.00     0.135 A 
ATOM     70  F   UNL A   1      38.422  34.399  29.895  1.00  0.00    -0.206 F 
ATOM     71  C   UNL A   1      36.144  34.386  29.346  1.00  0.00     0.059 A 
ATOM     72  C   UNL A   1      34.642  32.825  30.442  1.00  0.00     0.059 A 
ATOM     73  F   UNL A   1      35.470  31.370  32.083  1.00  0.00    -0.206 F 
ATOM     74  C   UNL A   1      34.866  33.857  29.532  1.00  0.00     0.060 A 
BRANCH  74  75
ATOM     75  S   UNL A   1      33.504  34.539  28.564  1.00  0.00     0.124 S 
ATOM     76  O   UNL A   1      34.167  35.632  27.859  1.00  0.00    -0.237 OA
ATOM     77  O   UNL A   1      33.109  33.402  27.739  1.00  0.00    -0.237 OA
ATOM     78  O   UNL A   1      32.534  34.944  29.577  1.00  0.00    -0.744 OA
ENDBRANCH  74  75
ENDBRANCH  53  67
BRANCH  54  79
ATOM     79  C   UNL A   1      44.852  28.936  35.874  1.00  0.00     0.058 A 
ATOM     80  C   UNL A   1      46.127  29.500  35.715  1.00  0.00     0.135 A 
ATOM     81  C   UNL A   1      44.730  27.834  36.735  1.00  0.00     0.135 A 
ATOM     82  F   UNL A   1      46.298  30.551  34.898  1.00  0.00    -0.206 F 
ATOM     83  C   UNL A   1      47.242  28.979  36.364  1.00  0.00     0.059 A 
ATOM     84  C   UNL A   1      45.825  27.314  37.419  1.00  0.00     0.059 A 
ATOM     85  F   UNL A   1      43.529  27.268  36.936  1.00  0.00    -0.206 F 
ATOM     86  C   UNL A   1      47.080  27.887  37.216  1.00  0.00     0.060 A 
BRANCH  86  87
ATOM     87  S   UNL A   1      48.531  27.237  38.073  1.00  0.00     0.124 S 
ATOM     88  O   UNL A   1      48.385  27.839  39.393  1.00  0.00    -0.237 OA
ATOM     89  O   UNL A   1      48.309  25.797  38.000  1.00  0.00    -0.237 OA
ATOM     90  O   UNL A   1      49.646  27.737  37.273  1.00  0.00    -0.744 OA
ENDBRANCH  86  87
ENDBRANCH  54  79
BRANCH  66  91
ATOM     91  C   UNL A   1      39.917  33.565  37.593  1.00  0.00     0.058 A 
ATOM     92  C   UNL A   1      40.578  34.766  37.894  1.00  0.00     0.135 A 
ATOM     93  C   UNL A   1      38.927  33.120  38.485  1.00  0.00     0.135 A 
ATOM     94  F   UNL A   1      41.535  35.235  37.079  1.00  0.00    -0.206 F 
ATOM     95  C   UNL A   1      40.285  35.485  39.049  1.00  0.00     0.059 A 
ATOM     96  C   UNL A   1      38.595  33.839  39.628  1.00  0.00     0.059 A 
ATOM     97  F   UNL A   1      38.256  31.983  38.238  1.00  0.00    -0.206 F 
ATOM     98  C   UNL A   1      39.288  35.015  39.907  1.00  0.00     0.060 A 
BRANCH  98  99
ATOM     99  S   UNL A   1      38.893  35.979  41.381  1.00  0.00     0.124 S 
ATOM    100  O   UNL A   1      40.060  35.725  42.220  1.00  0.00    -0.237 OA
ATOM    101  O   UNL A   1      38.779  37.332  40.847  1.00  0.00    -0.237 OA
ATOM    102  O   UNL A   1      37.642  35.389  41.850  1.00  0.00    -0.744 OA
ENDBRANCH  98  99
ENDBRANCH  66  91
ENDBRANCH  40  41
ENDBRANCH  32  35
ENDBRANCH  30  31
ENDBRANCH  29  30
ENDBRANCH   1  29
TORSDOF 18
ENDMDL
MODEL 2
REMARK VINA RESULT:     -11.7      5.923     12.532
REMARK SMILES Cc1nc(CCc2ccc(S(=O)(=O)N3CCCC3)cc2)ncc1C(=O)NCCCNC(=O)c1ccc(-c2c3nc(c(-c4c(F)cc(S(=O)(=O)[O-])cc4F)c4ccc([nH]4)c(-c4c(F)cc(S(=O)(=O)[O-])cc4F)c4nc(c(-c5c(F)cc(S(=O)(=O)[O-])cc5F)c5ccc2[nH]5)C=C4)C=C3)cc1
REMARK SMILES IDX 27 1 26 2 24 3 25 4 23 6 1 7 2 8 3 9 4 10 22 11 21 12 5 13
REMARK SMILES IDX 6 14 7 15 8 16 20 17 9 18 19 19 10 20 11 21 12 22 13 23
REMARK SMILES IDX 14 24 15 25 18 26 16 27 17 28 28 29 29 30 30 31 31 32 32 34
REMARK SMILES IDX 33 35 34 36 98 37 35 38 97 39 36 40 37 41 38 42 91 43 39 44
REMARK SMILES IDX 96 45 90 46 92 47 40 48 95 49 89 50 88 51 41 53 75 54 54 55
REMARK SMILES IDX 74 56 55 57 58 58 73 59 93 60 56 61 57 62 72 64 94 65 59 66
REMARK SMILES IDX 42 67 43 68 52 69 44 70 45 71 51 72 53 73 46 74 47 75 48 76
REMARK SMILES IDX 49 77 50 78 76 79 77 80 86 81 78 82 79 83 85 84 87 85 80 86
REMARK SMILES IDX 81 87 82 88 83 89 84 90 60 91 61 92 70 93 62 94 63 95 69 96
REMARK SMILES IDX 71 97 64 98 65 99 66 100 67 101 68 102
REMARK H PARENT 26 5 30 33 92 52 58 63
REMARK Flexibility Score: inf
ROOT
ATOM      1  C   UNL A   1      34.801  33.975  31.010  1.00  0.00     0.118 C 
ENDROOT
BRANCH   1   2
ATOM      2  N   UNL A   1      34.782  34.859  29.871  1.00  0.00    -0.352 N 
ATOM      3  C   UNL A   1      34.291  34.680  28.599  1.00  0.00     0.254 C 
ATOM      4  O   UNL A   1      34.384  35.640  27.830  1.00  0.00    -0.269 OA
ATOM      5  H   UNL A   1      35.190  35.740  30.032  1.00  0.00     0.163 HD
BRANCH   3   6
ATOM      6  C   UNL A   1      33.743  33.410  28.053  1.00  0.00     0.079 A 
ATOM      7  C   UNL A   1      35.715  31.742  28.181  1.00  0.00     0.068 C 
ATOM      8  C   UNL A   1      34.310  32.154  27.906  1.00  0.00     0.054 A 
ATOM      9  N   UNL A   1      33.617  31.114  27.377  1.00  0.00    -0.237 NA
ATOM     10  C   UNL A   1      32.362  31.307  26.956  1.00  0.00     0.128 A 
ATOM     11  C   UNL A   1      32.401  33.466  27.687  1.00  0.00     0.129 A 
ATOM     12  N   UNL A   1      31.696  32.456  27.115  1.00  0.00    -0.241 NA
BRANCH  10  13
ATOM     13  C   UNL A   1      31.763  30.203  26.134  1.00  0.00     0.082 C 
BRANCH  13  14
ATOM     14  C   UNL A   1      31.774  28.861  26.882  1.00  0.00     0.043 C 
BRANCH  14  15
ATOM     15  C   UNL A   1      32.268  27.660  26.096  1.00  0.00    -0.047 A 
ATOM     16  C   UNL A   1      31.557  26.454  26.113  1.00  0.00     0.005 A 
ATOM     17  C   UNL A   1      33.444  27.735  25.328  1.00  0.00     0.005 A 
ATOM     18  C   UNL A   1      32.014  25.350  25.382  1.00  0.00     0.022 A 
ATOM     19  C   UNL A   1      33.909  26.631  24.598  1.00  0.00     0.022 A 
ATOM     20  C   UNL A   1      33.193  25.435  24.630  1.00  0.00     0.082 A 
BRANCH  20  21
ATOM     21  S   UNL A   1      33.731  23.975  23.749  1.00  0.00     0.243 S 
ATOM     22  O   UNL A   1      32.871  22.894  24.206  1.00  0.00    -0.207 OA
ATOM     23  O   UNL A   1      33.827  24.334  22.358  1.00  0.00    -0.207 OA
BRANCH  21  24
ATOM     24  N   UNL A   1      35.261  23.609  24.310  1.00  0.00    -0.198 NA
ATOM     25  C   UNL A   1      36.344  23.189  23.420  1.00  0.00     0.102 C 
ATOM     26  C   UNL A   1      35.497  23.159  25.691  1.00  0.00     0.102 C 
ATOM     27  C   UNL A   1      37.042  22.100  24.223  1.00  0.00     0.018 C 
ATOM     28  C   UNL A   1      36.911  22.586  25.653  1.00  0.00     0.018 C 
ENDBRANCH  21  24
ENDBRANCH  20  21
ENDBRANCH  14  15
ENDBRANCH  13  14
ENDBRANCH  10  13
ENDBRANCH   3   6
ENDBRANCH   1   2
BRANCH   1  29
ATOM     29  C   UNL A   1      36.036  34.041  31.887  1.00  0.00     0.042 C 
BRANCH  29  30
ATOM     30  C   UNL A   1      37.054  32.918  31.733  1.00  0.00     0.118 C 
BRANCH  30  31
ATOM     31  N   UNL A   1      36.511  31.564  31.777  1.00  0.00    -0.352 N 
ATOM     32  C   UNL A   1      37.033  30.349  31.387  1.00  0.00     0.251 C 
ATOM     33  H   UNL A   1      35.604  31.507  32.156  1.00  0.00     0.163 HD
ATOM     34  O   UNL A   1      36.326  29.348  31.497  1.00  0.00    -0.269 OA
BRANCH  32  35
ATOM     35  C   UNL A   1      38.385  30.232  30.789  1.00  0.00     0.039 A 
ATOM     36  C   UNL A   1      39.468  29.912  31.618  1.00  0.00     0.014 A 
ATOM     37  C   UNL A   1      38.604  30.423  29.427  1.00  0.00     0.014 A 
ATOM     38  C   UNL A   1      40.732  29.684  31.063  1.00  0.00     0.010 A 
ATOM     39  C   UNL A   1      39.825  30.073  28.861  1.00  0.00     0.010 A 
ATOM     40  C   UNL A   1      40.908  29.709  29.671  1.00  0.00    -0.014 A 
BRANCH  40  41
ATOM     41  C   UNL A   1      42.210  29.378  29.031  1.00  0.00     0.031 A 
ATOM     42  C   UNL A   1      42.459  27.985  28.512  1.00  0.00     0.074 A 
ATOM     43  C   UNL A   1      43.195  30.298  28.999  1.00  0.00     0.049 A 
ATOM     44  N   UNL A   1      43.559  27.466  28.031  1.00  0.00    -0.248 NA
ATOM     45  C   UNL A   1      41.330  27.040  28.573  1.00  0.00     0.031 C 
ATOM     46  C   UNL A   1      43.097  31.666  29.514  1.00  0.00     0.029 A 
ATOM     47  N   UNL A   1      44.481  30.219  28.523  1.00  0.00    -0.354 N 
ATOM     48  C   UNL A   1      43.261  26.136  27.755  1.00  0.00     0.074 A 
ATOM     49  C   UNL A   1      41.899  25.910  28.183  1.00  0.00     0.031 C 
ATOM     50  C   UNL A   1      44.259  32.304  29.301  1.00  0.00     0.029 A 
ATOM     51  C   UNL A   1      45.202  31.380  28.679  1.00  0.00     0.049 A 
ATOM     52  H   UNL A   1      44.852  29.407  28.109  1.00  0.00     0.167 HD
ATOM     53  C   UNL A   1      44.039  25.196  27.167  1.00  0.00     0.037 A 
ATOM     54  C   UNL A   1      46.481  31.666  28.367  1.00  0.00     0.037 A 
ATOM     55  C   UNL A   1      45.384  25.437  26.715  1.00  0.00     0.049 A 
ATOM     56  C   UNL A   1      47.332  30.601  27.727  1.00  0.00     0.074 A 
ATOM     57  C   UNL A   1      46.239  24.570  26.058  1.00  0.00     0.029 A 
ATOM     58  N   UNL A   1      46.071  26.633  26.873  1.00  0.00    -0.354 N 
ATOM     59  N   UNL A   1      47.014  29.366  27.418  1.00  0.00    -0.248 NA
ATOM     60  C   UNL A   1      48.714  30.968  27.388  1.00  0.00     0.031 C 
ATOM     61  C   UNL A   1      47.460  25.223  25.866  1.00  0.00     0.029 A 
ATOM     62  C   UNL A   1      47.347  26.518  26.347  1.00  0.00     0.049 A 
ATOM     63  H   UNL A   1      45.706  27.442  27.297  1.00  0.00     0.167 HD
ATOM     64  C   UNL A   1      48.144  28.821  26.818  1.00  0.00     0.074 A 
ATOM     65  C   UNL A   1      49.149  29.864  26.798  1.00  0.00     0.031 C 
ATOM     66  C   UNL A   1      48.333  27.571  26.325  1.00  0.00     0.037 A 
BRANCH  53  67
ATOM     67  C   UNL A   1      43.452  23.823  26.971  1.00  0.00     0.058 A 
ATOM     68  C   UNL A   1      43.313  22.920  28.037  1.00  0.00     0.135 A 
ATOM     69  C   UNL A   1      42.990  23.418  25.708  1.00  0.00     0.135 A 
ATOM     70  F   UNL A   1      43.754  23.245  29.263  1.00  0.00    -0.206 F 
ATOM     71  C   UNL A   1      42.764  21.655  27.853  1.00  0.00     0.059 A 
ATOM     72  C   UNL A   1      42.407  22.170  25.508  1.00  0.00     0.059 A 
ATOM     73  F   UNL A   1      43.100  24.239  24.651  1.00  0.00    -0.206 F 
ATOM     74  C   UNL A   1      42.312  21.289  26.585  1.00  0.00     0.060 A 
BRANCH  74  75
ATOM     75  S   UNL A   1      41.596  19.647  26.368  1.00  0.00     0.124 S 
ATOM     76  O   UNL A   1      42.299  19.178  25.178  1.00  0.00    -0.237 OA
ATOM     77  O   UNL A   1      41.954  18.985  27.618  1.00  0.00    -0.237 OA
ATOM     78  O   UNL A   1      40.172  19.916  26.189  1.00  0.00    -0.744 OA
ENDBRANCH  74  75
ENDBRANCH  53  67
BRANCH  54  79
ATOM     79  C   UNL A   1      47.029  33.025  28.630  1.00  0.00     0.058 A 
ATOM     80  C   UNL A   1      47.621  33.335  29.865  1.00  0.00     0.135 A 
ATOM     81  C   UNL A   1      46.978  34.038  27.660  1.00  0.00     0.135 A 
ATOM     82  F   UNL A   1      47.690  32.403  30.827  1.00  0.00    -0.206 F 
ATOM     83  C   UNL A   1      48.121  34.604  30.136  1.00  0.00     0.059 A 
ATOM     84  C   UNL A   1      47.498  35.307  27.897  1.00  0.00     0.059 A 
ATOM     85  F   UNL A   1      46.438  33.789  26.456  1.00  0.00    -0.206 F 
ATOM     86  C   UNL A   1      48.056  35.584  29.144  1.00  0.00     0.060 A 
BRANCH  86  87
ATOM     87  S   UNL A   1      48.732  37.220  29.502  1.00  0.00     0.124 S 
ATOM     88  O   UNL A   1      49.866  37.274  28.586  1.00  0.00    -0.237 OA
ATOM     89  O   UNL A   1      47.608  38.092  29.176  1.00  0.00    -0.237 OA
ATOM     90  O   UNL A   1      49.070  37.142  30.920  1.00  0.00    -0.744 OA
ENDBRANCH  86  87
ENDBRANCH  54  79
BRANCH  66  91
ATOM     91  C   UNL A   1      49.659  27.269  25.682  1.00  0.00     0.058 A 
ATOM     92  C   UNL A   1      49.852  27.374  24.296  1.00  0.00     0.135 A 
ATOM     93  C   UNL A   1      50.768  26.927  26.474  1.00  0.00     0.135 A 
ATOM     94  F   UNL A   1      48.826  27.694  23.492  1.00  0.00    -0.206 F 
ATOM     95  C   UNL A   1      51.091  27.125  23.714  1.00  0.00     0.059 A 
ATOM     96  C   UNL A   1      52.023  26.705  25.918  1.00  0.00     0.059 A 
ATOM     97  F   UNL A   1      50.641  26.824  27.807  1.00  0.00    -0.206 F 
ATOM     98  C   UNL A   1      52.172  26.795  24.535  1.00  0.00     0.060 A 
BRANCH  98  99
ATOM     99  S   UNL A   1      53.782  26.511  23.770  1.00  0.00     0.124 S 
ATOM    100  O   UNL A   1      54.294  25.400  24.565  1.00  0.00    -0.237 OA
ATOM    101  O   UNL A   1      53.421  26.192  22.393  1.00  0.00    -0.237 OA
ATOM    102  O   UNL A   1      54.475  27.784  23.952  1.00  0.00    -0.744 OA
ENDBRANCH  98  99
ENDBRANCH  66  91
ENDBRANCH  40  41
ENDBRANCH  32  35
ENDBRANCH  30  31
ENDBRANCH  29  30
ENDBRANCH   1  29
TORSDOF 18
ENDMDL
MODEL 3
REMARK VINA RESULT:     -11.7      1.044      8.120
REMARK SMILES Cc1nc(CCc2ccc(S(=O)(=O)N3CCCC3)cc2)ncc1C(=O)NCCCNC(=O)c1ccc(-c2c3nc(c(-c4c(F)cc(S(=O)(=O)[O-])cc4F)c4ccc([nH]4)c(-c4c(F)cc(S(=O)(=O)[O-])cc4F)c4nc(c(-c5c(F)cc(S(=O)(=O)[O-])cc5F)c5ccc2[nH]5)C=C4)C=C3)cc1
REMARK SMILES IDX 27 1 26 2 24 3 25 4 23 6 1 7 2 8 3 9 4 10 22 11 21 12 5 13
REMARK SMILES IDX 6 14 7 15 8 16 20 17 9 18 19 19 10 20 11 21 12 22 13 23
REMARK SMILES IDX 14 24 15 25 18 26 16 27 17 28 28 29 29 30 30 31 31 32 32 34
REMARK SMILES IDX 33 35 34 36 98 37 35 38 97 39 36 40 37 41 38 42 91 43 39 44
REMARK SMILES IDX 96 45 90 46 92 47 40 48 95 49 89 50 88 51 41 53 75 54 54 55
REMARK SMILES IDX 74 56 55 57 58 58 73 59 93 60 56 61 57 62 72 64 94 65 59 66
REMARK SMILES IDX 42 67 43 68 52 69 44 70 45 71 51 72 53 73 46 74 47 75 48 76
REMARK SMILES IDX 49 77 50 78 76 79 77 80 86 81 78 82 79 83 85 84 87 85 80 86
REMARK SMILES IDX 81 87 82 88 83 89 84 90 60 91 61 92 70 93 62 94 63 95 69 96
REMARK SMILES IDX 71 97 64 98 65 99 66 100 67 101 68 102
REMARK H PARENT 26 5 30 33 92 52 58 63
REMARK Flexibility Score: inf
ROOT
ATOM      1  C   UNL A   1      43.346  21.978  26.033  1.00  0.00     0.118 C 
ENDROOT
BRANCH   1   2
ATOM      2  N   UNL A   1      43.032  20.845  26.867  1.00  0.00    -0.352 N 
ATOM      3  C   UNL A   1      41.852  20.165  27.058  1.00  0.00     0.254 C 
ATOM      4  O   UNL A   1      41.888  19.196  27.820  1.00  0.00    -0.269 OA
ATOM      5  H   UNL A   1      43.792  20.498  27.388  1.00  0.00     0.163 HD
BRANCH   3   6
ATOM      6  C   UNL A   1      40.530  20.552  26.498  1.00  0.00     0.079 A 
ATOM      7  C   UNL A   1      40.159  22.975  27.319  1.00  0.00     0.068 C 
ATOM      8  C   UNL A   1      39.819  21.740  26.560  1.00  0.00     0.054 A 
ATOM      9  N   UNL A   1      38.608  21.881  25.963  1.00  0.00    -0.237 NA
ATOM     10  C   UNL A   1      38.067  20.839  25.321  1.00  0.00     0.128 A 
ATOM     11  C   UNL A   1      39.924  19.576  25.711  1.00  0.00     0.129 A 
ATOM     12  N   UNL A   1      38.696  19.673  25.140  1.00  0.00    -0.241 NA
BRANCH  10  13
ATOM     13  C   UNL A   1      36.623  20.978  24.934  1.00  0.00     0.082 C 
BRANCH  13  14
ATOM     14  C   UNL A   1      36.382  22.216  24.055  1.00  0.00     0.043 C 
BRANCH  14  15
ATOM     15  C   UNL A   1      35.149  23.039  24.382  1.00  0.00    -0.047 A 
ATOM     16  C   UNL A   1      34.990  23.613  25.650  1.00  0.00     0.005 A 
ATOM     17  C   UNL A   1      34.146  23.250  23.419  1.00  0.00     0.005 A 
ATOM     18  C   UNL A   1      33.853  24.375  25.946  1.00  0.00     0.022 A 
ATOM     19  C   UNL A   1      33.003  24.009  23.713  1.00  0.00     0.022 A 
ATOM     20  C   UNL A   1      32.856  24.569  24.981  1.00  0.00     0.082 A 
BRANCH  20  21
ATOM     21  S   UNL A   1      31.418  25.526  25.442  1.00  0.00     0.243 S 
ATOM     22  O   UNL A   1      30.348  25.088  24.559  1.00  0.00    -0.207 OA
ATOM     23  O   UNL A   1      31.301  25.446  26.875  1.00  0.00    -0.207 OA
BRANCH  21  24
ATOM     24  N   UNL A   1      31.738  27.111  25.022  1.00  0.00    -0.198 NA
ATOM     25  C   UNL A   1      31.118  27.757  23.865  1.00  0.00     0.102 C 
ATOM     26  C   UNL A   1      32.993  27.778  25.401  1.00  0.00     0.102 C 
ATOM     27  C   UNL A   1      32.257  28.584  23.286  1.00  0.00     0.018 C 
ATOM     28  C   UNL A   1      33.028  29.021  24.516  1.00  0.00     0.018 C 
ENDBRANCH  21  24
ENDBRANCH  20  21
ENDBRANCH  14  15
ENDBRANCH  13  14
ENDBRANCH  10  13
ENDBRANCH   3   6
ENDBRANCH   1   2
BRANCH   1  29
ATOM     29  C   UNL A   1      44.445  22.894  26.535  1.00  0.00     0.042 C 
BRANCH  29  30
ATOM     30  C   UNL A   1      44.188  24.393  26.449  1.00  0.00     0.118 C 
BRANCH  30  31
ATOM     31  N   UNL A   1      43.045  24.791  25.633  1.00  0.00    -0.352 N 
ATOM     32  C   UNL A   1      42.027  25.695  25.852  1.00  0.00     0.251 C 
ATOM     33  H   UNL A   1      42.989  24.328  24.766  1.00  0.00     0.163 HD
ATOM     34  O   UNL A   1      41.148  25.802  24.997  1.00  0.00    -0.269 OA
BRANCH  32  35
ATOM     35  C   UNL A   1      41.937  26.486  27.103  1.00  0.00     0.039 A 
ATOM     36  C   UNL A   1      42.649  27.689  27.197  1.00  0.00     0.014 A 
ATOM     37  C   UNL A   1      41.158  26.071  28.179  1.00  0.00     0.014 A 
ATOM     38  C   UNL A   1      42.493  28.510  28.320  1.00  0.00     0.010 A 
ATOM     39  C   UNL A   1      40.903  26.941  29.233  1.00  0.00     0.010 A 
ATOM     40  C   UNL A   1      41.573  28.168  29.323  1.00  0.00    -0.014 A 
BRANCH  40  41
ATOM     41  C   UNL A   1      41.302  29.057  30.485  1.00  0.00     0.031 A 
ATOM     42  C   UNL A   1      42.122  28.920  31.742  1.00  0.00     0.074 A 
ATOM     43  C   UNL A   1      40.266  29.920  30.443  1.00  0.00     0.049 A 
ATOM     44  N   UNL A   1      41.969  29.513  32.898  1.00  0.00    -0.248 NA
ATOM     45  C   UNL A   1      43.242  27.963  31.706  1.00  0.00     0.031 C 
ATOM     46  C   UNL A   1      39.366  30.111  29.303  1.00  0.00     0.029 A 
ATOM     47  N   UNL A   1      39.786  30.791  31.390  1.00  0.00    -0.354 N 
ATOM     48  C   UNL A   1      42.955  28.987  33.726  1.00  0.00     0.074 A 
ATOM     49  C   UNL A   1      43.656  27.981  32.963  1.00  0.00     0.031 C 
ATOM     50  C   UNL A   1      38.464  31.059  29.606  1.00  0.00     0.029 A 
ATOM     51  C   UNL A   1      38.688  31.509  30.976  1.00  0.00     0.049 A 
ATOM     52  H   UNL A   1      40.191  30.892  32.282  1.00  0.00     0.167 HD
ATOM     53  C   UNL A   1      43.269  29.335  34.997  1.00  0.00     0.037 A 
ATOM     54  C   UNL A   1      37.939  32.418  31.630  1.00  0.00     0.037 A 
ATOM     55  C   UNL A   1      42.586  30.360  35.740  1.00  0.00     0.049 A 
ATOM     56  C   UNL A   1      38.299  32.779  33.047  1.00  0.00     0.074 A 
ATOM     57  C   UNL A   1      42.861  30.828  37.013  1.00  0.00     0.029 A 
ATOM     58  N   UNL A   1      41.491  31.078  35.279  1.00  0.00    -0.354 N 
ATOM     59  N   UNL A   1      39.272  32.314  33.795  1.00  0.00    -0.248 NA
ATOM     60  C   UNL A   1      37.463  33.790  33.709  1.00  0.00     0.031 C 
ATOM     61  C   UNL A   1      41.901  31.789  37.342  1.00  0.00     0.029 A 
ATOM     62  C   UNL A   1      41.065  31.967  36.250  1.00  0.00     0.049 A 
ATOM     63  H   UNL A   1      41.079  30.970  34.392  1.00  0.00     0.167 HD
ATOM     64  C   UNL A   1      39.187  33.001  35.001  1.00  0.00     0.074 A 
ATOM     65  C   UNL A   1      38.073  33.919  34.878  1.00  0.00     0.031 C 
ATOM     66  C   UNL A   1      39.960  32.884  36.109  1.00  0.00     0.037 A 
BRANCH  53  67
ATOM     67  C   UNL A   1      44.408  28.606  35.662  1.00  0.00     0.058 A 
ATOM     68  C   UNL A   1      44.197  27.451  36.431  1.00  0.00     0.135 A 
ATOM     69  C   UNL A   1      45.731  29.048  35.497  1.00  0.00     0.135 A 
ATOM     70  F   UNL A   1      42.952  26.992  36.638  1.00  0.00    -0.206 F 
ATOM     71  C   UNL A   1      45.252  26.776  37.037  1.00  0.00     0.059 A 
ATOM     72  C   UNL A   1      46.805  28.370  36.067  1.00  0.00     0.059 A 
ATOM     73  F   UNL A   1      45.992  30.149  34.775  1.00  0.00    -0.206 F 
ATOM     74  C   UNL A   1      46.553  27.243  36.848  1.00  0.00     0.060 A 
BRANCH  74  75
ATOM     75  S   UNL A   1      47.909  26.350  37.636  1.00  0.00     0.124 S 
ATOM     76  O   UNL A   1      47.592  24.969  37.284  1.00  0.00    -0.237 OA
ATOM     77  O   UNL A   1      49.080  26.919  36.976  1.00  0.00    -0.237 OA
ATOM     78  O   UNL A   1      47.763  26.686  39.049  1.00  0.00    -0.744 OA
ENDBRANCH  74  75
ENDBRANCH  53  67
BRANCH  54  79
ATOM     79  C   UNL A   1      36.790  33.072  30.944  1.00  0.00     0.058 A 
ATOM     80  C   UNL A   1      37.000  34.079  29.990  1.00  0.00     0.135 A 
ATOM     81  C   UNL A   1      35.464  32.704  31.223  1.00  0.00     0.135 A 
ATOM     82  F   UNL A   1      38.248  34.470  29.692  1.00  0.00    -0.206 F 
ATOM     83  C   UNL A   1      35.939  34.714  29.354  1.00  0.00     0.059 A 
ATOM     84  C   UNL A   1      34.387  33.303  30.577  1.00  0.00     0.059 A 
ATOM     85  F   UNL A   1      35.208  31.733  32.114  1.00  0.00    -0.206 F 
ATOM     86  C   UNL A   1      34.635  34.318  29.653  1.00  0.00     0.060 A 
BRANCH  86  87
ATOM     87  S   UNL A   1      33.267  35.134  28.800  1.00  0.00     0.124 S 
ATOM     88  O   UNL A   1      32.727  34.039  28.001  1.00  0.00    -0.237 OA
ATOM     89  O   UNL A   1      32.437  35.581  29.914  1.00  0.00    -0.237 OA
ATOM     90  O   UNL A   1      33.926  36.197  28.048  1.00  0.00    -0.744 OA
ENDBRANCH  86  87
ENDBRANCH  54  79
BRANCH  66  91
ATOM     91  C   UNL A   1      39.663  33.799  37.265  1.00  0.00     0.058 A 
ATOM     92  C   UNL A   1      38.763  33.442  38.282  1.00  0.00     0.135 A 
ATOM     93  C   UNL A   1      40.333  35.028  37.386  1.00  0.00     0.135 A 
ATOM     94  F   UNL A   1      38.092  32.281  38.214  1.00  0.00    -0.206 F 
ATOM     95  C   UNL A   1      38.520  34.282  39.364  1.00  0.00     0.059 A 
ATOM     96  C   UNL A   1      40.130  35.868  38.475  1.00  0.00     0.059 A 
ATOM     97  F   UNL A   1      41.213  35.414  36.447  1.00  0.00    -0.206 F 
ATOM     98  C   UNL A   1      39.212  35.492  39.454  1.00  0.00     0.060 A 
BRANCH  98  99
ATOM     99  S   UNL A   1      38.914  36.553  40.883  1.00  0.00     0.124 S 
ATOM    100  O   UNL A   1      38.188  37.665  40.278  1.00  0.00    -0.237 OA
ATOM    101  O   UNL A   1      38.132  35.686  41.757  1.00  0.00    -0.237 OA
ATOM    102  O   UNL A   1      40.258  36.867  41.360  1.00  0.00    -0.744 OA
ENDBRANCH  98  99
ENDBRANCH  66  91
ENDBRANCH  40  41
ENDBRANCH  32  35
ENDBRANCH  30  31
ENDBRANCH  29  30
ENDBRANCH   1  29
TORSDOF 18
ENDMDL
