MODEL 1
REMARK VINA RESULT:     -12.5      0.000      0.000
REMARK SMILES Cc1ccc(NC(=O)NC2(C(=O)NCCCNC(=O)c3ccc(-c4c5nc(c(-c6c(F)cc(S(=O)(=O)[O-])cc6F)c6ccc([nH]6)c(-c6c(F)cc(S(=O)(=O)[O-])cc6F)c6nc(c(-c7c(F)cc(S(=O)(=O)[O-])cc7F)c7ccc4[nH]7)C=C6)C=C5)cc3)CC2)c(C)n1
REMARK SMILES IDX 15 1 14 2 13 3 11 4 12 5 10 7 86 8 87 9 9 10 6 11 7 12 8 14
REMARK SMILES IDX 5 16 1 17 2 18 3 19 90 20 4 21 88 22 89 23 16 24 17 25 18 26
REMARK SMILES IDX 19 28 20 29 21 30 85 31 22 32 84 33 23 34 24 35 25 36 78 37
REMARK SMILES IDX 26 38 83 39 77 40 79 41 27 42 82 43 76 44 75 45 28 47 62 48
REMARK SMILES IDX 41 49 61 50 42 51 45 52 60 53 80 54 43 55 44 56 59 58 81 59
REMARK SMILES IDX 46 60 29 61 30 62 39 63 31 64 32 65 38 66 40 67 33 68 34 69
REMARK SMILES IDX 35 70 36 71 37 72 63 73 64 74 73 75 65 76 66 77 72 78 74 79
REMARK SMILES IDX 67 80 68 81 69 82 70 83 71 84 47 85 48 86 57 87 49 88 50 89
REMARK SMILES IDX 56 90 58 91 51 92 52 93 53 94 54 95 55 96
REMARK H PARENT 13 6 6 13 9 15 17 27 79 46 45 57
REMARK Flexibility Score: inf
ROOT
ATOM      1  C   UNL A   1      33.673  28.737  27.249  1.00  0.00     0.042 C 
ENDROOT
BRANCH   1   2
ATOM      2  C   UNL A   1      33.596  27.776  26.039  1.00  0.00     0.117 C 
BRANCH   2   3
ATOM      3  N   UNL A   1      32.430  26.871  26.113  1.00  0.00    -0.354 N 
ATOM      4  C   UNL A   1      32.440  25.541  25.713  1.00  0.00     0.245 C 
ATOM      5  O   UNL A   1      33.454  24.839  25.791  1.00  0.00    -0.272 OA
ATOM      6  H   UNL A   1      31.589  27.237  26.469  1.00  0.00     0.163 HD
BRANCH   4   7
ATOM      7  C   UNL A   1      31.115  24.931  25.151  1.00  0.00     0.120 C 
ATOM      8  C   UNL A   1      31.330  24.257  23.781  1.00  0.00     0.041 C 
ATOM      9  C   UNL A   1      30.226  25.210  23.902  1.00  0.00     0.041 C 
BRANCH   7  10
ATOM     10  N   UNL A   1      30.248  24.500  26.166  1.00  0.00    -0.323 N 
ATOM     11  N   UNL A   1      31.294  22.400  26.616  1.00  0.00    -0.306 N 
ATOM     12  C   UNL A   1      30.362  23.346  26.816  1.00  0.00     0.320 C 
ATOM     13  H   UNL A   1      31.029  21.670  27.222  1.00  0.00     0.171 HD
ATOM     14  O   UNL A   1      29.514  23.106  27.685  1.00  0.00    -0.248 OA
ATOM     15  H   UNL A   1      29.502  25.094  26.414  1.00  0.00     0.166 HD
BRANCH  11  16
ATOM     16  C   UNL A   1      32.486  21.902  25.968  1.00  0.00     0.064 A 
ATOM     17  C   UNL A   1      36.496  20.602  25.030  1.00  0.00     0.067 C 
ATOM     18  C   UNL A   1      35.163  21.120  25.440  1.00  0.00     0.038 A 
ATOM     19  C   UNL A   1      34.870  21.620  26.672  1.00  0.00     0.025 A 
ATOM     20  N   UNL A   1      34.212  21.007  24.516  1.00  0.00    -0.256 NA
ATOM     21  C   UNL A   1      33.555  22.018  26.910  1.00  0.00     0.030 A 
ATOM     22  C   UNL A   1      32.900  21.328  24.738  1.00  0.00     0.061 A 
ATOM     23  C   UNL A   1      32.292  20.846  23.460  1.00  0.00     0.069 C 
ENDBRANCH  11  16
ENDBRANCH   7  10
ENDBRANCH   4   7
ENDBRANCH   2   3
ENDBRANCH   1   2
BRANCH   1  24
ATOM     24  C   UNL A   1      34.971  29.518  27.465  1.00  0.00     0.118 C 
BRANCH  24  25
ATOM     25  N   UNL A   1      35.065  30.225  28.732  1.00  0.00    -0.352 N 
ATOM     26  C   UNL A   1      36.130  30.438  29.585  1.00  0.00     0.251 C 
ATOM     27  H   UNL A   1      34.218  30.621  29.038  1.00  0.00     0.163 HD
ATOM     28  O   UNL A   1      35.914  31.040  30.638  1.00  0.00    -0.269 OA
BRANCH  26  29
ATOM     29  C   UNL A   1      37.514  29.953  29.306  1.00  0.00     0.039 A 
ATOM     30  C   UNL A   1      37.943  29.873  27.972  1.00  0.00     0.014 A 
ATOM     31  C   UNL A   1      38.382  29.520  30.309  1.00  0.00     0.014 A 
ATOM     32  C   UNL A   1      39.238  29.432  27.657  1.00  0.00     0.010 A 
ATOM     33  C   UNL A   1      39.703  29.173  30.004  1.00  0.00     0.010 A 
ATOM     34  C   UNL A   1      40.150  29.115  28.673  1.00  0.00    -0.014 A 
BRANCH  34  35
ATOM     35  C   UNL A   1      41.555  28.703  28.376  1.00  0.00     0.031 A 
ATOM     36  C   UNL A   1      42.666  29.727  28.371  1.00  0.00     0.074 A 
ATOM     37  C   UNL A   1      41.831  27.426  28.039  1.00  0.00     0.049 A 
ATOM     38  N   UNL A   1      43.927  29.585  28.045  1.00  0.00    -0.248 NA
ATOM     39  C   UNL A   1      42.300  31.102  28.746  1.00  0.00     0.031 C 
ATOM     40  C   UNL A   1      40.850  26.342  27.961  1.00  0.00     0.029 A 
ATOM     41  N   UNL A   1      43.016  26.822  27.687  1.00  0.00    -0.354 N 
ATOM     42  C   UNL A   1      44.493  30.852  28.151  1.00  0.00     0.074 A 
ATOM     43  C   UNL A   1      43.424  31.759  28.507  1.00  0.00     0.031 C 
ATOM     44  C   UNL A   1      41.474  25.203  27.617  1.00  0.00     0.029 A 
ATOM     45  C   UNL A   1      42.892  25.480  27.404  1.00  0.00     0.049 A 
ATOM     46  H   UNL A   1      43.872  27.304  27.641  1.00  0.00     0.167 HD
ATOM     47  C   UNL A   1      45.788  31.224  27.996  1.00  0.00     0.037 A 
ATOM     48  C   UNL A   1      43.811  24.574  27.013  1.00  0.00     0.037 A 
ATOM     49  C   UNL A   1      46.854  30.311  27.672  1.00  0.00     0.049 A 
ATOM     50  C   UNL A   1      45.242  25.007  26.841  1.00  0.00     0.074 A 
ATOM     51  C   UNL A   1      48.208  30.575  27.556  1.00  0.00     0.029 A 
ATOM     52  N   UNL A   1      46.687  28.960  27.408  1.00  0.00    -0.354 N 
ATOM     53  N   UNL A   1      45.768  26.197  27.006  1.00  0.00    -0.248 NA
ATOM     54  C   UNL A   1      46.205  23.974  26.433  1.00  0.00     0.031 C 
ATOM     55  C   UNL A   1      48.851  29.395  27.167  1.00  0.00     0.029 A 
ATOM     56  C   UNL A   1      47.908  28.381  27.102  1.00  0.00     0.049 A 
ATOM     57  H   UNL A   1      45.827  28.482  27.436  1.00  0.00     0.167 HD
ATOM     58  C   UNL A   1      47.128  26.051  26.751  1.00  0.00     0.074 A 
ATOM     59  C   UNL A   1      47.344  24.654  26.431  1.00  0.00     0.031 C 
ATOM     60  C   UNL A   1      48.109  26.987  26.784  1.00  0.00     0.037 A 
BRANCH  47  61
ATOM     61  C   UNL A   1      46.119  32.686  28.170  1.00  0.00     0.058 A 
ATOM     62  C   UNL A   1      46.525  33.213  29.409  1.00  0.00     0.135 A 
ATOM     63  C   UNL A   1      46.036  33.573  27.083  1.00  0.00     0.135 A 
ATOM     64  F   UNL A   1      46.614  32.417  30.486  1.00  0.00    -0.206 F 
ATOM     65  C   UNL A   1      46.785  34.571  29.575  1.00  0.00     0.059 A 
ATOM     66  C   UNL A   1      46.327  34.928  27.219  1.00  0.00     0.059 A 
ATOM     67  F   UNL A   1      45.661  33.129  25.874  1.00  0.00    -0.206 F 
ATOM     68  C   UNL A   1      46.677  35.421  28.474  1.00  0.00     0.060 A 
BRANCH  68  69
ATOM     69  S   UNL A   1      46.992  37.183  28.712  1.00  0.00     0.124 S 
ATOM     70  O   UNL A   1      48.332  37.318  28.145  1.00  0.00    -0.237 OA
ATOM     71  O   UNL A   1      45.915  37.799  27.940  1.00  0.00    -0.237 OA
ATOM     72  O   UNL A   1      46.901  37.355  30.156  1.00  0.00    -0.744 OA
ENDBRANCH  68  69
ENDBRANCH  47  61
BRANCH  48  73
ATOM     73  C   UNL A   1      43.406  23.158  26.793  1.00  0.00     0.058 A 
ATOM     74  C   UNL A   1      43.399  22.603  25.504  1.00  0.00     0.135 A 
ATOM     75  C   UNL A   1      43.056  22.320  27.863  1.00  0.00     0.135 A 
ATOM     76  F   UNL A   1      43.714  23.364  24.445  1.00  0.00    -0.206 F 
ATOM     77  C   UNL A   1      43.058  21.272  25.282  1.00  0.00     0.059 A 
ATOM     78  C   UNL A   1      42.737  20.979  27.670  1.00  0.00     0.059 A 
ATOM     79  F   UNL A   1      43.060  22.795  29.119  1.00  0.00    -0.206 F 
ATOM     80  C   UNL A   1      42.737  20.465  26.374  1.00  0.00     0.060 A 
BRANCH  80  81
ATOM     81  S   UNL A   1      42.373  18.720  26.083  1.00  0.00     0.124 S 
ATOM     82  O   UNL A   1      40.955  18.766  25.745  1.00  0.00    -0.237 OA
ATOM     83  O   UNL A   1      43.281  18.399  24.985  1.00  0.00    -0.237 OA
ATOM     84  O   UNL A   1      42.699  18.091  27.358  1.00  0.00    -0.744 OA
ENDBRANCH  80  81
ENDBRANCH  48  73
BRANCH  60  85
ATOM     85  C   UNL A   1      49.515  26.532  26.497  1.00  0.00     0.058 A 
ATOM     86  C   UNL A   1      50.322  25.951  27.487  1.00  0.00     0.135 A 
ATOM     87  C   UNL A   1      50.040  26.628  25.197  1.00  0.00     0.135 A 
ATOM     88  F   UNL A   1      49.873  25.840  28.747  1.00  0.00    -0.206 F 
ATOM     89  C   UNL A   1      51.609  25.503  27.205  1.00  0.00     0.059 A 
ATOM     90  C   UNL A   1      51.312  26.159  24.885  1.00  0.00     0.059 A 
ATOM     91  F   UNL A   1      49.306  27.165  24.209  1.00  0.00    -0.206 F 
ATOM     92  C   UNL A   1      52.094  25.608  25.899  1.00  0.00     0.060 A 
BRANCH  92  93
ATOM     93  S   UNL A   1      53.752  24.991  25.540  1.00  0.00     0.124 S 
ATOM     94  O   UNL A   1      54.468  25.346  26.762  1.00  0.00    -0.237 OA
ATOM     95  O   UNL A   1      53.515  23.566  25.335  1.00  0.00    -0.237 OA
ATOM     96  O   UNL A   1      54.141  25.736  24.346  1.00  0.00    -0.744 OA
ENDBRANCH  92  93
ENDBRANCH  60  85
ENDBRANCH  34  35
ENDBRANCH  26  29
ENDBRANCH  24  25
ENDBRANCH   1  24
TORSDOF 15
ENDMDL
MODEL 2
REMARK VINA RESULT:     -12.5      2.556      3.323
REMARK SMILES Cc1ccc(NC(=O)NC2(C(=O)NCCCNC(=O)c3ccc(-c4c5nc(c(-c6c(F)cc(S(=O)(=O)[O-])cc6F)c6ccc([nH]6)c(-c6c(F)cc(S(=O)(=O)[O-])cc6F)c6nc(c(-c7c(F)cc(S(=O)(=O)[O-])cc7F)c7ccc4[nH]7)C=C6)C=C5)cc3)CC2)c(C)n1
REMARK SMILES IDX 15 1 14 2 13 3 11 4 12 5 10 7 86 8 87 9 9 10 6 11 7 12 8 14
REMARK SMILES IDX 5 16 1 17 2 18 3 19 90 20 4 21 88 22 89 23 16 24 17 25 18 26
REMARK SMILES IDX 19 28 20 29 21 30 85 31 22 32 84 33 23 34 24 35 25 36 78 37
REMARK SMILES IDX 26 38 83 39 77 40 79 41 27 42 82 43 76 44 75 45 28 47 62 48
REMARK SMILES IDX 41 49 61 50 42 51 45 52 60 53 80 54 43 55 44 56 59 58 81 59
REMARK SMILES IDX 46 60 29 61 30 62 39 63 31 64 32 65 38 66 40 67 33 68 34 69
REMARK SMILES IDX 35 70 36 71 37 72 63 73 64 74 73 75 65 76 66 77 72 78 74 79
REMARK SMILES IDX 67 80 68 81 69 82 70 83 71 84 47 85 48 86 57 87 49 88 50 89
REMARK SMILES IDX 56 90 58 91 51 92 52 93 53 94 54 95 55 96
REMARK H PARENT 13 6 6 13 9 15 17 27 79 46 45 57
REMARK Flexibility Score: inf
ROOT
ATOM      1  C   UNL A   1      33.781  28.175  25.625  1.00  0.00     0.042 C 
ENDROOT
BRANCH   1   2
ATOM      2  C   UNL A   1      32.596  27.823  24.696  1.00  0.00     0.117 C 
BRANCH   2   3
ATOM      3  N   UNL A   1      31.979  26.525  25.040  1.00  0.00    -0.354 N 
ATOM      4  C   UNL A   1      32.383  25.300  24.524  1.00  0.00     0.245 C 
ATOM      5  O   UNL A   1      33.557  25.076  24.208  1.00  0.00    -0.272 OA
ATOM      6  H   UNL A   1      31.229  26.529  25.678  1.00  0.00     0.163 HD
BRANCH   4   7
ATOM      7  C   UNL A   1      31.304  24.183  24.348  1.00  0.00     0.120 C 
ATOM      8  C   UNL A   1      31.775  23.080  23.377  1.00  0.00     0.041 C 
ATOM      9  C   UNL A   1      30.452  23.665  23.151  1.00  0.00     0.041 C 
BRANCH   7  10
ATOM     10  N   UNL A   1      30.522  24.003  25.498  1.00  0.00    -0.323 N 
ATOM     11  N   UNL A   1      31.957  22.463  26.628  1.00  0.00    -0.306 N 
ATOM     12  C   UNL A   1      30.852  23.219  26.520  1.00  0.00     0.320 C 
ATOM     13  H   UNL A   1      31.830  21.976  27.475  1.00  0.00     0.171 HD
ATOM     14  O   UNL A   1      30.052  23.162  27.463  1.00  0.00    -0.248 OA
ATOM     15  H   UNL A   1      29.669  24.492  25.551  1.00  0.00     0.166 HD
BRANCH  11  16
ATOM     16  C   UNL A   1      33.235  21.998  26.142  1.00  0.00     0.064 A 
ATOM     17  C   UNL A   1      37.436  21.452  25.300  1.00  0.00     0.067 C 
ATOM     18  C   UNL A   1      36.014  21.757  25.612  1.00  0.00     0.038 A 
ATOM     19  C   UNL A   1      35.593  22.795  26.388  1.00  0.00     0.025 A 
ATOM     20  N   UNL A   1      35.136  20.887  25.120  1.00  0.00    -0.256 NA
ATOM     21  C   UNL A   1      34.224  22.911  26.623  1.00  0.00     0.030 A 
ATOM     22  C   UNL A   1      33.793  20.935  25.385  1.00  0.00     0.061 A 
ATOM     23  C   UNL A   1      33.353  19.659  24.743  1.00  0.00     0.069 C 
ENDBRANCH  11  16
ENDBRANCH   7  10
ENDBRANCH   4   7
ENDBRANCH   2   3
ENDBRANCH   1   2
BRANCH   1  24
ATOM     24  C   UNL A   1      33.495  28.357  27.117  1.00  0.00     0.118 C 
BRANCH  24  25
ATOM     25  N   UNL A   1      33.436  29.737  27.572  1.00  0.00    -0.352 N 
ATOM     26  C   UNL A   1      34.389  30.552  28.151  1.00  0.00     0.251 C 
ATOM     27  H   UNL A   1      32.560  30.167  27.445  1.00  0.00     0.163 HD
ATOM     28  O   UNL A   1      34.048  31.686  28.491  1.00  0.00    -0.269 OA
BRANCH  26  29
ATOM     29  C   UNL A   1      35.793  30.117  28.410  1.00  0.00     0.039 A 
ATOM     30  C   UNL A   1      36.718  30.169  27.356  1.00  0.00     0.014 A 
ATOM     31  C   UNL A   1      36.215  29.606  29.638  1.00  0.00     0.014 A 
ATOM     32  C   UNL A   1      38.053  29.780  27.549  1.00  0.00     0.010 A 
ATOM     33  C   UNL A   1      37.565  29.311  29.858  1.00  0.00     0.010 A 
ATOM     34  C   UNL A   1      38.504  29.384  28.816  1.00  0.00    -0.014 A 
BRANCH  34  35
ATOM     35  C   UNL A   1      39.931  29.024  29.072  1.00  0.00     0.031 A 
ATOM     36  C   UNL A   1      40.884  30.045  29.650  1.00  0.00     0.074 A 
ATOM     37  C   UNL A   1      40.398  27.808  28.722  1.00  0.00     0.049 A 
ATOM     38  N   UNL A   1      42.175  29.956  29.854  1.00  0.00    -0.248 NA
ATOM     39  C   UNL A   1      40.314  31.353  30.010  1.00  0.00     0.031 C 
ATOM     40  C   UNL A   1      39.601  26.740  28.115  1.00  0.00     0.029 A 
ATOM     41  N   UNL A   1      41.658  27.264  28.814  1.00  0.00    -0.354 N 
ATOM     42  C   UNL A   1      42.571  31.198  30.340  1.00  0.00     0.074 A 
ATOM     43  C   UNL A   1      41.396  32.042  30.336  1.00  0.00     0.031 C 
ATOM     44  C   UNL A   1      40.379  25.663  27.919  1.00  0.00     0.029 A 
ATOM     45  C   UNL A   1      41.741  25.974  28.341  1.00  0.00     0.049 A 
ATOM     46  H   UNL A   1      42.428  27.752  29.184  1.00  0.00     0.167 HD
ATOM     47  C   UNL A   1      43.792  31.595  30.776  1.00  0.00     0.037 A 
ATOM     48  C   UNL A   1      42.794  25.135  28.251  1.00  0.00     0.037 A 
ATOM     49  C   UNL A   1      44.952  30.741  30.807  1.00  0.00     0.049 A 
ATOM     50  C   UNL A   1      44.143  25.594  28.736  1.00  0.00     0.074 A 
ATOM     51  C   UNL A   1      46.218  31.025  31.289  1.00  0.00     0.029 A 
ATOM     52  N   UNL A   1      44.989  29.438  30.332  1.00  0.00    -0.354 N 
ATOM     53  N   UNL A   1      44.483  26.753  29.249  1.00  0.00    -0.248 NA
ATOM     54  C   UNL A   1      45.250  24.632  28.634  1.00  0.00     0.031 C 
ATOM     55  C   UNL A   1      47.035  29.913  31.054  1.00  0.00     0.029 A 
ATOM     56  C   UNL A   1      46.262  28.913  30.483  1.00  0.00     0.049 A 
ATOM     57  H   UNL A   1      44.223  28.957  29.945  1.00  0.00     0.167 HD
ATOM     58  C   UNL A   1      45.836  26.650  29.558  1.00  0.00     0.074 A 
ATOM     59  C   UNL A   1      46.247  25.312  29.183  1.00  0.00     0.031 C 
ATOM     60  C   UNL A   1      46.660  27.578  30.105  1.00  0.00     0.037 A 
BRANCH  47  61
ATOM     61  C   UNL A   1      43.934  33.020  31.250  1.00  0.00     0.058 A 
ATOM     62  C   UNL A   1      44.295  34.061  30.378  1.00  0.00     0.135 A 
ATOM     63  C   UNL A   1      43.698  33.354  32.595  1.00  0.00     0.135 A 
ATOM     64  F   UNL A   1      44.543  33.803  29.083  1.00  0.00    -0.206 F 
ATOM     65  C   UNL A   1      44.469  35.366  30.830  1.00  0.00     0.059 A 
ATOM     66  C   UNL A   1      43.830  34.659  33.061  1.00  0.00     0.059 A 
ATOM     67  F   UNL A   1      43.343  32.405  33.475  1.00  0.00    -0.206 F 
ATOM     68  C   UNL A   1      44.239  35.654  32.175  1.00  0.00     0.060 A 
BRANCH  68  69
ATOM     69  S   UNL A   1      44.494  37.346  32.751  1.00  0.00     0.124 S 
ATOM     70  O   UNL A   1      44.088  38.116  31.578  1.00  0.00    -0.237 OA
ATOM     71  O   UNL A   1      43.594  37.423  33.899  1.00  0.00    -0.237 OA
ATOM     72  O   UNL A   1      45.916  37.389  33.068  1.00  0.00    -0.744 OA
ENDBRANCH  68  69
ENDBRANCH  47  61
BRANCH  48  73
ATOM     73  C   UNL A   1      42.600  23.761  27.711  1.00  0.00     0.058 A 
ATOM     74  C   UNL A   1      42.615  23.523  26.328  1.00  0.00     0.135 A 
ATOM     75  C   UNL A   1      42.436  22.655  28.559  1.00  0.00     0.135 A 
ATOM     76  F   UNL A   1      42.758  24.547  25.473  1.00  0.00    -0.206 F 
ATOM     77  C   UNL A   1      42.472  22.241  25.805  1.00  0.00     0.059 A 
ATOM     78  C   UNL A   1      42.317  21.360  28.062  1.00  0.00     0.059 A 
ATOM     79  F   UNL A   1      42.428  22.824  29.891  1.00  0.00    -0.206 F 
ATOM     80  C   UNL A   1      42.332  21.164  26.681  1.00  0.00     0.060 A 
BRANCH  80  81
ATOM     81  S   UNL A   1      42.226  19.497  25.994  1.00  0.00     0.124 S 
ATOM     82  O   UNL A   1      42.747  18.691  27.093  1.00  0.00    -0.237 OA
ATOM     83  O   UNL A   1      40.796  19.368  25.729  1.00  0.00    -0.237 OA
ATOM     84  O   UNL A   1      43.071  19.569  24.807  1.00  0.00    -0.744 OA
ENDBRANCH  80  81
ENDBRANCH  48  73
BRANCH  60  85
ATOM     85  C   UNL A   1      48.087  27.174  30.365  1.00  0.00     0.058 A 
ATOM     86  C   UNL A   1      49.125  27.515  29.485  1.00  0.00     0.135 A 
ATOM     87  C   UNL A   1      48.425  26.484  31.542  1.00  0.00     0.135 A 
ATOM     88  F   UNL A   1      48.857  28.168  28.343  1.00  0.00    -0.206 F 
ATOM     89  C   UNL A   1      50.446  27.166  29.749  1.00  0.00     0.059 A 
ATOM     90  C   UNL A   1      49.743  26.152  31.842  1.00  0.00     0.059 A 
ATOM     91  F   UNL A   1      47.472  26.143  32.424  1.00  0.00    -0.206 F 
ATOM     92  C   UNL A   1      50.745  26.488  30.933  1.00  0.00     0.060 A 
BRANCH  92  93
ATOM     93  S   UNL A   1      52.468  26.071  31.279  1.00  0.00     0.124 S 
ATOM     94  O   UNL A   1      52.330  24.774  31.933  1.00  0.00    -0.237 OA
ATOM     95  O   UNL A   1      53.056  26.050  29.944  1.00  0.00    -0.237 OA
ATOM     96  O   UNL A   1      52.915  27.163  32.138  1.00  0.00    -0.744 OA
ENDBRANCH  92  93
ENDBRANCH  60  85
ENDBRANCH  34  35
ENDBRANCH  26  29
ENDBRANCH  24  25
ENDBRANCH   1  24
TORSDOF 15
ENDMDL
MODEL 3
REMARK VINA RESULT:     -12.4      6.838     12.347
REMARK SMILES Cc1ccc(NC(=O)NC2(C(=O)NCCCNC(=O)c3ccc(-c4c5nc(c(-c6c(F)cc(S(=O)(=O)[O-])cc6F)c6ccc([nH]6)c(-c6c(F)cc(S(=O)(=O)[O-])cc6F)c6nc(c(-c7c(F)cc(S(=O)(=O)[O-])cc7F)c7ccc4[nH]7)C=C6)C=C5)cc3)CC2)c(C)n1
REMARK SMILES IDX 15 1 14 2 13 3 11 4 12 5 10 7 86 8 87 9 9 10 6 11 7 12 8 14
REMARK SMILES IDX 5 16 1 17 2 18 3 19 90 20 4 21 88 22 89 23 16 24 17 25 18 26
REMARK SMILES IDX 19 28 20 29 21 30 85 31 22 32 84 33 23 34 24 35 25 36 78 37
REMARK SMILES IDX 26 38 83 39 77 40 79 41 27 42 82 43 76 44 75 45 28 47 62 48
REMARK SMILES IDX 41 49 61 50 42 51 45 52 60 53 80 54 43 55 44 56 59 58 81 59
REMARK SMILES IDX 46 60 29 61 30 62 39 63 31 64 32 65 38 66 40 67 33 68 34 69
REMARK SMILES IDX 35 70 36 71 37 72 63 73 64 74 73 75 65 76 66 77 72 78 74 79
REMARK SMILES IDX 67 80 68 81 69 82 70 83 71 84 47 85 48 86 57 87 49 88 50 89
REMARK SMILES IDX 56 90 58 91 51 92 52 93 53 94 54 95 55 96
REMARK H PARENT 13 6 6 13 9 15 17 27 79 46 45 57
REMARK Flexibility Score: inf
ROOT
ATOM      1  C   UNL A   1      37.003  23.733  25.214  1.00  0.00     0.042 C 
ENDROOT
BRANCH   1   2
ATOM      2  C   UNL A   1      35.503  23.523  25.527  1.00  0.00     0.117 C 
BRANCH   2   3
ATOM      3  N   UNL A   1      34.634  23.886  24.389  1.00  0.00    -0.354 N 
ATOM      4  C   UNL A   1      33.432  24.572  24.504  1.00  0.00     0.245 C 
ATOM      5  O   UNL A   1      33.233  25.404  25.397  1.00  0.00    -0.272 OA
ATOM      6  H   UNL A   1      34.927  23.623  23.487  1.00  0.00     0.163 HD
BRANCH   4   7
ATOM      7  C   UNL A   1      32.309  24.270  23.460  1.00  0.00     0.120 C 
ATOM      8  C   UNL A   1      30.915  24.677  23.983  1.00  0.00     0.041 C 
ATOM      9  C   UNL A   1      31.067  23.330  23.430  1.00  0.00     0.041 C 
BRANCH   7  10
ATOM     10  N   UNL A   1      32.763  24.367  22.136  1.00  0.00    -0.323 N 
ATOM     11  N   UNL A   1      32.539  26.733  21.890  1.00  0.00    -0.306 N 
ATOM     12  C   UNL A   1      32.863  25.504  21.454  1.00  0.00     0.320 C 
ATOM     13  H   UNL A   1      32.678  27.310  21.103  1.00  0.00     0.171 HD
ATOM     14  O   UNL A   1      33.278  25.426  20.291  1.00  0.00    -0.248 OA
ATOM     15  H   UNL A   1      33.027  23.535  21.681  1.00  0.00     0.166 HD
BRANCH  11  16
ATOM     16  C   UNL A   1      32.093  27.644  22.918  1.00  0.00     0.064 A 
ATOM     17  C   UNL A   1      31.849  30.519  26.132  1.00  0.00     0.067 C 
ATOM     18  C   UNL A   1      32.043  29.499  25.067  1.00  0.00     0.038 A 
ATOM     19  C   UNL A   1      33.254  29.062  24.621  1.00  0.00     0.025 A 
ATOM     20  N   UNL A   1      30.921  29.060  24.504  1.00  0.00    -0.256 NA
ATOM     21  C   UNL A   1      33.262  28.137  23.578  1.00  0.00     0.030 A 
ATOM     22  C   UNL A   1      30.895  28.201  23.437  1.00  0.00     0.061 A 
ATOM     23  C   UNL A   1      29.431  28.205  23.133  1.00  0.00     0.069 C 
ENDBRANCH  11  16
ENDBRANCH   7  10
ENDBRANCH   4   7
ENDBRANCH   2   3
ENDBRANCH   1   2
BRANCH   1  24
ATOM     24  C   UNL A   1      37.938  24.078  26.375  1.00  0.00     0.118 C 
BRANCH  24  25
ATOM     25  N   UNL A   1      39.357  23.928  26.093  1.00  0.00    -0.352 N 
ATOM     26  C   UNL A   1      40.464  24.590  26.586  1.00  0.00     0.251 C 
ATOM     27  H   UNL A   1      39.566  23.229  25.432  1.00  0.00     0.163 HD
ATOM     28  O   UNL A   1      41.567  24.290  26.127  1.00  0.00    -0.269 OA
BRANCH  26  29
ATOM     29  C   UNL A   1      40.384  25.665  27.618  1.00  0.00     0.039 A 
ATOM     30  C   UNL A   1      39.419  25.554  28.632  1.00  0.00     0.014 A 
ATOM     31  C   UNL A   1      41.187  26.806  27.589  1.00  0.00     0.014 A 
ATOM     32  C   UNL A   1      39.309  26.533  29.632  1.00  0.00     0.010 A 
ATOM     33  C   UNL A   1      41.144  27.732  28.638  1.00  0.00     0.010 A 
ATOM     34  C   UNL A   1      40.199  27.615  29.671  1.00  0.00    -0.014 A 
BRANCH  34  35
ATOM     35  C   UNL A   1      40.152  28.641  30.756  1.00  0.00     0.031 A 
ATOM     36  C   UNL A   1      41.045  28.513  31.968  1.00  0.00     0.074 A 
ATOM     37  C   UNL A   1      39.258  29.651  30.697  1.00  0.00     0.049 A 
ATOM     38  N   UNL A   1      41.083  29.244  33.054  1.00  0.00    -0.248 NA
ATOM     39  C   UNL A   1      41.996  27.390  31.973  1.00  0.00     0.031 C 
ATOM     40  C   UNL A   1      38.305  29.872  29.608  1.00  0.00     0.029 A 
ATOM     41  N   UNL A   1      38.996  30.676  31.576  1.00  0.00    -0.354 N 
ATOM     42  C   UNL A   1      42.039  28.655  33.877  1.00  0.00     0.074 A 
ATOM     43  C   UNL A   1      42.507  27.470  33.192  1.00  0.00     0.031 C 
ATOM     44  C   UNL A   1      37.586  30.977  29.866  1.00  0.00     0.029 A 
ATOM     45  C   UNL A   1      37.992  31.520  31.159  1.00  0.00     0.049 A 
ATOM     46  H   UNL A   1      39.481  30.794  32.424  1.00  0.00     0.167 HD
ATOM     47  C   UNL A   1      42.506  29.073  35.079  1.00  0.00     0.037 A 
ATOM     48  C   UNL A   1      37.452  32.606  31.750  1.00  0.00     0.037 A 
ATOM     49  C   UNL A   1      42.058  30.271  35.743  1.00  0.00     0.049 A 
ATOM     50  C   UNL A   1      37.980  33.053  33.087  1.00  0.00     0.074 A 
ATOM     51  C   UNL A   1      42.512  30.819  36.931  1.00  0.00     0.029 A 
ATOM     52  N   UNL A   1      41.050  31.104  35.280  1.00  0.00    -0.354 N 
ATOM     53  N   UNL A   1      38.927  32.517  33.820  1.00  0.00    -0.248 NA
ATOM     54  C   UNL A   1      37.370  34.255  33.675  1.00  0.00     0.031 C 
ATOM     55  C   UNL A   1      41.741  31.951  37.214  1.00  0.00     0.029 A 
ATOM     56  C   UNL A   1      40.848  32.146  36.171  1.00  0.00     0.049 A 
ATOM     57  H   UNL A   1      40.553  30.974  34.441  1.00  0.00     0.167 HD
ATOM     58  C   UNL A   1      39.047  33.331  34.942  1.00  0.00     0.074 A 
ATOM     59  C   UNL A   1      38.083  34.401  34.784  1.00  0.00     0.031 C 
ATOM     60  C   UNL A   1      39.883  33.206  36.002  1.00  0.00     0.037 A 
BRANCH  47  61
ATOM     61  C   UNL A   1      43.554  28.223  35.755  1.00  0.00     0.058 A 
ATOM     62  C   UNL A   1      43.213  27.210  36.667  1.00  0.00     0.135 A 
ATOM     63  C   UNL A   1      44.919  28.418  35.481  1.00  0.00     0.135 A 
ATOM     64  F   UNL A   1      41.927  26.983  36.976  1.00  0.00    -0.206 F 
ATOM     65  C   UNL A   1      44.186  26.459  37.322  1.00  0.00     0.059 A 
ATOM     66  C   UNL A   1      45.907  27.654  36.097  1.00  0.00     0.059 A 
ATOM     67  F   UNL A   1      45.307  29.365  34.613  1.00  0.00    -0.206 F 
ATOM     68  C   UNL A   1      45.531  26.693  37.034  1.00  0.00     0.060 A 
BRANCH  68  69
ATOM     69  S   UNL A   1      46.780  25.729  37.910  1.00  0.00     0.124 S 
ATOM     70  O   UNL A   1      46.828  26.419  39.197  1.00  0.00    -0.237 OA
ATOM     71  O   UNL A   1      46.187  24.394  37.931  1.00  0.00    -0.237 OA
ATOM     72  O   UNL A   1      47.968  25.871  37.078  1.00  0.00    -0.744 OA
ENDBRANCH  68  69
ENDBRANCH  47  61
BRANCH  48  73
ATOM     73  C   UNL A   1      36.372  33.364  31.060  1.00  0.00     0.058 A 
ATOM     74  C   UNL A   1      36.652  34.148  29.931  1.00  0.00     0.135 A 
ATOM     75  C   UNL A   1      35.037  33.292  31.487  1.00  0.00     0.135 A 
ATOM     76  F   UNL A   1      37.914  34.259  29.488  1.00  0.00    -0.206 F 
ATOM     77  C   UNL A   1      35.651  34.835  29.251  1.00  0.00     0.059 A 
ATOM     78  C   UNL A   1      34.014  33.949  30.808  1.00  0.00     0.059 A 
ATOM     79  F   UNL A   1      34.711  32.545  32.554  1.00  0.00    -0.206 F 
ATOM     80  C   UNL A   1      34.332  34.722  29.692  1.00  0.00     0.060 A 
BRANCH  80  81
ATOM     81  S   UNL A   1      33.031  35.555  28.756  1.00  0.00     0.124 S 
ATOM     82  O   UNL A   1      33.794  36.550  28.011  1.00  0.00    -0.237 OA
ATOM     83  O   UNL A   1      32.473  34.458  27.970  1.00  0.00    -0.237 OA
ATOM     84  O   UNL A   1      32.153  36.080  29.796  1.00  0.00    -0.744 OA
ENDBRANCH  80  81
ENDBRANCH  48  73
BRANCH  60  85
ATOM     85  C   UNL A   1      39.819  34.268  37.068  1.00  0.00     0.058 A 
ATOM     86  C   UNL A   1      40.484  35.496  36.930  1.00  0.00     0.135 A 
ATOM     87  C   UNL A   1      39.034  34.073  38.217  1.00  0.00     0.135 A 
ATOM     88  F   UNL A   1      41.253  35.733  35.855  1.00  0.00    -0.206 F 
ATOM     89  C   UNL A   1      40.393  36.485  37.905  1.00  0.00     0.059 A 
ATOM     90  C   UNL A   1      38.903  35.060  39.189  1.00  0.00     0.059 A 
ATOM     91  F   UNL A   1      38.367  32.921  38.393  1.00  0.00    -0.206 F 
ATOM     92  C   UNL A   1      39.596  36.259  39.029  1.00  0.00     0.060 A 
BRANCH  92  93
ATOM     93  S   UNL A   1      39.460  37.564  40.269  1.00  0.00     0.124 S 
ATOM     94  O   UNL A   1      38.526  38.483  39.626  1.00  0.00    -0.237 OA
ATOM     95  O   UNL A   1      38.943  36.840  41.426  1.00  0.00    -0.237 OA
ATOM     96  O   UNL A   1      40.829  38.052  40.402  1.00  0.00    -0.744 OA
ENDBRANCH  92  93
ENDBRANCH  60  85
ENDBRANCH  34  35
ENDBRANCH  26  29
ENDBRANCH  24  25
ENDBRANCH   1  24
TORSDOF 15
ENDMDL
