MODEL 1
REMARK VINA RESULT:     -13.5      0.000      0.000
REMARK SMILES O=C(CNC(=O)N1CC(NCCCNC(=O)c2ccc(-c3c4nc(c(-c5c(F)cc(S(=O)(=O)[O-])cc5F)c5ccc([nH]5)c(-c5c(F)cc(S(=O)(=O)[O-])cc5F)c5nc(c(-c6c(F)cc(S(=O)(=O)[O-])cc6F)c6ccc3[nH]6)C=C5)C=C4)cc2)=[NH+]c2ccccc21)N[C@H](C(=O)[O-])c1ccccc1
REMARK SMILES IDX 11 1 10 2 7 3 8 4 89 5 9 6 84 7 88 8 83 9 85 10 87 11 86 14
REMARK SMILES IDX 5 15 4 16 6 18 3 19 2 20 1 21 90 22 91 24 95 25 96 26 100 27
REMARK SMILES IDX 97 28 99 29 98 30 92 31 93 32 94 33 12 34 13 35 14 36 15 37
REMARK SMILES IDX 16 39 17 40 18 41 82 42 19 43 81 44 20 45 21 46 22 47 75 48
REMARK SMILES IDX 23 49 80 50 74 51 76 52 24 53 79 54 73 55 72 56 25 58 59 59
REMARK SMILES IDX 38 60 58 61 39 62 42 63 57 64 77 65 40 66 41 67 56 69 78 70
REMARK SMILES IDX 43 71 26 72 27 73 36 74 28 75 29 76 35 77 37 78 30 79 31 80
REMARK SMILES IDX 32 81 33 82 34 83 60 84 61 85 70 86 62 87 63 88 69 89 71 90
REMARK SMILES IDX 64 91 65 92 66 93 67 94 68 95 44 96 45 97 54 98 46 99 47 100
REMARK SMILES IDX 53 101 55 102 48 103 49 104 50 105 51 106 52 107
REMARK H PARENT 10 12 83 13 4 17 90 23 14 38 76 57 42 68
REMARK Flexibility Score: inf
ROOT
ATOM      1  C   UNL A   1      38.499  21.923  25.666  1.00  0.00     0.235 C 
ENDROOT
BRANCH   1   2
ATOM      2  N   UNL A   1      37.909  20.616  25.496  1.00  0.00    -0.277 N 
ATOM      3  N   UNL A   1      34.263  20.879  25.247  1.00  0.00    -0.278 N 
ATOM      4  C   UNL A   1      35.575  21.389  24.877  1.00  0.00     0.255 C 
ATOM      5  C   UNL A   1      33.965  19.599  24.717  1.00  0.00     0.093 A 
ATOM      6  C   UNL A   1      36.628  20.300  25.122  1.00  0.00     0.268 C 
ATOM      7  C   UNL A   1      35.035  18.694  24.583  1.00  0.00     0.148 A 
ATOM      8  C   UNL A   1      32.661  19.216  24.378  1.00  0.00     0.031 A 
ATOM      9  N   UNL A   1      36.356  19.033  24.946  1.00  0.00    -0.241 N 
ATOM     10  C   UNL A   1      34.762  17.384  24.187  1.00  0.00     0.054 A 
ATOM     11  C   UNL A   1      32.408  17.907  23.967  1.00  0.00     0.002 A 
ATOM     12  H   UNL A   1      38.505  19.852  25.672  1.00  0.00     0.304 HD
ATOM     13  H   UNL A   1      37.046  18.341  25.064  1.00  0.00     0.312 HD
ATOM     14  C   UNL A   1      33.454  16.988  23.888  1.00  0.00     0.005 A 
BRANCH   3  15
ATOM     15  C   UNL A   1      33.446  21.668  26.013  1.00  0.00     0.323 C 
ATOM     16  N   UNL A   1      32.589  22.534  25.413  1.00  0.00    -0.329 N 
ATOM     17  H   UNL A   1      32.219  23.228  26.005  1.00  0.00     0.165 HD
ATOM     18  O   UNL A   1      33.374  21.554  27.237  1.00  0.00    -0.248 OA
BRANCH  16  19
ATOM     19  C   UNL A   1      32.133  22.596  24.028  1.00  0.00     0.218 C 
BRANCH  19  20
ATOM     20  C   UNL A   1      31.720  24.009  23.647  1.00  0.00     0.240 C 
ATOM     21  O   UNL A   1      30.542  24.344  23.566  1.00  0.00    -0.273 OA
ATOM     22  N   UNL A   1      32.780  24.870  23.460  1.00  0.00    -0.342 N 
ATOM     23  H   UNL A   1      33.700  24.525  23.525  1.00  0.00     0.164 HD
BRANCH  22  24
ATOM     24  C   UNL A   1      32.565  26.290  23.166  1.00  0.00     0.158 C 
BRANCH  24  25
ATOM     25  C   UNL A   1      32.593  27.164  24.419  1.00  0.00    -0.020 A 
ATOM     26  C   UNL A   1      33.534  26.906  25.438  1.00  0.00     0.006 A 
ATOM     27  C   UNL A   1      31.641  28.166  24.665  1.00  0.00     0.006 A 
ATOM     28  C   UNL A   1      33.559  27.653  26.619  1.00  0.00     0.000 A 
ATOM     29  C   UNL A   1      31.663  28.912  25.848  1.00  0.00     0.000 A 
ATOM     30  C   UNL A   1      32.625  28.661  26.820  1.00  0.00     0.000 A 
ENDBRANCH  24  25
BRANCH  24  31
ATOM     31  C   UNL A   1      33.421  26.715  21.945  1.00  0.00     0.068 C 
ATOM     32  O   UNL A   1      34.064  27.748  21.785  1.00  0.00    -0.548 OA
ATOM     33  O   UNL A   1      33.269  25.901  20.868  1.00  0.00    -0.548 OA
ENDBRANCH  24  31
ENDBRANCH  22  24
ENDBRANCH  19  20
ENDBRANCH  16  19
ENDBRANCH   3  15
ENDBRANCH   1   2
BRANCH   1  34
ATOM     34  C   UNL A   1      39.777  21.850  26.495  1.00  0.00     0.067 C 
BRANCH  34  35
ATOM     35  C   UNL A   1      40.291  23.203  26.982  1.00  0.00     0.120 C 
BRANCH  35  36
ATOM     36  N   UNL A   1      41.212  23.829  26.044  1.00  0.00    -0.352 N 
ATOM     37  C   UNL A   1      41.714  25.106  25.994  1.00  0.00     0.251 C 
ATOM     38  H   UNL A   1      41.529  23.237  25.324  1.00  0.00     0.163 HD
ATOM     39  O   UNL A   1      42.339  25.456  24.995  1.00  0.00    -0.269 OA
BRANCH  37  40
ATOM     40  C   UNL A   1      41.508  26.061  27.107  1.00  0.00     0.039 A 
ATOM     41  C   UNL A   1      40.423  25.862  27.968  1.00  0.00     0.014 A 
ATOM     42  C   UNL A   1      42.328  27.179  27.278  1.00  0.00     0.014 A 
ATOM     43  C   UNL A   1      40.192  26.752  29.021  1.00  0.00     0.010 A 
ATOM     44  C   UNL A   1      42.144  28.022  28.375  1.00  0.00     0.010 A 
ATOM     45  C   UNL A   1      41.068  27.826  29.252  1.00  0.00    -0.014 A 
BRANCH  45  46
ATOM     46  C   UNL A   1      40.857  28.755  30.396  1.00  0.00     0.031 A 
ATOM     47  C   UNL A   1      41.681  28.617  31.651  1.00  0.00     0.074 A 
ATOM     48  C   UNL A   1      39.888  29.692  30.325  1.00  0.00     0.049 A 
ATOM     49  N   UNL A   1      41.608  29.300  32.765  1.00  0.00    -0.248 NA
ATOM     50  C   UNL A   1      42.705  27.558  31.668  1.00  0.00     0.031 C 
ATOM     51  C   UNL A   1      38.986  29.895  29.188  1.00  0.00     0.029 A 
ATOM     52  N   UNL A   1      39.492  30.645  31.231  1.00  0.00    -0.354 N 
ATOM     53  C   UNL A   1      42.552  28.739  33.619  1.00  0.00     0.074 A 
ATOM     54  C   UNL A   1      43.161  27.636  32.911  1.00  0.00     0.031 C 
ATOM     55  C   UNL A   1      38.156  30.916  29.458  1.00  0.00     0.029 A 
ATOM     56  C   UNL A   1      38.439  31.419  30.798  1.00  0.00     0.049 A 
ATOM     57  H   UNL A   1      39.921  30.764  32.109  1.00  0.00     0.167 HD
ATOM     58  C   UNL A   1      42.893  29.123  34.873  1.00  0.00     0.037 A 
ATOM     59  C   UNL A   1      37.770  32.413  31.414  1.00  0.00     0.037 A 
ATOM     60  C   UNL A   1      42.318  30.252  35.557  1.00  0.00     0.049 A 
ATOM     61  C   UNL A   1      38.192  32.833  32.798  1.00  0.00     0.074 A 
ATOM     62  C   UNL A   1      42.661  30.770  36.794  1.00  0.00     0.029 A 
ATOM     63  N   UNL A   1      41.287  31.037  35.067  1.00  0.00    -0.354 N 
ATOM     64  N   UNL A   1      39.148  32.346  33.554  1.00  0.00    -0.248 NA
ATOM     65  C   UNL A   1      37.457  33.950  33.408  1.00  0.00     0.031 C 
ATOM     66  C   UNL A   1      41.800  31.835  37.077  1.00  0.00     0.029 A 
ATOM     67  C   UNL A   1      40.964  32.021  35.988  1.00  0.00     0.049 A 
ATOM     68  H   UNL A   1      40.847  30.914  34.195  1.00  0.00     0.167 HD
ATOM     69  C   UNL A   1      39.154  33.124  34.708  1.00  0.00     0.074 A 
ATOM     70  C   UNL A   1      38.118  34.122  34.544  1.00  0.00     0.031 C 
ATOM     71  C   UNL A   1      39.948  33.025  35.802  1.00  0.00     0.037 A 
BRANCH  58  72
ATOM     72  C   UNL A   1      43.942  28.328  35.603  1.00  0.00     0.058 A 
ATOM     73  C   UNL A   1      45.307  28.635  35.505  1.00  0.00     0.135 A 
ATOM     74  C   UNL A   1      43.563  27.308  36.493  1.00  0.00     0.135 A 
ATOM     75  F   UNL A   1      45.728  29.587  34.657  1.00  0.00    -0.206 F 
ATOM     76  C   UNL A   1      46.261  27.959  36.260  1.00  0.00     0.059 A 
ATOM     77  C   UNL A   1      44.496  26.638  37.279  1.00  0.00     0.059 A 
ATOM     78  F   UNL A   1      42.270  26.970  36.623  1.00  0.00    -0.206 F 
ATOM     79  C   UNL A   1      45.844  26.969  37.153  1.00  0.00     0.060 A 
BRANCH  79  80
ATOM     80  S   UNL A   1      47.089  26.146  38.168  1.00  0.00     0.124 S 
ATOM     81  O   UNL A   1      47.789  25.339  37.174  1.00  0.00    -0.237 OA
ATOM     82  O   UNL A   1      47.840  27.273  38.712  1.00  0.00    -0.237 OA
ATOM     83  O   UNL A   1      46.297  25.398  39.138  1.00  0.00    -0.744 OA
ENDBRANCH  79  80
ENDBRANCH  58  72
BRANCH  59  84
ATOM     84  C   UNL A   1      36.630  33.094  30.737  1.00  0.00     0.058 A 
ATOM     85  C   UNL A   1      36.844  34.017  29.703  1.00  0.00     0.135 A 
ATOM     86  C   UNL A   1      35.305  32.870  31.144  1.00  0.00     0.135 A 
ATOM     87  F   UNL A   1      38.092  34.268  29.277  1.00  0.00    -0.206 F 
ATOM     88  C   UNL A   1      35.797  34.732  29.133  1.00  0.00     0.059 A 
ATOM     89  C   UNL A   1      34.237  33.547  30.566  1.00  0.00     0.059 A 
ATOM     90  F   UNL A   1      35.039  31.979  32.113  1.00  0.00    -0.206 F 
ATOM     91  C   UNL A   1      34.496  34.495  29.577  1.00  0.00     0.060 A 
BRANCH  91  92
ATOM     92  S   UNL A   1      33.141  35.436  28.840  1.00  0.00     0.124 S 
ATOM     93  O   UNL A   1      33.861  36.522  28.187  1.00  0.00    -0.237 OA
ATOM     94  O   UNL A   1      32.529  34.450  27.955  1.00  0.00    -0.237 OA
ATOM     95  O   UNL A   1      32.333  35.817  29.994  1.00  0.00    -0.744 OA
ENDBRANCH  91  92
ENDBRANCH  59  84
BRANCH  71  96
ATOM     96  C   UNL A   1      39.780  34.064  36.878  1.00  0.00     0.058 A 
ATOM     97  C   UNL A   1      40.357  35.339  36.781  1.00  0.00     0.135 A 
ATOM     98  C   UNL A   1      39.001  33.782  38.013  1.00  0.00     0.135 A 
ATOM     99  F   UNL A   1      41.112  35.661  35.718  1.00  0.00    -0.206 F 
ATOM    100  C   UNL A   1      40.204  36.285  37.791  1.00  0.00     0.059 A 
ATOM    101  C   UNL A   1      38.806  34.724  39.018  1.00  0.00     0.059 A 
ATOM    102  F   UNL A   1      38.413  32.583  38.150  1.00  0.00    -0.206 F 
ATOM    103  C   UNL A   1      39.428  35.965  38.908  1.00  0.00     0.060 A 
BRANCH 103 104
ATOM    104  S   UNL A   1      39.232  37.200  40.209  1.00  0.00     0.124 S 
ATOM    105  O   UNL A   1      38.480  36.452  41.211  1.00  0.00    -0.237 OA
ATOM    106  O   UNL A   1      40.614  37.512  40.557  1.00  0.00    -0.237 OA
ATOM    107  O   UNL A   1      38.499  38.277  39.548  1.00  0.00    -0.744 OA
ENDBRANCH 103 104
ENDBRANCH  71  96
ENDBRANCH  45  46
ENDBRANCH  37  40
ENDBRANCH  35  36
ENDBRANCH  34  35
ENDBRANCH   1  34
TORSDOF 18
ENDMDL
MODEL 2
REMARK VINA RESULT:     -13.1      5.377     12.877
REMARK SMILES O=C(CNC(=O)N1CC(NCCCNC(=O)c2ccc(-c3c4nc(c(-c5c(F)cc(S(=O)(=O)[O-])cc5F)c5ccc([nH]5)c(-c5c(F)cc(S(=O)(=O)[O-])cc5F)c5nc(c(-c6c(F)cc(S(=O)(=O)[O-])cc6F)c6ccc3[nH]6)C=C5)C=C4)cc2)=[NH+]c2ccccc21)N[C@H](C(=O)[O-])c1ccccc1
REMARK SMILES IDX 11 1 10 2 7 3 8 4 89 5 9 6 84 7 88 8 83 9 85 10 87 11 86 14
REMARK SMILES IDX 5 15 4 16 6 18 3 19 2 20 1 21 90 22 91 24 95 25 96 26 100 27
REMARK SMILES IDX 97 28 99 29 98 30 92 31 93 32 94 33 12 34 13 35 14 36 15 37
REMARK SMILES IDX 16 39 17 40 18 41 82 42 19 43 81 44 20 45 21 46 22 47 75 48
REMARK SMILES IDX 23 49 80 50 74 51 76 52 24 53 79 54 73 55 72 56 25 58 59 59
REMARK SMILES IDX 38 60 58 61 39 62 42 63 57 64 77 65 40 66 41 67 56 69 78 70
REMARK SMILES IDX 43 71 26 72 27 73 36 74 28 75 29 76 35 77 37 78 30 79 31 80
REMARK SMILES IDX 32 81 33 82 34 83 60 84 61 85 70 86 62 87 63 88 69 89 71 90
REMARK SMILES IDX 64 91 65 92 66 93 67 94 68 95 44 96 45 97 54 98 46 99 47 100
REMARK SMILES IDX 53 101 55 102 48 103 49 104 50 105 51 106 52 107
REMARK H PARENT 10 12 83 13 4 17 90 23 14 38 76 57 42 68
REMARK Flexibility Score: inf
ROOT
ATOM      1  C   UNL A   1      36.998  33.142  29.818  1.00  0.00     0.235 C 
ENDROOT
BRANCH   1   2
ATOM      2  N   UNL A   1      36.628  33.440  31.182  1.00  0.00    -0.277 N 
ATOM      3  N   UNL A   1      38.097  30.985  33.472  1.00  0.00    -0.278 N 
ATOM      4  C   UNL A   1      38.250  31.853  32.314  1.00  0.00     0.255 C 
ATOM      5  C   UNL A   1      37.935  31.674  34.699  1.00  0.00     0.093 A 
ATOM      6  C   UNL A   1      37.156  32.929  32.340  1.00  0.00     0.268 C 
ATOM      7  C   UNL A   1      37.233  32.894  34.664  1.00  0.00     0.148 A 
ATOM      8  C   UNL A   1      38.407  31.160  35.913  1.00  0.00     0.031 A 
ATOM      9  N   UNL A   1      36.713  33.427  33.465  1.00  0.00    -0.241 N 
ATOM     10  C   UNL A   1      36.943  33.538  35.868  1.00  0.00     0.054 A 
ATOM     11  C   UNL A   1      38.123  31.825  37.106  1.00  0.00     0.002 A 
ATOM     12  H   UNL A   1      35.901  34.095  31.295  1.00  0.00     0.304 HD
ATOM     13  H   UNL A   1      36.042  34.147  33.476  1.00  0.00     0.312 HD
ATOM     14  C   UNL A   1      37.377  33.003  37.084  1.00  0.00     0.005 A 
BRANCH   3  15
ATOM     15  C   UNL A   1      38.159  29.629  33.287  1.00  0.00     0.323 C 
ATOM     16  N   UNL A   1      39.367  29.018  33.178  1.00  0.00    -0.329 N 
ATOM     17  H   UNL A   1      39.339  28.106  32.809  1.00  0.00     0.165 HD
ATOM     18  O   UNL A   1      37.160  28.910  33.319  1.00  0.00    -0.248 OA
BRANCH  16  19
ATOM     19  C   UNL A   1      40.700  29.504  33.521  1.00  0.00     0.218 C 
BRANCH  19  20
ATOM     20  C   UNL A   1      41.324  28.668  34.627  1.00  0.00     0.240 C 
ATOM     21  O   UNL A   1      40.826  28.591  35.746  1.00  0.00    -0.273 OA
ATOM     22  N   UNL A   1      42.450  27.975  34.235  1.00  0.00    -0.342 N 
ATOM     23  H   UNL A   1      42.800  28.099  33.324  1.00  0.00     0.164 HD
BRANCH  22  24
ATOM     24  C   UNL A   1      43.135  27.056  35.150  1.00  0.00     0.158 C 
BRANCH  24  25
ATOM     25  C   UNL A   1      43.417  25.694  34.518  1.00  0.00    -0.020 A 
ATOM     26  C   UNL A   1      44.068  25.617  33.268  1.00  0.00     0.006 A 
ATOM     27  C   UNL A   1      42.958  24.490  35.076  1.00  0.00     0.006 A 
ATOM     28  C   UNL A   1      44.301  24.393  32.638  1.00  0.00     0.000 A 
ATOM     29  C   UNL A   1      43.188  23.264  34.444  1.00  0.00     0.000 A 
ATOM     30  C   UNL A   1      43.865  23.214  33.230  1.00  0.00     0.000 A 
ENDBRANCH  24  25
BRANCH  24  31
ATOM     31  C   UNL A   1      44.290  27.793  35.875  1.00  0.00     0.068 C 
ATOM     32  O   UNL A   1      44.389  28.076  37.064  1.00  0.00    -0.548 OA
ATOM     33  O   UNL A   1      45.202  28.337  35.026  1.00  0.00    -0.548 OA
ENDBRANCH  24  31
ENDBRANCH  22  24
ENDBRANCH  19  20
ENDBRANCH  16  19
ENDBRANCH   3  15
ENDBRANCH   1   2
BRANCH   1  34
ATOM     34  C   UNL A   1      35.785  33.182  28.895  1.00  0.00     0.067 C 
BRANCH  34  35
ATOM     35  C   UNL A   1      34.554  32.460  29.438  1.00  0.00     0.120 C 
BRANCH  35  36
ATOM     36  N   UNL A   1      34.017  31.478  28.507  1.00  0.00    -0.352 N 
ATOM     37  C   UNL A   1      34.625  30.437  27.851  1.00  0.00     0.251 C 
ATOM     38  H   UNL A   1      33.056  31.577  28.315  1.00  0.00     0.163 HD
ATOM     39  O   UNL A   1      34.002  29.852  26.967  1.00  0.00    -0.269 OA
BRANCH  37  40
ATOM     40  C   UNL A   1      36.008  30.019  28.178  1.00  0.00     0.039 A 
ATOM     41  C   UNL A   1      36.995  30.142  27.194  1.00  0.00     0.014 A 
ATOM     42  C   UNL A   1      36.332  29.454  29.414  1.00  0.00     0.014 A 
ATOM     43  C   UNL A   1      38.307  29.746  27.465  1.00  0.00     0.010 A 
ATOM     44  C   UNL A   1      37.657  29.132  29.711  1.00  0.00     0.010 A 
ATOM     45  C   UNL A   1      38.658  29.262  28.737  1.00  0.00    -0.014 A 
BRANCH  45  46
ATOM     46  C   UNL A   1      40.061  28.877  29.051  1.00  0.00     0.031 A 
ATOM     47  C   UNL A   1      40.999  29.871  29.690  1.00  0.00     0.074 A 
ATOM     48  C   UNL A   1      40.507  27.648  28.716  1.00  0.00     0.049 A 
ATOM     49  N   UNL A   1      42.264  29.734  29.992  1.00  0.00    -0.248 NA
ATOM     50  C   UNL A   1      40.451  31.201  30.008  1.00  0.00     0.031 C 
ATOM     51  C   UNL A   1      39.717  26.613  28.046  1.00  0.00     0.029 A 
ATOM     52  N   UNL A   1      41.739  27.063  28.884  1.00  0.00    -0.354 N 
ATOM     53  C   UNL A   1      42.669  30.961  30.509  1.00  0.00     0.074 A 
ATOM     54  C   UNL A   1      41.525  31.843  30.445  1.00  0.00     0.031 C 
ATOM     55  C   UNL A   1      40.475  25.517  27.876  1.00  0.00     0.029 A 
ATOM     56  C   UNL A   1      41.816  25.781  28.388  1.00  0.00     0.049 A 
ATOM     57  H   UNL A   1      42.497  27.518  29.317  1.00  0.00     0.167 HD
ATOM     58  C   UNL A   1      43.878  31.313  31.009  1.00  0.00     0.037 A 
ATOM     59  C   UNL A   1      42.850  24.919  28.343  1.00  0.00     0.037 A 
ATOM     60  C   UNL A   1      45.000  30.416  31.114  1.00  0.00     0.049 A 
ATOM     61  C   UNL A   1      44.174  25.332  28.932  1.00  0.00     0.074 A 
ATOM     62  C   UNL A   1      46.238  30.656  31.686  1.00  0.00     0.029 A 
ATOM     63  N   UNL A   1      45.024  29.113  30.643  1.00  0.00    -0.354 N 
ATOM     64  N   UNL A   1      44.509  26.468  29.496  1.00  0.00    -0.248 NA
ATOM     65  C   UNL A   1      45.258  24.339  28.895  1.00  0.00     0.031 C 
ATOM     66  C   UNL A   1      47.029  29.516  31.512  1.00  0.00     0.029 A 
ATOM     67  C   UNL A   1      46.263  28.545  30.890  1.00  0.00     0.049 A 
ATOM     68  H   UNL A   1      44.272  28.658  30.199  1.00  0.00     0.167 HD
ATOM     69  C   UNL A   1      45.827  26.309  29.916  1.00  0.00     0.074 A 
ATOM     70  C   UNL A   1      46.221  24.965  29.555  1.00  0.00     0.031 C 
ATOM     71  C   UNL A   1      46.635  27.196  30.548  1.00  0.00     0.037 A 
BRANCH  58  72
ATOM     72  C   UNL A   1      44.068  32.725  31.491  1.00  0.00     0.058 A 
ATOM     73  C   UNL A   1      44.413  33.767  30.617  1.00  0.00     0.135 A 
ATOM     74  C   UNL A   1      43.800  33.056  32.830  1.00  0.00     0.135 A 
ATOM     75  F   UNL A   1      44.697  33.506  29.331  1.00  0.00    -0.206 F 
ATOM     76  C   UNL A   1      44.489  35.087  31.053  1.00  0.00     0.059 A 
ATOM     77  C   UNL A   1      43.843  34.372  33.282  1.00  0.00     0.059 A 
ATOM     78  F   UNL A   1      43.470  32.098  33.711  1.00  0.00    -0.206 F 
ATOM     79  C   UNL A   1      44.191  35.380  32.386  1.00  0.00     0.060 A 
BRANCH  79  80
ATOM     80  S   UNL A   1      44.236  37.105  32.918  1.00  0.00     0.124 S 
ATOM     81  O   UNL A   1      43.215  37.115  33.961  1.00  0.00    -0.237 OA
ATOM     82  O   UNL A   1      45.614  37.252  33.378  1.00  0.00    -0.237 OA
ATOM     83  O   UNL A   1      43.902  37.844  31.705  1.00  0.00    -0.744 OA
ENDBRANCH  79  80
ENDBRANCH  58  72
BRANCH  59  84
ATOM     84  C   UNL A   1      42.690  23.573  27.723  1.00  0.00     0.058 A 
ATOM     85  C   UNL A   1      42.427  22.438  28.506  1.00  0.00     0.135 A 
ATOM     86  C   UNL A   1      42.845  23.387  26.340  1.00  0.00     0.135 A 
ATOM     87  F   UNL A   1      42.271  22.562  29.834  1.00  0.00    -0.206 F 
ATOM     88  C   UNL A   1      42.375  21.164  27.952  1.00  0.00     0.059 A 
ATOM     89  C   UNL A   1      42.763  22.127  25.757  1.00  0.00     0.059 A 
ATOM     90  F   UNL A   1      43.075  24.440  25.540  1.00  0.00    -0.206 F 
ATOM     91  C   UNL A   1      42.553  21.018  26.576  1.00  0.00     0.060 A 
BRANCH  91  92
ATOM     92  S   UNL A   1      42.495  19.359  25.864  1.00  0.00     0.124 S 
ATOM     93  O   UNL A   1      41.068  19.195  25.619  1.00  0.00    -0.237 OA
ATOM     94  O   UNL A   1      43.335  19.504  24.679  1.00  0.00    -0.237 OA
ATOM     95  O   UNL A   1      43.056  18.523  26.921  1.00  0.00    -0.744 OA
ENDBRANCH  91  92
ENDBRANCH  59  84
BRANCH  71  96
ATOM     96  C   UNL A   1      48.003  26.719  30.956  1.00  0.00     0.058 A 
ATOM     97  C   UNL A   1      48.242  26.111  32.199  1.00  0.00     0.135 A 
ATOM     98  C   UNL A   1      49.087  26.847  30.071  1.00  0.00     0.135 A 
ATOM     99  F   UNL A   1      47.243  25.965  33.084  1.00  0.00    -0.206 F 
ATOM    100  C   UNL A   1      49.516  25.688  32.567  1.00  0.00     0.059 A 
ATOM    101  C   UNL A   1      50.360  26.399  30.404  1.00  0.00     0.059 A 
ATOM    102  F   UNL A   1      48.910  27.406  28.863  1.00  0.00    -0.206 F 
ATOM    103  C   UNL A   1      50.570  25.840  31.662  1.00  0.00     0.060 A 
BRANCH 103 104
ATOM    104  S   UNL A   1      52.216  25.282  32.148  1.00  0.00     0.124 S 
ATOM    105  O   UNL A   1      53.017  25.701  31.002  1.00  0.00    -0.237 OA
ATOM    106  O   UNL A   1      52.446  26.021  33.385  1.00  0.00    -0.237 OA
ATOM    107  O   UNL A   1      52.054  23.840  32.306  1.00  0.00    -0.744 OA
ENDBRANCH 103 104
ENDBRANCH  71  96
ENDBRANCH  45  46
ENDBRANCH  37  40
ENDBRANCH  35  36
ENDBRANCH  34  35
ENDBRANCH   1  34
TORSDOF 18
ENDMDL
MODEL 3
REMARK VINA RESULT:     -12.9      1.499      4.415
REMARK SMILES O=C(CNC(=O)N1CC(NCCCNC(=O)c2ccc(-c3c4nc(c(-c5c(F)cc(S(=O)(=O)[O-])cc5F)c5ccc([nH]5)c(-c5c(F)cc(S(=O)(=O)[O-])cc5F)c5nc(c(-c6c(F)cc(S(=O)(=O)[O-])cc6F)c6ccc3[nH]6)C=C5)C=C4)cc2)=[NH+]c2ccccc21)N[C@H](C(=O)[O-])c1ccccc1
REMARK SMILES IDX 11 1 10 2 7 3 8 4 89 5 9 6 84 7 88 8 83 9 85 10 87 11 86 14
REMARK SMILES IDX 5 15 4 16 6 18 3 19 2 20 1 21 90 22 91 24 95 25 96 26 100 27
REMARK SMILES IDX 97 28 99 29 98 30 92 31 93 32 94 33 12 34 13 35 14 36 15 37
REMARK SMILES IDX 16 39 17 40 18 41 82 42 19 43 81 44 20 45 21 46 22 47 75 48
REMARK SMILES IDX 23 49 80 50 74 51 76 52 24 53 79 54 73 55 72 56 25 58 59 59
REMARK SMILES IDX 38 60 58 61 39 62 42 63 57 64 77 65 40 66 41 67 56 69 78 70
REMARK SMILES IDX 43 71 26 72 27 73 36 74 28 75 29 76 35 77 37 78 30 79 31 80
REMARK SMILES IDX 32 81 33 82 34 83 60 84 61 85 70 86 62 87 63 88 69 89 71 90
REMARK SMILES IDX 64 91 65 92 66 93 67 94 68 95 44 96 45 97 54 98 46 99 47 100
REMARK SMILES IDX 53 101 55 102 48 103 49 104 50 105 51 106 52 107
REMARK H PARENT 10 12 83 13 4 17 90 23 14 38 76 57 42 68
REMARK Flexibility Score: inf
ROOT
ATOM      1  C   UNL A   1      35.694  24.027  25.771  1.00  0.00     0.235 C 
ENDROOT
BRANCH   1   2
ATOM      2  N   UNL A   1      35.113  24.769  24.677  1.00  0.00    -0.277 N 
ATOM      3  N   UNL A   1      31.575  25.460  25.332  1.00  0.00    -0.278 N 
ATOM      4  C   UNL A   1      32.943  25.401  25.825  1.00  0.00     0.255 C 
ATOM      5  C   UNL A   1      31.345  26.475  24.370  1.00  0.00     0.093 A 
ATOM      6  C   UNL A   1      33.911  25.428  24.635  1.00  0.00     0.268 C 
ATOM      7  C   UNL A   1      32.401  26.775  23.489  1.00  0.00     0.148 A 
ATOM      8  C   UNL A   1      30.113  27.131  24.256  1.00  0.00     0.031 A 
ATOM      9  N   UNL A   1      33.645  26.111  23.552  1.00  0.00    -0.241 N 
ATOM     10  C   UNL A   1      32.172  27.676  22.448  1.00  0.00     0.054 A 
ATOM     11  C   UNL A   1      29.907  28.041  23.219  1.00  0.00     0.002 A 
ATOM     12  H   UNL A   1      35.651  24.806  23.852  1.00  0.00     0.304 HD
ATOM     13  H   UNL A   1      34.288  26.159  22.808  1.00  0.00     0.312 HD
ATOM     14  C   UNL A   1      30.929  28.300  22.307  1.00  0.00     0.005 A 
BRANCH   3  15
ATOM     15  C   UNL A   1      30.654  24.588  25.850  1.00  0.00     0.323 C 
ATOM     16  N   UNL A   1      30.525  23.346  25.318  1.00  0.00    -0.329 N 
ATOM     17  H   UNL A   1      29.699  22.871  25.566  1.00  0.00     0.165 HD
ATOM     18  O   UNL A   1      29.996  24.844  26.860  1.00  0.00    -0.248 OA
BRANCH  16  19
ATOM     19  C   UNL A   1      31.420  22.607  24.434  1.00  0.00     0.218 C 
BRANCH  19  20
ATOM     20  C   UNL A   1      32.481  21.857  25.224  1.00  0.00     0.240 C 
ATOM     21  O   UNL A   1      32.629  22.018  26.431  1.00  0.00    -0.273 OA
ATOM     22  N   UNL A   1      33.205  20.955  24.473  1.00  0.00    -0.342 N 
ATOM     23  H   UNL A   1      33.041  20.893  23.504  1.00  0.00     0.164 HD
BRANCH  22  24
ATOM     24  C   UNL A   1      34.214  20.088  25.088  1.00  0.00     0.158 C 
BRANCH  24  25
ATOM     25  C   UNL A   1      33.861  18.605  24.986  1.00  0.00    -0.020 A 
ATOM     26  C   UNL A   1      34.685  17.733  24.245  1.00  0.00     0.006 A 
ATOM     27  C   UNL A   1      32.675  18.072  25.515  1.00  0.00     0.006 A 
ATOM     28  C   UNL A   1      34.369  16.381  24.089  1.00  0.00     0.000 A 
ATOM     29  C   UNL A   1      32.356  16.719  25.357  1.00  0.00     0.000 A 
ATOM     30  C   UNL A   1      33.205  15.873  24.652  1.00  0.00     0.000 A 
ENDBRANCH  24  25
BRANCH  24  31
ATOM     31  C   UNL A   1      35.634  20.544  24.665  1.00  0.00     0.068 C 
ATOM     32  O   UNL A   1      36.718  20.179  25.109  1.00  0.00    -0.548 OA
ATOM     33  O   UNL A   1      35.632  21.613  23.825  1.00  0.00    -0.548 OA
ENDBRANCH  24  31
ENDBRANCH  22  24
ENDBRANCH  19  20
ENDBRANCH  16  19
ENDBRANCH   3  15
ENDBRANCH   1   2
BRANCH   1  34
ATOM     34  C   UNL A   1      37.149  23.670  25.487  1.00  0.00     0.067 C 
BRANCH  34  35
ATOM     35  C   UNL A   1      38.123  24.065  26.595  1.00  0.00     0.120 C 
BRANCH  35  36
ATOM     36  N   UNL A   1      39.513  24.037  26.161  1.00  0.00    -0.352 N 
ATOM     37  C   UNL A   1      40.577  24.833  26.506  1.00  0.00     0.251 C 
ATOM     38  H   UNL A   1      39.726  23.328  25.513  1.00  0.00     0.163 HD
ATOM     39  O   UNL A   1      41.622  24.731  25.866  1.00  0.00    -0.269 OA
BRANCH  37  40
ATOM     40  C   UNL A   1      40.485  25.809  27.616  1.00  0.00     0.039 A 
ATOM     41  C   UNL A   1      41.382  26.882  27.641  1.00  0.00     0.014 A 
ATOM     42  C   UNL A   1      39.571  25.650  28.661  1.00  0.00     0.014 A 
ATOM     43  C   UNL A   1      41.331  27.814  28.681  1.00  0.00     0.010 A 
ATOM     44  C   UNL A   1      39.468  26.623  29.656  1.00  0.00     0.010 A 
ATOM     45  C   UNL A   1      40.354  27.710  29.685  1.00  0.00    -0.014 A 
BRANCH  45  46
ATOM     46  C   UNL A   1      40.262  28.720  30.774  1.00  0.00     0.031 A 
ATOM     47  C   UNL A   1      41.118  28.589  32.009  1.00  0.00     0.074 A 
ATOM     48  C   UNL A   1      39.372  29.729  30.675  1.00  0.00     0.049 A 
ATOM     49  N   UNL A   1      41.142  29.340  33.080  1.00  0.00    -0.248 NA
ATOM     50  C   UNL A   1      42.052  27.450  32.060  1.00  0.00     0.031 C 
ATOM     51  C   UNL A   1      38.448  29.938  29.558  1.00  0.00     0.029 A 
ATOM     52  N   UNL A   1      39.088  30.764  31.533  1.00  0.00    -0.354 N 
ATOM     53  C   UNL A   1      42.068  28.754  33.937  1.00  0.00     0.074 A 
ATOM     54  C   UNL A   1      42.558  27.564  33.280  1.00  0.00     0.031 C 
ATOM     55  C   UNL A   1      37.715  31.040  29.789  1.00  0.00     0.029 A 
ATOM     56  C   UNL A   1      38.087  31.596  31.086  1.00  0.00     0.049 A 
ATOM     57  H   UNL A   1      39.558  30.899  32.388  1.00  0.00     0.167 HD
ATOM     58  C   UNL A   1      42.485  29.182  35.153  1.00  0.00     0.037 A 
ATOM     59  C   UNL A   1      37.525  32.678  31.659  1.00  0.00     0.037 A 
ATOM     60  C   UNL A   1      42.030  30.395  35.782  1.00  0.00     0.049 A 
ATOM     61  C   UNL A   1      38.030  33.143  33.000  1.00  0.00     0.074 A 
ATOM     62  C   UNL A   1      42.460  30.955  36.974  1.00  0.00     0.029 A 
ATOM     63  N   UNL A   1      41.049  31.233  35.278  1.00  0.00    -0.354 N 
ATOM     64  N   UNL A   1      38.970  32.623  33.754  1.00  0.00    -0.248 NA
ATOM     65  C   UNL A   1      37.412  34.353  33.562  1.00  0.00     0.031 C 
ATOM     66  C   UNL A   1      41.700  32.104  37.216  1.00  0.00     0.029 A 
ATOM     67  C   UNL A   1      40.842  32.293  36.145  1.00  0.00     0.049 A 
ATOM     68  H   UNL A   1      40.569  31.095  34.429  1.00  0.00     0.167 HD
ATOM     69  C   UNL A   1      39.082  33.466  34.856  1.00  0.00     0.074 A 
ATOM     70  C   UNL A   1      38.126  34.535  34.663  1.00  0.00     0.031 C 
ATOM     71  C   UNL A   1      39.906  33.366  35.929  1.00  0.00     0.037 A 
BRANCH  58  72
ATOM     72  C   UNL A   1      43.492  28.347  35.897  1.00  0.00     0.058 A 
ATOM     73  C   UNL A   1      43.106  27.271  36.711  1.00  0.00     0.135 A 
ATOM     74  C   UNL A   1      44.867  28.565  35.710  1.00  0.00     0.135 A 
ATOM     75  F   UNL A   1      41.806  27.027  36.940  1.00  0.00    -0.206 F 
ATOM     76  C   UNL A   1      44.047  26.443  37.316  1.00  0.00     0.059 A 
ATOM     77  C   UNL A   1      45.825  27.733  36.282  1.00  0.00     0.059 A 
ATOM     78  F   UNL A   1      45.292  29.583  34.945  1.00  0.00    -0.206 F 
ATOM     79  C   UNL A   1      45.405  26.676  37.086  1.00  0.00     0.060 A 
BRANCH  79  80
ATOM     80  S   UNL A   1      46.608  25.554  37.830  1.00  0.00     0.124 S 
ATOM     81  O   UNL A   1      47.647  26.485  38.259  1.00  0.00    -0.237 OA
ATOM     82  O   UNL A   1      45.833  24.932  38.898  1.00  0.00    -0.237 OA
ATOM     83  O   UNL A   1      46.975  24.670  36.728  1.00  0.00    -0.744 OA
ENDBRANCH  79  80
ENDBRANCH  58  72
BRANCH  59  84
ATOM     84  C   UNL A   1      36.420  33.410  30.978  1.00  0.00     0.058 A 
ATOM     85  C   UNL A   1      36.669  34.237  29.871  1.00  0.00     0.135 A 
ATOM     86  C   UNL A   1      35.099  33.336  31.449  1.00  0.00     0.135 A 
ATOM     87  F   UNL A   1      37.914  34.343  29.382  1.00  0.00    -0.206 F 
ATOM     88  C   UNL A   1      35.664  35.002  29.289  1.00  0.00     0.059 A 
ATOM     89  C   UNL A   1      34.070  34.066  30.863  1.00  0.00     0.059 A 
ATOM     90  F   UNL A   1      34.799  32.543  32.490  1.00  0.00    -0.206 F 
ATOM     91  C   UNL A   1      34.368  34.915  29.799  1.00  0.00     0.060 A 
BRANCH  91  92
ATOM     92  S   UNL A   1      33.070  35.921  29.046  1.00  0.00     0.124 S 
ATOM     93  O   UNL A   1      32.352  34.928  28.256  1.00  0.00    -0.237 OA
ATOM     94  O   UNL A   1      32.366  36.438  30.216  1.00  0.00    -0.237 OA
ATOM     95  O   UNL A   1      33.817  36.916  28.284  1.00  0.00    -0.744 OA
ENDBRANCH  91  92
ENDBRANCH  59  84
BRANCH  71  96
ATOM     96  C   UNL A   1      39.863  34.478  36.943  1.00  0.00     0.058 A 
ATOM     97  C   UNL A   1      40.694  35.605  36.850  1.00  0.00     0.135 A 
ATOM     98  C   UNL A   1      38.949  34.424  38.009  1.00  0.00     0.135 A 
ATOM     99  F   UNL A   1      41.587  35.707  35.853  1.00  0.00    -0.206 F 
ATOM    100  C   UNL A   1      40.652  36.618  37.804  1.00  0.00     0.059 A 
ATOM    101  C   UNL A   1      38.866  35.442  38.953  1.00  0.00     0.059 A 
ATOM    102  F   UNL A   1      38.119  33.376  38.136  1.00  0.00    -0.206 F 
ATOM    103  C   UNL A   1      39.736  36.525  38.854  1.00  0.00     0.060 A 
BRANCH 103 104
ATOM    104  S   UNL A   1      39.686  37.847  40.081  1.00  0.00     0.124 S 
ATOM    105  O   UNL A   1      41.003  38.454  39.911  1.00  0.00    -0.237 OA
ATOM    106  O   UNL A   1      38.555  38.651  39.631  1.00  0.00    -0.237 OA
ATOM    107  O   UNL A   1      39.481  37.136  41.340  1.00  0.00    -0.744 OA
ENDBRANCH 103 104
ENDBRANCH  71  96
ENDBRANCH  45  46
ENDBRANCH  37  40
ENDBRANCH  35  36
ENDBRANCH  34  35
ENDBRANCH   1  34
TORSDOF 18
ENDMDL
