MODEL 1
REMARK VINA RESULT:     -10.8      0.000      0.000
REMARK SMILES Cc1cc(C(=O)N[C@H](C(=O)NCCCNC(=O)c2ccc(-c3c4nc(c(-c5c(F)cc(S(=O)(=O)[O-])cc5F)c5ccc([nH]5)c(-c5c(F)cc(S(=O)(=O)[O-])cc5F)c5nc(c(-c6c(F)cc(S(=O)(=O)[O-])cc6F)c6ccc3[nH]6)C=C5)C=C4)cc2)C(C)C)c(C)s1
REMARK SMILES IDX 13 1 12 2 11 3 9 4 10 5 8 7 7 8 5 9 6 10 4 12 1 13 2 14 3 15
REMARK SMILES IDX 89 16 87 17 88 18 84 19 85 20 86 21 14 22 15 23 16 24 17 26
REMARK SMILES IDX 18 27 19 28 83 29 20 30 82 31 21 32 22 33 23 34 76 35 24 36
REMARK SMILES IDX 81 37 75 38 77 39 25 40 80 41 74 42 73 43 26 45 60 46 39 47
REMARK SMILES IDX 59 48 40 49 43 50 58 51 78 52 41 53 42 54 57 56 79 57 44 58
REMARK SMILES IDX 27 59 28 60 37 61 29 62 30 63 36 64 38 65 31 66 32 67 33 68
REMARK SMILES IDX 34 69 35 70 61 71 62 72 71 73 63 74 64 75 70 76 72 77 65 78
REMARK SMILES IDX 66 79 67 80 68 81 69 82 45 83 46 84 55 85 47 86 48 87 54 88
REMARK SMILES IDX 56 89 49 90 50 91 51 92 52 93 53 94
REMARK H PARENT 11 6 7 11 15 25 77 44 43 55
REMARK Flexibility Score: inf
ROOT
ATOM      1  C   UNL A   1      31.919  27.813  27.015  1.00  0.00     0.042 C 
ENDROOT
BRANCH   1   2
ATOM      2  C   UNL A   1      31.941  26.455  26.327  1.00  0.00     0.117 C 
BRANCH   2   3
ATOM      3  N   UNL A   1      33.287  25.916  26.214  1.00  0.00    -0.354 N 
ATOM      4  C   UNL A   1      33.803  24.959  25.387  1.00  0.00     0.242 C 
ATOM      5  O   UNL A   1      34.950  24.589  25.643  1.00  0.00    -0.273 OA
ATOM      6  H   UNL A   1      33.938  26.308  26.841  1.00  0.00     0.163 HD
BRANCH   4   7
ATOM      7  C   UNL A   1      32.916  24.293  24.291  1.00  0.00     0.174 C 
BRANCH   7   8
ATOM      8  N   UNL A   1      33.341  24.739  22.954  1.00  0.00    -0.340 N 
ATOM      9  C   UNL A   1      32.974  25.741  22.094  1.00  0.00     0.253 C 
ATOM     10  O   UNL A   1      33.492  25.668  20.982  1.00  0.00    -0.269 OA
ATOM     11  H   UNL A   1      34.065  24.181  22.589  1.00  0.00     0.164 HD
BRANCH   9  12
ATOM     12  C   UNL A   1      32.085  26.850  22.476  1.00  0.00     0.053 A 
ATOM     13  C   UNL A   1      28.641  28.274  23.196  1.00  0.00     0.056 C 
ATOM     14  C   UNL A   1      30.091  28.010  22.986  1.00  0.00     0.003 A 
ATOM     15  C   UNL A   1      30.664  26.964  22.300  1.00  0.00     0.029 A 
ATOM     16  S   UNL A   1      31.275  29.047  23.611  1.00  0.00    -0.145 S 
ATOM     17  C   UNL A   1      32.552  28.020  23.085  1.00  0.00     0.014 A 
ATOM     18  C   UNL A   1      33.945  28.487  23.380  1.00  0.00     0.057 C 
ENDBRANCH   9  12
ENDBRANCH   7   8
BRANCH   7  19
ATOM     19  C   UNL A   1      32.627  22.767  24.345  1.00  0.00     0.015 C 
ATOM     20  C   UNL A   1      31.306  22.382  25.016  1.00  0.00     0.010 C 
ATOM     21  C   UNL A   1      32.641  22.178  22.926  1.00  0.00     0.010 C 
ENDBRANCH   7  19
ENDBRANCH   4   7
ENDBRANCH   2   3
ENDBRANCH   1   2
BRANCH   1  22
ATOM     22  C   UNL A   1      33.291  28.390  27.335  1.00  0.00     0.118 C 
BRANCH  22  23
ATOM     23  N   UNL A   1      33.279  29.835  27.510  1.00  0.00    -0.352 N 
ATOM     24  C   UNL A   1      34.269  30.670  27.974  1.00  0.00     0.251 C 
ATOM     25  H   UNL A   1      32.438  30.281  27.259  1.00  0.00     0.163 HD
ATOM     26  O   UNL A   1      34.017  31.853  28.183  1.00  0.00    -0.269 OA
BRANCH  24  27
ATOM     27  C   UNL A   1      35.623  30.141  28.256  1.00  0.00     0.039 A 
ATOM     28  C   UNL A   1      36.579  30.155  27.236  1.00  0.00     0.014 A 
ATOM     29  C   UNL A   1      35.958  29.640  29.517  1.00  0.00     0.014 A 
ATOM     30  C   UNL A   1      37.889  29.746  27.504  1.00  0.00     0.010 A 
ATOM     31  C   UNL A   1      37.280  29.308  29.805  1.00  0.00     0.010 A 
ATOM     32  C   UNL A   1      38.262  29.361  28.803  1.00  0.00    -0.014 A 
BRANCH  32  33
ATOM     33  C   UNL A   1      39.671  29.026  29.138  1.00  0.00     0.031 A 
ATOM     34  C   UNL A   1      40.580  30.074  29.725  1.00  0.00     0.074 A 
ATOM     35  C   UNL A   1      40.158  27.805  28.831  1.00  0.00     0.049 A 
ATOM     36  N   UNL A   1      41.861  30.003  29.982  1.00  0.00    -0.248 NA
ATOM     37  C   UNL A   1      39.978  31.381  30.036  1.00  0.00     0.031 C 
ATOM     38  C   UNL A   1      39.400  26.723  28.198  1.00  0.00     0.029 A 
ATOM     39  N   UNL A   1      41.415  27.275  28.989  1.00  0.00    -0.354 N 
ATOM     40  C   UNL A   1      42.224  31.259  30.453  1.00  0.00     0.074 A 
ATOM     41  C   UNL A   1      41.035  32.084  30.417  1.00  0.00     0.031 C 
ATOM     42  C   UNL A   1      40.202  25.660  28.028  1.00  0.00     0.029 A 
ATOM     43  C   UNL A   1      41.540  25.992  28.506  1.00  0.00     0.049 A 
ATOM     44  H   UNL A   1      42.158  27.767  29.408  1.00  0.00     0.167 HD
ATOM     45  C   UNL A   1      43.432  31.681  30.893  1.00  0.00     0.037 A 
ATOM     46  C   UNL A   1      42.613  25.180  28.442  1.00  0.00     0.037 A 
ATOM     47  C   UNL A   1      44.598  30.842  30.984  1.00  0.00     0.049 A 
ATOM     48  C   UNL A   1      43.933  25.660  28.984  1.00  0.00     0.074 A 
ATOM     49  C   UNL A   1      45.839  31.153  31.514  1.00  0.00     0.029 A 
ATOM     50  N   UNL A   1      44.667  29.530  30.544  1.00  0.00    -0.354 N 
ATOM     51  N   UNL A   1      44.234  26.826  29.503  1.00  0.00    -0.248 NA
ATOM     52  C   UNL A   1      45.058  24.714  28.936  1.00  0.00     0.031 C 
ATOM     53  C   UNL A   1      46.671  30.039  31.359  1.00  0.00     0.029 A 
ATOM     54  C   UNL A   1      45.935  29.023  30.770  1.00  0.00     0.049 A 
ATOM     55  H   UNL A   1      43.925  29.033  30.130  1.00  0.00     0.167 HD
ATOM     56  C   UNL A   1      45.574  26.744  29.866  1.00  0.00     0.074 A 
ATOM     57  C   UNL A   1      46.023  25.413  29.520  1.00  0.00     0.031 C 
ATOM     58  C   UNL A   1      46.363  27.690  30.433  1.00  0.00     0.037 A 
BRANCH  45  59
ATOM     59  C   UNL A   1      43.566  33.112  31.332  1.00  0.00     0.058 A 
ATOM     60  C   UNL A   1      43.357  33.495  32.667  1.00  0.00     0.135 A 
ATOM     61  C   UNL A   1      43.987  34.098  30.425  1.00  0.00     0.135 A 
ATOM     62  F   UNL A   1      42.938  32.596  33.570  1.00  0.00    -0.206 F 
ATOM     63  C   UNL A   1      43.556  34.806  33.085  1.00  0.00     0.059 A 
ATOM     64  C   UNL A   1      44.213  35.411  30.826  1.00  0.00     0.059 A 
ATOM     65  F   UNL A   1      44.197  33.784  29.136  1.00  0.00    -0.206 F 
ATOM     66  C   UNL A   1      43.990  35.757  32.158  1.00  0.00     0.060 A 
BRANCH  66  67
ATOM     67  S   UNL A   1      44.286  37.444  32.727  1.00  0.00     0.124 S 
ATOM     68  O   UNL A   1      45.628  37.331  33.287  1.00  0.00    -0.237 OA
ATOM     69  O   UNL A   1      44.177  38.214  31.492  1.00  0.00    -0.237 OA
ATOM     70  O   UNL A   1      43.218  37.668  33.697  1.00  0.00    -0.744 OA
ENDBRANCH  66  67
ENDBRANCH  45  59
BRANCH  46  71
ATOM     71  C   UNL A   1      42.493  23.825  27.842  1.00  0.00     0.058 A 
ATOM     72  C   UNL A   1      42.354  22.685  28.648  1.00  0.00     0.135 A 
ATOM     73  C   UNL A   1      42.533  23.641  26.452  1.00  0.00     0.135 A 
ATOM     74  F   UNL A   1      42.317  22.811  29.984  1.00  0.00    -0.206 F 
ATOM     75  C   UNL A   1      42.292  21.408  28.101  1.00  0.00     0.059 A 
ATOM     76  C   UNL A   1      42.446  22.375  25.879  1.00  0.00     0.059 A 
ATOM     77  F   UNL A   1      42.643  24.700  25.635  1.00  0.00    -0.206 F 
ATOM     78  C   UNL A   1      42.342  21.264  26.714  1.00  0.00     0.060 A 
BRANCH  78  79
ATOM     79  S   UNL A   1      42.240  19.605  26.006  1.00  0.00     0.124 S 
ATOM     80  O   UNL A   1      43.207  19.692  24.918  1.00  0.00    -0.237 OA
ATOM     81  O   UNL A   1      42.621  18.762  27.135  1.00  0.00    -0.237 OA
ATOM     82  O   UNL A   1      40.840  19.501  25.603  1.00  0.00    -0.744 OA
ENDBRANCH  78  79
ENDBRANCH  46  71
BRANCH  58  83
ATOM     83  C   UNL A   1      47.782  27.311  30.747  1.00  0.00     0.058 A 
ATOM     84  C   UNL A   1      48.161  26.881  32.028  1.00  0.00     0.135 A 
ATOM     85  C   UNL A   1      48.760  27.323  29.740  1.00  0.00     0.135 A 
ATOM     86  F   UNL A   1      47.263  26.857  33.026  1.00  0.00    -0.206 F 
ATOM     87  C   UNL A   1      49.468  26.495  32.305  1.00  0.00     0.059 A 
ATOM     88  C   UNL A   1      50.067  26.920  29.989  1.00  0.00     0.059 A 
ATOM     89  F   UNL A   1      48.444  27.717  28.496  1.00  0.00    -0.206 F 
ATOM     90  C   UNL A   1      50.415  26.517  31.278  1.00  0.00     0.060 A 
BRANCH  90  91
ATOM     91  S   UNL A   1      52.099  25.978  31.640  1.00  0.00     0.124 S 
ATOM     92  O   UNL A   1      52.822  26.468  30.471  1.00  0.00    -0.237 OA
ATOM     93  O   UNL A   1      52.386  26.662  32.897  1.00  0.00    -0.237 OA
ATOM     94  O   UNL A   1      51.977  24.527  31.739  1.00  0.00    -0.744 OA
ENDBRANCH  90  91
ENDBRANCH  58  83
ENDBRANCH  32  33
ENDBRANCH  24  27
ENDBRANCH  22  23
ENDBRANCH   1  22
TORSDOF 16
ENDMDL
MODEL 2
REMARK VINA RESULT:     -10.7      2.918      3.823
REMARK SMILES Cc1cc(C(=O)N[C@H](C(=O)NCCCNC(=O)c2ccc(-c3c4nc(c(-c5c(F)cc(S(=O)(=O)[O-])cc5F)c5ccc([nH]5)c(-c5c(F)cc(S(=O)(=O)[O-])cc5F)c5nc(c(-c6c(F)cc(S(=O)(=O)[O-])cc6F)c6ccc3[nH]6)C=C5)C=C4)cc2)C(C)C)c(C)s1
REMARK SMILES IDX 13 1 12 2 11 3 9 4 10 5 8 7 7 8 5 9 6 10 4 12 1 13 2 14 3 15
REMARK SMILES IDX 89 16 87 17 88 18 84 19 85 20 86 21 14 22 15 23 16 24 17 26
REMARK SMILES IDX 18 27 19 28 83 29 20 30 82 31 21 32 22 33 23 34 76 35 24 36
REMARK SMILES IDX 81 37 75 38 77 39 25 40 80 41 74 42 73 43 26 45 60 46 39 47
REMARK SMILES IDX 59 48 40 49 43 50 58 51 78 52 41 53 42 54 57 56 79 57 44 58
REMARK SMILES IDX 27 59 28 60 37 61 29 62 30 63 36 64 38 65 31 66 32 67 33 68
REMARK SMILES IDX 34 69 35 70 61 71 62 72 71 73 63 74 64 75 70 76 72 77 65 78
REMARK SMILES IDX 66 79 67 80 68 81 69 82 45 83 46 84 55 85 47 86 48 87 54 88
REMARK SMILES IDX 56 89 49 90 50 91 51 92 52 93 53 94
REMARK H PARENT 11 6 7 11 15 25 77 44 43 55
REMARK Flexibility Score: inf
ROOT
ATOM      1  C   UNL A   1      34.051  29.595  27.814  1.00  0.00     0.042 C 
ENDROOT
BRANCH   1   2
ATOM      2  C   UNL A   1      33.184  29.965  26.618  1.00  0.00     0.117 C 
BRANCH   2   3
ATOM      3  N   UNL A   1      33.851  29.702  25.353  1.00  0.00    -0.354 N 
ATOM      4  C   UNL A   1      33.643  28.729  24.416  1.00  0.00     0.242 C 
ATOM      5  O   UNL A   1      34.486  28.658  23.520  1.00  0.00    -0.273 OA
ATOM      6  H   UNL A   1      34.575  30.333  25.134  1.00  0.00     0.163 HD
BRANCH   4   7
ATOM      7  C   UNL A   1      32.487  27.697  24.584  1.00  0.00     0.174 C 
BRANCH   7   8
ATOM      8  N   UNL A   1      32.148  27.099  23.283  1.00  0.00    -0.340 N 
ATOM      9  C   UNL A   1      31.099  27.195  22.405  1.00  0.00     0.253 C 
ATOM     10  O   UNL A   1      31.140  26.388  21.478  1.00  0.00    -0.269 OA
ATOM     11  H   UNL A   1      32.843  26.478  22.966  1.00  0.00     0.164 HD
BRANCH   9  12
ATOM     12  C   UNL A   1      30.042  28.213  22.515  1.00  0.00     0.053 A 
ATOM     13  C   UNL A   1      28.471  31.520  21.512  1.00  0.00     0.056 C 
ATOM     14  C   UNL A   1      28.834  30.200  22.099  1.00  0.00     0.003 A 
ATOM     15  C   UNL A   1      30.063  29.581  22.079  1.00  0.00     0.029 A 
ATOM     16  S   UNL A   1      27.691  29.254  22.914  1.00  0.00    -0.145 S 
ATOM     17  C   UNL A   1      28.805  27.957  23.116  1.00  0.00     0.014 A 
ATOM     18  C   UNL A   1      28.297  26.754  23.850  1.00  0.00     0.057 C 
ENDBRANCH   9  12
ENDBRANCH   7   8
BRANCH   7  19
ATOM     19  C   UNL A   1      32.543  26.645  25.726  1.00  0.00     0.015 C 
ATOM     20  C   UNL A   1      31.340  25.700  25.796  1.00  0.00     0.010 C 
ATOM     21  C   UNL A   1      33.819  25.798  25.600  1.00  0.00     0.010 C 
ENDBRANCH   7  19
ENDBRANCH   4   7
ENDBRANCH   2   3
ENDBRANCH   1   2
BRANCH   1  22
ATOM     22  C   UNL A   1      35.239  30.517  28.053  1.00  0.00     0.118 C 
BRANCH  22  23
ATOM     23  N   UNL A   1      35.309  31.021  29.417  1.00  0.00    -0.352 N 
ATOM     24  C   UNL A   1      36.324  30.913  30.339  1.00  0.00     0.251 C 
ATOM     25  H   UNL A   1      34.513  31.511  29.724  1.00  0.00     0.163 HD
ATOM     26  O   UNL A   1      36.138  31.286  31.494  1.00  0.00    -0.269 OA
BRANCH  24  27
ATOM     27  C   UNL A   1      37.625  30.318  29.955  1.00  0.00     0.039 A 
ATOM     28  C   UNL A   1      38.002  30.330  28.609  1.00  0.00     0.014 A 
ATOM     29  C   UNL A   1      38.477  29.757  30.911  1.00  0.00     0.014 A 
ATOM     30  C   UNL A   1      39.263  29.857  28.235  1.00  0.00     0.010 A 
ATOM     31  C   UNL A   1      39.762  29.360  30.549  1.00  0.00     0.010 A 
ATOM     32  C   UNL A   1      40.172  29.410  29.207  1.00  0.00    -0.014 A 
BRANCH  32  33
ATOM     33  C   UNL A   1      41.556  29.003  28.847  1.00  0.00     0.031 A 
ATOM     34  C   UNL A   1      42.652  30.034  28.770  1.00  0.00     0.074 A 
ATOM     35  C   UNL A   1      41.808  27.723  28.502  1.00  0.00     0.049 A 
ATOM     36  N   UNL A   1      43.890  29.892  28.372  1.00  0.00    -0.248 NA
ATOM     37  C   UNL A   1      42.304  31.409  29.164  1.00  0.00     0.031 C 
ATOM     38  C   UNL A   1      40.819  26.642  28.470  1.00  0.00     0.029 A 
ATOM     39  N   UNL A   1      42.970  27.117  28.089  1.00  0.00    -0.354 N 
ATOM     40  C   UNL A   1      44.457  31.159  28.436  1.00  0.00     0.074 A 
ATOM     41  C   UNL A   1      43.420  32.065  28.881  1.00  0.00     0.031 C 
ATOM     42  C   UNL A   1      41.415  25.509  28.067  1.00  0.00     0.029 A 
ATOM     43  C   UNL A   1      42.819  25.785  27.779  1.00  0.00     0.049 A 
ATOM     44  H   UNL A   1      43.830  27.592  28.022  1.00  0.00     0.167 HD
ATOM     45  C   UNL A   1      45.731  31.531  28.167  1.00  0.00     0.037 A 
ATOM     46  C   UNL A   1      43.706  24.890  27.302  1.00  0.00     0.037 A 
ATOM     47  C   UNL A   1      46.775  30.618  27.782  1.00  0.00     0.049 A 
ATOM     48  C   UNL A   1      45.128  25.321  27.058  1.00  0.00     0.074 A 
ATOM     49  C   UNL A   1      48.120  30.886  27.587  1.00  0.00     0.029 A 
ATOM     50  N   UNL A   1      46.597  29.266  27.538  1.00  0.00    -0.354 N 
ATOM     51  N   UNL A   1      45.664  26.508  27.206  1.00  0.00    -0.248 NA
ATOM     52  C   UNL A   1      46.066  24.291  26.587  1.00  0.00     0.031 C 
ATOM     53  C   UNL A   1      48.748  29.701  27.190  1.00  0.00     0.029 A 
ATOM     54  C   UNL A   1      47.802  28.689  27.176  1.00  0.00     0.049 A 
ATOM     55  H   UNL A   1      45.740  28.787  27.611  1.00  0.00     0.167 HD
ATOM     56  C   UNL A   1      47.005  26.362  26.871  1.00  0.00     0.074 A 
ATOM     57  C   UNL A   1      47.203  24.971  26.525  1.00  0.00     0.031 C 
ATOM     58  C   UNL A   1      47.986  27.298  26.849  1.00  0.00     0.037 A 
BRANCH  45  59
ATOM     59  C   UNL A   1      46.086  32.985  28.293  1.00  0.00     0.058 A 
ATOM     60  C   UNL A   1      46.562  33.524  29.499  1.00  0.00     0.135 A 
ATOM     61  C   UNL A   1      46.028  33.831  27.174  1.00  0.00     0.135 A 
ATOM     62  F   UNL A   1      46.621  32.763  30.602  1.00  0.00    -0.206 F 
ATOM     63  C   UNL A   1      46.961  34.853  29.592  1.00  0.00     0.059 A 
ATOM     64  C   UNL A   1      46.443  35.157  27.238  1.00  0.00     0.059 A 
ATOM     65  F   UNL A   1      45.576  33.365  25.998  1.00  0.00    -0.206 F 
ATOM     66  C   UNL A   1      46.904  35.661  28.454  1.00  0.00     0.060 A 
BRANCH  66  67
ATOM     67  S   UNL A   1      47.468  37.371  28.581  1.00  0.00     0.124 S 
ATOM     68  O   UNL A   1      46.695  38.013  27.524  1.00  0.00    -0.237 OA
ATOM     69  O   UNL A   1      47.091  37.724  29.946  1.00  0.00    -0.237 OA
ATOM     70  O   UNL A   1      48.905  37.273  28.337  1.00  0.00    -0.744 OA
ENDBRANCH  66  67
ENDBRANCH  45  59
BRANCH  46  71
ATOM     71  C   UNL A   1      43.283  23.492  27.020  1.00  0.00     0.058 A 
ATOM     72  C   UNL A   1      42.970  23.080  25.717  1.00  0.00     0.135 A 
ATOM     73  C   UNL A   1      43.167  22.547  28.051  1.00  0.00     0.135 A 
ATOM     74  F   UNL A   1      43.060  23.950  24.699  1.00  0.00    -0.206 F 
ATOM     75  C   UNL A   1      42.525  21.789  25.448  1.00  0.00     0.059 A 
ATOM     76  C   UNL A   1      42.749  21.243  27.803  1.00  0.00     0.059 A 
ATOM     77  F   UNL A   1      43.476  22.885  29.313  1.00  0.00    -0.206 F 
ATOM     78  C   UNL A   1      42.414  20.879  26.500  1.00  0.00     0.060 A 
BRANCH  78  79
ATOM     79  S   UNL A   1      41.856  19.199  26.143  1.00  0.00     0.124 S 
ATOM     80  O   UNL A   1      42.661  18.865  24.975  1.00  0.00    -0.237 OA
ATOM     81  O   UNL A   1      42.193  18.492  27.375  1.00  0.00    -0.237 OA
ATOM     82  O   UNL A   1      40.426  19.368  25.900  1.00  0.00    -0.744 OA
ENDBRANCH  78  79
ENDBRANCH  46  71
BRANCH  58  83
ATOM     83  C   UNL A   1      49.367  26.846  26.472  1.00  0.00     0.058 A 
ATOM     84  C   UNL A   1      50.234  26.270  27.412  1.00  0.00     0.135 A 
ATOM     85  C   UNL A   1      49.807  26.938  25.142  1.00  0.00     0.135 A 
ATOM     86  F   UNL A   1      49.863  26.165  28.698  1.00  0.00    -0.206 F 
ATOM     87  C   UNL A   1      51.499  25.818  27.051  1.00  0.00     0.059 A 
ATOM     88  C   UNL A   1      51.058  26.472  24.753  1.00  0.00     0.059 A 
ATOM     89  F   UNL A   1      49.010  27.473  24.202  1.00  0.00    -0.206 F 
ATOM     90  C   UNL A   1      51.902  25.922  25.718  1.00  0.00     0.060 A 
BRANCH  90  91
ATOM     91  S   UNL A   1      53.531  25.298  25.252  1.00  0.00     0.124 S 
ATOM     92  O   UNL A   1      54.386  25.940  26.245  1.00  0.00    -0.237 OA
ATOM     93  O   UNL A   1      53.367  23.855  25.393  1.00  0.00    -0.237 OA
ATOM     94  O   UNL A   1      53.696  25.772  23.882  1.00  0.00    -0.744 OA
ENDBRANCH  90  91
ENDBRANCH  58  83
ENDBRANCH  32  33
ENDBRANCH  24  27
ENDBRANCH  22  23
ENDBRANCH   1  22
TORSDOF 16
ENDMDL
MODEL 3
REMARK VINA RESULT:     -10.7      1.321      2.777
REMARK SMILES Cc1cc(C(=O)N[C@H](C(=O)NCCCNC(=O)c2ccc(-c3c4nc(c(-c5c(F)cc(S(=O)(=O)[O-])cc5F)c5ccc([nH]5)c(-c5c(F)cc(S(=O)(=O)[O-])cc5F)c5nc(c(-c6c(F)cc(S(=O)(=O)[O-])cc6F)c6ccc3[nH]6)C=C5)C=C4)cc2)C(C)C)c(C)s1
REMARK SMILES IDX 13 1 12 2 11 3 9 4 10 5 8 7 7 8 5 9 6 10 4 12 1 13 2 14 3 15
REMARK SMILES IDX 89 16 87 17 88 18 84 19 85 20 86 21 14 22 15 23 16 24 17 26
REMARK SMILES IDX 18 27 19 28 83 29 20 30 82 31 21 32 22 33 23 34 76 35 24 36
REMARK SMILES IDX 81 37 75 38 77 39 25 40 80 41 74 42 73 43 26 45 60 46 39 47
REMARK SMILES IDX 59 48 40 49 43 50 58 51 78 52 41 53 42 54 57 56 79 57 44 58
REMARK SMILES IDX 27 59 28 60 37 61 29 62 30 63 36 64 38 65 31 66 32 67 33 68
REMARK SMILES IDX 34 69 35 70 61 71 62 72 71 73 63 74 64 75 70 76 72 77 65 78
REMARK SMILES IDX 66 79 67 80 68 81 69 82 45 83 46 84 55 85 47 86 48 87 54 88
REMARK SMILES IDX 56 89 49 90 50 91 51 92 52 93 53 94
REMARK H PARENT 11 6 7 11 15 25 77 44 43 55
REMARK Flexibility Score: inf
ROOT
ATOM      1  C   UNL A   1      32.381  27.903  26.655  1.00  0.00     0.042 C 
ENDROOT
BRANCH   1   2
ATOM      2  C   UNL A   1      32.407  26.454  26.189  1.00  0.00     0.117 C 
BRANCH   2   3
ATOM      3  N   UNL A   1      31.303  26.143  25.294  1.00  0.00    -0.354 N 
ATOM      4  C   UNL A   1      31.219  26.172  23.930  1.00  0.00     0.242 C 
ATOM      5  O   UNL A   1      30.092  26.020  23.458  1.00  0.00    -0.273 OA
ATOM      6  H   UNL A   1      30.475  25.864  25.749  1.00  0.00     0.163 HD
BRANCH   4   7
ATOM      7  C   UNL A   1      32.467  26.526  23.065  1.00  0.00     0.174 C 
BRANCH   7   8
ATOM      8  N   UNL A   1      32.617  25.554  21.970  1.00  0.00    -0.340 N 
ATOM      9  C   UNL A   1      33.242  24.344  21.815  1.00  0.00     0.253 C 
ATOM     10  O   UNL A   1      33.249  23.923  20.659  1.00  0.00    -0.269 OA
ATOM     11  H   UNL A   1      32.157  25.844  21.149  1.00  0.00     0.164 HD
BRANCH   9  12
ATOM     12  C   UNL A   1      33.805  23.574  22.935  1.00  0.00     0.053 A 
ATOM     13  C   UNL A   1      35.986  23.287  26.028  1.00  0.00     0.056 C 
ATOM     14  C   UNL A   1      35.065  23.092  24.875  1.00  0.00     0.003 A 
ATOM     15  C   UNL A   1      34.944  23.882  23.754  1.00  0.00     0.029 A 
ATOM     16  S   UNL A   1      33.992  21.784  24.814  1.00  0.00    -0.145 S 
ATOM     17  C   UNL A   1      33.271  22.352  23.358  1.00  0.00     0.014 A 
ATOM     18  C   UNL A   1      32.176  21.505  22.785  1.00  0.00     0.057 C 
ENDBRANCH   9  12
ENDBRANCH   7   8
BRANCH   7  19
ATOM     19  C   UNL A   1      32.700  27.990  22.597  1.00  0.00     0.015 C 
ATOM     20  C   UNL A   1      31.554  28.958  22.903  1.00  0.00     0.010 C 
ATOM     21  C   UNL A   1      33.987  28.545  23.226  1.00  0.00     0.010 C 
ENDBRANCH   7  19
ENDBRANCH   4   7
ENDBRANCH   2   3
ENDBRANCH   1   2
BRANCH   1  22
ATOM     22  C   UNL A   1      33.701  28.422  27.208  1.00  0.00     0.118 C 
BRANCH  22  23
ATOM     23  N   UNL A   1      33.638  29.812  27.634  1.00  0.00    -0.352 N 
ATOM     24  C   UNL A   1      34.594  30.582  28.256  1.00  0.00     0.251 C 
ATOM     25  H   UNL A   1      32.786  30.268  27.451  1.00  0.00     0.163 HD
ATOM     26  O   UNL A   1      34.300  31.701  28.666  1.00  0.00    -0.269 OA
BRANCH  24  27
ATOM     27  C   UNL A   1      35.962  30.053  28.464  1.00  0.00     0.039 A 
ATOM     28  C   UNL A   1      36.863  30.070  27.395  1.00  0.00     0.014 A 
ATOM     29  C   UNL A   1      36.364  29.551  29.705  1.00  0.00     0.014 A 
ATOM     30  C   UNL A   1      38.185  29.662  27.592  1.00  0.00     0.010 A 
ATOM     31  C   UNL A   1      37.700  29.219  29.921  1.00  0.00     0.010 A 
ATOM     32  C   UNL A   1      38.627  29.275  28.868  1.00  0.00    -0.014 A 
BRANCH  32  33
ATOM     33  C   UNL A   1      40.052  28.940  29.127  1.00  0.00     0.031 A 
ATOM     34  C   UNL A   1      40.989  29.986  29.673  1.00  0.00     0.074 A 
ATOM     35  C   UNL A   1      40.524  27.722  28.787  1.00  0.00     0.049 A 
ATOM     36  N   UNL A   1      42.282  29.916  29.862  1.00  0.00    -0.248 NA
ATOM     37  C   UNL A   1      40.402  31.290  30.023  1.00  0.00     0.031 C 
ATOM     38  C   UNL A   1      39.736  26.643  28.187  1.00  0.00     0.029 A 
ATOM     39  N   UNL A   1      41.789  27.194  28.876  1.00  0.00    -0.354 N 
ATOM     40  C   UNL A   1      42.666  31.170  30.322  1.00  0.00     0.074 A 
ATOM     41  C   UNL A   1      41.476  31.993  30.353  1.00  0.00     0.031 C 
ATOM     42  C   UNL A   1      40.530  25.583  27.968  1.00  0.00     0.029 A 
ATOM     43  C   UNL A   1      41.891  25.914  28.378  1.00  0.00     0.049 A 
ATOM     44  H   UNL A   1      42.552  27.685  29.259  1.00  0.00     0.167 HD
ATOM     45  C   UNL A   1      43.895  31.592  30.701  1.00  0.00     0.037 A 
ATOM     46  C   UNL A   1      42.960  25.104  28.253  1.00  0.00     0.037 A 
ATOM     47  C   UNL A   1      45.066  30.754  30.726  1.00  0.00     0.049 A 
ATOM     48  C   UNL A   1      44.306  25.584  28.728  1.00  0.00     0.074 A 
ATOM     49  C   UNL A   1      46.333  31.064  31.191  1.00  0.00     0.029 A 
ATOM     50  N   UNL A   1      45.114  29.445  30.273  1.00  0.00    -0.354 N 
ATOM     51  N   UNL A   1      44.631  26.747  29.239  1.00  0.00    -0.248 NA
ATOM     52  C   UNL A   1      45.428  24.640  28.616  1.00  0.00     0.031 C 
ATOM     53  C   UNL A   1      47.157  29.952  30.986  1.00  0.00     0.029 A 
ATOM     54  C   UNL A   1      46.393  28.939  30.429  1.00  0.00     0.049 A 
ATOM     55  H   UNL A   1      44.352  28.949  29.896  1.00  0.00     0.167 HD
ATOM     56  C   UNL A   1      45.988  26.666  29.531  1.00  0.00     0.074 A 
ATOM     57  C   UNL A   1      46.421  25.337  29.153  1.00  0.00     0.031 C 
ATOM     58  C   UNL A   1      46.804  27.609  30.062  1.00  0.00     0.037 A 
BRANCH  45  59
ATOM     59  C   UNL A   1      44.049  33.020  31.142  1.00  0.00     0.058 A 
ATOM     60  C   UNL A   1      44.399  34.035  30.237  1.00  0.00     0.135 A 
ATOM     61  C   UNL A   1      43.763  33.390  32.466  1.00  0.00     0.135 A 
ATOM     62  F   UNL A   1      44.699  33.733  28.965  1.00  0.00    -0.206 F 
ATOM     63  C   UNL A   1      44.467  35.367  30.632  1.00  0.00     0.059 A 
ATOM     64  C   UNL A   1      43.803  34.719  32.877  1.00  0.00     0.059 A 
ATOM     65  F   UNL A   1      43.427  32.457  33.371  1.00  0.00    -0.206 F 
ATOM     66  C   UNL A   1      44.161  35.700  31.954  1.00  0.00     0.060 A 
BRANCH  66  67
ATOM     67  S   UNL A   1      44.210  37.438  32.438  1.00  0.00     0.124 S 
ATOM     68  O   UNL A   1      43.761  38.095  31.214  1.00  0.00    -0.237 OA
ATOM     69  O   UNL A   1      43.275  37.477  33.558  1.00  0.00    -0.237 OA
ATOM     70  O   UNL A   1      45.611  37.654  32.788  1.00  0.00    -0.744 OA
ENDBRANCH  66  67
ENDBRANCH  45  59
BRANCH  46  71
ATOM     71  C   UNL A   1      42.811  23.753  27.651  1.00  0.00     0.058 A 
ATOM     72  C   UNL A   1      42.445  22.648  28.434  1.00  0.00     0.135 A 
ATOM     73  C   UNL A   1      43.049  23.537  26.286  1.00  0.00     0.135 A 
ATOM     74  F   UNL A   1      42.212  22.805  29.747  1.00  0.00    -0.206 F 
ATOM     75  C   UNL A   1      42.351  21.370  27.893  1.00  0.00     0.059 A 
ATOM     76  C   UNL A   1      42.937  22.272  25.716  1.00  0.00     0.059 A 
ATOM     77  F   UNL A   1      43.382  24.564  25.489  1.00  0.00    -0.206 F 
ATOM     78  C   UNL A   1      42.603  21.192  26.532  1.00  0.00     0.060 A 
BRANCH  78  79
ATOM     79  S   UNL A   1      42.461  19.535  25.829  1.00  0.00     0.124 S 
ATOM     80  O   UNL A   1      43.411  19.603  24.726  1.00  0.00    -0.237 OA
ATOM     81  O   UNL A   1      42.844  18.687  26.953  1.00  0.00    -0.237 OA
ATOM     82  O   UNL A   1      41.053  19.455  25.448  1.00  0.00    -0.744 OA
ENDBRANCH  78  79
ENDBRANCH  46  71
BRANCH  58  83
ATOM     83  C   UNL A   1      48.238  27.231  30.299  1.00  0.00     0.058 A 
ATOM     84  C   UNL A   1      49.233  27.483  29.342  1.00  0.00     0.135 A 
ATOM     85  C   UNL A   1      48.631  26.661  31.521  1.00  0.00     0.135 A 
ATOM     86  F   UNL A   1      48.907  28.021  28.155  1.00  0.00    -0.206 F 
ATOM     87  C   UNL A   1      50.565  27.166  29.580  1.00  0.00     0.059 A 
ATOM     88  C   UNL A   1      49.961  26.357  31.790  1.00  0.00     0.059 A 
ATOM     89  F   UNL A   1      47.718  26.409  32.474  1.00  0.00    -0.206 F 
ATOM     90  C   UNL A   1      50.921  26.603  30.809  1.00  0.00     0.060 A 
BRANCH  90  91
ATOM     91  S   UNL A   1      52.659  26.230  31.122  1.00  0.00     0.124 S 
ATOM     92  O   UNL A   1      53.185  26.123  29.765  1.00  0.00    -0.237 OA
ATOM     93  O   UNL A   1      53.099  27.395  31.883  1.00  0.00    -0.237 OA
ATOM     94  O   UNL A   1      52.606  24.981  31.875  1.00  0.00    -0.744 OA
ENDBRANCH  90  91
ENDBRANCH  58  83
ENDBRANCH  32  33
ENDBRANCH  24  27
ENDBRANCH  22  23
ENDBRANCH   1  22
TORSDOF 16
ENDMDL
