MODEL 1
REMARK VINA RESULT:     -11.8      0.000      0.000
REMARK SMILES C[NH2+]CCC(=O)N1Cc2nc[nH]c2C[C@H]1C(=O)NCCCNC(=O)c1ccc(-c2c3nc(c(-c4c(F)cc(S(=O)(=O)[O-])cc4F)c4ccc([nH]4)c(-c4c(F)cc(S(=O)(=O)[O-])cc4F)c4nc(c(-c5c(F)cc(S(=O)(=O)[O-])cc5F)c5ccc2[nH]5)C=C4)C=C3)cc1
REMARK SMILES IDX 19 1 18 2 16 3 17 4 15 6 7 7 8 8 9 9 14 10 10 11 13 12 11 13
REMARK SMILES IDX 12 14 5 16 6 17 4 18 3 19 2 20 1 21 20 24 21 25 22 26 23 27
REMARK SMILES IDX 24 29 25 30 26 31 90 32 27 33 89 34 28 35 29 36 30 37 83 38
REMARK SMILES IDX 31 39 88 40 82 41 84 42 32 43 87 44 81 45 80 46 33 48 67 49
REMARK SMILES IDX 46 50 66 51 47 52 50 53 65 54 85 55 48 56 49 57 64 59 86 60
REMARK SMILES IDX 51 61 34 62 35 63 44 64 36 65 37 66 43 67 45 68 38 69 39 70
REMARK SMILES IDX 40 71 41 72 42 73 68 74 69 75 78 76 70 77 71 78 77 79 79 80
REMARK SMILES IDX 72 81 73 82 74 83 75 84 76 85 52 86 53 87 62 88 54 89 55 90
REMARK SMILES IDX 61 91 63 92 56 93 57 94 58 95 59 96 60 97
REMARK H PARENT 18 5 12 15 2 22 2 23 22 28 84 47 50 58
REMARK Flexibility Score: inf
ROOT
ATOM      1  C   UNL A   1      38.048  22.535  25.547  1.00  0.00     0.117 C 
ENDROOT
BRANCH   1   2
ATOM      2  N   UNL A   1      37.391  22.441  24.256  1.00  0.00    -0.354 N 
ATOM      3  C   UNL A   1      36.099  22.602  23.876  1.00  0.00     0.243 C 
ATOM      4  O   UNL A   1      35.954  22.991  22.708  1.00  0.00    -0.273 OA
ATOM      5  H   UNL A   1      38.001  22.219  23.514  1.00  0.00     0.163 HD
BRANCH   3   6
ATOM      6  C   UNL A   1      34.838  22.472  24.778  1.00  0.00     0.180 C 
ATOM      7  N   UNL A   1      33.468  22.818  24.275  1.00  0.00    -0.324 N 
ATOM      8  C   UNL A   1      32.676  21.793  23.573  1.00  0.00     0.178 C 
ATOM      9  C   UNL A   1      33.033  20.429  24.041  1.00  0.00     0.081 A 
ATOM     10  C   UNL A   1      34.864  21.164  25.624  1.00  0.00     0.091 C 
ATOM     11  N   UNL A   1      32.600  19.268  23.454  1.00  0.00    -0.240 NA
ATOM     12  C   UNL A   1      34.007  20.153  24.971  1.00  0.00     0.042 A 
ATOM     13  C   UNL A   1      33.289  18.309  24.033  1.00  0.00     0.197 A 
ATOM     14  N   UNL A   1      34.125  18.794  25.004  1.00  0.00    -0.348 N 
ATOM     15  H   UNL A   1      34.697  18.267  25.607  1.00  0.00     0.167 HD
BRANCH   7  16
ATOM     16  C   UNL A   1      32.754  23.927  24.718  1.00  0.00     0.229 C 
ATOM     17  O   UNL A   1      33.328  24.933  25.145  1.00  0.00    -0.275 OA
BRANCH  16  18
ATOM     18  C   UNL A   1      31.244  23.835  24.845  1.00  0.00     0.161 C 
BRANCH  18  19
ATOM     19  C   UNL A   1      30.589  24.602  25.994  1.00  0.00     0.270 C 
BRANCH  19  20
ATOM     20  N   UNL A   1      29.434  25.455  25.708  1.00  0.00    -0.348 N 
ATOM     21  C   UNL A   1      29.547  26.252  24.493  1.00  0.00     0.330 C 
ATOM     22  H   UNL A   1      28.612  24.858  25.621  1.00  0.00     0.346 HD
ATOM     23  H   UNL A   1      29.369  26.119  26.481  1.00  0.00     0.346 HD
ENDBRANCH  19  20
ENDBRANCH  18  19
ENDBRANCH  16  18
ENDBRANCH   7  16
ENDBRANCH   3   6
ENDBRANCH   1   2
BRANCH   1  24
ATOM     24  C   UNL A   1      38.898  21.319  25.898  1.00  0.00     0.042 C 
BRANCH  24  25
ATOM     25  C   UNL A   1      40.019  21.646  26.859  1.00  0.00     0.118 C 
BRANCH  25  26
ATOM     26  N   UNL A   1      41.295  21.941  26.193  1.00  0.00    -0.352 N 
ATOM     27  C   UNL A   1      41.929  23.172  26.113  1.00  0.00     0.251 C 
ATOM     28  H   UNL A   1      41.749  21.184  25.757  1.00  0.00     0.163 HD
ATOM     29  O   UNL A   1      42.776  23.403  25.254  1.00  0.00    -0.269 OA
BRANCH  27  30
ATOM     30  C   UNL A   1      41.538  24.194  27.097  1.00  0.00     0.039 A 
ATOM     31  C   UNL A   1      42.249  24.405  28.277  1.00  0.00     0.014 A 
ATOM     32  C   UNL A   1      40.556  25.082  26.679  1.00  0.00     0.014 A 
ATOM     33  C   UNL A   1      42.038  25.602  28.959  1.00  0.00     0.010 A 
ATOM     34  C   UNL A   1      40.575  26.351  27.189  1.00  0.00     0.010 A 
ATOM     35  C   UNL A   1      41.240  26.606  28.375  1.00  0.00    -0.014 A 
BRANCH  35  36
ATOM     36  C   UNL A   1      41.158  27.951  28.939  1.00  0.00     0.031 A 
ATOM     37  C   UNL A   1      42.184  28.891  28.425  1.00  0.00     0.074 A 
ATOM     38  C   UNL A   1      40.190  28.380  29.782  1.00  0.00     0.049 A 
ATOM     39  N   UNL A   1      43.299  29.189  29.003  1.00  0.00    -0.248 NA
ATOM     40  C   UNL A   1      42.074  29.400  27.050  1.00  0.00     0.031 C 
ATOM     41  C   UNL A   1      38.947  27.723  30.208  1.00  0.00     0.029 A 
ATOM     42  N   UNL A   1      40.118  29.575  30.431  1.00  0.00    -0.354 N 
ATOM     43  C   UNL A   1      43.918  30.123  28.186  1.00  0.00     0.074 A 
ATOM     44  C   UNL A   1      43.234  30.052  26.919  1.00  0.00     0.031 C 
ATOM     45  C   UNL A   1      38.154  28.604  30.858  1.00  0.00     0.029 A 
ATOM     46  C   UNL A   1      38.911  29.819  31.078  1.00  0.00     0.049 A 
ATOM     47  H   UNL A   1      40.863  30.217  30.441  1.00  0.00     0.167 HD
ATOM     48  C   UNL A   1      44.775  31.041  28.713  1.00  0.00     0.037 A 
ATOM     49  C   UNL A   1      38.569  30.917  31.796  1.00  0.00     0.037 A 
ATOM     50  C   UNL A   1      45.181  30.660  30.048  1.00  0.00     0.049 A 
ATOM     51  C   UNL A   1      39.844  31.542  32.237  1.00  0.00     0.074 A 
ATOM     52  C   UNL A   1      45.803  29.547  30.584  1.00  0.00     0.029 A 
ATOM     53  N   UNL A   1      44.560  31.280  31.109  1.00  0.00    -0.354 N 
ATOM     54  N   UNL A   1      40.664  30.981  33.085  1.00  0.00    -0.248 NA
ATOM     55  C   UNL A   1      40.437  32.545  31.366  1.00  0.00     0.031 C 
ATOM     56  C   UNL A   1      45.105  29.285  31.802  1.00  0.00     0.029 A 
ATOM     57  C   UNL A   1      44.166  30.301  31.988  1.00  0.00     0.049 A 
ATOM     58  H   UNL A   1      44.423  32.249  31.217  1.00  0.00     0.167 HD
ATOM     59  C   UNL A   1      41.929  31.224  32.569  1.00  0.00     0.074 A 
ATOM     60  C   UNL A   1      41.728  32.257  31.552  1.00  0.00     0.031 C 
ATOM     61  C   UNL A   1      42.976  30.379  32.812  1.00  0.00     0.037 A 
BRANCH  48  62
ATOM     62  C   UNL A   1      44.945  32.443  28.183  1.00  0.00     0.058 A 
ATOM     63  C   UNL A   1      46.214  32.861  27.730  1.00  0.00     0.135 A 
ATOM     64  C   UNL A   1      43.989  33.470  28.348  1.00  0.00     0.135 A 
ATOM     65  F   UNL A   1      47.203  31.972  27.550  1.00  0.00    -0.206 F 
ATOM     66  C   UNL A   1      46.526  34.205  27.523  1.00  0.00     0.059 A 
ATOM     67  C   UNL A   1      44.263  34.807  28.095  1.00  0.00     0.059 A 
ATOM     68  F   UNL A   1      42.774  33.243  28.856  1.00  0.00    -0.206 F 
ATOM     69  C   UNL A   1      45.545  35.172  27.721  1.00  0.00     0.060 A 
BRANCH  69  70
ATOM     70  S   UNL A   1      45.966  36.913  27.539  1.00  0.00     0.124 S 
ATOM     71  O   UNL A   1      46.184  37.303  28.927  1.00  0.00    -0.237 OA
ATOM     72  O   UNL A   1      47.156  36.847  26.697  1.00  0.00    -0.237 OA
ATOM     73  O   UNL A   1      44.782  37.479  26.899  1.00  0.00    -0.744 OA
ENDBRANCH  69  70
ENDBRANCH  48  62
BRANCH  49  74
ATOM     74  C   UNL A   1      37.268  31.638  31.792  1.00  0.00     0.058 A 
ATOM     75  C   UNL A   1      36.634  32.002  32.995  1.00  0.00     0.135 A 
ATOM     76  C   UNL A   1      36.771  32.248  30.622  1.00  0.00     0.135 A 
ATOM     77  F   UNL A   1      37.050  31.479  34.159  1.00  0.00    -0.206 F 
ATOM     78  C   UNL A   1      35.615  32.960  33.044  1.00  0.00     0.059 A 
ATOM     79  C   UNL A   1      35.753  33.201  30.645  1.00  0.00     0.059 A 
ATOM     80  F   UNL A   1      37.326  32.002  29.426  1.00  0.00    -0.206 F 
ATOM     81  C   UNL A   1      35.198  33.575  31.865  1.00  0.00     0.060 A 
BRANCH  81  82
ATOM     82  S   UNL A   1      34.022  34.948  31.941  1.00  0.00     0.124 S 
ATOM     83  O   UNL A   1      32.895  34.342  32.641  1.00  0.00    -0.237 OA
ATOM     84  O   UNL A   1      34.770  35.954  32.687  1.00  0.00    -0.237 OA
ATOM     85  O   UNL A   1      33.785  35.269  30.536  1.00  0.00    -0.744 OA
ENDBRANCH  81  82
ENDBRANCH  49  74
BRANCH  61  86
ATOM     86  C   UNL A   1      42.816  29.322  33.881  1.00  0.00     0.058 A 
ATOM     87  C   UNL A   1      42.974  29.539  35.264  1.00  0.00     0.135 A 
ATOM     88  C   UNL A   1      42.334  28.062  33.491  1.00  0.00     0.135 A 
ATOM     89  F   UNL A   1      43.336  30.738  35.738  1.00  0.00    -0.206 F 
ATOM     90  C   UNL A   1      42.705  28.539  36.205  1.00  0.00     0.059 A 
ATOM     91  C   UNL A   1      42.029  27.063  34.412  1.00  0.00     0.059 A 
ATOM     92  F   UNL A   1      42.106  27.804  32.192  1.00  0.00    -0.206 F 
ATOM     93  C   UNL A   1      42.231  27.302  35.768  1.00  0.00     0.060 A 
BRANCH  93  94
ATOM     94  S   UNL A   1      41.821  26.031  36.985  1.00  0.00     0.124 S 
ATOM     95  O   UNL A   1      41.900  24.809  36.192  1.00  0.00    -0.237 OA
ATOM     96  O   UNL A   1      42.867  26.202  37.990  1.00  0.00    -0.237 OA
ATOM     97  O   UNL A   1      40.479  26.401  37.428  1.00  0.00    -0.744 OA
ENDBRANCH  93  94
ENDBRANCH  61  86
ENDBRANCH  35  36
ENDBRANCH  27  30
ENDBRANCH  25  26
ENDBRANCH  24  25
ENDBRANCH   1  24
TORSDOF 17
ENDMDL
MODEL 2
REMARK VINA RESULT:     -11.7      3.287      9.710
REMARK SMILES C[NH2+]CCC(=O)N1Cc2nc[nH]c2C[C@H]1C(=O)NCCCNC(=O)c1ccc(-c2c3nc(c(-c4c(F)cc(S(=O)(=O)[O-])cc4F)c4ccc([nH]4)c(-c4c(F)cc(S(=O)(=O)[O-])cc4F)c4nc(c(-c5c(F)cc(S(=O)(=O)[O-])cc5F)c5ccc2[nH]5)C=C4)C=C3)cc1
REMARK SMILES IDX 19 1 18 2 16 3 17 4 15 6 7 7 8 8 9 9 14 10 10 11 13 12 11 13
REMARK SMILES IDX 12 14 5 16 6 17 4 18 3 19 2 20 1 21 20 24 21 25 22 26 23 27
REMARK SMILES IDX 24 29 25 30 26 31 90 32 27 33 89 34 28 35 29 36 30 37 83 38
REMARK SMILES IDX 31 39 88 40 82 41 84 42 32 43 87 44 81 45 80 46 33 48 67 49
REMARK SMILES IDX 46 50 66 51 47 52 50 53 65 54 85 55 48 56 49 57 64 59 86 60
REMARK SMILES IDX 51 61 34 62 35 63 44 64 36 65 37 66 43 67 45 68 38 69 39 70
REMARK SMILES IDX 40 71 41 72 42 73 68 74 69 75 78 76 70 77 71 78 77 79 79 80
REMARK SMILES IDX 72 81 73 82 74 83 75 84 76 85 52 86 53 87 62 88 54 89 55 90
REMARK SMILES IDX 61 91 63 92 56 93 57 94 58 95 59 96 60 97
REMARK H PARENT 18 5 12 15 2 22 2 23 22 28 84 47 50 58
REMARK Flexibility Score: inf
ROOT
ATOM      1  C   UNL A   1      33.095  30.447  26.135  1.00  0.00     0.117 C 
ENDROOT
BRANCH   1   2
ATOM      2  N   UNL A   1      33.617  29.169  25.686  1.00  0.00    -0.354 N 
ATOM      3  C   UNL A   1      33.049  28.138  25.010  1.00  0.00     0.243 C 
ATOM      4  O   UNL A   1      33.843  27.478  24.325  1.00  0.00    -0.273 OA
ATOM      5  H   UNL A   1      34.563  29.022  25.916  1.00  0.00     0.163 HD
BRANCH   3   6
ATOM      6  C   UNL A   1      31.532  27.806  24.917  1.00  0.00     0.180 C 
ATOM      7  N   UNL A   1      30.927  27.217  23.678  1.00  0.00    -0.324 N 
ATOM      8  C   UNL A   1      30.929  25.755  23.497  1.00  0.00     0.178 C 
ATOM      9  C   UNL A   1      30.905  25.054  24.807  1.00  0.00     0.081 A 
ATOM     10  C   UNL A   1      31.004  27.146  26.226  1.00  0.00     0.091 C 
ATOM     11  N   UNL A   1      31.081  23.705  24.970  1.00  0.00    -0.240 NA
ATOM     12  C   UNL A   1      30.926  25.684  26.029  1.00  0.00     0.042 A 
ATOM     13  C   UNL A   1      31.189  23.523  26.268  1.00  0.00     0.197 A 
ATOM     14  N   UNL A   1      31.048  24.696  26.962  1.00  0.00    -0.348 N 
ATOM     15  H   UNL A   1      31.037  24.805  27.940  1.00  0.00     0.167 HD
BRANCH   7  16
ATOM     16  C   UNL A   1      30.060  27.921  22.848  1.00  0.00     0.229 C 
ATOM     17  O   UNL A   1      30.480  28.591  21.900  1.00  0.00    -0.275 OA
BRANCH  16  18
ATOM     18  C   UNL A   1      28.590  28.011  23.214  1.00  0.00     0.161 C 
BRANCH  18  19
ATOM     19  C   UNL A   1      27.878  29.336  22.936  1.00  0.00     0.270 C 
BRANCH  19  20
ATOM     20  N   UNL A   1      28.041  29.965  21.624  1.00  0.00    -0.348 N 
ATOM     21  C   UNL A   1      27.679  31.376  21.572  1.00  0.00     0.330 C 
ATOM     22  H   UNL A   1      29.019  29.877  21.348  1.00  0.00     0.346 HD
ATOM     23  H   UNL A   1      27.401  29.481  20.992  1.00  0.00     0.346 HD
ENDBRANCH  19  20
ENDBRANCH  18  19
ENDBRANCH  16  18
ENDBRANCH   7  16
ENDBRANCH   3   6
ENDBRANCH   1   2
BRANCH   1  24
ATOM     24  C   UNL A   1      33.348  30.734  27.610  1.00  0.00     0.042 C 
BRANCH  24  25
ATOM     25  C   UNL A   1      34.159  31.991  27.832  1.00  0.00     0.118 C 
BRANCH  25  26
ATOM     26  N   UNL A   1      34.222  32.408  29.240  1.00  0.00    -0.352 N 
ATOM     27  C   UNL A   1      35.125  31.972  30.198  1.00  0.00     0.251 C 
ATOM     28  H   UNL A   1      33.552  33.066  29.534  1.00  0.00     0.163 HD
ATOM     29  O   UNL A   1      34.890  32.083  31.399  1.00  0.00    -0.269 OA
BRANCH  27  30
ATOM     30  C   UNL A   1      36.375  31.364  29.716  1.00  0.00     0.039 A 
ATOM     31  C   UNL A   1      37.581  32.061  29.685  1.00  0.00     0.014 A 
ATOM     32  C   UNL A   1      36.330  29.992  29.506  1.00  0.00     0.014 A 
ATOM     33  C   UNL A   1      38.757  31.323  29.566  1.00  0.00     0.010 A 
ATOM     34  C   UNL A   1      37.481  29.275  29.681  1.00  0.00     0.010 A 
ATOM     35  C   UNL A   1      38.706  29.916  29.626  1.00  0.00    -0.014 A 
BRANCH  35  36
ATOM     36  C   UNL A   1      39.917  29.104  29.722  1.00  0.00     0.031 A 
ATOM     37  C   UNL A   1      40.338  28.799  31.112  1.00  0.00     0.074 A 
ATOM     38  C   UNL A   1      40.576  28.568  28.668  1.00  0.00     0.049 A 
ATOM     39  N   UNL A   1      41.235  29.432  31.790  1.00  0.00    -0.248 NA
ATOM     40  C   UNL A   1      39.562  27.836  31.907  1.00  0.00     0.031 C 
ATOM     41  C   UNL A   1      40.201  28.510  27.248  1.00  0.00     0.029 A 
ATOM     42  N   UNL A   1      41.764  27.904  28.677  1.00  0.00    -0.354 N 
ATOM     43  C   UNL A   1      41.319  28.786  33.014  1.00  0.00     0.074 A 
ATOM     44  C   UNL A   1      40.139  27.964  33.107  1.00  0.00     0.031 C 
ATOM     45  C   UNL A   1      41.025  27.670  26.584  1.00  0.00     0.029 A 
ATOM     46  C   UNL A   1      42.104  27.294  27.474  1.00  0.00     0.049 A 
ATOM     47  H   UNL A   1      42.340  27.859  29.474  1.00  0.00     0.167 HD
ATOM     48  C   UNL A   1      42.481  28.801  33.724  1.00  0.00     0.037 A 
ATOM     49  C   UNL A   1      43.221  26.575  27.203  1.00  0.00     0.037 A 
ATOM     50  C   UNL A   1      43.376  29.822  33.225  1.00  0.00     0.049 A 
ATOM     51  C   UNL A   1      44.247  27.007  28.188  1.00  0.00     0.074 A 
ATOM     52  C   UNL A   1      43.279  31.192  33.063  1.00  0.00     0.029 A 
ATOM     53  N   UNL A   1      44.401  29.427  32.395  1.00  0.00    -0.354 N 
ATOM     54  N   UNL A   1      44.765  28.206  28.206  1.00  0.00    -0.248 NA
ATOM     55  C   UNL A   1      44.325  26.275  29.441  1.00  0.00     0.031 C 
ATOM     56  C   UNL A   1      43.881  31.458  31.796  1.00  0.00     0.029 A 
ATOM     57  C   UNL A   1      44.394  30.257  31.302  1.00  0.00     0.049 A 
ATOM     58  H   UNL A   1      45.027  28.683  32.557  1.00  0.00     0.167 HD
ATOM     59  C   UNL A   1      44.831  28.544  29.550  1.00  0.00     0.074 A 
ATOM     60  C   UNL A   1      44.617  27.285  30.265  1.00  0.00     0.031 C 
ATOM     61  C   UNL A   1      44.774  29.846  29.965  1.00  0.00     0.037 A 
BRANCH  48  62
ATOM     62  C   UNL A   1      42.952  27.670  34.603  1.00  0.00     0.058 A 
ATOM     63  C   UNL A   1      43.088  27.883  35.990  1.00  0.00     0.135 A 
ATOM     64  C   UNL A   1      43.527  26.476  34.111  1.00  0.00     0.135 A 
ATOM     65  F   UNL A   1      42.591  28.990  36.564  1.00  0.00    -0.206 F 
ATOM     66  C   UNL A   1      43.799  27.009  36.813  1.00  0.00     0.059 A 
ATOM     67  C   UNL A   1      44.192  25.566  34.923  1.00  0.00     0.059 A 
ATOM     68  F   UNL A   1      43.560  26.180  32.808  1.00  0.00    -0.206 F 
ATOM     69  C   UNL A   1      44.358  25.859  36.265  1.00  0.00     0.060 A 
BRANCH  69  70
ATOM     70  S   UNL A   1      45.350  24.774  37.304  1.00  0.00     0.124 S 
ATOM     71  O   UNL A   1      44.896  25.154  38.636  1.00  0.00    -0.237 OA
ATOM     72  O   UNL A   1      44.938  23.454  36.839  1.00  0.00    -0.237 OA
ATOM     73  O   UNL A   1      46.721  25.150  36.970  1.00  0.00    -0.744 OA
ENDBRANCH  69  70
ENDBRANCH  48  62
BRANCH  49  74
ATOM     74  C   UNL A   1      43.323  25.312  26.422  1.00  0.00     0.058 A 
ATOM     75  C   UNL A   1      44.224  25.192  25.349  1.00  0.00     0.135 A 
ATOM     76  C   UNL A   1      42.764  24.109  26.898  1.00  0.00     0.135 A 
ATOM     77  F   UNL A   1      44.815  26.284  24.839  1.00  0.00    -0.206 F 
ATOM     78  C   UNL A   1      44.600  23.950  24.821  1.00  0.00     0.059 A 
ATOM     79  C   UNL A   1      43.117  22.860  26.386  1.00  0.00     0.059 A 
ATOM     80  F   UNL A   1      41.922  24.104  27.943  1.00  0.00    -0.206 F 
ATOM     81  C   UNL A   1      44.059  22.786  25.365  1.00  0.00     0.060 A 
BRANCH  81  82
ATOM     82  S   UNL A   1      44.680  21.175  24.823  1.00  0.00     0.124 S 
ATOM     83  O   UNL A   1      44.793  21.365  23.381  1.00  0.00    -0.237 OA
ATOM     84  O   UNL A   1      45.939  21.068  25.553  1.00  0.00    -0.237 OA
ATOM     85  O   UNL A   1      43.636  20.248  25.251  1.00  0.00    -0.744 OA
ENDBRANCH  81  82
ENDBRANCH  49  74
BRANCH  61  86
ATOM     86  C   UNL A   1      44.923  30.939  28.931  1.00  0.00     0.058 A 
ATOM     87  C   UNL A   1      46.148  31.401  28.414  1.00  0.00     0.135 A 
ATOM     88  C   UNL A   1      43.756  31.437  28.330  1.00  0.00     0.135 A 
ATOM     89  F   UNL A   1      47.314  30.912  28.856  1.00  0.00    -0.206 F 
ATOM     90  C   UNL A   1      46.206  32.342  27.379  1.00  0.00     0.059 A 
ATOM     91  C   UNL A   1      43.789  32.348  27.278  1.00  0.00     0.059 A 
ATOM     92  F   UNL A   1      42.553  30.997  28.736  1.00  0.00    -0.206 F 
ATOM     93  C   UNL A   1      45.019  32.809  26.816  1.00  0.00     0.060 A 
BRANCH  93  94
ATOM     94  S   UNL A   1      45.092  33.974  25.437  1.00  0.00     0.124 S 
ATOM     95  O   UNL A   1      44.206  35.042  25.889  1.00  0.00    -0.237 OA
ATOM     96  O   UNL A   1      46.511  34.312  25.378  1.00  0.00    -0.237 OA
ATOM     97  O   UNL A   1      44.599  33.194  24.304  1.00  0.00    -0.744 OA
ENDBRANCH  93  94
ENDBRANCH  61  86
ENDBRANCH  35  36
ENDBRANCH  27  30
ENDBRANCH  25  26
ENDBRANCH  24  25
ENDBRANCH   1  24
TORSDOF 17
ENDMDL
MODEL 3
REMARK VINA RESULT:     -11.6      1.164      2.831
REMARK SMILES C[NH2+]CCC(=O)N1Cc2nc[nH]c2C[C@H]1C(=O)NCCCNC(=O)c1ccc(-c2c3nc(c(-c4c(F)cc(S(=O)(=O)[O-])cc4F)c4ccc([nH]4)c(-c4c(F)cc(S(=O)(=O)[O-])cc4F)c4nc(c(-c5c(F)cc(S(=O)(=O)[O-])cc5F)c5ccc2[nH]5)C=C4)C=C3)cc1
REMARK SMILES IDX 19 1 18 2 16 3 17 4 15 6 7 7 8 8 9 9 14 10 10 11 13 12 11 13
REMARK SMILES IDX 12 14 5 16 6 17 4 18 3 19 2 20 1 21 20 24 21 25 22 26 23 27
REMARK SMILES IDX 24 29 25 30 26 31 90 32 27 33 89 34 28 35 29 36 30 37 83 38
REMARK SMILES IDX 31 39 88 40 82 41 84 42 32 43 87 44 81 45 80 46 33 48 67 49
REMARK SMILES IDX 46 50 66 51 47 52 50 53 65 54 85 55 48 56 49 57 64 59 86 60
REMARK SMILES IDX 51 61 34 62 35 63 44 64 36 65 37 66 43 67 45 68 38 69 39 70
REMARK SMILES IDX 40 71 41 72 42 73 68 74 69 75 78 76 70 77 71 78 77 79 79 80
REMARK SMILES IDX 72 81 73 82 74 83 75 84 76 85 52 86 53 87 62 88 54 89 55 90
REMARK SMILES IDX 61 91 63 92 56 93 57 94 58 95 59 96 60 97
REMARK H PARENT 18 5 12 15 2 22 2 23 22 28 84 47 50 58
REMARK Flexibility Score: inf
ROOT
ATOM      1  C   UNL A   1      36.484  22.687  24.471  1.00  0.00     0.117 C 
ENDROOT
BRANCH   1   2
ATOM      2  N   UNL A   1      35.736  23.303  23.390  1.00  0.00    -0.354 N 
ATOM      3  C   UNL A   1      34.418  23.293  23.071  1.00  0.00     0.243 C 
ATOM      4  O   UNL A   1      34.029  24.302  22.466  1.00  0.00    -0.273 OA
ATOM      5  H   UNL A   1      36.292  23.830  22.770  1.00  0.00     0.163 HD
BRANCH   3   6
ATOM      6  C   UNL A   1      33.364  22.229  23.494  1.00  0.00     0.180 C 
ATOM      7  N   UNL A   1      33.514  21.424  24.750  1.00  0.00    -0.324 N 
ATOM      8  C   UNL A   1      33.005  21.966  26.022  1.00  0.00     0.178 C 
ATOM      9  C   UNL A   1      31.853  22.876  25.791  1.00  0.00     0.081 A 
ATOM     10  C   UNL A   1      31.908  22.735  23.267  1.00  0.00     0.091 C 
ATOM     11  N   UNL A   1      31.283  23.667  26.754  1.00  0.00    -0.240 NA
ATOM     12  C   UNL A   1      31.356  23.208  24.553  1.00  0.00     0.042 A 
ATOM     13  C   UNL A   1      30.445  24.450  26.110  1.00  0.00     0.197 A 
ATOM     14  N   UNL A   1      30.416  24.172  24.768  1.00  0.00    -0.348 N 
ATOM     15  H   UNL A   1      29.831  24.586  24.093  1.00  0.00     0.167 HD
BRANCH   7  16
ATOM     16  C   UNL A   1      33.792  20.060  24.750  1.00  0.00     0.229 C 
ATOM     17  O   UNL A   1      34.952  19.640  24.710  1.00  0.00    -0.275 OA
BRANCH  16  18
ATOM     18  C   UNL A   1      32.650  19.070  24.619  1.00  0.00     0.161 C 
BRANCH  18  19
ATOM     19  C   UNL A   1      32.751  17.774  25.423  1.00  0.00     0.270 C 
BRANCH  19  20
ATOM     20  N   UNL A   1      32.204  16.542  24.851  1.00  0.00    -0.348 N 
ATOM     21  C   UNL A   1      32.582  15.321  25.552  1.00  0.00     0.330 C 
ATOM     22  H   UNL A   1      31.186  16.611  24.861  1.00  0.00     0.346 HD
ATOM     23  H   UNL A   1      32.593  16.465  23.911  1.00  0.00     0.346 HD
ENDBRANCH  19  20
ENDBRANCH  18  19
ENDBRANCH  16  18
ENDBRANCH   7  16
ENDBRANCH   3   6
ENDBRANCH   1   2
BRANCH   1  24
ATOM     24  C   UNL A   1      36.476  23.493  25.766  1.00  0.00     0.042 C 
BRANCH  24  25
ATOM     25  C   UNL A   1      37.858  23.947  26.181  1.00  0.00     0.118 C 
BRANCH  25  26
ATOM     26  N   UNL A   1      38.803  22.840  26.383  1.00  0.00    -0.352 N 
ATOM     27  C   UNL A   1      40.177  22.937  26.551  1.00  0.00     0.251 C 
ATOM     28  H   UNL A   1      38.421  21.933  26.400  1.00  0.00     0.163 HD
ATOM     29  O   UNL A   1      40.916  21.977  26.351  1.00  0.00    -0.269 OA
BRANCH  27  30
ATOM     30  C   UNL A   1      40.711  24.241  26.972  1.00  0.00     0.039 A 
ATOM     31  C   UNL A   1      40.907  25.292  26.079  1.00  0.00     0.014 A 
ATOM     32  C   UNL A   1      40.797  24.437  28.345  1.00  0.00     0.014 A 
ATOM     33  C   UNL A   1      41.063  26.573  26.604  1.00  0.00     0.010 A 
ATOM     34  C   UNL A   1      40.662  25.710  28.824  1.00  0.00     0.010 A 
ATOM     35  C   UNL A   1      40.878  26.789  27.984  1.00  0.00    -0.014 A 
BRANCH  35  36
ATOM     36  C   UNL A   1      40.818  28.132  28.554  1.00  0.00     0.031 A 
ATOM     37  C   UNL A   1      41.912  29.032  28.113  1.00  0.00     0.074 A 
ATOM     38  C   UNL A   1      39.818  28.596  29.340  1.00  0.00     0.049 A 
ATOM     39  N   UNL A   1      42.999  29.279  28.762  1.00  0.00    -0.248 NA
ATOM     40  C   UNL A   1      41.909  29.553  26.738  1.00  0.00     0.031 C 
ATOM     41  C   UNL A   1      38.524  27.989  29.682  1.00  0.00     0.029 A 
ATOM     42  N   UNL A   1      39.755  29.788  29.994  1.00  0.00    -0.354 N 
ATOM     43  C   UNL A   1      43.707  30.191  27.993  1.00  0.00     0.074 A 
ATOM     44  C   UNL A   1      43.100  30.157  26.686  1.00  0.00     0.031 C 
ATOM     45  C   UNL A   1      37.730  28.897  30.290  1.00  0.00     0.029 A 
ATOM     46  C   UNL A   1      38.521  30.078  30.568  1.00  0.00     0.049 A 
ATOM     47  H   UNL A   1      40.524  30.399  30.056  1.00  0.00     0.167 HD
ATOM     48  C   UNL A   1      44.566  31.069  28.581  1.00  0.00     0.037 A 
ATOM     49  C   UNL A   1      38.182  31.185  31.273  1.00  0.00     0.037 A 
ATOM     50  C   UNL A   1      44.873  30.663  29.934  1.00  0.00     0.049 A 
ATOM     51  C   UNL A   1      39.451  31.753  31.798  1.00  0.00     0.074 A 
ATOM     52  C   UNL A   1      45.413  29.520  30.497  1.00  0.00     0.029 A 
ATOM     53  N   UNL A   1      44.213  31.301  30.960  1.00  0.00    -0.354 N 
ATOM     54  N   UNL A   1      40.193  31.152  32.689  1.00  0.00    -0.248 NA
ATOM     55  C   UNL A   1      40.138  32.736  30.975  1.00  0.00     0.031 C 
ATOM     56  C   UNL A   1      44.631  29.280  31.667  1.00  0.00     0.029 A 
ATOM     57  C   UNL A   1      43.725  30.334  31.804  1.00  0.00     0.049 A 
ATOM     58  H   UNL A   1      44.111  32.274  31.069  1.00  0.00     0.167 HD
ATOM     59  C   UNL A   1      41.497  31.346  32.255  1.00  0.00     0.074 A 
ATOM     60  C   UNL A   1      41.402  32.393  31.237  1.00  0.00     0.031 C 
ATOM     61  C   UNL A   1      42.491  30.456  32.554  1.00  0.00     0.037 A 
BRANCH  48  62
ATOM     62  C   UNL A   1      44.827  32.466  28.075  1.00  0.00     0.058 A 
ATOM     63  C   UNL A   1      46.104  32.791  27.570  1.00  0.00     0.135 A 
ATOM     64  C   UNL A   1      43.968  33.563  28.310  1.00  0.00     0.135 A 
ATOM     65  F   UNL A   1      47.007  31.829  27.323  1.00  0.00    -0.206 F 
ATOM     66  C   UNL A   1      46.516  34.110  27.379  1.00  0.00     0.059 A 
ATOM     67  C   UNL A   1      44.340  34.880  28.074  1.00  0.00     0.059 A 
ATOM     68  F   UNL A   1      42.763  33.422  28.871  1.00  0.00    -0.206 F 
ATOM     69  C   UNL A   1      45.629  35.148  27.646  1.00  0.00     0.060 A 
BRANCH  69  70
ATOM     70  S   UNL A   1      46.184  36.853  27.484  1.00  0.00     0.124 S 
ATOM     71  O   UNL A   1      46.884  37.050  28.748  1.00  0.00    -0.237 OA
ATOM     72  O   UNL A   1      47.021  36.783  26.291  1.00  0.00    -0.237 OA
ATOM     73  O   UNL A   1      44.938  37.597  27.326  1.00  0.00    -0.744 OA
ENDBRANCH  69  70
ENDBRANCH  48  62
BRANCH  49  74
ATOM     74  C   UNL A   1      36.914  31.960  31.196  1.00  0.00     0.058 A 
ATOM     75  C   UNL A   1      36.059  32.068  32.307  1.00  0.00     0.135 A 
ATOM     76  C   UNL A   1      36.665  32.854  30.135  1.00  0.00     0.135 A 
ATOM     77  F   UNL A   1      36.229  31.265  33.369  1.00  0.00    -0.206 F 
ATOM     78  C   UNL A   1      35.059  33.046  32.391  1.00  0.00     0.059 A 
ATOM     79  C   UNL A   1      35.672  33.833  30.192  1.00  0.00     0.059 A 
ATOM     80  F   UNL A   1      37.444  32.864  29.042  1.00  0.00    -0.206 F 
ATOM     81  C   UNL A   1      34.891  33.941  31.337  1.00  0.00     0.060 A 
BRANCH  81  82
ATOM     82  S   UNL A   1      33.737  35.324  31.517  1.00  0.00     0.124 S 
ATOM     83  O   UNL A   1      34.541  36.296  32.249  1.00  0.00    -0.237 OA
ATOM     84  O   UNL A   1      33.437  35.659  30.129  1.00  0.00    -0.237 OA
ATOM     85  O   UNL A   1      32.626  34.742  32.267  1.00  0.00    -0.744 OA
ENDBRANCH  81  82
ENDBRANCH  49  74
BRANCH  61  86
ATOM     86  C   UNL A   1      42.221  29.399  33.602  1.00  0.00     0.058 A 
ATOM     87  C   UNL A   1      41.695  28.119  33.342  1.00  0.00     0.135 A 
ATOM     88  C   UNL A   1      42.657  29.649  34.913  1.00  0.00     0.135 A 
ATOM     89  F   UNL A   1      41.343  27.755  32.102  1.00  0.00    -0.206 F 
ATOM     90  C   UNL A   1      41.573  27.152  34.346  1.00  0.00     0.059 A 
ATOM     91  C   UNL A   1      42.575  28.691  35.921  1.00  0.00     0.059 A 
ATOM     92  F   UNL A   1      43.221  30.829  35.219  1.00  0.00    -0.206 F 
ATOM     93  C   UNL A   1      42.018  27.448  35.635  1.00  0.00     0.060 A 
BRANCH  93  94
ATOM     94  S   UNL A   1      41.920  26.180  36.918  1.00  0.00     0.124 S 
ATOM     95  O   UNL A   1      40.563  26.359  37.425  1.00  0.00    -0.237 OA
ATOM     96  O   UNL A   1      42.159  24.949  36.170  1.00  0.00    -0.237 OA
ATOM     97  O   UNL A   1      42.986  26.551  37.847  1.00  0.00    -0.744 OA
ENDBRANCH  93  94
ENDBRANCH  61  86
ENDBRANCH  35  36
ENDBRANCH  27  30
ENDBRANCH  25  26
ENDBRANCH  24  25
ENDBRANCH   1  24
TORSDOF 17
ENDMDL
