MODEL 1
REMARK VINA RESULT:     -11.4      0.000      0.000
REMARK SMILES C#CCN(CC(=O)NCCCNC(=O)c1ccc(-c2c3nc(c(-c4c(F)cc(S(=O)(=O)[O-])cc4F)c4ccc([nH]4)c(-c4c(F)cc(S(=O)(=O)[O-])cc4F)c4nc(c(-c5c(F)cc(S(=O)(=O)[O-])cc5F)c5ccc2[nH]5)C=C4)C=C3)cc1)C(=O)c1cc([N+](=O)[O-])c(F)cc1F
REMARK SMILES IDX 9 1 8 2 6 3 7 4 5 6 4 7 3 8 2 9 1 10 81 11 82 12 83 13 84 14
REMARK SMILES IDX 92 15 85 16 91 17 93 18 89 19 90 20 86 21 87 22 88 23 10 24
REMARK SMILES IDX 11 25 12 26 13 27 14 29 15 30 16 31 80 32 17 33 79 34 18 35
REMARK SMILES IDX 19 36 20 37 73 38 21 39 78 40 72 41 74 42 22 43 77 44 71 45
REMARK SMILES IDX 70 46 23 48 57 49 36 50 56 51 37 52 40 53 55 54 75 55 38 56
REMARK SMILES IDX 39 57 54 59 76 60 41 61 24 62 25 63 34 64 26 65 27 66 33 67
REMARK SMILES IDX 35 68 28 69 29 70 30 71 31 72 32 73 58 74 59 75 68 76 60 77
REMARK SMILES IDX 61 78 67 79 69 80 62 81 63 82 64 83 65 84 66 85 42 86 43 87
REMARK SMILES IDX 52 88 44 89 45 90 51 91 53 92 46 93 47 94 48 95 49 96 50 97
REMARK H PARENT 8 5 12 28 74 47 40 58
REMARK Flexibility Score: inf
ROOT
ATOM      1  C   UNL A   1      33.861  30.165  27.015  1.00  0.00     0.117 C 
ENDROOT
BRANCH   1   2
ATOM      2  N   UNL A   1      32.865  29.281  27.586  1.00  0.00    -0.354 N 
ATOM      3  C   UNL A   1      31.766  28.685  27.046  1.00  0.00     0.239 C 
ATOM      4  O   UNL A   1      31.221  27.801  27.720  1.00  0.00    -0.273 OA
ATOM      5  H   UNL A   1      33.008  29.075  28.539  1.00  0.00     0.163 HD
BRANCH   3   6
ATOM      6  C   UNL A   1      31.265  28.958  25.617  1.00  0.00     0.220 C 
BRANCH   6   7
ATOM      7  N   UNL A   1      31.534  27.954  24.587  1.00  0.00    -0.318 N 
BRANCH   7   8
ATOM      8  C   UNL A   1      32.913  27.824  24.120  1.00  0.00     0.210 C 
BRANCH   8   9
ATOM      9  C   UNL A   1      33.676  26.728  24.846  1.00  0.00    -0.085 C 
ATOM     10  C   UNL A   1      34.330  25.787  25.468  1.00  0.00     0.006 C 
ENDBRANCH   8   9
ENDBRANCH   7   8
BRANCH   7  11
ATOM     11  C   UNL A   1      30.586  27.056  24.082  1.00  0.00     0.258 C 
ATOM     12  O   UNL A   1      29.615  27.401  23.413  1.00  0.00    -0.269 OA
BRANCH  11  13
ATOM     13  C   UNL A   1      30.728  25.600  24.290  1.00  0.00     0.082 A 
ATOM     14  C   UNL A   1      30.592  25.082  25.587  1.00  0.00     0.105 A 
ATOM     15  C   UNL A   1      31.153  24.761  23.262  1.00  0.00     0.139 A 
ATOM     16  C   UNL A   1      30.808  23.709  25.811  1.00  0.00     0.305 A 
ATOM     17  C   UNL A   1      31.307  23.394  23.468  1.00  0.00     0.086 A 
ATOM     18  F   UNL A   1      31.471  25.257  22.060  1.00  0.00    -0.206 F 
ATOM     19  C   UNL A   1      31.127  22.867  24.744  1.00  0.00     0.203 A 
ATOM     20  F   UNL A   1      31.280  21.545  24.894  1.00  0.00    -0.199 F 
BRANCH  16  21
ATOM     21  N   UNL A   1      30.730  23.176  27.170  1.00  0.00     0.065 N 
ATOM     22  O   UNL A   1      31.800  22.946  27.750  1.00  0.00    -0.258 OA
ATOM     23  O   UNL A   1      29.615  22.981  27.669  1.00  0.00    -0.258 OA
ENDBRANCH  16  21
ENDBRANCH  11  13
ENDBRANCH   7  11
ENDBRANCH   6   7
ENDBRANCH   3   6
ENDBRANCH   1   2
BRANCH   1  24
ATOM     24  C   UNL A   1      35.239  30.079  27.668  1.00  0.00     0.042 C 
BRANCH  24  25
ATOM     25  C   UNL A   1      35.636  31.279  28.522  1.00  0.00     0.118 C 
BRANCH  25  26
ATOM     26  N   UNL A   1      35.626  30.987  29.947  1.00  0.00    -0.352 N 
ATOM     27  C   UNL A   1      36.544  30.363  30.754  1.00  0.00     0.251 C 
ATOM     28  H   UNL A   1      34.816  31.293  30.417  1.00  0.00     0.163 HD
ATOM     29  O   UNL A   1      36.208  30.061  31.898  1.00  0.00    -0.269 OA
BRANCH  27  30
ATOM     30  C   UNL A   1      37.911  30.036  30.281  1.00  0.00     0.039 A 
ATOM     31  C   UNL A   1      38.879  29.688  31.231  1.00  0.00     0.014 A 
ATOM     32  C   UNL A   1      38.274  30.137  28.936  1.00  0.00     0.014 A 
ATOM     33  C   UNL A   1      40.182  29.382  30.827  1.00  0.00     0.010 A 
ATOM     34  C   UNL A   1      39.556  29.765  28.526  1.00  0.00     0.010 A 
ATOM     35  C   UNL A   1      40.525  29.383  29.466  1.00  0.00    -0.014 A 
BRANCH  35  36
ATOM     36  C   UNL A   1      41.881  28.973  29.010  1.00  0.00     0.031 A 
ATOM     37  C   UNL A   1      42.998  29.979  28.921  1.00  0.00     0.074 A 
ATOM     38  C   UNL A   1      42.088  27.702  28.609  1.00  0.00     0.049 A 
ATOM     39  N   UNL A   1      44.217  29.822  28.473  1.00  0.00    -0.248 NA
ATOM     40  C   UNL A   1      42.699  31.345  29.376  1.00  0.00     0.031 C 
ATOM     41  C   UNL A   1      41.078  26.642  28.603  1.00  0.00     0.029 A 
ATOM     42  N   UNL A   1      43.213  27.088  28.114  1.00  0.00    -0.354 N 
ATOM     43  C   UNL A   1      44.824  31.068  28.573  1.00  0.00     0.074 A 
ATOM     44  C   UNL A   1      43.825  31.981  29.087  1.00  0.00     0.031 C 
ATOM     45  C   UNL A   1      41.630  25.508  28.145  1.00  0.00     0.029 A 
ATOM     46  C   UNL A   1      43.021  25.766  27.785  1.00  0.00     0.049 A 
ATOM     47  H   UNL A   1      44.075  27.551  28.005  1.00  0.00     0.167 HD
ATOM     48  C   UNL A   1      46.102  31.417  28.282  1.00  0.00     0.037 A 
ATOM     49  C   UNL A   1      43.864  24.865  27.243  1.00  0.00     0.037 A 
ATOM     50  C   UNL A   1      47.099  30.499  27.794  1.00  0.00     0.049 A 
ATOM     51  C   UNL A   1      45.277  25.274  26.929  1.00  0.00     0.074 A 
ATOM     52  C   UNL A   1      48.436  30.743  27.525  1.00  0.00     0.029 A 
ATOM     53  N   UNL A   1      46.872  29.163  27.498  1.00  0.00    -0.354 N 
ATOM     54  N   UNL A   1      45.850  26.444  27.088  1.00  0.00    -0.248 NA
ATOM     55  C   UNL A   1      46.160  24.242  26.369  1.00  0.00     0.031 C 
ATOM     56  C   UNL A   1      49.005  29.566  27.028  1.00  0.00     0.029 A 
ATOM     57  C   UNL A   1      48.038  28.575  27.033  1.00  0.00     0.049 A 
ATOM     58  H   UNL A   1      46.009  28.700  27.603  1.00  0.00     0.167 HD
ATOM     59  C   UNL A   1      47.167  26.280  26.674  1.00  0.00     0.074 A 
ATOM     60  C   UNL A   1      47.308  24.898  26.265  1.00  0.00     0.031 C 
ATOM     61  C   UNL A   1      48.169  27.193  26.638  1.00  0.00     0.037 A 
BRANCH  48  62
ATOM     62  C   UNL A   1      46.497  32.855  28.486  1.00  0.00     0.058 A 
ATOM     63  C   UNL A   1      46.375  33.806  27.460  1.00  0.00     0.135 A 
ATOM     64  C   UNL A   1      46.968  33.297  29.733  1.00  0.00     0.135 A 
ATOM     65  F   UNL A   1      45.942  33.436  26.245  1.00  0.00    -0.206 F 
ATOM     66  C   UNL A   1      46.737  35.135  27.653  1.00  0.00     0.059 A 
ATOM     67  C   UNL A   1      47.310  34.628  29.957  1.00  0.00     0.059 A 
ATOM     68  F   UNL A   1      47.101  32.431  30.751  1.00  0.00    -0.206 F 
ATOM     69  C   UNL A   1      47.205  35.536  28.905  1.00  0.00     0.060 A 
BRANCH  69  70
ATOM     70  S   UNL A   1      47.672  37.265  29.137  1.00  0.00     0.124 S 
ATOM     71  O   UNL A   1      48.945  37.319  28.424  1.00  0.00    -0.237 OA
ATOM     72  O   UNL A   1      46.564  37.976  28.509  1.00  0.00    -0.237 OA
ATOM     73  O   UNL A   1      47.760  37.402  30.589  1.00  0.00    -0.744 OA
ENDBRANCH  69  70
ENDBRANCH  48  62
BRANCH  49  74
ATOM     74  C   UNL A   1      43.396  23.478  26.985  1.00  0.00     0.058 A 
ATOM     75  C   UNL A   1      43.109  23.045  25.682  1.00  0.00     0.135 A 
ATOM     76  C   UNL A   1      43.247  22.551  28.030  1.00  0.00     0.135 A 
ATOM     77  F   UNL A   1      43.229  23.895  24.652  1.00  0.00    -0.206 F 
ATOM     78  C   UNL A   1      42.681  21.746  25.423  1.00  0.00     0.059 A 
ATOM     79  C   UNL A   1      42.845  21.241  27.792  1.00  0.00     0.059 A 
ATOM     80  F   UNL A   1      43.525  22.911  29.292  1.00  0.00    -0.206 F 
ATOM     81  C   UNL A   1      42.555  20.850  26.485  1.00  0.00     0.060 A 
BRANCH  81  82
ATOM     82  S   UNL A   1      42.053  19.152  26.130  1.00  0.00     0.124 S 
ATOM     83  O   UNL A   1      42.385  18.480  27.382  1.00  0.00    -0.237 OA
ATOM     84  O   UNL A   1      40.629  19.306  25.848  1.00  0.00    -0.237 OA
ATOM     85  O   UNL A   1      42.876  18.792  24.980  1.00  0.00    -0.744 OA
ENDBRANCH  81  82
ENDBRANCH  49  74
BRANCH  61  86
ATOM     86  C   UNL A   1      49.521  26.724  26.178  1.00  0.00     0.058 A 
ATOM     87  C   UNL A   1      49.962  26.920  24.860  1.00  0.00     0.135 A 
ATOM     88  C   UNL A   1      50.409  26.122  27.084  1.00  0.00     0.135 A 
ATOM     89  F   UNL A   1      49.149  27.484  23.952  1.00  0.00    -0.206 F 
ATOM     90  C   UNL A   1      51.230  26.519  24.452  1.00  0.00     0.059 A 
ATOM     91  C   UNL A   1      51.690  25.736  26.705  1.00  0.00     0.059 A 
ATOM     92  F   UNL A   1      50.039  25.920  28.359  1.00  0.00    -0.206 F 
ATOM     93  C   UNL A   1      52.088  25.931  25.382  1.00  0.00     0.060 A 
BRANCH  93  94
ATOM     94  S   UNL A   1      53.747  25.453  24.852  1.00  0.00     0.124 S 
ATOM     95  O   UNL A   1      54.571  26.018  25.915  1.00  0.00    -0.237 OA
ATOM     96  O   UNL A   1      53.659  23.996  24.826  1.00  0.00    -0.237 OA
ATOM     97  O   UNL A   1      53.883  26.089  23.545  1.00  0.00    -0.744 OA
ENDBRANCH  93  94
ENDBRANCH  61  86
ENDBRANCH  35  36
ENDBRANCH  27  30
ENDBRANCH  25  26
ENDBRANCH  24  25
ENDBRANCH   1  24
TORSDOF 19
ENDMDL
MODEL 2
REMARK VINA RESULT:     -11.3      1.693      2.699
REMARK SMILES C#CCN(CC(=O)NCCCNC(=O)c1ccc(-c2c3nc(c(-c4c(F)cc(S(=O)(=O)[O-])cc4F)c4ccc([nH]4)c(-c4c(F)cc(S(=O)(=O)[O-])cc4F)c4nc(c(-c5c(F)cc(S(=O)(=O)[O-])cc5F)c5ccc2[nH]5)C=C4)C=C3)cc1)C(=O)c1cc([N+](=O)[O-])c(F)cc1F
REMARK SMILES IDX 9 1 8 2 6 3 7 4 5 6 4 7 3 8 2 9 1 10 81 11 82 12 83 13 84 14
REMARK SMILES IDX 92 15 85 16 91 17 93 18 89 19 90 20 86 21 87 22 88 23 10 24
REMARK SMILES IDX 11 25 12 26 13 27 14 29 15 30 16 31 80 32 17 33 79 34 18 35
REMARK SMILES IDX 19 36 20 37 73 38 21 39 78 40 72 41 74 42 22 43 77 44 71 45
REMARK SMILES IDX 70 46 23 48 57 49 36 50 56 51 37 52 40 53 55 54 75 55 38 56
REMARK SMILES IDX 39 57 54 59 76 60 41 61 24 62 25 63 34 64 26 65 27 66 33 67
REMARK SMILES IDX 35 68 28 69 29 70 30 71 31 72 32 73 58 74 59 75 68 76 60 77
REMARK SMILES IDX 61 78 67 79 69 80 62 81 63 82 64 83 65 84 66 85 42 86 43 87
REMARK SMILES IDX 52 88 44 89 45 90 51 91 53 92 46 93 47 94 48 95 49 96 50 97
REMARK H PARENT 8 5 12 28 74 47 40 58
REMARK Flexibility Score: inf
ROOT
ATOM      1  C   UNL A   1      33.148  27.831  26.686  1.00  0.00     0.117 C 
ENDROOT
BRANCH   1   2
ATOM      2  N   UNL A   1      34.012  26.836  26.085  1.00  0.00    -0.354 N 
ATOM      3  C   UNL A   1      33.757  25.827  25.206  1.00  0.00     0.239 C 
ATOM      4  O   UNL A   1      34.736  25.270  24.695  1.00  0.00    -0.273 OA
ATOM      5  H   UNL A   1      34.954  26.899  26.363  1.00  0.00     0.163 HD
BRANCH   3   6
ATOM      6  C   UNL A   1      32.342  25.450  24.730  1.00  0.00     0.220 C 
BRANCH   6   7
ATOM      7  N   UNL A   1      31.457  24.762  25.670  1.00  0.00    -0.318 N 
BRANCH   7   8
ATOM      8  C   UNL A   1      30.050  25.157  25.679  1.00  0.00     0.210 C 
BRANCH   8   9
ATOM      9  C   UNL A   1      29.721  26.177  24.601  1.00  0.00    -0.085 C 
ATOM     10  C   UNL A   1      29.439  27.052  23.677  1.00  0.00     0.006 C 
ENDBRANCH   8   9
ENDBRANCH   7   8
BRANCH   7  11
ATOM     11  C   UNL A   1      31.843  23.698  26.496  1.00  0.00     0.258 C 
ATOM     12  O   UNL A   1      31.474  23.578  27.661  1.00  0.00    -0.269 OA
BRANCH  11  13
ATOM     13  C   UNL A   1      32.701  22.609  25.986  1.00  0.00     0.082 A 
ATOM     14  C   UNL A   1      32.136  21.632  25.151  1.00  0.00     0.105 A 
ATOM     15  C   UNL A   1      34.006  22.441  26.446  1.00  0.00     0.139 A 
ATOM     16  C   UNL A   1      32.922  20.544  24.728  1.00  0.00     0.305 A 
ATOM     17  C   UNL A   1      34.802  21.401  25.979  1.00  0.00     0.086 A 
ATOM     18  F   UNL A   1      34.510  23.250  27.384  1.00  0.00    -0.206 F 
ATOM     19  C   UNL A   1      34.261  20.455  25.113  1.00  0.00     0.203 A 
ATOM     20  F   UNL A   1      35.067  19.474  24.686  1.00  0.00    -0.199 F 
BRANCH  16  21
ATOM     21  N   UNL A   1      32.321  19.490  23.911  1.00  0.00     0.065 N 
ATOM     22  O   UNL A   1      32.092  18.405  24.464  1.00  0.00    -0.258 OA
ATOM     23  O   UNL A   1      32.074  19.728  22.722  1.00  0.00    -0.258 OA
ENDBRANCH  16  21
ENDBRANCH  11  13
ENDBRANCH   7  11
ENDBRANCH   6   7
ENDBRANCH   3   6
ENDBRANCH   1   2
BRANCH   1  24
ATOM     24  C   UNL A   1      33.772  29.219  26.819  1.00  0.00     0.042 C 
BRANCH  24  25
ATOM     25  C   UNL A   1      35.162  29.256  27.447  1.00  0.00     0.118 C 
BRANCH  25  26
ATOM     26  N   UNL A   1      35.191  29.971  28.714  1.00  0.00    -0.352 N 
ATOM     27  C   UNL A   1      36.207  30.188  29.611  1.00  0.00     0.251 C 
ATOM     28  H   UNL A   1      34.329  30.370  28.973  1.00  0.00     0.163 HD
ATOM     29  O   UNL A   1      35.924  30.658  30.712  1.00  0.00    -0.269 OA
BRANCH  27  30
ATOM     30  C   UNL A   1      37.618  29.863  29.294  1.00  0.00     0.039 A 
ATOM     31  C   UNL A   1      38.495  29.597  30.352  1.00  0.00     0.014 A 
ATOM     32  C   UNL A   1      38.109  29.888  27.986  1.00  0.00     0.014 A 
ATOM     33  C   UNL A   1      39.837  29.296  30.096  1.00  0.00     0.010 A 
ATOM     34  C   UNL A   1      39.431  29.520  27.726  1.00  0.00     0.010 A 
ATOM     35  C   UNL A   1      40.310  29.219  28.777  1.00  0.00    -0.014 A 
BRANCH  35  36
ATOM     36  C   UNL A   1      41.710  28.812  28.481  1.00  0.00     0.031 A 
ATOM     37  C   UNL A   1      42.818  29.831  28.460  1.00  0.00     0.074 A 
ATOM     38  C   UNL A   1      41.973  27.528  28.161  1.00  0.00     0.049 A 
ATOM     39  N   UNL A   1      44.078  29.675  28.146  1.00  0.00    -0.248 NA
ATOM     40  C   UNL A   1      42.457  31.212  28.819  1.00  0.00     0.031 C 
ATOM     41  C   UNL A   1      40.981  26.452  28.102  1.00  0.00     0.029 A 
ATOM     42  N   UNL A   1      43.150  26.912  27.812  1.00  0.00    -0.354 N 
ATOM     43  C   UNL A   1      44.657  30.934  28.249  1.00  0.00     0.074 A 
ATOM     44  C   UNL A   1      43.600  31.852  28.617  1.00  0.00     0.031 C 
ATOM     45  C   UNL A   1      41.591  25.308  27.755  1.00  0.00     0.029 A 
ATOM     46  C   UNL A   1      43.008  25.573  27.527  1.00  0.00     0.049 A 
ATOM     47  H   UNL A   1      44.012  27.384  27.771  1.00  0.00     0.167 HD
ATOM     48  C   UNL A   1      45.953  31.291  28.074  1.00  0.00     0.037 A 
ATOM     49  C   UNL A   1      43.912  24.664  27.116  1.00  0.00     0.037 A 
ATOM     50  C   UNL A   1      47.007  30.369  27.733  1.00  0.00     0.049 A 
ATOM     51  C   UNL A   1      45.346  25.081  26.929  1.00  0.00     0.074 A 
ATOM     52  C   UNL A   1      48.361  30.623  27.591  1.00  0.00     0.029 A 
ATOM     53  N   UNL A   1      46.827  29.017  27.478  1.00  0.00    -0.354 N 
ATOM     54  N   UNL A   1      45.885  26.266  27.091  1.00  0.00    -0.248 NA
ATOM     55  C   UNL A   1      46.294  24.040  26.509  1.00  0.00     0.031 C 
ATOM     56  C   UNL A   1      48.992  29.435  27.209  1.00  0.00     0.029 A 
ATOM     57  C   UNL A   1      48.041  28.429  27.161  1.00  0.00     0.049 A 
ATOM     58  H   UNL A   1      45.963  28.545  27.515  1.00  0.00     0.167 HD
ATOM     59  C   UNL A   1      47.240  26.106  26.821  1.00  0.00     0.074 A 
ATOM     60  C   UNL A   1      47.438  24.710  26.493  1.00  0.00     0.031 C 
ATOM     61  C   UNL A   1      48.229  27.034  26.845  1.00  0.00     0.037 A 
BRANCH  48  62
ATOM     62  C   UNL A   1      46.309  32.743  28.251  1.00  0.00     0.058 A 
ATOM     63  C   UNL A   1      46.726  33.255  29.490  1.00  0.00     0.135 A 
ATOM     64  C   UNL A   1      46.270  33.626  27.159  1.00  0.00     0.135 A 
ATOM     65  F   UNL A   1      46.771  32.458  30.569  1.00  0.00    -0.206 F 
ATOM     66  C   UNL A   1      47.060  34.596  29.649  1.00  0.00     0.059 A 
ATOM     67  C   UNL A   1      46.626  34.967  27.289  1.00  0.00     0.059 A 
ATOM     68  F   UNL A   1      45.882  33.191  25.950  1.00  0.00    -0.206 F 
ATOM     69  C   UNL A   1      47.004  35.445  28.542  1.00  0.00     0.060 A 
BRANCH  69  70
ATOM     70  S   UNL A   1      47.438  37.183  28.768  1.00  0.00     0.124 S 
ATOM     71  O   UNL A   1      46.144  37.831  28.582  1.00  0.00    -0.237 OA
ATOM     72  O   UNL A   1      47.966  37.201  30.127  1.00  0.00    -0.237 OA
ATOM     73  O   UNL A   1      48.419  37.428  27.713  1.00  0.00    -0.744 OA
ENDBRANCH  69  70
ENDBRANCH  48  62
BRANCH  49  74
ATOM     74  C   UNL A   1      43.490  23.258  26.875  1.00  0.00     0.058 A 
ATOM     75  C   UNL A   1      43.384  22.751  25.572  1.00  0.00     0.135 A 
ATOM     76  C   UNL A   1      43.206  22.389  27.940  1.00  0.00     0.135 A 
ATOM     77  F   UNL A   1      43.639  23.545  24.521  1.00  0.00    -0.206 F 
ATOM     78  C   UNL A   1      43.001  21.435  25.331  1.00  0.00     0.059 A 
ATOM     79  C   UNL A   1      42.846  21.062  27.725  1.00  0.00     0.059 A 
ATOM     80  F   UNL A   1      43.309  22.821  29.206  1.00  0.00    -0.206 F 
ATOM     81  C   UNL A   1      42.737  20.597  26.415  1.00  0.00     0.060 A 
BRANCH  81  82
ATOM     82  S   UNL A   1      42.295  18.876  26.092  1.00  0.00     0.124 S 
ATOM     83  O   UNL A   1      43.210  18.536  25.008  1.00  0.00    -0.237 OA
ATOM     84  O   UNL A   1      42.567  18.243  27.378  1.00  0.00    -0.237 OA
ATOM     85  O   UNL A   1      40.883  18.955  25.727  1.00  0.00    -0.744 OA
ENDBRANCH  81  82
ENDBRANCH  49  74
BRANCH  61  86
ATOM     86  C   UNL A   1      49.626  26.568  26.547  1.00  0.00     0.058 A 
ATOM     87  C   UNL A   1      50.472  26.077  27.554  1.00  0.00     0.135 A 
ATOM     88  C   UNL A   1      50.104  26.559  25.226  1.00  0.00     0.135 A 
ATOM     89  F   UNL A   1      50.067  26.071  28.834  1.00  0.00    -0.206 F 
ATOM     90  C   UNL A   1      51.750  25.610  27.264  1.00  0.00     0.059 A 
ATOM     91  C   UNL A   1      51.369  26.073  24.910  1.00  0.00     0.059 A 
ATOM     92  F   UNL A   1      49.331  27.009  24.225  1.00  0.00    -0.206 F 
ATOM     93  C   UNL A   1      52.189  25.609  25.938  1.00  0.00     0.060 A 
BRANCH  93  94
ATOM     94  S   UNL A   1      53.833  24.962  25.569  1.00  0.00     0.124 S 
ATOM     95  O   UNL A   1      54.557  25.277  26.796  1.00  0.00    -0.237 OA
ATOM     96  O   UNL A   1      53.567  23.545  25.337  1.00  0.00    -0.237 OA
ATOM     97  O   UNL A   1      54.239  25.718  24.387  1.00  0.00    -0.744 OA
ENDBRANCH  93  94
ENDBRANCH  61  86
ENDBRANCH  35  36
ENDBRANCH  27  30
ENDBRANCH  25  26
ENDBRANCH  24  25
ENDBRANCH   1  24
TORSDOF 19
ENDMDL
MODEL 3
REMARK VINA RESULT:     -11.2      6.547     12.002
REMARK SMILES C#CCN(CC(=O)NCCCNC(=O)c1ccc(-c2c3nc(c(-c4c(F)cc(S(=O)(=O)[O-])cc4F)c4ccc([nH]4)c(-c4c(F)cc(S(=O)(=O)[O-])cc4F)c4nc(c(-c5c(F)cc(S(=O)(=O)[O-])cc5F)c5ccc2[nH]5)C=C4)C=C3)cc1)C(=O)c1cc([N+](=O)[O-])c(F)cc1F
REMARK SMILES IDX 9 1 8 2 6 3 7 4 5 6 4 7 3 8 2 9 1 10 81 11 82 12 83 13 84 14
REMARK SMILES IDX 92 15 85 16 91 17 93 18 89 19 90 20 86 21 87 22 88 23 10 24
REMARK SMILES IDX 11 25 12 26 13 27 14 29 15 30 16 31 80 32 17 33 79 34 18 35
REMARK SMILES IDX 19 36 20 37 73 38 21 39 78 40 72 41 74 42 22 43 77 44 71 45
REMARK SMILES IDX 70 46 23 48 57 49 36 50 56 51 37 52 40 53 55 54 75 55 38 56
REMARK SMILES IDX 39 57 54 59 76 60 41 61 24 62 25 63 34 64 26 65 27 66 33 67
REMARK SMILES IDX 35 68 28 69 29 70 30 71 31 72 32 73 58 74 59 75 68 76 60 77
REMARK SMILES IDX 61 78 67 79 69 80 62 81 63 82 64 83 65 84 66 85 42 86 43 87
REMARK SMILES IDX 52 88 44 89 45 90 51 91 53 92 46 93 47 94 48 95 49 96 50 97
REMARK H PARENT 8 5 12 28 74 47 40 58
REMARK Flexibility Score: inf
ROOT
ATOM      1  C   UNL A   1      37.549  22.599  25.776  1.00  0.00     0.117 C 
ENDROOT
BRANCH   1   2
ATOM      2  N   UNL A   1      36.299  22.327  26.455  1.00  0.00    -0.354 N 
ATOM      3  C   UNL A   1      35.134  21.771  26.020  1.00  0.00     0.239 C 
ATOM      4  O   UNL A   1      34.305  21.460  26.884  1.00  0.00    -0.273 OA
ATOM      5  H   UNL A   1      36.288  22.594  27.402  1.00  0.00     0.163 HD
BRANCH   3   6
ATOM      6  C   UNL A   1      34.866  21.395  24.551  1.00  0.00     0.220 C 
BRANCH   6   7
ATOM      7  N   UNL A   1      33.747  22.041  23.866  1.00  0.00    -0.318 N 
BRANCH   7   8
ATOM      8  C   UNL A   1      32.426  21.433  24.016  1.00  0.00     0.210 C 
BRANCH   8   9
ATOM      9  C   UNL A   1      32.475  19.914  23.986  1.00  0.00    -0.085 C 
ATOM     10  C   UNL A   1      32.517  18.611  23.961  1.00  0.00     0.006 C 
ENDBRANCH   8   9
ENDBRANCH   7   8
BRANCH   7  11
ATOM     11  C   UNL A   1      33.835  23.243  23.152  1.00  0.00     0.258 C 
ATOM     12  O   UNL A   1      34.315  23.327  22.024  1.00  0.00    -0.269 OA
BRANCH  11  13
ATOM     13  C   UNL A   1      33.301  24.503  23.710  1.00  0.00     0.082 A 
ATOM     14  C   UNL A   1      32.117  25.036  23.176  1.00  0.00     0.105 A 
ATOM     15  C   UNL A   1      34.030  25.250  24.633  1.00  0.00     0.139 A 
ATOM     16  C   UNL A   1      31.646  26.277  23.642  1.00  0.00     0.305 A 
ATOM     17  C   UNL A   1      33.533  26.447  25.139  1.00  0.00     0.086 A 
ATOM     18  F   UNL A   1      35.250  24.859  25.021  1.00  0.00    -0.206 F 
ATOM     19  C   UNL A   1      32.335  26.957  24.648  1.00  0.00     0.203 A 
ATOM     20  F   UNL A   1      31.893  28.109  25.168  1.00  0.00    -0.199 F 
BRANCH  16  21
ATOM     21  N   UNL A   1      30.448  26.867  23.044  1.00  0.00     0.065 N 
ATOM     22  O   UNL A   1      30.606  27.571  22.037  1.00  0.00    -0.258 OA
ATOM     23  O   UNL A   1      29.350  26.639  23.566  1.00  0.00    -0.258 OA
ENDBRANCH  16  21
ENDBRANCH  11  13
ENDBRANCH   7  11
ENDBRANCH   6   7
ENDBRANCH   3   6
ENDBRANCH   1   2
BRANCH   1  24
ATOM     24  C   UNL A   1      38.373  23.731  26.387  1.00  0.00     0.042 C 
BRANCH  24  25
ATOM     25  C   UNL A   1      39.741  23.328  26.930  1.00  0.00     0.118 C 
BRANCH  25  26
ATOM     26  N   UNL A   1      40.841  23.857  26.139  1.00  0.00    -0.352 N 
ATOM     27  C   UNL A   1      41.539  25.035  26.227  1.00  0.00     0.251 C 
ATOM     28  H   UNL A   1      41.139  23.264  25.411  1.00  0.00     0.163 HD
ATOM     29  O   UNL A   1      42.299  25.336  25.308  1.00  0.00    -0.269 OA
BRANCH  27  30
ATOM     30  C   UNL A   1      41.391  25.951  27.385  1.00  0.00     0.039 A 
ATOM     31  C   UNL A   1      42.255  27.048  27.481  1.00  0.00     0.014 A 
ATOM     32  C   UNL A   1      40.473  25.709  28.409  1.00  0.00     0.014 A 
ATOM     33  C   UNL A   1      42.155  27.930  28.562  1.00  0.00     0.010 A 
ATOM     34  C   UNL A   1      40.327  26.626  29.452  1.00  0.00     0.010 A 
ATOM     35  C   UNL A   1      41.166  27.748  29.541  1.00  0.00    -0.014 A 
BRANCH  35  36
ATOM     36  C   UNL A   1      40.984  28.724  30.648  1.00  0.00     0.031 A 
ATOM     37  C   UNL A   1      41.814  28.627  31.901  1.00  0.00     0.074 A 
ATOM     38  C   UNL A   1      40.020  29.663  30.553  1.00  0.00     0.049 A 
ATOM     39  N   UNL A   1      41.741  29.337  32.997  1.00  0.00    -0.248 NA
ATOM     40  C   UNL A   1      42.846  27.579  31.934  1.00  0.00     0.031 C 
ATOM     41  C   UNL A   1      39.119  29.835  29.412  1.00  0.00     0.029 A 
ATOM     42  N   UNL A   1      39.626  30.639  31.435  1.00  0.00    -0.354 N 
ATOM     43  C   UNL A   1      42.700  28.814  33.856  1.00  0.00     0.074 A 
ATOM     44  C   UNL A   1      43.315  27.699  33.167  1.00  0.00     0.031 C 
ATOM     45  C   UNL A   1      38.290  30.862  29.655  1.00  0.00     0.029 A 
ATOM     46  C   UNL A   1      38.570  31.397  30.984  1.00  0.00     0.049 A 
ATOM     47  H   UNL A   1      40.058  30.782  32.308  1.00  0.00     0.167 HD
ATOM     48  C   UNL A   1      43.051  29.235  35.096  1.00  0.00     0.037 A 
ATOM     49  C   UNL A   1      37.895  32.401  31.576  1.00  0.00     0.037 A 
ATOM     50  C   UNL A   1      42.453  30.361  35.767  1.00  0.00     0.049 A 
ATOM     51  C   UNL A   1      38.301  32.852  32.952  1.00  0.00     0.074 A 
ATOM     52  C   UNL A   1      42.780  30.901  37.000  1.00  0.00     0.029 A 
ATOM     53  N   UNL A   1      41.405  31.118  35.266  1.00  0.00    -0.354 N 
ATOM     54  N   UNL A   1      39.253  32.383  33.724  1.00  0.00    -0.248 NA
ATOM     55  C   UNL A   1      37.550  33.971  33.536  1.00  0.00     0.031 C 
ATOM     56  C   UNL A   1      41.902  31.958  37.262  1.00  0.00     0.029 A 
ATOM     57  C   UNL A   1      41.060  32.109  36.172  1.00  0.00     0.049 A 
ATOM     58  H   UNL A   1      40.969  30.974  34.395  1.00  0.00     0.167 HD
ATOM     59  C   UNL A   1      39.232  33.168  34.872  1.00  0.00     0.074 A 
ATOM     60  C   UNL A   1      38.180  34.145  34.690  1.00  0.00     0.031 C 
ATOM     61  C   UNL A   1      40.016  33.085  35.975  1.00  0.00     0.037 A 
BRANCH  48  62
ATOM     62  C   UNL A   1      44.136  28.475  35.811  1.00  0.00     0.058 A 
ATOM     63  C   UNL A   1      43.843  27.406  36.673  1.00  0.00     0.135 A 
ATOM     64  C   UNL A   1      45.489  28.794  35.603  1.00  0.00     0.135 A 
ATOM     65  F   UNL A   1      42.568  27.066  36.918  1.00  0.00    -0.206 F 
ATOM     66  C   UNL A   1      44.848  26.702  37.329  1.00  0.00     0.059 A 
ATOM     67  C   UNL A   1      46.512  28.085  36.227  1.00  0.00     0.059 A 
ATOM     68  F   UNL A   1      45.827  29.804  34.786  1.00  0.00    -0.206 F 
ATOM     69  C   UNL A   1      46.181  27.051  37.100  1.00  0.00     0.060 A 
BRANCH  69  70
ATOM     70  S   UNL A   1      47.472  26.128  37.962  1.00  0.00     0.124 S 
ATOM     71  O   UNL A   1      47.896  25.190  36.927  1.00  0.00    -0.237 OA
ATOM     72  O   UNL A   1      48.431  27.173  38.302  1.00  0.00    -0.237 OA
ATOM     73  O   UNL A   1      46.766  25.535  39.095  1.00  0.00    -0.744 OA
ENDBRANCH  69  70
ENDBRANCH  48  62
BRANCH  49  74
ATOM     74  C   UNL A   1      36.774  33.063  30.856  1.00  0.00     0.058 A 
ATOM     75  C   UNL A   1      35.440  32.786  31.189  1.00  0.00     0.135 A 
ATOM     76  C   UNL A   1      37.014  34.001  29.839  1.00  0.00     0.135 A 
ATOM     77  F   UNL A   1      35.161  31.893  32.150  1.00  0.00    -0.206 F 
ATOM     78  C   UNL A   1      34.381  33.406  30.533  1.00  0.00     0.059 A 
ATOM     79  C   UNL A   1      35.972  34.652  29.186  1.00  0.00     0.059 A 
ATOM     80  F   UNL A   1      38.273  34.312  29.495  1.00  0.00    -0.206 F 
ATOM     81  C   UNL A   1      34.658  34.341  29.534  1.00  0.00     0.060 A 
BRANCH  81  82
ATOM     82  S   UNL A   1      33.277  35.180  28.727  1.00  0.00     0.124 S 
ATOM     83  O   UNL A   1      32.527  35.680  29.874  1.00  0.00    -0.237 OA
ATOM     84  O   UNL A   1      33.960  36.189  27.923  1.00  0.00    -0.237 OA
ATOM     85  O   UNL A   1      32.635  34.113  27.966  1.00  0.00    -0.744 OA
ENDBRANCH  81  82
ENDBRANCH  49  74
BRANCH  61  86
ATOM     86  C   UNL A   1      39.798  34.102  37.060  1.00  0.00     0.058 A 
ATOM     87  C   UNL A   1      39.064  33.801  38.218  1.00  0.00     0.135 A 
ATOM     88  C   UNL A   1      40.379  35.377  36.966  1.00  0.00     0.135 A 
ATOM     89  F   UNL A   1      38.481  32.599  38.356  1.00  0.00    -0.206 F 
ATOM     90  C   UNL A   1      38.900  34.734  39.237  1.00  0.00     0.059 A 
ATOM     91  C   UNL A   1      40.249  36.317  37.983  1.00  0.00     0.059 A 
ATOM     92  F   UNL A   1      41.098  35.713  35.882  1.00  0.00    -0.206 F 
ATOM     93  C   UNL A   1      39.499  35.989  39.111  1.00  0.00     0.060 A 
BRANCH  93  94
ATOM     94  S   UNL A   1      39.314  37.177  40.458  1.00  0.00     0.124 S 
ATOM     95  O   UNL A   1      40.705  37.431  40.820  1.00  0.00    -0.237 OA
ATOM     96  O   UNL A   1      38.618  38.282  39.807  1.00  0.00    -0.237 OA
ATOM     97  O   UNL A   1      38.529  36.449  41.450  1.00  0.00    -0.744 OA
ENDBRANCH  93  94
ENDBRANCH  61  86
ENDBRANCH  35  36
ENDBRANCH  27  30
ENDBRANCH  25  26
ENDBRANCH  24  25
ENDBRANCH   1  24
TORSDOF 19
ENDMDL
