MODEL 1
REMARK VINA RESULT:     -14.4      0.000      0.000
REMARK SMILES O=C1C[C@@H](c2cccc(O)c2)c2c(c(C(=O)NCCCNC(=O)c3ccc(-c4c5nc(c(-c6c(F)cc(S(=O)(=O)[O-])cc6F)c6ccc([nH]6)c(-c6c(F)cc(S(=O)(=O)[O-])cc6F)c6nc(c(-c7c(F)cc(S(=O)(=O)[O-])cc7F)c7ccc4[nH]7)C=C6)C=C5)cc3)cn2-c2cccc(C(F)(F)F)c2)N1
REMARK SMILES IDX 19 1 18 2 17 3 15 4 16 5 14 7 1 8 2 9 3 10 102 11 4 12 13 13
REMARK SMILES IDX 12 15 91 16 90 17 5 18 6 19 11 20 7 21 9 22 8 23 10 24 92 26
REMARK SMILES IDX 93 27 101 28 94 29 96 30 95 31 97 32 98 33 99 34 100 35
REMARK SMILES IDX 20 36 21 37 22 38 23 40 24 41 25 42 89 43 26 44 88 45 27 46
REMARK SMILES IDX 28 47 29 48 82 49 30 50 87 51 81 52 83 53 31 54 86 55 80 56
REMARK SMILES IDX 79 57 32 59 66 60 45 61 65 62 46 63 49 64 64 65 84 66 47 67
REMARK SMILES IDX 48 68 63 70 85 71 50 72 33 73 34 74 43 75 35 76 36 77 42 78
REMARK SMILES IDX 44 79 37 80 38 81 39 82 40 83 41 84 67 85 68 86 77 87 69 88
REMARK SMILES IDX 70 89 76 90 78 91 71 92 72 93 73 94 74 95 75 96 51 97 52 98
REMARK SMILES IDX 61 99 53 100 54 101 60 102 62 103 55 104 56 105 57 106
REMARK SMILES IDX 58 107 59 108
REMARK H PARENT 17 6 102 14 10 25 21 39 83 58 49 69
REMARK Flexibility Score: inf
ROOT
ATOM      1  C   UNL A   1      37.041  21.840  24.356  1.00  0.00     0.042 C 
ENDROOT
BRANCH   1   2
ATOM      2  C   UNL A   1      35.784  22.574  23.861  1.00  0.00     0.118 C 
BRANCH   2   3
ATOM      3  N   UNL A   1      34.562  22.094  24.486  1.00  0.00    -0.352 N 
ATOM      4  C   UNL A   1      33.410  22.746  24.855  1.00  0.00     0.254 C 
ATOM      5  O   UNL A   1      32.464  22.061  25.238  1.00  0.00    -0.269 OA
ATOM      6  H   UNL A   1      34.559  21.128  24.679  1.00  0.00     0.163 HD
BRANCH   4   7
ATOM      7  C   UNL A   1      33.290  24.199  24.778  1.00  0.00     0.081 A 
ATOM      8  O   UNL A   1      32.784  25.046  20.081  1.00  0.00    -0.275 OA
ATOM      9  C   UNL A   1      32.983  25.428  21.232  1.00  0.00     0.225 C 
ATOM     10  C   UNL A   1      33.350  26.877  21.531  1.00  0.00     0.115 C 
ATOM     11  N   UNL A   1      33.020  24.548  22.286  1.00  0.00    -0.324 N 
ATOM     12  C   UNL A   1      32.872  27.393  22.901  1.00  0.00     0.078 C 
ATOM     13  C   UNL A   1      33.118  24.966  23.594  1.00  0.00     0.076 A 
ATOM     14  H   UNL A   1      32.975  23.583  22.099  1.00  0.00     0.170 HD
ATOM     15  C   UNL A   1      33.017  26.302  23.915  1.00  0.00     0.055 A 
ATOM     16  N   UNL A   1      33.126  26.409  25.282  1.00  0.00    -0.317 N 
ATOM     17  C   UNL A   1      33.282  25.137  25.791  1.00  0.00     0.107 A 
BRANCH  12  18
ATOM     18  C   UNL A   1      31.460  27.948  22.827  1.00  0.00    -0.035 A 
ATOM     19  C   UNL A   1      30.357  27.251  23.348  1.00  0.00     0.005 A 
ATOM     20  C   UNL A   1      31.254  29.230  22.291  1.00  0.00     0.050 A 
ATOM     21  C   UNL A   1      29.093  27.843  23.380  1.00  0.00     0.004 A 
ATOM     22  C   UNL A   1      29.998  29.821  22.360  1.00  0.00     0.115 A 
ATOM     23  C   UNL A   1      28.914  29.138  22.899  1.00  0.00     0.046 A 
BRANCH  22  24
ATOM     24  O   UNL A   1      29.882  31.110  21.930  1.00  0.00    -0.508 OA
ATOM     25  H   UNL A   1      30.352  31.794  22.367  1.00  0.00     0.293 HD
ENDBRANCH  22  24
ENDBRANCH  12  18
BRANCH  16  26
ATOM     26  C   UNL A   1      33.018  27.532  26.131  1.00  0.00     0.046 A 
ATOM     27  C   UNL A   1      31.748  28.069  26.383  1.00  0.00     0.026 A 
ATOM     28  C   UNL A   1      34.165  28.217  26.532  1.00  0.00     0.039 A 
ATOM     29  C   UNL A   1      31.630  29.263  27.091  1.00  0.00     0.003 A 
ATOM     30  C   UNL A   1      34.054  29.426  27.234  1.00  0.00     0.058 A 
ATOM     31  C   UNL A   1      32.775  29.934  27.520  1.00  0.00     0.013 A 
BRANCH  30  32
ATOM     32  C   UNL A   1      35.282  30.199  27.652  1.00  0.00     0.416 C 
ATOM     33  F   UNL A   1      36.432  29.627  27.193  1.00  0.00    -0.166 F 
ATOM     34  F   UNL A   1      35.287  31.471  27.165  1.00  0.00    -0.166 F 
ATOM     35  F   UNL A   1      35.443  30.311  28.999  1.00  0.00    -0.166 F 
ENDBRANCH  30  32
ENDBRANCH  16  26
ENDBRANCH   4   7
ENDBRANCH   2   3
ENDBRANCH   1   2
BRANCH   1  36
ATOM     36  C   UNL A   1      37.780  22.645  25.408  1.00  0.00     0.118 C 
BRANCH  36  37
ATOM     37  N   UNL A   1      38.928  21.913  25.982  1.00  0.00    -0.352 N 
ATOM     38  C   UNL A   1      40.119  22.397  26.526  1.00  0.00     0.251 C 
ATOM     39  H   UNL A   1      38.840  20.932  25.982  1.00  0.00     0.163 HD
ATOM     40  O   UNL A   1      41.086  21.673  26.659  1.00  0.00    -0.269 OA
BRANCH  38  41
ATOM     41  C   UNL A   1      40.162  23.812  26.938  1.00  0.00     0.039 A 
ATOM     42  C   UNL A   1      39.073  24.688  26.931  1.00  0.00     0.014 A 
ATOM     43  C   UNL A   1      41.371  24.223  27.451  1.00  0.00     0.014 A 
ATOM     44  C   UNL A   1      39.256  25.956  27.489  1.00  0.00     0.010 A 
ATOM     45  C   UNL A   1      41.345  25.179  28.406  1.00  0.00     0.010 A 
ATOM     46  C   UNL A   1      40.430  26.186  28.217  1.00  0.00    -0.014 A 
BRANCH  46  47
ATOM     47  C   UNL A   1      40.820  27.443  28.825  1.00  0.00     0.031 A 
ATOM     48  C   UNL A   1      42.034  28.051  28.248  1.00  0.00     0.074 A 
ATOM     49  C   UNL A   1      39.956  28.146  29.600  1.00  0.00     0.049 A 
ATOM     50  N   UNL A   1      43.204  28.128  28.784  1.00  0.00    -0.248 NA
ATOM     51  C   UNL A   1      41.990  28.463  26.836  1.00  0.00     0.031 C 
ATOM     52  C   UNL A   1      38.557  27.851  29.960  1.00  0.00     0.029 A 
ATOM     53  N   UNL A   1      40.137  29.373  30.150  1.00  0.00    -0.354 N 
ATOM     54  C   UNL A   1      43.980  28.832  27.872  1.00  0.00     0.074 A 
ATOM     55  C   UNL A   1      43.265  28.792  26.622  1.00  0.00     0.031 C 
ATOM     56  C   UNL A   1      37.965  28.960  30.458  1.00  0.00     0.029 A 
ATOM     57  C   UNL A   1      38.977  29.982  30.619  1.00  0.00     0.049 A 
ATOM     58  H   UNL A   1      41.022  29.800  30.212  1.00  0.00     0.167 HD
ATOM     59  C   UNL A   1      45.016  29.617  28.279  1.00  0.00     0.037 A 
ATOM     60  C   UNL A   1      38.879  31.262  31.061  1.00  0.00     0.037 A 
ATOM     61  C   UNL A   1      45.339  29.381  29.668  1.00  0.00     0.049 A 
ATOM     62  C   UNL A   1      40.265  31.679  31.431  1.00  0.00     0.074 A 
ATOM     63  C   UNL A   1      45.714  28.266  30.392  1.00  0.00     0.029 A 
ATOM     64  N   UNL A   1      44.867  30.281  30.598  1.00  0.00    -0.354 N 
ATOM     65  N   UNL A   1      40.951  31.115  32.395  1.00  0.00    -0.248 NA
ATOM     66  C   UNL A   1      41.064  32.334  30.406  1.00  0.00     0.031 C 
ATOM     67  C   UNL A   1      44.971  28.353  31.609  1.00  0.00     0.029 A 
ATOM     68  C   UNL A   1      44.257  29.553  31.592  1.00  0.00     0.049 A 
ATOM     69  H   UNL A   1      44.952  31.261  30.558  1.00  0.00     0.167 HD
ATOM     70  C   UNL A   1      42.244  30.988  31.898  1.00  0.00     0.074 A 
ATOM     71  C   UNL A   1      42.262  31.810  30.687  1.00  0.00     0.031 C 
ATOM     72  C   UNL A   1      43.091  30.002  32.330  1.00  0.00     0.037 A 
BRANCH  59  73
ATOM     73  C   UNL A   1      45.496  30.837  27.538  1.00  0.00     0.058 A 
ATOM     74  C   UNL A   1      46.857  30.943  27.194  1.00  0.00     0.135 A 
ATOM     75  C   UNL A   1      44.730  32.012  27.376  1.00  0.00     0.135 A 
ATOM     76  F   UNL A   1      47.677  29.888  27.321  1.00  0.00    -0.206 F 
ATOM     77  C   UNL A   1      47.428  32.147  26.780  1.00  0.00     0.059 A 
ATOM     78  C   UNL A   1      45.264  33.206  26.907  1.00  0.00     0.059 A 
ATOM     79  F   UNL A   1      43.449  32.091  27.758  1.00  0.00    -0.206 F 
ATOM     80  C   UNL A   1      46.624  33.276  26.655  1.00  0.00     0.060 A 
BRANCH  80  81
ATOM     81  S   UNL A   1      47.378  34.856  26.235  1.00  0.00     0.124 S 
ATOM     82  O   UNL A   1      48.241  35.079  27.389  1.00  0.00    -0.237 OA
ATOM     83  O   UNL A   1      48.054  34.544  24.980  1.00  0.00    -0.237 OA
ATOM     84  O   UNL A   1      46.233  35.754  26.118  1.00  0.00    -0.744 OA
ENDBRANCH  80  81
ENDBRANCH  59  73
BRANCH  60  85
ATOM     85  C   UNL A   1      37.776  32.216  30.748  1.00  0.00     0.058 A 
ATOM     86  C   UNL A   1      37.736  32.933  29.540  1.00  0.00     0.135 A 
ATOM     87  C   UNL A   1      36.597  32.250  31.524  1.00  0.00     0.135 A 
ATOM     88  F   UNL A   1      38.803  32.939  28.726  1.00  0.00    -0.206 F 
ATOM     89  C   UNL A   1      36.586  33.613  29.110  1.00  0.00     0.059 A 
ATOM     90  C   UNL A   1      35.444  32.926  31.123  1.00  0.00     0.059 A 
ATOM     91  F   UNL A   1      36.496  31.550  32.664  1.00  0.00    -0.206 F 
ATOM     92  C   UNL A   1      35.437  33.587  29.902  1.00  0.00     0.060 A 
BRANCH  92  93
ATOM     93  S   UNL A   1      33.902  34.318  29.280  1.00  0.00     0.124 S 
ATOM     94  O   UNL A   1      33.184  34.610  30.515  1.00  0.00    -0.237 OA
ATOM     95  O   UNL A   1      34.391  35.475  28.538  1.00  0.00    -0.237 OA
ATOM     96  O   UNL A   1      33.328  33.255  28.460  1.00  0.00    -0.744 OA
ENDBRANCH  92  93
ENDBRANCH  60  85
BRANCH  72  97
ATOM     97  C   UNL A   1      42.679  29.156  33.517  1.00  0.00     0.058 A 
ATOM     98  C   UNL A   1      41.873  28.005  33.427  1.00  0.00     0.135 A 
ATOM     99  C   UNL A   1      43.273  29.408  34.762  1.00  0.00     0.135 A 
ATOM    100  F   UNL A   1      41.353  27.620  32.257  1.00  0.00    -0.206 F 
ATOM    101  C   UNL A   1      41.637  27.170  34.522  1.00  0.00     0.059 A 
ATOM    102  C   UNL A   1      43.075  28.574  35.863  1.00  0.00     0.059 A 
ATOM    103  F   UNL A   1      44.110  30.447  34.906  1.00  0.00    -0.206 F 
ATOM    104  C   UNL A   1      42.246  27.462  35.739  1.00  0.00     0.060 A 
BRANCH 104 105
ATOM    105  S   UNL A   1      41.999  26.341  37.135  1.00  0.00     0.124 S 
ATOM    106  O   UNL A   1      40.658  26.702  37.584  1.00  0.00    -0.237 OA
ATOM    107  O   UNL A   1      42.126  25.026  36.514  1.00  0.00    -0.237 OA
ATOM    108  O   UNL A   1      43.080  26.694  38.052  1.00  0.00    -0.744 OA
ENDBRANCH 104 105
ENDBRANCH  72  97
ENDBRANCH  46  47
ENDBRANCH  38  41
ENDBRANCH  36  37
ENDBRANCH   1  36
TORSDOF 17
ENDMDL
MODEL 2
REMARK VINA RESULT:     -13.7      1.505      2.107
REMARK SMILES O=C1C[C@@H](c2cccc(O)c2)c2c(c(C(=O)NCCCNC(=O)c3ccc(-c4c5nc(c(-c6c(F)cc(S(=O)(=O)[O-])cc6F)c6ccc([nH]6)c(-c6c(F)cc(S(=O)(=O)[O-])cc6F)c6nc(c(-c7c(F)cc(S(=O)(=O)[O-])cc7F)c7ccc4[nH]7)C=C6)C=C5)cc3)cn2-c2cccc(C(F)(F)F)c2)N1
REMARK SMILES IDX 19 1 18 2 17 3 15 4 16 5 14 7 1 8 2 9 3 10 102 11 4 12 13 13
REMARK SMILES IDX 12 15 91 16 90 17 5 18 6 19 11 20 7 21 9 22 8 23 10 24 92 26
REMARK SMILES IDX 93 27 101 28 94 29 96 30 95 31 97 32 98 33 99 34 100 35
REMARK SMILES IDX 20 36 21 37 22 38 23 40 24 41 25 42 89 43 26 44 88 45 27 46
REMARK SMILES IDX 28 47 29 48 82 49 30 50 87 51 81 52 83 53 31 54 86 55 80 56
REMARK SMILES IDX 79 57 32 59 66 60 45 61 65 62 46 63 49 64 64 65 84 66 47 67
REMARK SMILES IDX 48 68 63 70 85 71 50 72 33 73 34 74 43 75 35 76 36 77 42 78
REMARK SMILES IDX 44 79 37 80 38 81 39 82 40 83 41 84 67 85 68 86 77 87 69 88
REMARK SMILES IDX 70 89 76 90 78 91 71 92 72 93 73 94 74 95 75 96 51 97 52 98
REMARK SMILES IDX 61 99 53 100 54 101 60 102 62 103 55 104 56 105 57 106
REMARK SMILES IDX 58 107 59 108
REMARK H PARENT 17 6 102 14 10 25 21 39 83 58 49 69
REMARK Flexibility Score: inf
ROOT
ATOM      1  C   UNL A   1      38.130  22.572  25.565  1.00  0.00     0.042 C 
ENDROOT
BRANCH   1   2
ATOM      2  C   UNL A   1      37.012  23.627  25.593  1.00  0.00     0.118 C 
BRANCH   2   3
ATOM      3  N   UNL A   1      35.718  23.075  25.962  1.00  0.00    -0.352 N 
ATOM      4  C   UNL A   1      34.447  23.589  25.863  1.00  0.00     0.254 C 
ATOM      5  O   UNL A   1      33.507  22.840  26.123  1.00  0.00    -0.269 OA
ATOM      6  H   UNL A   1      35.760  22.172  26.352  1.00  0.00     0.163 HD
BRANCH   4   7
ATOM      7  C   UNL A   1      34.204  24.967  25.445  1.00  0.00     0.081 A 
ATOM      8  O   UNL A   1      33.006  24.549  20.816  1.00  0.00    -0.275 OA
ATOM      9  C   UNL A   1      33.328  25.224  21.792  1.00  0.00     0.225 C 
ATOM     10  C   UNL A   1      33.617  26.715  21.661  1.00  0.00     0.115 C 
ATOM     11  N   UNL A   1      33.575  24.648  23.014  1.00  0.00    -0.324 N 
ATOM     12  C   UNL A   1      33.287  27.546  22.915  1.00  0.00     0.078 C 
ATOM     13  C   UNL A   1      33.815  25.393  24.147  1.00  0.00     0.076 A 
ATOM     14  H   UNL A   1      33.581  23.666  23.084  1.00  0.00     0.170 HD
ATOM     15  C   UNL A   1      33.653  26.762  24.136  1.00  0.00     0.055 A 
ATOM     16  N   UNL A   1      33.935  27.223  25.400  1.00  0.00    -0.317 N 
ATOM     17  C   UNL A   1      34.259  26.134  26.182  1.00  0.00     0.107 A 
BRANCH  12  18
ATOM     18  C   UNL A   1      31.839  28.004  22.917  1.00  0.00    -0.035 A 
ATOM     19  C   UNL A   1      30.845  27.329  23.646  1.00  0.00     0.005 A 
ATOM     20  C   UNL A   1      31.490  29.181  22.234  1.00  0.00     0.050 A 
ATOM     21  C   UNL A   1      29.552  27.847  23.732  1.00  0.00     0.004 A 
ATOM     22  C   UNL A   1      30.208  29.703  22.355  1.00  0.00     0.115 A 
ATOM     23  C   UNL A   1      29.234  29.045  23.098  1.00  0.00     0.046 A 
BRANCH  22  24
ATOM     24  O   UNL A   1      29.958  30.908  21.766  1.00  0.00    -0.508 OA
ATOM     25  H   UNL A   1      29.730  30.946  20.858  1.00  0.00     0.293 HD
ENDBRANCH  22  24
ENDBRANCH  12  18
BRANCH  16  26
ATOM     26  C   UNL A   1      33.854  28.522  25.949  1.00  0.00     0.046 A 
ATOM     27  C   UNL A   1      34.826  28.927  26.874  1.00  0.00     0.026 A 
ATOM     28  C   UNL A   1      32.714  29.298  25.738  1.00  0.00     0.039 A 
ATOM     29  C   UNL A   1      34.681  30.141  27.541  1.00  0.00     0.003 A 
ATOM     30  C   UNL A   1      32.556  30.516  26.416  1.00  0.00     0.058 A 
ATOM     31  C   UNL A   1      33.558  30.934  27.309  1.00  0.00     0.013 A 
BRANCH  30  32
ATOM     32  C   UNL A   1      31.318  31.357  26.226  1.00  0.00     0.416 C 
ATOM     33  F   UNL A   1      30.597  30.974  25.133  1.00  0.00    -0.166 F 
ATOM     34  F   UNL A   1      30.459  31.266  27.279  1.00  0.00    -0.166 F 
ATOM     35  F   UNL A   1      31.562  32.685  26.054  1.00  0.00    -0.166 F 
ENDBRANCH  30  32
ENDBRANCH  16  26
ENDBRANCH   4   7
ENDBRANCH   2   3
ENDBRANCH   1   2
BRANCH   1  36
ATOM     36  C   UNL A   1      39.076  22.728  26.740  1.00  0.00     0.118 C 
BRANCH  36  37
ATOM     37  N   UNL A   1      40.469  22.369  26.402  1.00  0.00    -0.352 N 
ATOM     38  C   UNL A   1      41.562  23.189  26.118  1.00  0.00     0.251 C 
ATOM     39  H   UNL A   1      40.655  21.403  26.374  1.00  0.00     0.163 HD
ATOM     40  O   UNL A   1      42.544  22.749  25.552  1.00  0.00    -0.269 OA
BRANCH  38  41
ATOM     41  C   UNL A   1      41.488  24.603  26.532  1.00  0.00     0.039 A 
ATOM     42  C   UNL A   1      40.841  25.619  25.823  1.00  0.00     0.014 A 
ATOM     43  C   UNL A   1      42.035  24.867  27.767  1.00  0.00     0.014 A 
ATOM     44  C   UNL A   1      40.746  26.873  26.430  1.00  0.00     0.010 A 
ATOM     45  C   UNL A   1      41.474  25.861  28.491  1.00  0.00     0.010 A 
ATOM     46  C   UNL A   1      41.094  26.974  27.781  1.00  0.00    -0.014 A 
BRANCH  46  47
ATOM     47  C   UNL A   1      41.107  28.192  28.567  1.00  0.00     0.031 A 
ATOM     48  C   UNL A   1      42.191  29.131  28.221  1.00  0.00     0.074 A 
ATOM     49  C   UNL A   1      40.027  28.570  29.296  1.00  0.00     0.049 A 
ATOM     50  N   UNL A   1      43.248  29.398  28.908  1.00  0.00    -0.248 NA
ATOM     51  C   UNL A   1      42.190  29.710  26.868  1.00  0.00     0.031 C 
ATOM     52  C   UNL A   1      38.711  27.920  29.439  1.00  0.00     0.029 A 
ATOM     53  N   UNL A   1      39.852  29.720  29.994  1.00  0.00    -0.354 N 
ATOM     54  C   UNL A   1      43.919  30.377  28.185  1.00  0.00     0.074 A 
ATOM     55  C   UNL A   1      43.364  30.345  26.857  1.00  0.00     0.031 C 
ATOM     56  C   UNL A   1      37.824  28.789  29.973  1.00  0.00     0.029 A 
ATOM     57  C   UNL A   1      38.539  29.982  30.373  1.00  0.00     0.049 A 
ATOM     58  H   UNL A   1      40.597  30.324  30.215  1.00  0.00     0.167 HD
ATOM     59  C   UNL A   1      44.690  31.314  28.804  1.00  0.00     0.037 A 
ATOM     60  C   UNL A   1      38.092  31.135  30.934  1.00  0.00     0.037 A 
ATOM     61  C   UNL A   1      44.920  30.971  30.189  1.00  0.00     0.049 A 
ATOM     62  C   UNL A   1      39.293  31.800  31.523  1.00  0.00     0.074 A 
ATOM     63  C   UNL A   1      45.478  29.882  30.831  1.00  0.00     0.029 A 
ATOM     64  N   UNL A   1      44.156  31.606  31.143  1.00  0.00    -0.354 N 
ATOM     65  N   UNL A   1      39.995  31.281  32.500  1.00  0.00    -0.248 NA
ATOM     66  C   UNL A   1      40.009  32.752  30.686  1.00  0.00     0.031 C 
ATOM     67  C   UNL A   1      44.618  29.633  31.944  1.00  0.00     0.029 A 
ATOM     68  C   UNL A   1      43.642  30.632  31.965  1.00  0.00     0.049 A 
ATOM     69  H   UNL A   1      44.006  32.577  31.220  1.00  0.00     0.167 HD
ATOM     70  C   UNL A   1      41.323  31.519  32.163  1.00  0.00     0.074 A 
ATOM     71  C   UNL A   1      41.264  32.480  31.060  1.00  0.00     0.031 C 
ATOM     72  C   UNL A   1      42.335  30.701  32.591  1.00  0.00     0.037 A 
BRANCH  59  73
ATOM     73  C   UNL A   1      44.935  32.699  28.267  1.00  0.00     0.058 A 
ATOM     74  C   UNL A   1      46.247  33.091  27.945  1.00  0.00     0.135 A 
ATOM     75  C   UNL A   1      43.974  33.735  28.295  1.00  0.00     0.135 A 
ATOM     76  F   UNL A   1      47.239  32.188  27.901  1.00  0.00    -0.206 F 
ATOM     77  C   UNL A   1      46.592  34.425  27.728  1.00  0.00     0.059 A 
ATOM     78  C   UNL A   1      44.284  35.061  28.023  1.00  0.00     0.059 A 
ATOM     79  F   UNL A   1      42.710  33.529  28.686  1.00  0.00    -0.206 F 
ATOM     80  C   UNL A   1      45.604  35.404  27.785  1.00  0.00     0.060 A 
BRANCH  80  81
ATOM     81  S   UNL A   1      46.066  37.137  27.622  1.00  0.00     0.124 S 
ATOM     82  O   UNL A   1      47.051  37.073  26.549  1.00  0.00    -0.237 OA
ATOM     83  O   UNL A   1      44.790  37.759  27.286  1.00  0.00    -0.237 OA
ATOM     84  O   UNL A   1      46.591  37.470  28.943  1.00  0.00    -0.744 OA
ENDBRANCH  80  81
ENDBRANCH  59  73
BRANCH  60  85
ATOM     85  C   UNL A   1      36.829  31.847  30.586  1.00  0.00     0.058 A 
ATOM     86  C   UNL A   1      35.837  32.110  31.546  1.00  0.00     0.135 A 
ATOM     87  C   UNL A   1      36.682  32.515  29.351  1.00  0.00     0.135 A 
ATOM     88  F   UNL A   1      35.906  31.538  32.759  1.00  0.00    -0.206 F 
ATOM     89  C   UNL A   1      34.784  33.007  31.310  1.00  0.00     0.059 A 
ATOM     90  C   UNL A   1      35.640  33.404  29.089  1.00  0.00     0.059 A 
ATOM     91  F   UNL A   1      37.603  32.392  28.383  1.00  0.00    -0.206 F 
ATOM     92  C   UNL A   1      34.706  33.665  30.081  1.00  0.00     0.060 A 
BRANCH  92  93
ATOM     93  S   UNL A   1      33.452  34.945  29.828  1.00  0.00     0.124 S 
ATOM     94  O   UNL A   1      32.555  34.306  28.872  1.00  0.00    -0.237 OA
ATOM     95  O   UNL A   1      32.922  35.128  31.175  1.00  0.00    -0.237 OA
ATOM     96  O   UNL A   1      34.219  36.073  29.307  1.00  0.00    -0.744 OA
ENDBRANCH  92  93
ENDBRANCH  60  85
BRANCH  72  97
ATOM     97  C   UNL A   1      42.023  29.631  33.617  1.00  0.00     0.058 A 
ATOM     98  C   UNL A   1      41.727  28.291  33.298  1.00  0.00     0.135 A 
ATOM     99  C   UNL A   1      42.214  29.923  34.975  1.00  0.00     0.135 A 
ATOM    100  F   UNL A   1      41.636  27.892  32.026  1.00  0.00    -0.206 F 
ATOM    101  C   UNL A   1      41.589  27.303  34.277  1.00  0.00     0.059 A 
ATOM    102  C   UNL A   1      42.109  28.949  35.967  1.00  0.00     0.059 A 
ATOM    103  F   UNL A   1      42.567  31.163  35.349  1.00  0.00    -0.206 F 
ATOM    104  C   UNL A   1      41.784  27.641  35.613  1.00  0.00     0.060 A 
BRANCH 104 105
ATOM    105  S   UNL A   1      41.678  26.348  36.870  1.00  0.00     0.124 S 
ATOM    106  O   UNL A   1      41.648  25.135  36.060  1.00  0.00    -0.237 OA
ATOM    107  O   UNL A   1      42.896  26.560  37.648  1.00  0.00    -0.237 OA
ATOM    108  O   UNL A   1      40.437  26.659  37.576  1.00  0.00    -0.744 OA
ENDBRANCH 104 105
ENDBRANCH  72  97
ENDBRANCH  46  47
ENDBRANCH  38  41
ENDBRANCH  36  37
ENDBRANCH   1  36
TORSDOF 17
ENDMDL
MODEL 3
REMARK VINA RESULT:     -13.6      2.912      9.176
REMARK SMILES O=C1C[C@@H](c2cccc(O)c2)c2c(c(C(=O)NCCCNC(=O)c3ccc(-c4c5nc(c(-c6c(F)cc(S(=O)(=O)[O-])cc6F)c6ccc([nH]6)c(-c6c(F)cc(S(=O)(=O)[O-])cc6F)c6nc(c(-c7c(F)cc(S(=O)(=O)[O-])cc7F)c7ccc4[nH]7)C=C6)C=C5)cc3)cn2-c2cccc(C(F)(F)F)c2)N1
REMARK SMILES IDX 19 1 18 2 17 3 15 4 16 5 14 7 1 8 2 9 3 10 102 11 4 12 13 13
REMARK SMILES IDX 12 15 91 16 90 17 5 18 6 19 11 20 7 21 9 22 8 23 10 24 92 26
REMARK SMILES IDX 93 27 101 28 94 29 96 30 95 31 97 32 98 33 99 34 100 35
REMARK SMILES IDX 20 36 21 37 22 38 23 40 24 41 25 42 89 43 26 44 88 45 27 46
REMARK SMILES IDX 28 47 29 48 82 49 30 50 87 51 81 52 83 53 31 54 86 55 80 56
REMARK SMILES IDX 79 57 32 59 66 60 45 61 65 62 46 63 49 64 64 65 84 66 47 67
REMARK SMILES IDX 48 68 63 70 85 71 50 72 33 73 34 74 43 75 35 76 36 77 42 78
REMARK SMILES IDX 44 79 37 80 38 81 39 82 40 83 41 84 67 85 68 86 77 87 69 88
REMARK SMILES IDX 70 89 76 90 78 91 71 92 72 93 73 94 74 95 75 96 51 97 52 98
REMARK SMILES IDX 61 99 53 100 54 101 60 102 62 103 55 104 56 105 57 106
REMARK SMILES IDX 58 107 59 108
REMARK H PARENT 17 6 102 14 10 25 21 39 83 58 49 69
REMARK Flexibility Score: inf
ROOT
ATOM      1  C   UNL A   1      33.317  30.129  27.152  1.00  0.00     0.042 C 
ENDROOT
BRANCH   1   2
ATOM      2  C   UNL A   1      33.655  28.822  26.417  1.00  0.00     0.118 C 
BRANCH   2   3
ATOM      3  N   UNL A   1      32.737  28.526  25.329  1.00  0.00    -0.352 N 
ATOM      4  C   UNL A   1      32.365  27.337  24.748  1.00  0.00     0.254 C 
ATOM      5  O   UNL A   1      31.449  27.365  23.928  1.00  0.00    -0.269 OA
ATOM      6  H   UNL A   1      32.305  29.320  24.937  1.00  0.00     0.163 HD
BRANCH   4   7
ATOM      7  C   UNL A   1      33.007  26.075  25.100  1.00  0.00     0.081 A 
ATOM      8  O   UNL A   1      29.484  23.543  27.153  1.00  0.00    -0.275 OA
ATOM      9  C   UNL A   1      30.669  23.720  26.880  1.00  0.00     0.225 C 
ATOM     10  C   UNL A   1      31.755  22.820  27.457  1.00  0.00     0.115 C 
ATOM     11  N   UNL A   1      31.086  24.813  26.159  1.00  0.00    -0.324 N 
ATOM     12  C   UNL A   1      32.991  22.642  26.555  1.00  0.00     0.078 C 
ATOM     13  C   UNL A   1      32.388  24.967  25.739  1.00  0.00     0.076 A 
ATOM     14  H   UNL A   1      30.430  25.511  25.935  1.00  0.00     0.170 HD
ATOM     15  C   UNL A   1      33.300  23.943  25.883  1.00  0.00     0.055 A 
ATOM     16  N   UNL A   1      34.494  24.374  25.354  1.00  0.00    -0.317 N 
ATOM     17  C   UNL A   1      34.305  25.655  24.879  1.00  0.00     0.107 A 
BRANCH  12  18
ATOM     18  C   UNL A   1      32.806  21.498  25.574  1.00  0.00    -0.035 A 
ATOM     19  C   UNL A   1      32.245  21.692  24.301  1.00  0.00     0.005 A 
ATOM     20  C   UNL A   1      33.278  20.219  25.914  1.00  0.00     0.050 A 
ATOM     21  C   UNL A   1      32.206  20.648  23.375  1.00  0.00     0.004 A 
ATOM     22  C   UNL A   1      33.264  19.198  24.972  1.00  0.00     0.115 A 
ATOM     23  C   UNL A   1      32.731  19.400  23.703  1.00  0.00     0.046 A 
BRANCH  22  24
ATOM     24  O   UNL A   1      33.841  18.012  25.318  1.00  0.00    -0.508 OA
ATOM     25  H   UNL A   1      34.774  17.923  25.306  1.00  0.00     0.293 HD
ENDBRANCH  22  24
ENDBRANCH  12  18
BRANCH  16  26
ATOM     26  C   UNL A   1      35.723  23.701  25.181  1.00  0.00     0.046 A 
ATOM     27  C   UNL A   1      35.752  22.537  24.401  1.00  0.00     0.026 A 
ATOM     28  C   UNL A   1      36.832  24.066  25.943  1.00  0.00     0.039 A 
ATOM     29  C   UNL A   1      36.916  21.774  24.341  1.00  0.00     0.003 A 
ATOM     30  C   UNL A   1      38.004  23.296  25.897  1.00  0.00     0.058 A 
ATOM     31  C   UNL A   1      38.037  22.154  25.078  1.00  0.00     0.013 A 
BRANCH  30  32
ATOM     32  C   UNL A   1      39.206  23.656  26.736  1.00  0.00     0.416 C 
ATOM     33  F   UNL A   1      40.028  22.587  26.944  1.00  0.00    -0.166 F 
ATOM     34  F   UNL A   1      39.984  24.606  26.150  1.00  0.00    -0.166 F 
ATOM     35  F   UNL A   1      38.904  24.128  27.976  1.00  0.00    -0.166 F 
ENDBRANCH  30  32
ENDBRANCH  16  26
ENDBRANCH   4   7
ENDBRANCH   2   3
ENDBRANCH   1   2
BRANCH   1  36
ATOM     36  C   UNL A   1      34.530  31.031  27.274  1.00  0.00     0.118 C 
BRANCH  36  37
ATOM     37  N   UNL A   1      34.431  31.967  28.414  1.00  0.00    -0.352 N 
ATOM     38  C   UNL A   1      35.053  31.928  29.663  1.00  0.00     0.251 C 
ATOM     39  H   UNL A   1      33.836  32.738  28.269  1.00  0.00     0.163 HD
ATOM     40  O   UNL A   1      34.628  32.584  30.594  1.00  0.00    -0.269 OA
BRANCH  38  41
ATOM     41  C   UNL A   1      36.243  31.070  29.813  1.00  0.00     0.039 A 
ATOM     42  C   UNL A   1      36.291  29.702  29.534  1.00  0.00     0.014 A 
ATOM     43  C   UNL A   1      37.391  31.741  30.168  1.00  0.00     0.014 A 
ATOM     44  C   UNL A   1      37.537  29.071  29.595  1.00  0.00     0.010 A 
ATOM     45  C   UNL A   1      38.562  31.249  29.705  1.00  0.00     0.010 A 
ATOM     46  C   UNL A   1      38.674  29.880  29.703  1.00  0.00    -0.014 A 
BRANCH  46  47
ATOM     47  C   UNL A   1      40.041  29.413  29.828  1.00  0.00     0.031 A 
ATOM     48  C   UNL A   1      40.459  29.109  31.210  1.00  0.00     0.074 A 
ATOM     49  C   UNL A   1      40.734  28.972  28.748  1.00  0.00     0.049 A 
ATOM     50  N   UNL A   1      41.266  29.785  31.953  1.00  0.00    -0.248 NA
ATOM     51  C   UNL A   1      39.760  28.021  31.914  1.00  0.00     0.031 C 
ATOM     52  C   UNL A   1      40.312  28.854  27.340  1.00  0.00     0.029 A 
ATOM     53  N   UNL A   1      41.971  28.416  28.720  1.00  0.00    -0.354 N 
ATOM     54  C   UNL A   1      41.373  29.061  33.133  1.00  0.00     0.074 A 
ATOM     55  C   UNL A   1      40.262  28.145  33.144  1.00  0.00     0.031 C 
ATOM     56  C   UNL A   1      41.176  28.063  26.665  1.00  0.00     0.029 A 
ATOM     57  C   UNL A   1      42.296  27.769  27.532  1.00  0.00     0.049 A 
ATOM     58  H   UNL A   1      42.591  28.466  29.483  1.00  0.00     0.167 HD
ATOM     59  C   UNL A   1      42.512  29.086  33.880  1.00  0.00     0.037 A 
ATOM     60  C   UNL A   1      43.401  27.008  27.323  1.00  0.00     0.037 A 
ATOM     61  C   UNL A   1      43.405  30.134  33.441  1.00  0.00     0.049 A 
ATOM     62  C   UNL A   1      44.392  27.423  28.361  1.00  0.00     0.074 A 
ATOM     63  C   UNL A   1      43.289  31.506  33.314  1.00  0.00     0.029 A 
ATOM     64  N   UNL A   1      44.464  29.780  32.635  1.00  0.00    -0.354 N 
ATOM     65  N   UNL A   1      44.904  28.628  28.423  1.00  0.00    -0.248 NA
ATOM     66  C   UNL A   1      44.399  26.683  29.615  1.00  0.00     0.031 C 
ATOM     67  C   UNL A   1      43.918  31.812  32.068  1.00  0.00     0.029 A 
ATOM     68  C   UNL A   1      44.453  30.629  31.554  1.00  0.00     0.049 A 
ATOM     69  H   UNL A   1      45.108  29.054  32.803  1.00  0.00     0.167 HD
ATOM     70  C   UNL A   1      44.922  28.948  29.776  1.00  0.00     0.074 A 
ATOM     71  C   UNL A   1      44.648  27.685  30.464  1.00  0.00     0.031 C 
ATOM     72  C   UNL A   1      44.853  30.245  30.214  1.00  0.00     0.037 A 
BRANCH  59  73
ATOM     73  C   UNL A   1      42.973  27.953  34.759  1.00  0.00     0.058 A 
ATOM     74  C   UNL A   1      43.214  28.196  36.124  1.00  0.00     0.135 A 
ATOM     75  C   UNL A   1      43.428  26.710  34.267  1.00  0.00     0.135 A 
ATOM     76  F   UNL A   1      42.832  29.351  36.691  1.00  0.00    -0.206 F 
ATOM     77  C   UNL A   1      43.912  27.294  36.928  1.00  0.00     0.059 A 
ATOM     78  C   UNL A   1      44.072  25.771  35.064  1.00  0.00     0.059 A 
ATOM     79  F   UNL A   1      43.362  26.385  32.970  1.00  0.00    -0.206 F 
ATOM     80  C   UNL A   1      44.351  26.091  36.382  1.00  0.00     0.060 A 
BRANCH  80  81
ATOM     81  S   UNL A   1      45.353  24.979  37.382  1.00  0.00     0.124 S 
ATOM     82  O   UNL A   1      44.865  25.280  38.724  1.00  0.00    -0.237 OA
ATOM     83  O   UNL A   1      44.986  23.674  36.844  1.00  0.00    -0.237 OA
ATOM     84  O   UNL A   1      46.719  25.408  37.095  1.00  0.00    -0.744 OA
ENDBRANCH  80  81
ENDBRANCH  59  73
BRANCH  60  85
ATOM     85  C   UNL A   1      43.443  25.702  26.604  1.00  0.00     0.058 A 
ATOM     86  C   UNL A   1      44.237  25.509  25.461  1.00  0.00     0.135 A 
ATOM     87  C   UNL A   1      42.897  24.533  27.177  1.00  0.00     0.135 A 
ATOM     88  F   UNL A   1      44.818  26.560  24.860  1.00  0.00    -0.206 F 
ATOM     89  C   UNL A   1      44.504  24.234  24.939  1.00  0.00     0.059 A 
ATOM     90  C   UNL A   1      43.140  23.256  26.673  1.00  0.00     0.059 A 
ATOM     91  F   UNL A   1      42.176  24.587  28.308  1.00  0.00    -0.206 F 
ATOM     92  C   UNL A   1      43.964  23.110  25.566  1.00  0.00     0.060 A 
BRANCH  92  93
ATOM     93  S   UNL A   1      44.437  21.455  25.004  1.00  0.00     0.124 S 
ATOM     94  O   UNL A   1      43.321  20.645  25.476  1.00  0.00    -0.237 OA
ATOM     95  O   UNL A   1      44.527  21.636  23.558  1.00  0.00    -0.237 OA
ATOM     96  O   UNL A   1      45.710  21.219  25.678  1.00  0.00    -0.744 OA
ENDBRANCH  92  93
ENDBRANCH  60  85
BRANCH  72  97
ATOM     97  C   UNL A   1      44.961  31.362  29.197  1.00  0.00     0.058 A 
ATOM     98  C   UNL A   1      46.171  31.787  28.613  1.00  0.00     0.135 A 
ATOM     99  C   UNL A   1      43.784  31.894  28.653  1.00  0.00     0.135 A 
ATOM    100  F   UNL A   1      47.338  31.255  28.988  1.00  0.00    -0.206 F 
ATOM    101  C   UNL A   1      46.212  32.719  27.573  1.00  0.00     0.059 A 
ATOM    102  C   UNL A   1      43.798  32.805  27.596  1.00  0.00     0.059 A 
ATOM    103  F   UNL A   1      42.590  31.484  29.110  1.00  0.00    -0.206 F 
ATOM    104  C   UNL A   1      45.017  33.223  27.068  1.00  0.00     0.060 A 
BRANCH 104 105
ATOM    105  S   UNL A   1      45.068  34.372  25.674  1.00  0.00     0.124 S 
ATOM    106  O   UNL A   1      44.169  35.433  26.119  1.00  0.00    -0.237 OA
ATOM    107  O   UNL A   1      46.483  34.728  25.607  1.00  0.00    -0.237 OA
ATOM    108  O   UNL A   1      44.582  33.572  24.553  1.00  0.00    -0.744 OA
ENDBRANCH 104 105
ENDBRANCH  72  97
ENDBRANCH  46  47
ENDBRANCH  38  41
ENDBRANCH  36  37
ENDBRANCH   1  36
TORSDOF 17
ENDMDL
