MODEL 1
REMARK VINA RESULT:     -10.3      0.000      0.000
REMARK SMILES O=C(NCCCNC(=O)c1ccc(-c2c3nc(c(-c4c(F)cc(S(=O)(=O)[O-])cc4F)c4ccc([nH]4)c(-c4c(F)cc(S(=O)(=O)[O-])cc4F)c4nc(c(-c5c(F)cc(S(=O)(=O)[O-])cc5F)c5ccc2[nH]5)C=C4)C=C3)cc1)C1=C[C@H]2C(=N1)C=CC(Cl)=C2Cl
REMARK SMILES IDX 7 1 8 2 9 3 6 5 5 6 4 7 3 8 1 9 2 10 76 12 77 13 80 14 78 15
REMARK SMILES IDX 79 16 85 17 81 18 83 19 86 20 82 21 84 22 10 23 11 24 75 25
REMARK SMILES IDX 12 26 74 27 13 28 14 29 15 30 68 31 16 32 73 33 67 34 69 35
REMARK SMILES IDX 17 36 72 37 66 38 65 39 18 41 52 42 31 43 51 44 32 45 35 46
REMARK SMILES IDX 50 47 70 48 33 49 34 50 49 52 71 53 36 54 19 55 20 56 29 57
REMARK SMILES IDX 21 58 22 59 28 60 30 61 23 62 24 63 25 64 26 65 27 66 53 67
REMARK SMILES IDX 54 68 63 69 55 70 56 71 62 72 64 73 57 74 58 75 59 76 60 77
REMARK SMILES IDX 61 78 37 79 38 80 47 81 39 82 40 83 46 84 48 85 41 86 42 87
REMARK SMILES IDX 43 88 44 89 45 90
REMARK H PARENT 7 4 3 11 69 40 35 51
REMARK Flexibility Score: inf
ROOT
ATOM      1  N   UNL A   1      33.896  31.635  27.969  1.00  0.00    -0.352 N 
ATOM      2  C   UNL A   1      34.393  30.355  27.917  1.00  0.00     0.251 C 
ATOM      3  O   UNL A   1      33.627  29.455  27.572  1.00  0.00    -0.269 OA
ATOM      4  H   UNL A   1      32.925  31.693  27.818  1.00  0.00     0.163 HD
ENDROOT
BRANCH   1   5
ATOM      5  C   UNL A   1      34.534  32.920  28.207  1.00  0.00     0.118 C 
BRANCH   5   6
ATOM      6  C   UNL A   1      33.544  34.069  28.415  1.00  0.00     0.042 C 
BRANCH   6   7
ATOM      7  C   UNL A   1      33.858  35.033  29.560  1.00  0.00     0.118 C 
BRANCH   7   8
ATOM      8  N   UNL A   1      33.382  34.570  30.849  1.00  0.00    -0.351 N 
ATOM      9  O   UNL A   1      33.451  33.810  32.952  1.00  0.00    -0.268 OA
ATOM     10  C   UNL A   1      34.070  34.140  31.940  1.00  0.00     0.269 C 
ATOM     11  H   UNL A   1      32.402  34.568  30.951  1.00  0.00     0.163 HD
BRANCH  10  12
ATOM     12  C   UNL A   1      35.547  33.984  31.890  1.00  0.00     0.125 C 
ATOM     13  C   UNL A   1      36.036  32.815  31.461  1.00  0.00     0.023 C 
ATOM     14  N   UNL A   1      36.472  34.796  32.523  1.00  0.00    -0.247 NA
ATOM     15  C   UNL A   1      37.482  32.776  31.751  1.00  0.00     0.106 C 
ATOM     16  C   UNL A   1      37.555  34.077  32.527  1.00  0.00     0.054 C 
ATOM     17  C   UNL A   1      38.067  31.717  32.624  1.00  0.00     0.050 C 
ATOM     18  C   UNL A   1      38.832  34.384  33.222  1.00  0.00     0.026 C 
ATOM     19  C   UNL A   1      39.269  31.965  33.170  1.00  0.00     0.056 C 
ATOM     20  Cl  UNL A   1      37.116  30.358  33.093  1.00  0.00    -0.086 Cl
ATOM     21  C   UNL A   1      39.659  33.342  33.449  1.00  0.00     0.023 C 
ATOM     22  Cl  UNL A   1      40.398  30.706  33.508  1.00  0.00    -0.083 Cl
ENDBRANCH  10  12
ENDBRANCH   7   8
ENDBRANCH   6   7
ENDBRANCH   5   6
ENDBRANCH   1   5
BRANCH   2  23
ATOM     23  C   UNL A   1      35.806  30.021  28.235  1.00  0.00     0.039 A 
ATOM     24  C   UNL A   1      36.744  30.080  27.196  1.00  0.00     0.014 A 
ATOM     25  C   UNL A   1      36.217  29.570  29.491  1.00  0.00     0.014 A 
ATOM     26  C   UNL A   1      38.082  29.737  27.424  1.00  0.00     0.010 A 
ATOM     27  C   UNL A   1      37.571  29.300  29.738  1.00  0.00     0.010 A 
ATOM     28  C   UNL A   1      38.518  29.367  28.705  1.00  0.00    -0.014 A 
BRANCH  28  29
ATOM     29  C   UNL A   1      39.952  29.037  28.956  1.00  0.00     0.031 A 
ATOM     30  C   UNL A   1      40.887  30.060  29.554  1.00  0.00     0.074 A 
ATOM     31  C   UNL A   1      40.428  27.820  28.624  1.00  0.00     0.049 A 
ATOM     32  N   UNL A   1      42.161  29.949  29.841  1.00  0.00    -0.248 NA
ATOM     33  C   UNL A   1      40.324  31.386  29.847  1.00  0.00     0.031 C 
ATOM     34  C   UNL A   1      39.649  26.752  27.994  1.00  0.00     0.029 A 
ATOM     35  N   UNL A   1      41.681  27.273  28.769  1.00  0.00    -0.354 N 
ATOM     36  C   UNL A   1      42.553  31.189  30.335  1.00  0.00     0.074 A 
ATOM     37  C   UNL A   1      41.394  32.053  30.256  1.00  0.00     0.031 C 
ATOM     38  C   UNL A   1      40.431  25.673  27.832  1.00  0.00     0.029 A 
ATOM     39  C   UNL A   1      41.775  25.978  28.315  1.00  0.00     0.049 A 
ATOM     40  H   UNL A   1      42.439  27.763  29.161  1.00  0.00     0.167 HD
ATOM     41  C   UNL A   1      43.757  31.570  30.831  1.00  0.00     0.037 A 
ATOM     42  C   UNL A   1      42.821  25.128  28.290  1.00  0.00     0.037 A 
ATOM     43  C   UNL A   1      44.905  30.705  30.927  1.00  0.00     0.049 A 
ATOM     44  C   UNL A   1      44.143  25.567  28.859  1.00  0.00     0.074 A 
ATOM     45  C   UNL A   1      46.151  30.983  31.463  1.00  0.00     0.029 A 
ATOM     46  N   UNL A   1      44.953  29.394  30.476  1.00  0.00    -0.354 N 
ATOM     47  N   UNL A   1      44.475  26.724  29.380  1.00  0.00    -0.248 NA
ATOM     48  C   UNL A   1      45.229  24.577  28.853  1.00  0.00     0.031 C 
ATOM     49  C   UNL A   1      46.966  29.858  31.294  1.00  0.00     0.029 A 
ATOM     50  C   UNL A   1      46.212  28.857  30.705  1.00  0.00     0.049 A 
ATOM     51  H   UNL A   1      44.204  28.914  30.055  1.00  0.00     0.167 HD
ATOM     52  C   UNL A   1      45.798  26.591  29.792  1.00  0.00     0.074 A 
ATOM     53  C   UNL A   1      46.198  25.235  29.473  1.00  0.00     0.031 C 
ATOM     54  C   UNL A   1      46.605  27.507  30.384  1.00  0.00     0.037 A 
BRANCH  41  55
ATOM     55  C   UNL A   1      43.895  32.993  31.309  1.00  0.00     0.058 A 
ATOM     56  C   UNL A   1      44.324  34.022  30.454  1.00  0.00     0.135 A 
ATOM     57  C   UNL A   1      43.565  33.339  32.629  1.00  0.00     0.135 A 
ATOM     58  F   UNL A   1      44.664  33.750  29.184  1.00  0.00    -0.206 F 
ATOM     59  C   UNL A   1      44.459  35.333  30.901  1.00  0.00     0.059 A 
ATOM     60  C   UNL A   1      43.661  34.650  33.090  1.00  0.00     0.059 A 
ATOM     61  F   UNL A   1      43.144  32.399  33.490  1.00  0.00    -0.206 F 
ATOM     62  C   UNL A   1      44.127  35.636  32.223  1.00  0.00     0.060 A 
BRANCH  62  63
ATOM     63  S   UNL A   1      44.313  37.341  32.790  1.00  0.00     0.124 S 
ATOM     64  O   UNL A   1      44.243  38.075  31.530  1.00  0.00    -0.237 OA
ATOM     65  O   UNL A   1      43.167  37.502  33.679  1.00  0.00    -0.237 OA
ATOM     66  O   UNL A   1      45.616  37.341  33.444  1.00  0.00    -0.744 OA
ENDBRANCH  62  63
ENDBRANCH  41  55
BRANCH  42  67
ATOM     67  C   UNL A   1      42.650  23.758  27.732  1.00  0.00     0.058 A 
ATOM     68  C   UNL A   1      42.731  23.522  26.351  1.00  0.00     0.135 A 
ATOM     69  C   UNL A   1      42.416  22.657  28.570  1.00  0.00     0.135 A 
ATOM     70  F   UNL A   1      42.946  24.544  25.508  1.00  0.00    -0.206 F 
ATOM     71  C   UNL A   1      42.570  22.248  25.818  1.00  0.00     0.059 A 
ATOM     72  C   UNL A   1      42.280  21.368  28.063  1.00  0.00     0.059 A 
ATOM     73  F   UNL A   1      42.346  22.825  29.899  1.00  0.00    -0.206 F 
ATOM     74  C   UNL A   1      42.349  21.175  26.683  1.00  0.00     0.060 A 
BRANCH  74  75
ATOM     75  S   UNL A   1      42.200  19.512  25.992  1.00  0.00     0.124 S 
ATOM     76  O   UNL A   1      43.084  19.600  24.829  1.00  0.00    -0.237 OA
ATOM     77  O   UNL A   1      42.690  18.682  27.096  1.00  0.00    -0.237 OA
ATOM     78  O   UNL A   1      40.786  19.390  25.704  1.00  0.00    -0.744 OA
ENDBRANCH  74  75
ENDBRANCH  42  67
BRANCH  54  79
ATOM     79  C   UNL A   1      47.993  27.059  30.765  1.00  0.00     0.058 A 
ATOM     80  C   UNL A   1      49.077  27.154  29.877  1.00  0.00     0.135 A 
ATOM     81  C   UNL A   1      48.239  26.528  32.042  1.00  0.00     0.135 A 
ATOM     82  F   UNL A   1      48.898  27.653  28.643  1.00  0.00    -0.206 F 
ATOM     83  C   UNL A   1      50.343  26.692  30.224  1.00  0.00     0.059 A 
ATOM     84  C   UNL A   1      49.506  26.091  32.421  1.00  0.00     0.059 A 
ATOM     85  F   UNL A   1      47.245  26.427  32.937  1.00  0.00    -0.206 F 
ATOM     86  C   UNL A   1      50.546  26.156  31.496  1.00  0.00     0.060 A 
BRANCH  86  87
ATOM     87  S   UNL A   1      52.188  25.544  31.929  1.00  0.00     0.124 S 
ATOM     88  O   UNL A   1      52.956  25.897  30.739  1.00  0.00    -0.237 OA
ATOM     89  O   UNL A   1      52.500  26.308  33.134  1.00  0.00    -0.237 OA
ATOM     90  O   UNL A   1      51.975  24.115  32.137  1.00  0.00    -0.744 OA
ENDBRANCH  86  87
ENDBRANCH  54  79
ENDBRANCH  28  29
ENDBRANCH   2  23
TORSDOF 13
ENDMDL
MODEL 2
REMARK VINA RESULT:     -10.3      4.971     12.309
REMARK SMILES O=C(NCCCNC(=O)c1ccc(-c2c3nc(c(-c4c(F)cc(S(=O)(=O)[O-])cc4F)c4ccc([nH]4)c(-c4c(F)cc(S(=O)(=O)[O-])cc4F)c4nc(c(-c5c(F)cc(S(=O)(=O)[O-])cc5F)c5ccc2[nH]5)C=C4)C=C3)cc1)C1=C[C@H]2C(=N1)C=CC(Cl)=C2Cl
REMARK SMILES IDX 7 1 8 2 9 3 6 5 5 6 4 7 3 8 1 9 2 10 76 12 77 13 80 14 78 15
REMARK SMILES IDX 79 16 85 17 81 18 83 19 86 20 82 21 84 22 10 23 11 24 75 25
REMARK SMILES IDX 12 26 74 27 13 28 14 29 15 30 68 31 16 32 73 33 67 34 69 35
REMARK SMILES IDX 17 36 72 37 66 38 65 39 18 41 52 42 31 43 51 44 32 45 35 46
REMARK SMILES IDX 50 47 70 48 33 49 34 50 49 52 71 53 36 54 19 55 20 56 29 57
REMARK SMILES IDX 21 58 22 59 28 60 30 61 23 62 24 63 25 64 26 65 27 66 53 67
REMARK SMILES IDX 54 68 63 69 55 70 56 71 62 72 64 73 57 74 58 75 59 76 60 77
REMARK SMILES IDX 61 78 37 79 38 80 47 81 39 82 40 83 46 84 48 85 41 86 42 87
REMARK SMILES IDX 43 88 44 89 45 90
REMARK H PARENT 7 4 3 11 69 40 35 51
REMARK Flexibility Score: inf
ROOT
ATOM      1  N   UNL A   1      41.410  23.685  26.664  1.00  0.00    -0.352 N 
ATOM      2  C   UNL A   1      41.012  24.989  26.493  1.00  0.00     0.251 C 
ATOM      3  O   UNL A   1      40.809  25.382  25.344  1.00  0.00    -0.269 OA
ATOM      4  H   UNL A   1      41.594  23.209  25.822  1.00  0.00     0.163 HD
ENDROOT
BRANCH   1   5
ATOM      5  C   UNL A   1      41.610  22.875  27.855  1.00  0.00     0.118 C 
BRANCH   5   6
ATOM      6  C   UNL A   1      41.495  21.369  27.601  1.00  0.00     0.042 C 
BRANCH   6   7
ATOM      7  C   UNL A   1      41.313  20.942  26.144  1.00  0.00     0.118 C 
BRANCH   7   8
ATOM      8  N   UNL A   1      42.271  19.941  25.714  1.00  0.00    -0.351 N 
ATOM      9  O   UNL A   1      44.216  19.063  25.045  1.00  0.00    -0.268 OA
ATOM     10  C   UNL A   1      43.577  20.067  25.359  1.00  0.00     0.269 C 
ATOM     11  H   UNL A   1      41.917  19.023  25.674  1.00  0.00     0.163 HD
BRANCH  10  12
ATOM     12  C   UNL A   1      44.210  21.409  25.265  1.00  0.00     0.125 C 
ATOM     13  C   UNL A   1      45.162  21.711  26.154  1.00  0.00     0.023 C 
ATOM     14  N   UNL A   1      43.718  22.491  24.559  1.00  0.00    -0.247 NA
ATOM     15  C   UNL A   1      45.449  23.156  26.061  1.00  0.00     0.106 C 
ATOM     16  C   UNL A   1      44.355  23.503  25.070  1.00  0.00     0.054 C 
ATOM     17  C   UNL A   1      45.272  24.056  27.237  1.00  0.00     0.050 C 
ATOM     18  C   UNL A   1      44.111  24.945  24.804  1.00  0.00     0.026 C 
ATOM     19  C   UNL A   1      45.150  25.372  26.991  1.00  0.00     0.056 C 
ATOM     20  Cl  UNL A   1      44.990  23.393  28.803  1.00  0.00    -0.086 Cl
ATOM     21  C   UNL A   1      44.574  25.813  25.726  1.00  0.00     0.023 C 
ATOM     22  Cl  UNL A   1      45.701  26.566  28.105  1.00  0.00    -0.083 Cl
ENDBRANCH  10  12
ENDBRANCH   7   8
ENDBRANCH   6   7
ENDBRANCH   5   6
ENDBRANCH   1   5
BRANCH   2  23
ATOM     23  C   UNL A   1      40.800  25.927  27.626  1.00  0.00     0.039 A 
ATOM     24  C   UNL A   1      41.782  26.897  27.868  1.00  0.00     0.014 A 
ATOM     25  C   UNL A   1      39.718  25.829  28.503  1.00  0.00     0.014 A 
ATOM     26  C   UNL A   1      41.658  27.782  28.945  1.00  0.00     0.010 A 
ATOM     27  C   UNL A   1      39.556  26.763  29.536  1.00  0.00     0.010 A 
ATOM     28  C   UNL A   1      40.531  27.743  29.779  1.00  0.00    -0.014 A 
BRANCH  28  29
ATOM     29  C   UNL A   1      40.381  28.711  30.904  1.00  0.00     0.031 A 
ATOM     30  C   UNL A   1      41.240  28.600  32.140  1.00  0.00     0.074 A 
ATOM     31  C   UNL A   1      39.449  29.684  30.832  1.00  0.00     0.049 A 
ATOM     32  N   UNL A   1      41.247  29.351  33.214  1.00  0.00    -0.248 NA
ATOM     33  C   UNL A   1      42.201  27.488  32.185  1.00  0.00     0.031 C 
ATOM     34  C   UNL A   1      38.517  29.879  29.719  1.00  0.00     0.029 A 
ATOM     35  N   UNL A   1      39.131  30.693  31.709  1.00  0.00    -0.354 N 
ATOM     36  C   UNL A   1      42.200  28.799  34.064  1.00  0.00     0.074 A 
ATOM     37  C   UNL A   1      42.709  27.615  33.403  1.00  0.00     0.031 C 
ATOM     38  C   UNL A   1      37.753  30.955  29.968  1.00  0.00     0.029 A 
ATOM     39  C   UNL A   1      38.115  31.509  31.270  1.00  0.00     0.049 A 
ATOM     40  H   UNL A   1      39.588  30.820  32.572  1.00  0.00     0.167 HD
ATOM     41  C   UNL A   1      42.629  29.243  35.271  1.00  0.00     0.037 A 
ATOM     42  C   UNL A   1      37.538  32.584  31.844  1.00  0.00     0.037 A 
ATOM     43  C   UNL A   1      42.136  30.431  35.921  1.00  0.00     0.049 A 
ATOM     44  C   UNL A   1      38.041  33.069  33.176  1.00  0.00     0.074 A 
ATOM     45  C   UNL A   1      42.546  30.992  37.119  1.00  0.00     0.029 A 
ATOM     46  N   UNL A   1      41.121  31.241  35.432  1.00  0.00    -0.354 N 
ATOM     47  N   UNL A   1      38.987  32.567  33.934  1.00  0.00    -0.248 NA
ATOM     48  C   UNL A   1      37.409  34.277  33.724  1.00  0.00     0.031 C 
ATOM     49  C   UNL A   1      41.749  32.112  37.377  1.00  0.00     0.029 A 
ATOM     50  C   UNL A   1      40.880  32.286  36.313  1.00  0.00     0.049 A 
ATOM     51  H   UNL A   1      40.642  31.097  34.585  1.00  0.00     0.167 HD
ATOM     52  C   UNL A   1      39.085  33.417  35.032  1.00  0.00     0.074 A 
ATOM     53  C   UNL A   1      38.112  34.471  34.830  1.00  0.00     0.031 C 
ATOM     54  C   UNL A   1      39.909  33.332  36.108  1.00  0.00     0.037 A 
BRANCH  41  55
ATOM     55  C   UNL A   1      43.691  28.436  35.973  1.00  0.00     0.058 A 
ATOM     56  C   UNL A   1      45.058  28.729  35.830  1.00  0.00     0.135 A 
ATOM     57  C   UNL A   1      43.339  27.376  36.823  1.00  0.00     0.135 A 
ATOM     58  F   UNL A   1      45.457  29.724  35.022  1.00  0.00    -0.206 F 
ATOM     59  C   UNL A   1      46.037  27.977  36.473  1.00  0.00     0.059 A 
ATOM     60  C   UNL A   1      44.299  26.629  37.502  1.00  0.00     0.059 A 
ATOM     61  F   UNL A   1      42.049  27.053  37.003  1.00  0.00    -0.206 F 
ATOM     62  C   UNL A   1      45.646  26.926  37.306  1.00  0.00     0.060 A 
BRANCH  62  63
ATOM     63  S   UNL A   1      46.928  25.956  38.128  1.00  0.00     0.124 S 
ATOM     64  O   UNL A   1      46.149  24.849  38.675  1.00  0.00    -0.237 OA
ATOM     65  O   UNL A   1      47.819  25.616  37.024  1.00  0.00    -0.237 OA
ATOM     66  O   UNL A   1      47.478  26.882  39.112  1.00  0.00    -0.744 OA
ENDBRANCH  62  63
ENDBRANCH  41  55
BRANCH  42  67
ATOM     67  C   UNL A   1      36.436  33.297  31.142  1.00  0.00     0.058 A 
ATOM     68  C   UNL A   1      35.115  33.234  31.612  1.00  0.00     0.135 A 
ATOM     69  C   UNL A   1      36.684  34.067  29.994  1.00  0.00     0.135 A 
ATOM     70  F   UNL A   1      34.827  32.505  32.700  1.00  0.00    -0.206 F 
ATOM     71  C   UNL A   1      34.077  33.894  30.963  1.00  0.00     0.059 A 
ATOM     72  C   UNL A   1      35.667  34.760  29.344  1.00  0.00     0.059 A 
ATOM     73  F   UNL A   1      37.931  34.174  29.512  1.00  0.00    -0.206 F 
ATOM     74  C   UNL A   1      34.363  34.658  29.831  1.00  0.00     0.060 A 
BRANCH  74  75
ATOM     75  S   UNL A   1      33.023  35.562  29.025  1.00  0.00     0.124 S 
ATOM     76  O   UNL A   1      32.434  34.520  28.182  1.00  0.00    -0.237 OA
ATOM     77  O   UNL A   1      32.210  35.982  30.170  1.00  0.00    -0.237 OA
ATOM     78  O   UNL A   1      33.706  36.630  28.326  1.00  0.00    -0.744 OA
ENDBRANCH  74  75
ENDBRANCH  42  67
BRANCH  54  79
ATOM     79  C   UNL A   1      39.823  34.436  37.130  1.00  0.00     0.058 A 
ATOM     80  C   UNL A   1      39.020  34.328  38.278  1.00  0.00     0.135 A 
ATOM     81  C   UNL A   1      40.559  35.619  36.958  1.00  0.00     0.135 A 
ATOM     82  F   UNL A   1      38.294  33.219  38.492  1.00  0.00    -0.206 F 
ATOM     83  C   UNL A   1      38.911  35.373  39.190  1.00  0.00     0.059 A 
ATOM     84  C   UNL A   1      40.491  36.664  37.876  1.00  0.00     0.059 A 
ATOM     85  F   UNL A   1      41.355  35.773  35.888  1.00  0.00    -0.206 F 
ATOM     86  C   UNL A   1      39.646  36.541  38.977  1.00  0.00     0.060 A 
BRANCH  86  87
ATOM     87  S   UNL A   1      39.484  37.896  40.158  1.00  0.00     0.124 S 
ATOM     88  O   UNL A   1      38.311  38.595  39.643  1.00  0.00    -0.237 OA
ATOM     89  O   UNL A   1      39.297  37.190  41.422  1.00  0.00    -0.237 OA
ATOM     90  O   UNL A   1      40.750  38.612  40.028  1.00  0.00    -0.744 OA
ENDBRANCH  86  87
ENDBRANCH  54  79
ENDBRANCH  28  29
ENDBRANCH   2  23
TORSDOF 13
ENDMDL
MODEL 3
REMARK VINA RESULT:     -10.3      5.351     11.809
REMARK SMILES O=C(NCCCNC(=O)c1ccc(-c2c3nc(c(-c4c(F)cc(S(=O)(=O)[O-])cc4F)c4ccc([nH]4)c(-c4c(F)cc(S(=O)(=O)[O-])cc4F)c4nc(c(-c5c(F)cc(S(=O)(=O)[O-])cc5F)c5ccc2[nH]5)C=C4)C=C3)cc1)C1=C[C@H]2C(=N1)C=CC(Cl)=C2Cl
REMARK SMILES IDX 7 1 8 2 9 3 6 5 5 6 4 7 3 8 1 9 2 10 76 12 77 13 80 14 78 15
REMARK SMILES IDX 79 16 85 17 81 18 83 19 86 20 82 21 84 22 10 23 11 24 75 25
REMARK SMILES IDX 12 26 74 27 13 28 14 29 15 30 68 31 16 32 73 33 67 34 69 35
REMARK SMILES IDX 17 36 72 37 66 38 65 39 18 41 52 42 31 43 51 44 32 45 35 46
REMARK SMILES IDX 50 47 70 48 33 49 34 50 49 52 71 53 36 54 19 55 20 56 29 57
REMARK SMILES IDX 21 58 22 59 28 60 30 61 23 62 24 63 25 64 26 65 27 66 53 67
REMARK SMILES IDX 54 68 63 69 55 70 56 71 62 72 64 73 57 74 58 75 59 76 60 77
REMARK SMILES IDX 61 78 37 79 38 80 47 81 39 82 40 83 46 84 48 85 41 86 42 87
REMARK SMILES IDX 43 88 44 89 45 90
REMARK H PARENT 7 4 3 11 69 40 35 51
REMARK Flexibility Score: inf
ROOT
ATOM      1  N   UNL A   1      41.411  23.963  26.041  1.00  0.00    -0.352 N 
ATOM      2  C   UNL A   1      41.672  25.312  26.046  1.00  0.00     0.251 C 
ATOM      3  O   UNL A   1      42.139  25.811  25.022  1.00  0.00    -0.269 OA
ATOM      4  H   UNL A   1      41.724  23.498  25.232  1.00  0.00     0.163 HD
ENDROOT
BRANCH   1   5
ATOM      5  C   UNL A   1      40.759  23.093  27.007  1.00  0.00     0.118 C 
BRANCH   5   6
ATOM      6  C   UNL A   1      39.473  22.447  26.483  1.00  0.00     0.042 C 
BRANCH   6   7
ATOM      7  C   UNL A   1      38.319  23.399  26.169  1.00  0.00     0.118 C 
BRANCH   7   8
ATOM      8  N   UNL A   1      37.786  23.235  24.830  1.00  0.00    -0.351 N 
ATOM      9  O   UNL A   1      36.308  23.271  23.150  1.00  0.00    -0.268 OA
ATOM     10  C   UNL A   1      36.535  23.459  24.346  1.00  0.00     0.269 C 
ATOM     11  H   UNL A   1      38.435  22.910  24.164  1.00  0.00     0.163 HD
BRANCH  10  12
ATOM     12  C   UNL A   1      35.427  23.843  25.260  1.00  0.00     0.125 C 
ATOM     13  C   UNL A   1      34.860  22.877  25.990  1.00  0.00     0.023 C 
ATOM     14  N   UNL A   1      34.713  25.027  25.218  1.00  0.00    -0.247 NA
ATOM     15  C   UNL A   1      33.627  23.413  26.601  1.00  0.00     0.106 C 
ATOM     16  C   UNL A   1      33.642  24.761  25.906  1.00  0.00     0.054 C 
ATOM     17  C   UNL A   1      32.297  22.797  26.325  1.00  0.00     0.050 C 
ATOM     18  C   UNL A   1      32.440  25.620  26.062  1.00  0.00     0.026 C 
ATOM     19  C   UNL A   1      31.210  23.550  26.563  1.00  0.00     0.056 C 
ATOM     20  Cl  UNL A   1      32.195  21.283  25.507  1.00  0.00    -0.086 Cl
ATOM     21  C   UNL A   1      31.305  25.001  26.447  1.00  0.00     0.023 C 
ATOM     22  Cl  UNL A   1      29.708  22.860  27.053  1.00  0.00    -0.083 Cl
ENDBRANCH  10  12
ENDBRANCH   7   8
ENDBRANCH   6   7
ENDBRANCH   5   6
ENDBRANCH   1   5
BRANCH   2  23
ATOM     23  C   UNL A   1      41.398  26.186  27.216  1.00  0.00     0.039 A 
ATOM     24  C   UNL A   1      42.262  27.266  27.446  1.00  0.00     0.014 A 
ATOM     25  C   UNL A   1      40.378  25.930  28.135  1.00  0.00     0.014 A 
ATOM     26  C   UNL A   1      42.079  28.100  28.554  1.00  0.00     0.010 A 
ATOM     27  C   UNL A   1      40.149  26.810  29.203  1.00  0.00     0.010 A 
ATOM     28  C   UNL A   1      41.004  27.898  29.434  1.00  0.00    -0.014 A 
BRANCH  28  29
ATOM     29  C   UNL A   1      40.787  28.811  30.595  1.00  0.00     0.031 A 
ATOM     30  C   UNL A   1      41.624  28.686  31.844  1.00  0.00     0.074 A 
ATOM     31  C   UNL A   1      39.815  29.744  30.541  1.00  0.00     0.049 A 
ATOM     32  N   UNL A   1      41.575  29.391  32.948  1.00  0.00    -0.248 NA
ATOM     33  C   UNL A   1      42.633  27.616  31.866  1.00  0.00     0.031 C 
ATOM     34  C   UNL A   1      38.899  29.945  29.416  1.00  0.00     0.029 A 
ATOM     35  N   UNL A   1      39.434  30.700  31.451  1.00  0.00    -0.354 N 
ATOM     36  C   UNL A   1      42.533  28.845  33.796  1.00  0.00     0.074 A 
ATOM     37  C   UNL A   1      43.109  27.714  33.099  1.00  0.00     0.031 C 
ATOM     38  C   UNL A   1      38.082  30.974  29.691  1.00  0.00     0.029 A 
ATOM     39  C   UNL A   1      38.391  31.489  31.022  1.00  0.00     0.049 A 
ATOM     40  H   UNL A   1      39.866  30.811  32.328  1.00  0.00     0.167 HD
ATOM     41  C   UNL A   1      42.917  29.257  35.030  1.00  0.00     0.037 A 
ATOM     42  C   UNL A   1      37.755  32.512  31.627  1.00  0.00     0.037 A 
ATOM     43  C   UNL A   1      42.357  30.394  35.716  1.00  0.00     0.049 A 
ATOM     44  C   UNL A   1      38.207  32.962  32.989  1.00  0.00     0.074 A 
ATOM     45  C   UNL A   1      42.717  30.921  36.945  1.00  0.00     0.029 A 
ATOM     46  N   UNL A   1      41.318  31.179  35.238  1.00  0.00    -0.354 N 
ATOM     47  N   UNL A   1      39.158  32.472  33.747  1.00  0.00    -0.248 NA
ATOM     48  C   UNL A   1      37.510  34.117  33.571  1.00  0.00     0.031 C 
ATOM     49  C   UNL A   1      41.865  31.994  37.232  1.00  0.00     0.029 A 
ATOM     50  C   UNL A   1      41.011  32.174  36.155  1.00  0.00     0.049 A 
ATOM     51  H   UNL A   1      40.863  31.049  34.375  1.00  0.00     0.167 HD
ATOM     52  C   UNL A   1      39.195  33.278  34.881  1.00  0.00     0.074 A 
ATOM     53  C   UNL A   1      38.180  34.295  34.701  1.00  0.00     0.031 C 
ATOM     54  C   UNL A   1      39.999  33.184  35.971  1.00  0.00     0.037 A 
BRANCH  41  55
ATOM     55  C   UNL A   1      43.999  28.469  35.722  1.00  0.00     0.058 A 
ATOM     56  C   UNL A   1      45.362  28.753  35.528  1.00  0.00     0.135 A 
ATOM     57  C   UNL A   1      43.672  27.437  36.616  1.00  0.00     0.135 A 
ATOM     58  F   UNL A   1      45.736  29.722  34.678  1.00  0.00    -0.206 F 
ATOM     59  C   UNL A   1      46.358  28.018  36.162  1.00  0.00     0.059 A 
ATOM     60  C   UNL A   1      44.651  26.708  37.287  1.00  0.00     0.059 A 
ATOM     61  F   UNL A   1      42.387  27.123  36.846  1.00  0.00    -0.206 F 
ATOM     62  C   UNL A   1      45.992  26.995  37.039  1.00  0.00     0.060 A 
BRANCH  62  63
ATOM     63  S   UNL A   1      47.297  26.046  37.850  1.00  0.00     0.124 S 
ATOM     64  O   UNL A   1      47.635  25.074  36.814  1.00  0.00    -0.237 OA
ATOM     65  O   UNL A   1      48.307  27.065  38.113  1.00  0.00    -0.237 OA
ATOM     66  O   UNL A   1      46.638  25.500  39.031  1.00  0.00    -0.744 OA
ENDBRANCH  62  63
ENDBRANCH  41  55
BRANCH  42  67
ATOM     67  C   UNL A   1      36.637  33.205  30.929  1.00  0.00     0.058 A 
ATOM     68  C   UNL A   1      35.305  33.021  31.331  1.00  0.00     0.135 A 
ATOM     69  C   UNL A   1      36.879  34.077  29.856  1.00  0.00     0.135 A 
ATOM     70  F   UNL A   1      35.022  32.192  32.348  1.00  0.00    -0.206 F 
ATOM     71  C   UNL A   1      34.253  33.660  30.686  1.00  0.00     0.059 A 
ATOM     72  C   UNL A   1      35.845  34.750  29.212  1.00  0.00     0.059 A 
ATOM     73  F   UNL A   1      38.135  34.301  29.441  1.00  0.00    -0.206 F 
ATOM     74  C   UNL A   1      34.533  34.527  29.629  1.00  0.00     0.060 A 
BRANCH  74  75
ATOM     75  S   UNL A   1      33.168  35.403  28.831  1.00  0.00     0.124 S 
ATOM     76  O   UNL A   1      33.888  36.381  28.015  1.00  0.00    -0.237 OA
ATOM     77  O   UNL A   1      32.510  34.324  28.090  1.00  0.00    -0.237 OA
ATOM     78  O   UNL A   1      32.413  35.940  29.944  1.00  0.00    -0.744 OA
ENDBRANCH  74  75
ENDBRANCH  42  67
BRANCH  54  79
ATOM     79  C   UNL A   1      39.842  34.239  37.036  1.00  0.00     0.058 A 
ATOM     80  C   UNL A   1      39.026  34.045  38.162  1.00  0.00     0.135 A 
ATOM     81  C   UNL A   1      40.522  35.462  36.926  1.00  0.00     0.135 A 
ATOM     82  F   UNL A   1      38.351  32.894  38.318  1.00  0.00    -0.206 F 
ATOM     83  C   UNL A   1      38.851  35.045  39.115  1.00  0.00     0.059 A 
ATOM     84  C   UNL A   1      40.388  36.464  37.884  1.00  0.00     0.059 A 
ATOM     85  F   UNL A   1      41.328  35.698  35.879  1.00  0.00    -0.206 F 
ATOM     86  C   UNL A   1      39.531  36.254  38.963  1.00  0.00     0.060 A 
BRANCH  86  87
ATOM     87  S   UNL A   1      39.283  37.550  40.194  1.00  0.00     0.124 S 
ATOM     88  O   UNL A   1      38.250  38.363  39.561  1.00  0.00    -0.237 OA
ATOM     89  O   UNL A   1      38.862  36.791  41.368  1.00  0.00    -0.237 OA
ATOM     90  O   UNL A   1      40.599  38.175  40.299  1.00  0.00    -0.744 OA
ENDBRANCH  86  87
ENDBRANCH  54  79
ENDBRANCH  28  29
ENDBRANCH   2  23
TORSDOF 13
ENDMDL
