MODEL 1
REMARK VINA RESULT:     -12.6      0.000      0.000
REMARK SMILES CC1(C)[C@H](C(=O)Nc2ccccc2C(N)=O)[C@@H]1C(=O)NCCCNC(=O)c1ccc(-c2c3nc(c(-c4c(F)cc(S(=O)(=O)[O-])cc4F)c4ccc([nH]4)c(-c4c(F)cc(S(=O)(=O)[O-])cc4F)c4nc(c(-c5c(F)cc(S(=O)(=O)[O-])cc5F)c5ccc2[nH]5)C=C4)C=C3)cc1
REMARK SMILES IDX 22 1 21 2 20 3 18 4 19 5 17 7 1 8 2 9 3 10 4 11 5 12 6 13
REMARK SMILES IDX 7 14 8 16 9 17 13 18 10 19 12 20 11 21 14 22 15 23 16 24
REMARK SMILES IDX 23 27 24 28 25 29 26 31 27 32 28 33 92 34 29 35 91 36 30 37
REMARK SMILES IDX 31 38 32 39 85 40 33 41 90 42 84 43 86 44 34 45 89 46 83 47
REMARK SMILES IDX 82 48 35 50 69 51 48 52 68 53 49 54 52 55 67 56 87 57 50 58
REMARK SMILES IDX 51 59 66 61 88 62 53 63 36 64 37 65 46 66 38 67 39 68 45 69
REMARK SMILES IDX 47 70 40 71 41 72 42 73 43 74 44 75 70 76 71 77 80 78 72 79
REMARK SMILES IDX 73 80 79 81 81 82 74 83 75 84 76 85 77 86 78 87 54 88 55 89
REMARK SMILES IDX 64 90 56 91 57 92 63 93 65 94 58 95 59 96 60 97 61 98 62 99
REMARK H PARENT 20 6 7 15 15 25 15 26 24 30 86 49 52 60
REMARK Flexibility Score: inf
ROOT
ATOM      1  C   UNL A   1      34.596  29.246  27.638  1.00  0.00     0.042 C 
ENDROOT
BRANCH   1   2
ATOM      2  C   UNL A   1      33.334  29.420  26.824  1.00  0.00     0.117 C 
BRANCH   2   3
ATOM      3  N   UNL A   1      32.325  28.449  27.180  1.00  0.00    -0.356 N 
ATOM      4  C   UNL A   1      31.674  27.569  26.374  1.00  0.00     0.224 C 
ATOM      5  O   UNL A   1      30.674  27.005  26.804  1.00  0.00    -0.275 OA
ATOM      6  H   UNL A   1      32.077  28.421  28.132  1.00  0.00     0.163 HD
BRANCH   4   7
ATOM      7  C   UNL A   1      32.145  27.330  24.979  1.00  0.00     0.098 C 
ATOM      8  C   UNL A   1      32.668  28.709  22.803  1.00  0.00     0.013 C 
ATOM      9  C   UNL A   1      31.675  28.307  23.886  1.00  0.00    -0.011 C 
ATOM     10  C   UNL A   1      30.891  29.498  24.366  1.00  0.00     0.013 C 
ATOM     11  C   UNL A   1      31.294  26.843  23.814  1.00  0.00     0.098 C 
BRANCH  11  12
ATOM     12  C   UNL A   1      30.165  25.901  24.026  1.00  0.00     0.228 C 
ATOM     13  O   UNL A   1      29.043  26.416  24.076  1.00  0.00    -0.274 OA
ATOM     14  N   UNL A   1      30.183  24.537  23.998  1.00  0.00    -0.325 N 
ATOM     15  H   UNL A   1      29.294  24.128  23.888  1.00  0.00     0.169 HD
BRANCH  14  16
ATOM     16  C   UNL A   1      31.217  23.619  24.097  1.00  0.00     0.053 A 
ATOM     17  C   UNL A   1      31.875  23.331  22.893  1.00  0.00     0.027 A 
ATOM     18  C   UNL A   1      31.592  22.974  25.282  1.00  0.00     0.063 A 
ATOM     19  C   UNL A   1      33.015  22.535  22.891  1.00  0.00     0.002 A 
ATOM     20  C   UNL A   1      32.736  22.159  25.267  1.00  0.00     0.016 A 
ATOM     21  C   UNL A   1      33.462  21.974  24.084  1.00  0.00     0.001 A 
BRANCH  18  22
ATOM     22  C   UNL A   1      30.743  23.068  26.505  1.00  0.00     0.250 C 
ATOM     23  N   UNL A   1      29.680  22.217  26.612  1.00  0.00    -0.366 N 
ATOM     24  O   UNL A   1      30.962  23.873  27.399  1.00  0.00    -0.269 OA
ATOM     25  H   UNL A   1      29.496  21.566  25.897  1.00  0.00     0.159 HD
ATOM     26  H   UNL A   1      29.097  22.255  27.405  1.00  0.00     0.159 HD
ENDBRANCH  18  22
ENDBRANCH  14  16
ENDBRANCH  11  12
ENDBRANCH   4   7
ENDBRANCH   2   3
ENDBRANCH   1   2
BRANCH   1  27
ATOM     27  C   UNL A   1      35.354  30.544  27.862  1.00  0.00     0.118 C 
BRANCH  27  28
ATOM     28  N   UNL A   1      35.456  30.928  29.267  1.00  0.00    -0.352 N 
ATOM     29  C   UNL A   1      36.445  30.656  30.186  1.00  0.00     0.251 C 
ATOM     30  H   UNL A   1      34.704  31.463  29.610  1.00  0.00     0.163 HD
ATOM     31  O   UNL A   1      36.283  30.944  31.367  1.00  0.00    -0.269 OA
BRANCH  29  32
ATOM     32  C   UNL A   1      37.680  29.984  29.737  1.00  0.00     0.039 A 
ATOM     33  C   UNL A   1      38.051  30.052  28.394  1.00  0.00     0.014 A 
ATOM     34  C   UNL A   1      38.509  29.354  30.666  1.00  0.00     0.014 A 
ATOM     35  C   UNL A   1      39.304  29.576  28.006  1.00  0.00     0.010 A 
ATOM     36  C   UNL A   1      39.804  29.016  30.306  1.00  0.00     0.010 A 
ATOM     37  C   UNL A   1      40.215  29.108  28.970  1.00  0.00    -0.014 A 
BRANCH  37  38
ATOM     38  C   UNL A   1      41.597  28.705  28.607  1.00  0.00     0.031 A 
ATOM     39  C   UNL A   1      42.692  29.738  28.555  1.00  0.00     0.074 A 
ATOM     40  C   UNL A   1      41.849  27.432  28.241  1.00  0.00     0.049 A 
ATOM     41  N   UNL A   1      43.943  29.599  28.201  1.00  0.00    -0.248 NA
ATOM     42  C   UNL A   1      42.323  31.119  28.908  1.00  0.00     0.031 C 
ATOM     43  C   UNL A   1      40.854  26.358  28.169  1.00  0.00     0.029 A 
ATOM     44  N   UNL A   1      43.016  26.826  27.849  1.00  0.00    -0.354 N 
ATOM     45  C   UNL A   1      44.497  30.873  28.263  1.00  0.00     0.074 A 
ATOM     46  C   UNL A   1      43.430  31.781  28.616  1.00  0.00     0.031 C 
ATOM     47  C   UNL A   1      41.459  25.221  27.793  1.00  0.00     0.029 A 
ATOM     48  C   UNL A   1      42.873  25.490  27.553  1.00  0.00     0.049 A 
ATOM     49  H   UNL A   1      43.875  27.303  27.786  1.00  0.00     0.167 HD
ATOM     50  C   UNL A   1      45.785  31.248  28.073  1.00  0.00     0.037 A 
ATOM     51  C   UNL A   1      43.777  24.586  27.129  1.00  0.00     0.037 A 
ATOM     52  C   UNL A   1      46.843  30.329  27.750  1.00  0.00     0.049 A 
ATOM     53  C   UNL A   1      45.207  25.014  26.951  1.00  0.00     0.074 A 
ATOM     54  C   UNL A   1      48.196  30.586  27.622  1.00  0.00     0.029 A 
ATOM     55  N   UNL A   1      46.666  28.976  27.493  1.00  0.00    -0.354 N 
ATOM     56  N   UNL A   1      45.736  26.205  27.108  1.00  0.00    -0.248 NA
ATOM     57  C   UNL A   1      46.166  23.978  26.547  1.00  0.00     0.031 C 
ATOM     58  C   UNL A   1      48.827  29.402  27.227  1.00  0.00     0.029 A 
ATOM     59  C   UNL A   1      47.880  28.391  27.174  1.00  0.00     0.049 A 
ATOM     60  H   UNL A   1      45.804  28.501  27.533  1.00  0.00     0.167 HD
ATOM     61  C   UNL A   1      47.092  26.059  26.841  1.00  0.00     0.074 A 
ATOM     62  C   UNL A   1      47.304  24.659  26.529  1.00  0.00     0.031 C 
ATOM     63  C   UNL A   1      48.072  26.997  26.855  1.00  0.00     0.037 A 
BRANCH  50  64
ATOM     64  C   UNL A   1      46.106  32.714  28.204  1.00  0.00     0.058 A 
ATOM     65  C   UNL A   1      46.053  33.590  27.107  1.00  0.00     0.135 A 
ATOM     66  C   UNL A   1      46.478  33.250  29.448  1.00  0.00     0.135 A 
ATOM     67  F   UNL A   1      45.719  33.131  25.890  1.00  0.00    -0.206 F 
ATOM     68  C   UNL A   1      46.409  34.930  27.225  1.00  0.00     0.059 A 
ATOM     69  C   UNL A   1      46.801  34.596  29.597  1.00  0.00     0.059 A 
ATOM     70  F   UNL A   1      46.544  32.462  30.532  1.00  0.00    -0.206 F 
ATOM     71  C   UNL A   1      46.787  35.423  28.475  1.00  0.00     0.060 A 
BRANCH  71  72
ATOM     72  S   UNL A   1      47.268  37.157  28.607  1.00  0.00     0.124 S 
ATOM     73  O   UNL A   1      48.705  37.078  28.363  1.00  0.00    -0.237 OA
ATOM     74  O   UNL A   1      46.480  37.781  27.550  1.00  0.00    -0.237 OA
ATOM     75  O   UNL A   1      46.882  37.515  29.968  1.00  0.00    -0.744 OA
ENDBRANCH  71  72
ENDBRANCH  50  64
BRANCH  51  76
ATOM     76  C   UNL A   1      43.348  23.183  26.879  1.00  0.00     0.058 A 
ATOM     77  C   UNL A   1      43.284  22.666  25.577  1.00  0.00     0.135 A 
ATOM     78  C   UNL A   1      43.054  22.314  27.943  1.00  0.00     0.135 A 
ATOM     79  F   UNL A   1      43.549  23.458  24.527  1.00  0.00    -0.206 F 
ATOM     80  C   UNL A   1      42.946  21.337  25.336  1.00  0.00     0.059 A 
ATOM     81  C   UNL A   1      42.739  20.976  27.728  1.00  0.00     0.059 A 
ATOM     82  F   UNL A   1      43.117  22.755  29.208  1.00  0.00    -0.206 F 
ATOM     83  C   UNL A   1      42.686  20.497  26.420  1.00  0.00     0.060 A 
BRANCH  83  84
ATOM     84  S   UNL A   1      42.336  18.755  26.099  1.00  0.00     0.124 S 
ATOM     85  O   UNL A   1      43.295  18.451  25.044  1.00  0.00    -0.237 OA
ATOM     86  O   UNL A   1      42.602  18.147  27.399  1.00  0.00    -0.237 OA
ATOM     87  O   UNL A   1      40.933  18.762  25.694  1.00  0.00    -0.744 OA
ENDBRANCH  83  84
ENDBRANCH  51  76
BRANCH  63  88
ATOM     88  C   UNL A   1      49.471  26.540  26.543  1.00  0.00     0.058 A 
ATOM     89  C   UNL A   1      50.291  25.946  27.517  1.00  0.00     0.135 A 
ATOM     90  C   UNL A   1      49.979  26.647  25.238  1.00  0.00     0.135 A 
ATOM     91  F   UNL A   1      49.857  25.824  28.781  1.00  0.00    -0.206 F 
ATOM     92  C   UNL A   1      51.574  25.502  27.214  1.00  0.00     0.059 A 
ATOM     93  C   UNL A   1      51.246  26.179  24.904  1.00  0.00     0.059 A 
ATOM     94  F   UNL A   1      49.233  27.195  24.264  1.00  0.00    -0.206 F 
ATOM     95  C   UNL A   1      52.041  25.620  25.903  1.00  0.00     0.060 A 
BRANCH  95  96
ATOM     96  S   UNL A   1      53.696  25.013  25.519  1.00  0.00     0.124 S 
ATOM     97  O   UNL A   1      53.448  23.588  25.320  1.00  0.00    -0.237 OA
ATOM     98  O   UNL A   1      54.036  25.771  24.319  1.00  0.00    -0.237 OA
ATOM     99  O   UNL A   1      54.470  25.355  26.709  1.00  0.00    -0.744 OA
ENDBRANCH  95  96
ENDBRANCH  63  88
ENDBRANCH  37  38
ENDBRANCH  29  32
ENDBRANCH  27  28
ENDBRANCH   1  27
TORSDOF 16
ENDMDL
MODEL 2
REMARK VINA RESULT:     -12.5      4.629     10.276
REMARK SMILES CC1(C)[C@H](C(=O)Nc2ccccc2C(N)=O)[C@@H]1C(=O)NCCCNC(=O)c1ccc(-c2c3nc(c(-c4c(F)cc(S(=O)(=O)[O-])cc4F)c4ccc([nH]4)c(-c4c(F)cc(S(=O)(=O)[O-])cc4F)c4nc(c(-c5c(F)cc(S(=O)(=O)[O-])cc5F)c5ccc2[nH]5)C=C4)C=C3)cc1
REMARK SMILES IDX 22 1 21 2 20 3 18 4 19 5 17 7 1 8 2 9 3 10 4 11 5 12 6 13
REMARK SMILES IDX 7 14 8 16 9 17 13 18 10 19 12 20 11 21 14 22 15 23 16 24
REMARK SMILES IDX 23 27 24 28 25 29 26 31 27 32 28 33 92 34 29 35 91 36 30 37
REMARK SMILES IDX 31 38 32 39 85 40 33 41 90 42 84 43 86 44 34 45 89 46 83 47
REMARK SMILES IDX 82 48 35 50 69 51 48 52 68 53 49 54 52 55 67 56 87 57 50 58
REMARK SMILES IDX 51 59 66 61 88 62 53 63 36 64 37 65 46 66 38 67 39 68 45 69
REMARK SMILES IDX 47 70 40 71 41 72 42 73 43 74 44 75 70 76 71 77 80 78 72 79
REMARK SMILES IDX 73 80 79 81 81 82 74 83 75 84 76 85 77 86 78 87 54 88 55 89
REMARK SMILES IDX 64 90 56 91 57 92 63 93 65 94 58 95 59 96 60 97 61 98 62 99
REMARK H PARENT 20 6 7 15 15 25 15 26 24 30 86 49 52 60
REMARK Flexibility Score: inf
ROOT
ATOM      1  C   UNL A   1      36.130  22.866  24.379  1.00  0.00     0.042 C 
ENDROOT
BRANCH   1   2
ATOM      2  C   UNL A   1      35.299  22.104  25.386  1.00  0.00     0.117 C 
BRANCH   2   3
ATOM      3  N   UNL A   1      34.680  22.985  26.349  1.00  0.00    -0.356 N 
ATOM      4  C   UNL A   1      33.384  23.390  26.416  1.00  0.00     0.224 C 
ATOM      5  O   UNL A   1      33.098  24.335  27.144  1.00  0.00    -0.275 OA
ATOM      6  H   UNL A   1      35.275  23.338  27.050  1.00  0.00     0.163 HD
BRANCH   4   7
ATOM      7  C   UNL A   1      32.339  22.725  25.585  1.00  0.00     0.098 C 
ATOM      8  C   UNL A   1      31.719  22.434  23.046  1.00  0.00     0.013 C 
ATOM      9  C   UNL A   1      31.994  23.359  24.225  1.00  0.00    -0.011 C 
ATOM     10  C   UNL A   1      32.852  24.521  23.808  1.00  0.00     0.013 C 
ATOM     11  C   UNL A   1      30.939  23.253  25.307  1.00  0.00     0.098 C 
BRANCH  11  12
ATOM     12  C   UNL A   1      30.201  24.048  26.323  1.00  0.00     0.228 C 
ATOM     13  O   UNL A   1      29.791  23.415  27.302  1.00  0.00    -0.274 OA
ATOM     14  N   UNL A   1      30.067  25.403  26.403  1.00  0.00    -0.325 N 
ATOM     15  H   UNL A   1      29.781  25.724  27.289  1.00  0.00     0.169 HD
BRANCH  14  16
ATOM     16  C   UNL A   1      30.258  26.413  25.473  1.00  0.00     0.053 A 
ATOM     17  C   UNL A   1      29.550  26.260  24.273  1.00  0.00     0.027 A 
ATOM     18  C   UNL A   1      31.111  27.508  25.659  1.00  0.00     0.063 A 
ATOM     19  C   UNL A   1      29.553  27.277  23.325  1.00  0.00     0.002 A 
ATOM     20  C   UNL A   1      31.120  28.523  24.688  1.00  0.00     0.016 A 
ATOM     21  C   UNL A   1      30.314  28.422  23.547  1.00  0.00     0.001 A 
BRANCH  18  22
ATOM     22  C   UNL A   1      32.063  27.549  26.807  1.00  0.00     0.250 C 
ATOM     23  N   UNL A   1      33.393  27.378  26.542  1.00  0.00    -0.366 N 
ATOM     24  O   UNL A   1      31.697  27.725  27.961  1.00  0.00    -0.269 OA
ATOM     25  H   UNL A   1      33.697  27.237  25.617  1.00  0.00     0.159 HD
ATOM     26  H   UNL A   1      34.047  27.396  27.278  1.00  0.00     0.159 HD
ENDBRANCH  18  22
ENDBRANCH  14  16
ENDBRANCH  11  12
ENDBRANCH   4   7
ENDBRANCH   2   3
ENDBRANCH   1   2
BRANCH   1  27
ATOM     27  C   UNL A   1      37.311  23.596  24.998  1.00  0.00     0.118 C 
BRANCH  27  28
ATOM     28  N   UNL A   1      38.403  22.711  25.394  1.00  0.00    -0.352 N 
ATOM     29  C   UNL A   1      39.511  22.971  26.168  1.00  0.00     0.251 C 
ATOM     30  H   UNL A   1      38.336  21.788  25.058  1.00  0.00     0.163 HD
ATOM     31  O   UNL A   1      40.399  22.131  26.272  1.00  0.00    -0.269 OA
BRANCH  29  32
ATOM     32  C   UNL A   1      39.631  24.281  26.837  1.00  0.00     0.039 A 
ATOM     33  C   UNL A   1      39.091  24.455  28.111  1.00  0.00     0.014 A 
ATOM     34  C   UNL A   1      40.351  25.311  26.231  1.00  0.00     0.014 A 
ATOM     35  C   UNL A   1      39.362  25.630  28.814  1.00  0.00     0.010 A 
ATOM     36  C   UNL A   1      40.737  26.409  26.983  1.00  0.00     0.010 A 
ATOM     37  C   UNL A   1      40.237  26.591  28.279  1.00  0.00    -0.014 A 
BRANCH  37  38
ATOM     38  C   UNL A   1      40.641  27.794  29.049  1.00  0.00     0.031 A 
ATOM     39  C   UNL A   1      41.969  27.824  29.757  1.00  0.00     0.074 A 
ATOM     40  C   UNL A   1      39.779  28.823  29.184  1.00  0.00     0.049 A 
ATOM     41  N   UNL A   1      42.474  28.751  30.529  1.00  0.00    -0.248 NA
ATOM     42  C   UNL A   1      42.827  26.636  29.613  1.00  0.00     0.031 C 
ATOM     43  C   UNL A   1      38.429  28.877  28.615  1.00  0.00     0.029 A 
ATOM     44  N   UNL A   1      39.903  30.016  29.849  1.00  0.00    -0.354 N 
ATOM     45  C   UNL A   1      43.689  28.247  30.979  1.00  0.00     0.074 A 
ATOM     46  C   UNL A   1      43.811  26.906  30.456  1.00  0.00     0.031 C 
ATOM     47  C   UNL A   1      37.866  30.054  28.927  1.00  0.00     0.029 A 
ATOM     48  C   UNL A   1      38.793  30.822  29.753  1.00  0.00     0.049 A 
ATOM     49  H   UNL A   1      40.713  30.272  30.348  1.00  0.00     0.167 HD
ATOM     50  C   UNL A   1      44.633  28.857  31.736  1.00  0.00     0.037 A 
ATOM     51  C   UNL A   1      38.545  32.038  30.277  1.00  0.00     0.037 A 
ATOM     52  C   UNL A   1      44.511  30.204  32.227  1.00  0.00     0.049 A 
ATOM     53  C   UNL A   1      39.614  32.712  31.091  1.00  0.00     0.074 A 
ATOM     54  C   UNL A   1      45.442  30.950  32.926  1.00  0.00     0.029 A 
ATOM     55  N   UNL A   1      43.386  31.002  32.078  1.00  0.00    -0.354 N 
ATOM     56  N   UNL A   1      40.800  32.260  31.428  1.00  0.00    -0.248 NA
ATOM     57  C   UNL A   1      39.321  34.062  31.588  1.00  0.00     0.031 C 
ATOM     58  C   UNL A   1      44.856  32.177  33.255  1.00  0.00     0.029 A 
ATOM     59  C   UNL A   1      43.585  32.223  32.703  1.00  0.00     0.049 A 
ATOM     60  H   UNL A   1      42.567  30.741  31.599  1.00  0.00     0.167 HD
ATOM     61  C   UNL A   1      41.401  33.276  32.161  1.00  0.00     0.074 A 
ATOM     62  C   UNL A   1      40.454  34.373  32.203  1.00  0.00     0.031 C 
ATOM     63  C   UNL A   1      42.626  33.300  32.744  1.00  0.00     0.037 A 
BRANCH  50  64
ATOM     64  C   UNL A   1      45.867  28.064  32.078  1.00  0.00     0.058 A 
ATOM     65  C   UNL A   1      46.993  28.037  31.237  1.00  0.00     0.135 A 
ATOM     66  C   UNL A   1      45.923  27.313  33.264  1.00  0.00     0.135 A 
ATOM     67  F   UNL A   1      46.992  28.723  30.082  1.00  0.00    -0.206 F 
ATOM     68  C   UNL A   1      48.105  27.256  31.532  1.00  0.00     0.059 A 
ATOM     69  C   UNL A   1      47.040  26.554  33.598  1.00  0.00     0.059 A 
ATOM     70  F   UNL A   1      44.879  27.302  34.107  1.00  0.00    -0.206 F 
ATOM     71  C   UNL A   1      48.117  26.513  32.714  1.00  0.00     0.060 A 
BRANCH  71  72
ATOM     72  S   UNL A   1      49.557  25.485  33.070  1.00  0.00     0.124 S 
ATOM     73  O   UNL A   1      48.932  24.305  33.659  1.00  0.00    -0.237 OA
ATOM     74  O   UNL A   1      50.142  25.297  31.746  1.00  0.00    -0.237 OA
ATOM     75  O   UNL A   1      50.342  26.303  33.989  1.00  0.00    -0.744 OA
ENDBRANCH  71  72
ENDBRANCH  50  64
BRANCH  51  76
ATOM     76  C   UNL A   1      37.237  32.697  30.013  1.00  0.00     0.058 A 
ATOM     77  C   UNL A   1      36.128  32.462  30.838  1.00  0.00     0.135 A 
ATOM     78  C   UNL A   1      37.090  33.623  28.968  1.00  0.00     0.135 A 
ATOM     79  F   UNL A   1      36.216  31.581  31.846  1.00  0.00    -0.206 F 
ATOM     80  C   UNL A   1      34.918  33.121  30.640  1.00  0.00     0.059 A 
ATOM     81  C   UNL A   1      35.898  34.313  28.765  1.00  0.00     0.059 A 
ATOM     82  F   UNL A   1      38.125  33.895  28.160  1.00  0.00    -0.206 F 
ATOM     83  C   UNL A   1      34.817  34.054  29.606  1.00  0.00     0.060 A 
BRANCH  83  84
ATOM     84  S   UNL A   1      33.272  34.968  29.414  1.00  0.00     0.124 S 
ATOM     85  O   UNL A   1      32.595  34.189  28.383  1.00  0.00    -0.237 OA
ATOM     86  O   UNL A   1      32.700  34.886  30.754  1.00  0.00    -0.237 OA
ATOM     87  O   UNL A   1      33.715  36.299  29.010  1.00  0.00    -0.744 OA
ENDBRANCH  83  84
ENDBRANCH  51  76
BRANCH  63  88
ATOM     88  C   UNL A   1      43.025  34.560  33.463  1.00  0.00     0.058 A 
ATOM     89  C   UNL A   1      42.800  34.731  34.839  1.00  0.00     0.135 A 
ATOM     90  C   UNL A   1      43.691  35.589  32.777  1.00  0.00     0.135 A 
ATOM     91  F   UNL A   1      42.162  33.780  35.542  1.00  0.00    -0.206 F 
ATOM     92  C   UNL A   1      43.195  35.888  35.502  1.00  0.00     0.059 A 
ATOM     93  C   UNL A   1      44.124  36.741  33.427  1.00  0.00     0.059 A 
ATOM     94  F   UNL A   1      43.943  35.474  31.464  1.00  0.00    -0.206 F 
ATOM     95  C   UNL A   1      43.859  36.886  34.787  1.00  0.00     0.060 A 
BRANCH  95  96
ATOM     96  S   UNL A   1      44.392  38.369  35.667  1.00  0.00     0.124 S 
ATOM     97  O   UNL A   1      43.787  38.166  36.979  1.00  0.00    -0.237 OA
ATOM     98  O   UNL A   1      45.846  38.259  35.614  1.00  0.00    -0.237 OA
ATOM     99  O   UNL A   1      43.823  39.457  34.876  1.00  0.00    -0.744 OA
ENDBRANCH  95  96
ENDBRANCH  63  88
ENDBRANCH  37  38
ENDBRANCH  29  32
ENDBRANCH  27  28
ENDBRANCH   1  27
TORSDOF 16
ENDMDL
MODEL 3
REMARK VINA RESULT:     -12.4      4.255     10.560
REMARK SMILES CC1(C)[C@H](C(=O)Nc2ccccc2C(N)=O)[C@@H]1C(=O)NCCCNC(=O)c1ccc(-c2c3nc(c(-c4c(F)cc(S(=O)(=O)[O-])cc4F)c4ccc([nH]4)c(-c4c(F)cc(S(=O)(=O)[O-])cc4F)c4nc(c(-c5c(F)cc(S(=O)(=O)[O-])cc5F)c5ccc2[nH]5)C=C4)C=C3)cc1
REMARK SMILES IDX 22 1 21 2 20 3 18 4 19 5 17 7 1 8 2 9 3 10 4 11 5 12 6 13
REMARK SMILES IDX 7 14 8 16 9 17 13 18 10 19 12 20 11 21 14 22 15 23 16 24
REMARK SMILES IDX 23 27 24 28 25 29 26 31 27 32 28 33 92 34 29 35 91 36 30 37
REMARK SMILES IDX 31 38 32 39 85 40 33 41 90 42 84 43 86 44 34 45 89 46 83 47
REMARK SMILES IDX 82 48 35 50 69 51 48 52 68 53 49 54 52 55 67 56 87 57 50 58
REMARK SMILES IDX 51 59 66 61 88 62 53 63 36 64 37 65 46 66 38 67 39 68 45 69
REMARK SMILES IDX 47 70 40 71 41 72 42 73 43 74 44 75 70 76 71 77 80 78 72 79
REMARK SMILES IDX 73 80 79 81 81 82 74 83 75 84 76 85 77 86 78 87 54 88 55 89
REMARK SMILES IDX 64 90 56 91 57 92 63 93 65 94 58 95 59 96 60 97 61 98 62 99
REMARK H PARENT 20 6 7 15 15 25 15 26 24 30 86 49 52 60
REMARK Flexibility Score: inf
ROOT
ATOM      1  C   UNL A   1      34.483  34.040  28.531  1.00  0.00     0.042 C 
ENDROOT
BRANCH   1   2
ATOM      2  C   UNL A   1      34.422  34.681  29.898  1.00  0.00     0.117 C 
BRANCH   2   3
ATOM      3  N   UNL A   1      34.180  33.707  30.938  1.00  0.00    -0.356 N 
ATOM      4  C   UNL A   1      34.999  33.336  31.958  1.00  0.00     0.224 C 
ATOM      5  O   UNL A   1      34.731  32.318  32.588  1.00  0.00    -0.275 OA
ATOM      6  H   UNL A   1      33.307  33.254  30.905  1.00  0.00     0.163 HD
BRANCH   4   7
ATOM      7  C   UNL A   1      36.222  34.129  32.274  1.00  0.00     0.098 C 
ATOM      8  C   UNL A   1      38.591  34.608  31.239  1.00  0.00     0.013 C 
ATOM      9  C   UNL A   1      37.572  33.601  31.756  1.00  0.00    -0.011 C 
ATOM     10  C   UNL A   1      37.502  32.397  30.857  1.00  0.00     0.013 C 
ATOM     11  C   UNL A   1      37.325  33.732  33.245  1.00  0.00     0.098 C 
BRANCH  11  12
ATOM     12  C   UNL A   1      37.027  32.946  34.470  1.00  0.00     0.228 C 
ATOM     13  O   UNL A   1      36.266  33.486  35.279  1.00  0.00    -0.274 OA
ATOM     14  N   UNL A   1      37.340  31.646  34.737  1.00  0.00    -0.325 N 
ATOM     15  H   UNL A   1      36.816  31.252  35.472  1.00  0.00     0.169 HD
BRANCH  14  16
ATOM     16  C   UNL A   1      38.256  30.774  34.170  1.00  0.00     0.053 A 
ATOM     17  C   UNL A   1      37.702  29.759  33.378  1.00  0.00     0.027 A 
ATOM     18  C   UNL A   1      39.641  30.841  34.371  1.00  0.00     0.063 A 
ATOM     19  C   UNL A   1      38.528  28.913  32.646  1.00  0.00     0.002 A 
ATOM     20  C   UNL A   1      40.466  29.971  33.640  1.00  0.00     0.016 A 
ATOM     21  C   UNL A   1      39.910  29.040  32.754  1.00  0.00     0.001 A 
BRANCH  18  22
ATOM     22  C   UNL A   1      40.220  31.741  35.410  1.00  0.00     0.250 C 
ATOM     23  N   UNL A   1      40.743  31.167  36.534  1.00  0.00    -0.366 N 
ATOM     24  O   UNL A   1      40.237  32.959  35.292  1.00  0.00    -0.269 OA
ATOM     25  H   UNL A   1      40.733  30.188  36.638  1.00  0.00     0.159 HD
ATOM     26  H   UNL A   1      41.129  31.733  37.242  1.00  0.00     0.159 HD
ENDBRANCH  18  22
ENDBRANCH  14  16
ENDBRANCH  11  12
ENDBRANCH   4   7
ENDBRANCH   2   3
ENDBRANCH   1   2
BRANCH   1  27
ATOM     27  C   UNL A   1      35.135  32.667  28.536  1.00  0.00     0.118 C 
BRANCH  27  28
ATOM     28  N   UNL A   1      34.217  31.581  28.199  1.00  0.00    -0.352 N 
ATOM     29  C   UNL A   1      34.481  30.261  27.913  1.00  0.00     0.251 C 
ATOM     30  H   UNL A   1      33.266  31.832  28.174  1.00  0.00     0.163 HD
ATOM     31  O   UNL A   1      33.583  29.529  27.510  1.00  0.00    -0.269 OA
BRANCH  29  32
ATOM     32  C   UNL A   1      35.858  29.753  28.063  1.00  0.00     0.039 A 
ATOM     33  C   UNL A   1      36.768  29.913  27.018  1.00  0.00     0.014 A 
ATOM     34  C   UNL A   1      36.267  29.189  29.273  1.00  0.00     0.014 A 
ATOM     35  C   UNL A   1      38.112  29.598  27.228  1.00  0.00     0.010 A 
ATOM     36  C   UNL A   1      37.619  29.015  29.522  1.00  0.00     0.010 A 
ATOM     37  C   UNL A   1      38.558  29.204  28.500  1.00  0.00    -0.014 A 
BRANCH  37  38
ATOM     38  C   UNL A   1      39.997  28.976  28.788  1.00  0.00     0.031 A 
ATOM     39  C   UNL A   1      40.632  27.654  28.447  1.00  0.00     0.074 A 
ATOM     40  C   UNL A   1      40.709  29.923  29.431  1.00  0.00     0.049 A 
ATOM     41  N   UNL A   1      41.851  27.239  28.676  1.00  0.00    -0.248 NA
ATOM     42  C   UNL A   1      39.771  26.648  27.803  1.00  0.00     0.031 C 
ATOM     43  C   UNL A   1      40.184  31.213  29.889  1.00  0.00     0.029 A 
ATOM     44  N   UNL A   1      42.023  29.946  29.823  1.00  0.00    -0.354 N 
ATOM     45  C   UNL A   1      41.892  25.923  28.229  1.00  0.00     0.074 A 
ATOM     46  C   UNL A   1      40.559  25.585  27.785  1.00  0.00     0.031 C 
ATOM     47  C   UNL A   1      41.174  31.912  30.466  1.00  0.00     0.029 A 
ATOM     48  C   UNL A   1      42.391  31.107  30.462  1.00  0.00     0.049 A 
ATOM     49  H   UNL A   1      42.646  29.200  29.662  1.00  0.00     0.167 HD
ATOM     50  C   UNL A   1      42.952  25.082  28.164  1.00  0.00     0.037 A 
ATOM     51  C   UNL A   1      43.573  31.480  30.991  1.00  0.00     0.037 A 
ATOM     52  C   UNL A   1      44.280  25.441  28.582  1.00  0.00     0.049 A 
ATOM     53  C   UNL A   1      44.744  30.544  30.886  1.00  0.00     0.074 A 
ATOM     54  C   UNL A   1      45.444  24.699  28.481  1.00  0.00     0.029 A 
ATOM     55  N   UNL A   1      44.622  26.641  29.191  1.00  0.00    -0.354 N 
ATOM     56  N   UNL A   1      44.791  29.337  30.371  1.00  0.00    -0.248 NA
ATOM     57  C   UNL A   1      46.026  31.020  31.422  1.00  0.00     0.031 C 
ATOM     58  C   UNL A   1      46.475  25.425  29.085  1.00  0.00     0.029 A 
ATOM     59  C   UNL A   1      45.971  26.647  29.503  1.00  0.00     0.049 A 
ATOM     60  H   UNL A   1      43.997  27.379  29.375  1.00  0.00     0.167 HD
ATOM     61  C   UNL A   1      46.109  28.917  30.505  1.00  0.00     0.074 A 
ATOM     62  C   UNL A   1      46.830  30.006  31.133  1.00  0.00     0.031 C 
ATOM     63  C   UNL A   1      46.672  27.737  30.139  1.00  0.00     0.037 A 
BRANCH  50  64
ATOM     64  C   UNL A   1      42.705  23.695  27.630  1.00  0.00     0.058 A 
ATOM     65  C   UNL A   1      42.403  22.613  28.474  1.00  0.00     0.135 A 
ATOM     66  C   UNL A   1      42.776  23.444  26.249  1.00  0.00     0.135 A 
ATOM     67  F   UNL A   1      42.336  22.790  29.804  1.00  0.00    -0.206 F 
ATOM     68  C   UNL A   1      42.234  21.325  27.977  1.00  0.00     0.059 A 
ATOM     69  C   UNL A   1      42.574  22.169  25.727  1.00  0.00     0.059 A 
ATOM     70  F   UNL A   1      43.058  24.438  25.394  1.00  0.00    -0.206 F 
ATOM     71  C   UNL A   1      42.327  21.112  26.601  1.00  0.00     0.060 A 
BRANCH  71  72
ATOM     72  S   UNL A   1      42.130  19.431  25.975  1.00  0.00     0.124 S 
ATOM     73  O   UNL A   1      42.975  19.464  24.785  1.00  0.00    -0.237 OA
ATOM     74  O   UNL A   1      42.630  18.624  27.083  1.00  0.00    -0.237 OA
ATOM     75  O   UNL A   1      40.697  19.327  25.723  1.00  0.00    -0.744 OA
ENDBRANCH  71  72
ENDBRANCH  50  64
BRANCH  51  76
ATOM     76  C   UNL A   1      43.698  32.814  31.636  1.00  0.00     0.058 A 
ATOM     77  C   UNL A   1      44.018  33.955  30.886  1.00  0.00     0.135 A 
ATOM     78  C   UNL A   1      43.438  32.985  33.006  1.00  0.00     0.135 A 
ATOM     79  F   UNL A   1      44.281  33.843  29.575  1.00  0.00    -0.206 F 
ATOM     80  C   UNL A   1      44.075  35.219  31.467  1.00  0.00     0.059 A 
ATOM     81  C   UNL A   1      43.464  34.241  33.605  1.00  0.00     0.059 A 
ATOM     82  F   UNL A   1      43.112  31.928  33.765  1.00  0.00    -0.206 F 
ATOM     83  C   UNL A   1      43.785  35.352  32.826  1.00  0.00     0.060 A 
BRANCH  83  84
ATOM     84  S   UNL A   1      43.775  37.007  33.549  1.00  0.00     0.124 S 
ATOM     85  O   UNL A   1      44.998  36.989  34.343  1.00  0.00    -0.237 OA
ATOM     86  O   UNL A   1      43.795  37.858  32.364  1.00  0.00    -0.237 OA
ATOM     87  O   UNL A   1      42.529  37.034  34.310  1.00  0.00    -0.744 OA
ENDBRANCH  83  84
ENDBRANCH  51  76
BRANCH  63  88
ATOM     88  C   UNL A   1      48.145  27.567  30.390  1.00  0.00     0.058 A 
ATOM     89  C   UNL A   1      48.633  26.986  31.572  1.00  0.00     0.135 A 
ATOM     90  C   UNL A   1      49.080  27.940  29.410  1.00  0.00     0.135 A 
ATOM     91  F   UNL A   1      47.783  26.616  32.543  1.00  0.00    -0.206 F 
ATOM     92  C   UNL A   1      49.996  26.808  31.785  1.00  0.00     0.059 A 
ATOM     93  C   UNL A   1      50.446  27.740  29.588  1.00  0.00     0.059 A 
ATOM     94  F   UNL A   1      48.668  28.488  28.256  1.00  0.00    -0.206 F 
ATOM     95  C   UNL A   1      50.894  27.186  30.785  1.00  0.00     0.060 A 
BRANCH  95  96
ATOM     96  S   UNL A   1      52.658  26.922  31.063  1.00  0.00     0.124 S 
ATOM     97  O   UNL A   1      52.642  25.825  32.026  1.00  0.00    -0.237 OA
ATOM     98  O   UNL A   1      53.138  26.586  29.727  1.00  0.00    -0.237 OA
ATOM     99  O   UNL A   1      53.117  28.207  31.584  1.00  0.00    -0.744 OA
ENDBRANCH  95  96
ENDBRANCH  63  88
ENDBRANCH  37  38
ENDBRANCH  29  32
ENDBRANCH  27  28
ENDBRANCH   1  27
TORSDOF 16
ENDMDL
