MODEL 1
REMARK VINA RESULT:     -14.8      0.000      0.000
REMARK SMILES COc1ccc(NC(=O)N[C@@H]2C=C[C@H](C(=O)NCCCNC(=O)c3ccc(-c4c5nc(c(-c6c(F)cc(S(=O)(=O)[O-])cc6F)c6ccc([nH]6)c(-c6c(F)cc(S(=O)(=O)[O-])cc6F)c6nc(c(-c7c(F)cc(S(=O)(=O)[O-])cc7F)c7ccc4[nH]7)C=C6)C=C5)cc3)C2)c(C)c1
REMARK SMILES IDX 19 1 18 2 17 3 15 4 16 5 14 7 11 8 12 9 90 10 13 11 10 12
REMARK SMILES IDX 7 13 8 14 9 16 6 18 3 19 4 20 93 21 5 22 91 23 92 24 2 25
REMARK SMILES IDX 1 26 20 27 21 28 22 29 23 31 24 32 25 33 89 34 26 35 88 36
REMARK SMILES IDX 27 37 28 38 29 39 82 40 30 41 87 42 81 43 83 44 31 45 86 46
REMARK SMILES IDX 80 47 79 48 32 50 66 51 45 52 65 53 46 54 49 55 64 56 84 57
REMARK SMILES IDX 47 58 48 59 63 61 85 62 50 63 33 64 34 65 43 66 35 67 36 68
REMARK SMILES IDX 42 69 44 70 37 71 38 72 39 73 40 74 41 75 67 76 68 77 77 78
REMARK SMILES IDX 69 79 70 80 76 81 78 82 71 83 72 84 73 85 74 86 75 87 51 88
REMARK SMILES IDX 52 89 61 90 53 91 54 92 60 93 62 94 55 95 56 96 57 97 58 98
REMARK SMILES IDX 59 99
REMARK H PARENT 17 6 7 15 10 17 21 30 83 49 49 60
REMARK Flexibility Score: inf
ROOT
ATOM      1  C   UNL A   1      32.825  28.803  26.759  1.00  0.00     0.042 C 
ENDROOT
BRANCH   1   2
ATOM      2  C   UNL A   1      31.458  28.938  26.036  1.00  0.00     0.117 C 
BRANCH   2   3
ATOM      3  N   UNL A   1      31.188  29.477  24.439  1.00  0.00    -0.356 N 
ATOM      4  C   UNL A   1      31.231  28.919  22.977  1.00  0.00     0.227 C 
ATOM      5  O   UNL A   1      30.629  29.615  22.142  1.00  0.00    -0.274 OA
ATOM      6  H   UNL A   1      30.926  30.426  24.436  1.00  0.00     0.163 HD
BRANCH   4   7
ATOM      7  C   UNL A   1      32.183  27.373  22.322  1.00  0.00     0.103 C 
ATOM      8  C   UNL A   1      32.221  24.619  24.159  1.00  0.00     0.107 C 
ATOM      9  C   UNL A   1      33.759  25.812  24.448  1.00  0.00    -0.006 C 
ATOM     10  C   UNL A   1      31.291  25.300  22.498  1.00  0.00     0.047 C 
ATOM     11  C   UNL A   1      33.758  27.196  23.604  1.00  0.00    -0.016 C 
BRANCH   8  12
ATOM     12  N   UNL A   1      31.173  24.911  25.419  1.00  0.00    -0.332 N 
ATOM     13  N   UNL A   1      31.090  22.776  26.648  1.00  0.00    -0.308 N 
ATOM     14  C   UNL A   1      30.576  24.067  26.404  1.00  0.00     0.319 C 
ATOM     15  H   UNL A   1      30.739  22.270  27.416  1.00  0.00     0.171 HD
ATOM     16  O   UNL A   1      29.572  24.449  27.007  1.00  0.00    -0.248 OA
ATOM     17  H   UNL A   1      30.913  25.857  25.503  1.00  0.00     0.165 HD
BRANCH  13  18
ATOM     18  C   UNL A   1      32.079  22.175  25.849  1.00  0.00     0.046 A 
ATOM     19  C   UNL A   1      35.194  20.498  25.176  1.00  0.00     0.119 A 
ATOM     20  C   UNL A   1      35.055  21.671  26.350  1.00  0.00     0.048 A 
ATOM     21  C   UNL A   1      33.934  20.191  24.315  1.00  0.00     0.052 A 
ATOM     22  C   UNL A   1      33.319  22.669  26.601  1.00  0.00     0.030 A 
ATOM     23  C   UNL A   1      32.450  21.002  24.511  1.00  0.00    -0.024 A 
ATOM     24  C   UNL A   1      32.203  21.208  22.832  1.00  0.00     0.047 C 
BRANCH  19  25
ATOM     25  O   UNL A   1      36.368  19.860  24.963  1.00  0.00    -0.497 OA
ATOM     26  C   UNL A   1      37.424  20.817  25.005  1.00  0.00     0.278 C 
ENDBRANCH  19  25
ENDBRANCH  13  18
ENDBRANCH   8  12
ENDBRANCH   4   7
ENDBRANCH   2   3
ENDBRANCH   1   2
BRANCH   1  27
ATOM     27  C   UNL A   1      33.039  30.051  27.503  1.00  0.00     0.118 C 
BRANCH  27  28
ATOM     28  N   UNL A   1      34.081  30.825  26.884  1.00  0.00    -0.352 N 
ATOM     29  C   UNL A   1      35.219  31.178  27.576  1.00  0.00     0.251 C 
ATOM     30  H   UNL A   1      33.980  31.108  25.947  1.00  0.00     0.163 HD
ATOM     31  O   UNL A   1      35.580  32.329  27.758  1.00  0.00    -0.269 OA
BRANCH  29  32
ATOM     32  C   UNL A   1      36.035  30.005  27.981  1.00  0.00     0.039 A 
ATOM     33  C   UNL A   1      35.936  29.673  29.335  1.00  0.00     0.014 A 
ATOM     34  C   UNL A   1      37.241  29.864  27.311  1.00  0.00     0.014 A 
ATOM     35  C   UNL A   1      37.104  29.480  30.053  1.00  0.00     0.010 A 
ATOM     36  C   UNL A   1      38.366  30.061  28.057  1.00  0.00     0.010 A 
ATOM     37  C   UNL A   1      38.293  29.844  29.432  1.00  0.00    -0.014 A 
BRANCH  37  38
ATOM     38  C   UNL A   1      39.622  29.574  29.924  1.00  0.00     0.031 A 
ATOM     39  C   UNL A   1      39.982  28.170  29.533  1.00  0.00     0.074 A 
ATOM     40  C   UNL A   1      40.323  30.690  30.276  1.00  0.00     0.049 A 
ATOM     41  N   UNL A   1      40.958  27.491  29.982  1.00  0.00    -0.248 NA
ATOM     42  C   UNL A   1      39.200  27.331  28.580  1.00  0.00     0.031 C 
ATOM     43  C   UNL A   1      41.745  30.988  30.456  1.00  0.00     0.029 A 
ATOM     44  N   UNL A   1      39.732  31.847  30.825  1.00  0.00    -0.354 N 
ATOM     45  C   UNL A   1      41.238  26.521  29.026  1.00  0.00     0.074 A 
ATOM     46  C   UNL A   1      40.013  26.302  28.329  1.00  0.00     0.031 C 
ATOM     47  C   UNL A   1      41.883  31.912  31.436  1.00  0.00     0.029 A 
ATOM     48  C   UNL A   1      40.547  32.210  31.927  1.00  0.00     0.049 A 
ATOM     49  H   UNL A   1      38.921  32.308  30.508  1.00  0.00     0.167 HD
ATOM     50  C   UNL A   1      42.549  26.215  28.825  1.00  0.00     0.037 A 
ATOM     51  C   UNL A   1      40.067  31.915  33.173  1.00  0.00     0.037 A 
ATOM     52  C   UNL A   1      43.328  27.058  29.742  1.00  0.00     0.049 A 
ATOM     53  C   UNL A   1      40.747  30.656  33.704  1.00  0.00     0.074 A 
ATOM     54  C   UNL A   1      44.005  28.255  29.615  1.00  0.00     0.029 A 
ATOM     55  N   UNL A   1      43.051  26.928  31.087  1.00  0.00    -0.354 N 
ATOM     56  N   UNL A   1      41.377  29.788  32.949  1.00  0.00    -0.248 NA
ATOM     57  C   UNL A   1      40.837  30.311  35.118  1.00  0.00     0.031 C 
ATOM     58  C   UNL A   1      44.066  28.853  30.925  1.00  0.00     0.029 A 
ATOM     59  C   UNL A   1      43.385  28.043  31.821  1.00  0.00     0.049 A 
ATOM     60  H   UNL A   1      42.655  26.119  31.482  1.00  0.00     0.167 HD
ATOM     61  C   UNL A   1      42.062  28.890  33.719  1.00  0.00     0.074 A 
ATOM     62  C   UNL A   1      41.565  29.180  35.064  1.00  0.00     0.031 C 
ATOM     63  C   UNL A   1      43.023  28.027  33.237  1.00  0.00     0.037 A 
BRANCH  50  64
ATOM     64  C   UNL A   1      43.200  25.358  27.759  1.00  0.00     0.058 A 
ATOM     65  C   UNL A   1      43.153  23.955  27.931  1.00  0.00     0.135 A 
ATOM     66  C   UNL A   1      43.879  25.781  26.594  1.00  0.00     0.135 A 
ATOM     67  F   UNL A   1      42.509  23.402  28.967  1.00  0.00    -0.206 F 
ATOM     68  C   UNL A   1      43.750  23.050  27.056  1.00  0.00     0.059 A 
ATOM     69  C   UNL A   1      44.475  24.883  25.686  1.00  0.00     0.059 A 
ATOM     70  F   UNL A   1      44.008  27.075  26.280  1.00  0.00    -0.206 F 
ATOM     71  C   UNL A   1      44.412  23.517  25.933  1.00  0.00     0.060 A 
BRANCH  71  72
ATOM     72  S   UNL A   1      45.154  22.300  24.827  1.00  0.00     0.124 S 
ATOM     73  O   UNL A   1      44.102  21.292  24.735  1.00  0.00    -0.237 OA
ATOM     74  O   UNL A   1      45.386  23.083  23.618  1.00  0.00    -0.237 OA
ATOM     75  O   UNL A   1      46.359  21.880  25.537  1.00  0.00    -0.744 OA
ENDBRANCH  71  72
ENDBRANCH  50  64
BRANCH  51  76
ATOM     76  C   UNL A   1      38.608  32.303  33.216  1.00  0.00     0.058 A 
ATOM     77  C   UNL A   1      38.324  33.690  33.074  1.00  0.00     0.135 A 
ATOM     78  C   UNL A   1      37.605  31.416  32.813  1.00  0.00     0.135 A 
ATOM     79  F   UNL A   1      39.232  34.602  33.465  1.00  0.00    -0.206 F 
ATOM     80  C   UNL A   1      37.220  34.156  32.362  1.00  0.00     0.059 A 
ATOM     81  C   UNL A   1      36.457  31.872  32.146  1.00  0.00     0.059 A 
ATOM     82  F   UNL A   1      37.794  30.092  32.918  1.00  0.00    -0.206 F 
ATOM     83  C   UNL A   1      36.308  33.232  31.866  1.00  0.00     0.060 A 
BRANCH  83  84
ATOM     84  S   UNL A   1      34.959  33.836  30.825  1.00  0.00     0.124 S 
ATOM     85  O   UNL A   1      34.221  32.604  30.563  1.00  0.00    -0.237 OA
ATOM     86  O   UNL A   1      34.288  34.802  31.699  1.00  0.00    -0.237 OA
ATOM     87  O   UNL A   1      35.657  34.404  29.681  1.00  0.00    -0.744 OA
ENDBRANCH  83  84
ENDBRANCH  51  76
BRANCH  63  88
ATOM     88  C   UNL A   1      43.689  26.986  34.112  1.00  0.00     0.058 A 
ATOM     89  C   UNL A   1      45.077  26.909  34.250  1.00  0.00     0.135 A 
ATOM     90  C   UNL A   1      42.959  26.003  34.831  1.00  0.00     0.135 A 
ATOM     91  F   UNL A   1      45.893  27.586  33.428  1.00  0.00    -0.206 F 
ATOM     92  C   UNL A   1      45.676  26.104  35.209  1.00  0.00     0.059 A 
ATOM     93  C   UNL A   1      43.542  25.127  35.726  1.00  0.00     0.059 A 
ATOM     94  F   UNL A   1      41.639  25.824  34.722  1.00  0.00    -0.206 F 
ATOM     95  C   UNL A   1      44.895  25.227  35.954  1.00  0.00     0.060 A 
BRANCH  95  96
ATOM     96  S   UNL A   1      45.678  24.153  37.151  1.00  0.00     0.124 S 
ATOM     97  O   UNL A   1      47.028  24.703  37.205  1.00  0.00    -0.237 OA
ATOM     98  O   UNL A   1      44.850  24.377  38.331  1.00  0.00    -0.237 OA
ATOM     99  O   UNL A   1      45.568  22.827  36.549  1.00  0.00    -0.744 OA
ENDBRANCH  95  96
ENDBRANCH  63  88
ENDBRANCH  37  38
ENDBRANCH  29  32
ENDBRANCH  27  28
ENDBRANCH   1  27
TORSDOF 16
ENDMDL
MODEL 2
REMARK VINA RESULT:     -14.5      3.703     10.016
REMARK SMILES COc1ccc(NC(=O)N[C@@H]2C=C[C@H](C(=O)NCCCNC(=O)c3ccc(-c4c5nc(c(-c6c(F)cc(S(=O)(=O)[O-])cc6F)c6ccc([nH]6)c(-c6c(F)cc(S(=O)(=O)[O-])cc6F)c6nc(c(-c7c(F)cc(S(=O)(=O)[O-])cc7F)c7ccc4[nH]7)C=C6)C=C5)cc3)C2)c(C)c1
REMARK SMILES IDX 19 1 18 2 17 3 15 4 16 5 14 7 11 8 12 9 90 10 13 11 10 12
REMARK SMILES IDX 7 13 8 14 9 16 6 18 3 19 4 20 93 21 5 22 91 23 92 24 2 25
REMARK SMILES IDX 1 26 20 27 21 28 22 29 23 31 24 32 25 33 89 34 26 35 88 36
REMARK SMILES IDX 27 37 28 38 29 39 82 40 30 41 87 42 81 43 83 44 31 45 86 46
REMARK SMILES IDX 80 47 79 48 32 50 66 51 45 52 65 53 46 54 49 55 64 56 84 57
REMARK SMILES IDX 47 58 48 59 63 61 85 62 50 63 33 64 34 65 43 66 35 67 36 68
REMARK SMILES IDX 42 69 44 70 37 71 38 72 39 73 40 74 41 75 67 76 68 77 77 78
REMARK SMILES IDX 69 79 70 80 76 81 78 82 71 83 72 84 73 85 74 86 75 87 51 88
REMARK SMILES IDX 52 89 61 90 53 91 54 92 60 93 62 94 55 95 56 96 57 97 58 98
REMARK SMILES IDX 59 99
REMARK H PARENT 17 6 7 15 10 17 21 30 83 49 49 60
REMARK Flexibility Score: inf
ROOT
ATOM      1  C   UNL A   1      37.756  21.605  24.906  1.00  0.00     0.042 C 
ENDROOT
BRANCH   1   2
ATOM      2  C   UNL A   1      36.654  20.835  25.680  1.00  0.00     0.117 C 
BRANCH   2   3
ATOM      3  N   UNL A   1      35.263  20.092  25.024  1.00  0.00    -0.356 N 
ATOM      4  C   UNL A   1      33.762  20.431  24.741  1.00  0.00     0.227 C 
ATOM      5  O   UNL A   1      33.204  19.665  23.937  1.00  0.00    -0.274 OA
ATOM      6  H   UNL A   1      35.468  19.173  24.739  1.00  0.00     0.163 HD
BRANCH   4   7
ATOM      7  C   UNL A   1      32.675  21.799  25.560  1.00  0.00     0.103 C 
ATOM      8  C   UNL A   1      32.227  24.662  23.956  1.00  0.00     0.107 C 
ATOM      9  C   UNL A   1      33.725  24.669  25.233  1.00  0.00    -0.006 C 
ATOM     10  C   UNL A   1      31.176  22.977  24.340  1.00  0.00     0.047 C 
ATOM     11  C   UNL A   1      34.011  23.274  26.006  1.00  0.00    -0.016 C 
BRANCH   8  12
ATOM     12  N   UNL A   1      32.908  24.440  22.454  1.00  0.00    -0.332 N 
ATOM     13  N   UNL A   1      32.689  26.636  21.357  1.00  0.00    -0.308 N 
ATOM     14  C   UNL A   1      32.971  25.256  21.284  1.00  0.00     0.319 C 
ATOM     15  H   UNL A   1      32.863  27.193  20.564  1.00  0.00     0.171 HD
ATOM     16  O   UNL A   1      33.222  24.741  20.193  1.00  0.00    -0.248 OA
ATOM     17  H   UNL A   1      33.359  23.571  22.351  1.00  0.00     0.165 HD
BRANCH  13  18
ATOM     18  C   UNL A   1      32.171  27.258  22.507  1.00  0.00     0.046 A 
ATOM     19  C   UNL A   1      31.997  29.743  25.108  1.00  0.00     0.119 A 
ATOM     20  C   UNL A   1      33.448  29.174  24.522  1.00  0.00     0.048 A 
ATOM     21  C   UNL A   1      30.694  29.108  24.539  1.00  0.00     0.052 A 
ATOM     22  C   UNL A   1      33.491  27.691  23.153  1.00  0.00     0.030 A 
ATOM     23  C   UNL A   1      30.693  27.867  23.374  1.00  0.00    -0.024 A 
ATOM     24  C   UNL A   1      29.490  26.952  24.173  1.00  0.00     0.047 C 
BRANCH  19  25
ATOM     25  O   UNL A   1      31.957  30.699  26.064  1.00  0.00    -0.497 OA
ATOM     26  C   UNL A   1      33.033  30.481  26.975  1.00  0.00     0.278 C 
ENDBRANCH  19  25
ENDBRANCH  13  18
ENDBRANCH   8  12
ENDBRANCH   4   7
ENDBRANCH   2   3
ENDBRANCH   1   2
BRANCH   1  27
ATOM     27  C   UNL A   1      37.925  22.899  25.579  1.00  0.00     0.118 C 
BRANCH  27  28
ATOM     28  N   UNL A   1      38.875  22.782  26.652  1.00  0.00    -0.352 N 
ATOM     29  C   UNL A   1      40.003  23.571  26.701  1.00  0.00     0.251 C 
ATOM     30  H   UNL A   1      38.716  22.124  27.367  1.00  0.00     0.163 HD
ATOM     31  O   UNL A   1      41.142  23.136  26.720  1.00  0.00    -0.269 OA
BRANCH  29  32
ATOM     32  C   UNL A   1      39.690  25.016  26.848  1.00  0.00     0.039 A 
ATOM     33  C   UNL A   1      40.549  25.866  26.147  1.00  0.00     0.014 A 
ATOM     34  C   UNL A   1      39.191  25.388  28.088  1.00  0.00     0.014 A 
ATOM     35  C   UNL A   1      41.110  26.937  26.821  1.00  0.00     0.010 A 
ATOM     36  C   UNL A   1      40.007  26.172  28.849  1.00  0.00     0.010 A 
ATOM     37  C   UNL A   1      40.954  26.964  28.202  1.00  0.00    -0.014 A 
BRANCH  37  38
ATOM     38  C   UNL A   1      41.306  28.060  29.072  1.00  0.00     0.031 A 
ATOM     39  C   UNL A   1      40.285  29.143  28.885  1.00  0.00     0.074 A 
ATOM     40  C   UNL A   1      42.199  27.730  30.049  1.00  0.00     0.049 A 
ATOM     41  N   UNL A   1      40.379  30.345  29.290  1.00  0.00    -0.248 NA
ATOM     42  C   UNL A   1      39.005  28.980  28.136  1.00  0.00     0.031 C 
ATOM     43  C   UNL A   1      42.568  28.321  31.337  1.00  0.00     0.029 A 
ATOM     44  N   UNL A   1      43.224  26.774  29.886  1.00  0.00    -0.354 N 
ATOM     45  C   UNL A   1      39.081  30.832  29.390  1.00  0.00     0.074 A 
ATOM     46  C   UNL A   1      38.312  30.076  28.457  1.00  0.00     0.031 C 
ATOM     47  C   UNL A   1      43.883  28.095  31.567  1.00  0.00     0.029 A 
ATOM     48  C   UNL A   1      44.395  27.373  30.414  1.00  0.00     0.049 A 
ATOM     49  H   UNL A   1      43.142  25.877  29.488  1.00  0.00     0.167 HD
ATOM     50  C   UNL A   1      38.814  31.665  30.433  1.00  0.00     0.037 A 
ATOM     51  C   UNL A   1      45.306  27.848  29.510  1.00  0.00     0.037 A 
ATOM     52  C   UNL A   1      40.064  31.809  31.193  1.00  0.00     0.049 A 
ATOM     53  C   UNL A   1      45.169  29.364  29.388  1.00  0.00     0.074 A 
ATOM     54  C   UNL A   1      40.581  31.212  32.326  1.00  0.00     0.029 A 
ATOM     55  N   UNL A   1      41.151  32.306  30.505  1.00  0.00    -0.354 N 
ATOM     56  N   UNL A   1      44.111  30.039  29.770  1.00  0.00    -0.248 NA
ATOM     57  C   UNL A   1      46.226  30.242  28.898  1.00  0.00     0.031 C 
ATOM     58  C   UNL A   1      42.016  31.325  32.251  1.00  0.00     0.029 A 
ATOM     59  C   UNL A   1      42.357  31.941  31.056  1.00  0.00     0.049 A 
ATOM     60  H   UNL A   1      41.072  32.868  29.700  1.00  0.00     0.167 HD
ATOM     61  C   UNL A   1      44.362  31.382  29.738  1.00  0.00     0.074 A 
ATOM     62  C   UNL A   1      45.649  31.449  29.044  1.00  0.00     0.031 C 
ATOM     63  C   UNL A   1      43.559  32.337  30.324  1.00  0.00     0.037 A 
BRANCH  50  64
ATOM     64  C   UNL A   1      37.495  32.217  30.930  1.00  0.00     0.058 A 
ATOM     65  C   UNL A   1      37.440  33.595  31.245  1.00  0.00     0.135 A 
ATOM     66  C   UNL A   1      36.282  31.522  31.141  1.00  0.00     0.135 A 
ATOM     67  F   UNL A   1      38.499  34.394  31.058  1.00  0.00    -0.206 F 
ATOM     68  C   UNL A   1      36.308  34.225  31.755  1.00  0.00     0.059 A 
ATOM     69  C   UNL A   1      35.119  32.143  31.640  1.00  0.00     0.059 A 
ATOM     70  F   UNL A   1      36.162  30.213  30.886  1.00  0.00    -0.206 F 
ATOM     71  C   UNL A   1      35.147  33.496  31.953  1.00  0.00     0.060 A 
BRANCH  71  72
ATOM     72  S   UNL A   1      33.707  34.368  32.603  1.00  0.00     0.124 S 
ATOM     73  O   UNL A   1      34.324  35.372  33.464  1.00  0.00    -0.237 OA
ATOM     74  O   UNL A   1      33.081  34.877  31.387  1.00  0.00    -0.237 OA
ATOM     75  O   UNL A   1      32.959  33.325  33.299  1.00  0.00    -0.744 OA
ENDBRANCH  71  72
ENDBRANCH  50  64
BRANCH  51  76
ATOM     76  C   UNL A   1      45.470  26.813  28.424  1.00  0.00     0.058 A 
ATOM     77  C   UNL A   1      44.985  27.174  27.136  1.00  0.00     0.135 A 
ATOM     78  C   UNL A   1      46.507  25.874  28.459  1.00  0.00     0.135 A 
ATOM     79  F   UNL A   1      43.972  28.051  27.025  1.00  0.00    -0.206 F 
ATOM     80  C   UNL A   1      45.642  26.809  25.962  1.00  0.00     0.059 A 
ATOM     81  C   UNL A   1      47.143  25.450  27.283  1.00  0.00     0.059 A 
ATOM     82  F   UNL A   1      47.017  25.480  29.635  1.00  0.00    -0.206 F 
ATOM     83  C   UNL A   1      46.749  25.974  26.049  1.00  0.00     0.060 A 
BRANCH  83  84
ATOM     84  S   UNL A   1      47.678  25.623  24.538  1.00  0.00     0.124 S 
ATOM     85  O   UNL A   1      47.101  24.346  24.133  1.00  0.00    -0.237 OA
ATOM     86  O   UNL A   1      47.345  26.768  23.685  1.00  0.00    -0.237 OA
ATOM     87  O   UNL A   1      49.056  25.570  25.006  1.00  0.00    -0.744 OA
ENDBRANCH  83  84
ENDBRANCH  51  76
BRANCH  63  88
ATOM     88  C   UNL A   1      43.828  33.819  30.183  1.00  0.00     0.058 A 
ATOM     89  C   UNL A   1      43.668  34.491  28.969  1.00  0.00     0.135 A 
ATOM     90  C   UNL A   1      44.283  34.627  31.259  1.00  0.00     0.135 A 
ATOM     91  F   UNL A   1      43.512  33.817  27.820  1.00  0.00    -0.206 F 
ATOM     92  C   UNL A   1      43.704  35.877  28.885  1.00  0.00     0.059 A 
ATOM     93  C   UNL A   1      44.415  35.999  31.178  1.00  0.00     0.059 A 
ATOM     94  F   UNL A   1      44.626  34.147  32.459  1.00  0.00    -0.206 F 
ATOM     95  C   UNL A   1      44.064  36.623  30.003  1.00  0.00     0.060 A 
BRANCH  95  96
ATOM     96  S   UNL A   1      44.161  38.404  29.876  1.00  0.00     0.124 S 
ATOM     97  O   UNL A   1      42.985  38.709  29.069  1.00  0.00    -0.237 OA
ATOM     98  O   UNL A   1      44.093  38.801  31.278  1.00  0.00    -0.237 OA
ATOM     99  O   UNL A   1      45.445  38.634  29.219  1.00  0.00    -0.744 OA
ENDBRANCH  95  96
ENDBRANCH  63  88
ENDBRANCH  37  38
ENDBRANCH  29  32
ENDBRANCH  27  28
ENDBRANCH   1  27
TORSDOF 16
ENDMDL
MODEL 3
REMARK VINA RESULT:     -14.4      3.578      9.990
REMARK SMILES COc1ccc(NC(=O)N[C@@H]2C=C[C@H](C(=O)NCCCNC(=O)c3ccc(-c4c5nc(c(-c6c(F)cc(S(=O)(=O)[O-])cc6F)c6ccc([nH]6)c(-c6c(F)cc(S(=O)(=O)[O-])cc6F)c6nc(c(-c7c(F)cc(S(=O)(=O)[O-])cc7F)c7ccc4[nH]7)C=C6)C=C5)cc3)C2)c(C)c1
REMARK SMILES IDX 19 1 18 2 17 3 15 4 16 5 14 7 11 8 12 9 90 10 13 11 10 12
REMARK SMILES IDX 7 13 8 14 9 16 6 18 3 19 4 20 93 21 5 22 91 23 92 24 2 25
REMARK SMILES IDX 1 26 20 27 21 28 22 29 23 31 24 32 25 33 89 34 26 35 88 36
REMARK SMILES IDX 27 37 28 38 29 39 82 40 30 41 87 42 81 43 83 44 31 45 86 46
REMARK SMILES IDX 80 47 79 48 32 50 66 51 45 52 65 53 46 54 49 55 64 56 84 57
REMARK SMILES IDX 47 58 48 59 63 61 85 62 50 63 33 64 34 65 43 66 35 67 36 68
REMARK SMILES IDX 42 69 44 70 37 71 38 72 39 73 40 74 41 75 67 76 68 77 77 78
REMARK SMILES IDX 69 79 70 80 76 81 78 82 71 83 72 84 73 85 74 86 75 87 51 88
REMARK SMILES IDX 52 89 61 90 53 91 54 92 60 93 62 94 55 95 56 96 57 97 58 98
REMARK SMILES IDX 59 99
REMARK H PARENT 17 6 7 15 10 17 21 30 83 49 49 60
REMARK Flexibility Score: inf
ROOT
ATOM      1  C   UNL A   1      36.384  22.039  24.463  1.00  0.00     0.042 C 
ENDROOT
BRANCH   1   2
ATOM      2  C   UNL A   1      36.072  20.672  25.129  1.00  0.00     0.117 C 
BRANCH   2   3
ATOM      3  N   UNL A   1      34.574  19.853  25.148  1.00  0.00    -0.356 N 
ATOM      4  C   UNL A   1      33.049  20.179  25.273  1.00  0.00     0.227 C 
ATOM      5  O   UNL A   1      32.295  19.263  24.902  1.00  0.00    -0.274 OA
ATOM      6  H   UNL A   1      34.712  18.884  25.051  1.00  0.00     0.163 HD
BRANCH   4   7
ATOM      7  C   UNL A   1      32.226  21.755  26.023  1.00  0.00     0.103 C 
ATOM      8  C   UNL A   1      32.407  24.607  24.349  1.00  0.00     0.107 C 
ATOM      9  C   UNL A   1      33.832  24.354  25.683  1.00  0.00    -0.006 C 
ATOM     10  C   UNL A   1      31.032  23.173  24.723  1.00  0.00     0.047 C 
ATOM     11  C   UNL A   1      33.810  22.950  26.493  1.00  0.00    -0.016 C 
BRANCH   8  12
ATOM     12  N   UNL A   1      33.083  24.216  22.879  1.00  0.00    -0.332 N 
ATOM     13  N   UNL A   1      32.507  26.117  21.420  1.00  0.00    -0.308 N 
ATOM     14  C   UNL A   1      32.996  24.804  21.580  1.00  0.00     0.319 C 
ATOM     15  H   UNL A   1      32.577  26.538  20.533  1.00  0.00     0.171 HD
ATOM     16  O   UNL A   1      33.300  24.140  20.588  1.00  0.00    -0.248 OA
ATOM     17  H   UNL A   1      33.660  23.419  22.910  1.00  0.00     0.165 HD
BRANCH  13  18
ATOM     18  C   UNL A   1      31.923  26.856  22.464  1.00  0.00     0.046 A 
ATOM     19  C   UNL A   1      31.513  29.671  24.673  1.00  0.00     0.119 A 
ATOM     20  C   UNL A   1      33.014  29.142  24.182  1.00  0.00     0.048 A 
ATOM     21  C   UNL A   1      30.274  28.858  24.198  1.00  0.00     0.052 A 
ATOM     22  C   UNL A   1      33.195  27.483  23.046  1.00  0.00     0.030 A 
ATOM     23  C   UNL A   1      30.389  27.464  23.227  1.00  0.00    -0.024 A 
ATOM     24  C   UNL A   1      29.249  26.582  24.147  1.00  0.00     0.047 C 
BRANCH  19  25
ATOM     25  O   UNL A   1      31.383  30.750  25.478  1.00  0.00    -0.497 OA
ATOM     26  C   UNL A   1      32.046  30.483  26.713  1.00  0.00     0.278 C 
ENDBRANCH  19  25
ENDBRANCH  13  18
ENDBRANCH   8  12
ENDBRANCH   4   7
ENDBRANCH   2   3
ENDBRANCH   1   2
BRANCH   1  27
ATOM     27  C   UNL A   1      37.789  22.347  24.758  1.00  0.00     0.118 C 
BRANCH  27  28
ATOM     28  N   UNL A   1      38.064  22.121  26.151  1.00  0.00    -0.352 N 
ATOM     29  C   UNL A   1      39.144  22.709  26.773  1.00  0.00     0.251 C 
ATOM     30  H   UNL A   1      37.470  21.536  26.672  1.00  0.00     0.163 HD
ATOM     31  O   UNL A   1      40.038  22.089  27.324  1.00  0.00    -0.269 OA
BRANCH  29  32
ATOM     32  C   UNL A   1      39.052  24.192  26.809  1.00  0.00     0.039 A 
ATOM     33  C   UNL A   1      39.907  24.845  25.918  1.00  0.00     0.014 A 
ATOM     34  C   UNL A   1      38.790  24.736  28.057  1.00  0.00     0.014 A 
ATOM     35  C   UNL A   1      40.698  25.874  26.398  1.00  0.00     0.010 A 
ATOM     36  C   UNL A   1      39.805  25.453  28.621  1.00  0.00     0.010 A 
ATOM     37  C   UNL A   1      40.747  26.040  27.777  1.00  0.00    -0.014 A 
BRANCH  37  38
ATOM     38  C   UNL A   1      41.364  27.141  28.476  1.00  0.00     0.031 A 
ATOM     39  C   UNL A   1      40.402  28.293  28.461  1.00  0.00     0.074 A 
ATOM     40  C   UNL A   1      42.434  26.785  29.243  1.00  0.00     0.049 A 
ATOM     41  N   UNL A   1      40.669  29.500  28.759  1.00  0.00    -0.248 NA
ATOM     42  C   UNL A   1      38.976  28.200  28.034  1.00  0.00     0.031 C 
ATOM     43  C   UNL A   1      43.130  27.400  30.374  1.00  0.00     0.029 A 
ATOM     44  N   UNL A   1      43.326  25.744  28.910  1.00  0.00    -0.354 N 
ATOM     45  C   UNL A   1      39.465  30.093  29.122  1.00  0.00     0.074 A 
ATOM     46  C   UNL A   1      38.452  29.360  28.436  1.00  0.00     0.031 C 
ATOM     47  C   UNL A   1      44.444  27.081  30.312  1.00  0.00     0.029 A 
ATOM     48  C   UNL A   1      44.626  26.271  29.120  1.00  0.00     0.049 A 
ATOM     49  H   UNL A   1      43.094  24.840  28.596  1.00  0.00     0.167 HD
ATOM     50  C   UNL A   1      39.503  30.990  30.146  1.00  0.00     0.037 A 
ATOM     51  C   UNL A   1      45.333  26.631  28.005  1.00  0.00     0.037 A 
ATOM     52  C   UNL A   1      40.901  31.067  30.591  1.00  0.00     0.049 A 
ATOM     53  C   UNL A   1      45.274  28.146  27.824  1.00  0.00     0.074 A 
ATOM     54  C   UNL A   1      41.626  30.481  31.610  1.00  0.00     0.029 A 
ATOM     55  N   UNL A   1      41.831  31.446  29.644  1.00  0.00    -0.354 N 
ATOM     56  N   UNL A   1      44.381  28.920  28.396  1.00  0.00    -0.248 NA
ATOM     57  C   UNL A   1      46.245  28.915  27.055  1.00  0.00     0.031 C 
ATOM     58  C   UNL A   1      43.009  30.476  31.204  1.00  0.00     0.029 A 
ATOM     59  C   UNL A   1      43.105  31.010  29.928  1.00  0.00     0.049 A 
ATOM     60  H   UNL A   1      41.605  31.975  28.846  1.00  0.00     0.167 HD
ATOM     61  C   UNL A   1      44.708  30.236  28.225  1.00  0.00     0.074 A 
ATOM     62  C   UNL A   1      45.800  30.169  27.254  1.00  0.00     0.031 C 
ATOM     63  C   UNL A   1      44.128  31.276  28.919  1.00  0.00     0.037 A 
BRANCH  50  64
ATOM     64  C   UNL A   1      38.374  31.666  30.895  1.00  0.00     0.058 A 
ATOM     65  C   UNL A   1      37.670  32.694  30.226  1.00  0.00     0.135 A 
ATOM     66  C   UNL A   1      37.926  31.415  32.211  1.00  0.00     0.135 A 
ATOM     67  F   UNL A   1      37.954  33.020  28.957  1.00  0.00    -0.206 F 
ATOM     68  C   UNL A   1      36.643  33.432  30.809  1.00  0.00     0.059 A 
ATOM     69  C   UNL A   1      36.878  32.136  32.816  1.00  0.00     0.059 A 
ATOM     70  F   UNL A   1      38.481  30.469  32.979  1.00  0.00    -0.206 F 
ATOM     71  C   UNL A   1      36.248  33.152  32.107  1.00  0.00     0.060 A 
BRANCH  71  72
ATOM     72  S   UNL A   1      34.904  34.130  32.807  1.00  0.00     0.124 S 
ATOM     73  O   UNL A   1      34.482  33.304  33.933  1.00  0.00    -0.237 OA
ATOM     74  O   UNL A   1      35.580  35.376  33.155  1.00  0.00    -0.237 OA
ATOM     75  O   UNL A   1      33.944  34.229  31.711  1.00  0.00    -0.744 OA
ENDBRANCH  71  72
ENDBRANCH  50  64
BRANCH  51  76
ATOM     76  C   UNL A   1      45.171  25.540  26.975  1.00  0.00     0.058 A 
ATOM     77  C   UNL A   1      45.783  24.292  27.281  1.00  0.00     0.135 A 
ATOM     78  C   UNL A   1      44.061  25.498  26.124  1.00  0.00     0.135 A 
ATOM     79  F   UNL A   1      46.870  24.258  28.072  1.00  0.00    -0.206 F 
ATOM     80  C   UNL A   1      45.192  23.072  26.958  1.00  0.00     0.059 A 
ATOM     81  C   UNL A   1      43.486  24.277  25.740  1.00  0.00     0.059 A 
ATOM     82  F   UNL A   1      43.430  26.631  25.785  1.00  0.00    -0.206 F 
ATOM     83  C   UNL A   1      44.017  23.076  26.217  1.00  0.00     0.060 A 
BRANCH  83  84
ATOM     84  S   UNL A   1      43.183  21.498  25.926  1.00  0.00     0.124 S 
ATOM     85  O   UNL A   1      44.228  20.738  25.248  1.00  0.00    -0.237 OA
ATOM     86  O   UNL A   1      42.858  21.054  27.285  1.00  0.00    -0.237 OA
ATOM     87  O   UNL A   1      42.045  21.876  25.101  1.00  0.00    -0.744 OA
ENDBRANCH  83  84
ENDBRANCH  51  76
BRANCH  63  88
ATOM     88  C   UNL A   1      44.456  32.725  28.630  1.00  0.00     0.058 A 
ATOM     89  C   UNL A   1      44.179  33.318  27.396  1.00  0.00     0.135 A 
ATOM     90  C   UNL A   1      45.088  33.577  29.576  1.00  0.00     0.135 A 
ATOM     91  F   UNL A   1      43.842  32.575  26.331  1.00  0.00    -0.206 F 
ATOM     92  C   UNL A   1      44.279  34.689  27.200  1.00  0.00     0.059 A 
ATOM     93  C   UNL A   1      45.282  34.929  29.371  1.00  0.00     0.059 A 
ATOM     94  F   UNL A   1      45.554  33.163  30.758  1.00  0.00    -0.206 F 
ATOM     95  C   UNL A   1      44.818  35.488  28.203  1.00  0.00     0.060 A 
BRANCH  95  96
ATOM     96  S   UNL A   1      44.994  37.246  27.926  1.00  0.00     0.124 S 
ATOM     97  O   UNL A   1      46.227  37.302  27.147  1.00  0.00    -0.237 OA
ATOM     98  O   UNL A   1      43.766  37.552  27.199  1.00  0.00    -0.237 OA
ATOM     99  O   UNL A   1      45.081  37.801  29.273  1.00  0.00    -0.744 OA
ENDBRANCH  95  96
ENDBRANCH  63  88
ENDBRANCH  37  38
ENDBRANCH  29  32
ENDBRANCH  27  28
ENDBRANCH   1  27
TORSDOF 16
ENDMDL
