MODEL 1
REMARK VINA RESULT:     -11.8      0.000      0.000
REMARK SMILES Nc1cc(C(=O)NCCCNC(=O)c2ccc(-c3c4nc(c(-c5c(F)cc(S(=O)(=O)[O-])cc5F)c5ccc([nH]5)c(-c5c(F)cc(S(=O)(=O)[O-])cc5F)c5nc(c(-c6c(F)cc(S(=O)(=O)[O-])cc6F)c6ccc3[nH]6)C=C5)C=C4)cc2)nc2ccccc12
REMARK SMILES IDX 10 1 9 2 8 3 7 4 5 5 6 6 4 8 2 9 3 10 86 11 81 12 85 13
REMARK SMILES IDX 80 14 82 15 84 16 83 17 1 18 11 21 12 22 13 24 14 25 15 26
REMARK SMILES IDX 79 27 16 28 78 29 17 30 18 31 19 32 72 33 20 34 77 35 71 36
REMARK SMILES IDX 73 37 21 38 76 39 70 40 69 41 22 43 56 44 35 45 55 46 36 47
REMARK SMILES IDX 39 48 54 49 74 50 37 51 38 52 53 54 75 55 40 56 23 57 24 58
REMARK SMILES IDX 33 59 25 60 26 61 32 62 34 63 27 64 28 65 29 66 30 67 31 68
REMARK SMILES IDX 57 69 58 70 67 71 59 72 60 73 66 74 68 75 61 76 62 77 63 78
REMARK SMILES IDX 64 79 65 80 41 81 42 82 51 83 43 84 44 85 50 86 52 87 45 88
REMARK SMILES IDX 46 89 47 90 48 91 49 92
REMARK H PARENT 7 7 1 19 1 20 11 23 73 42 39 53
REMARK Flexibility Score: inf
ROOT
ATOM      1  C   UNL A   1      33.338  28.690  27.249  1.00  0.00     0.118 C 
ENDROOT
BRANCH   1   2
ATOM      2  C   UNL A   1      31.973  28.052  27.503  1.00  0.00     0.042 C 
BRANCH   2   3
ATOM      3  C   UNL A   1      31.484  27.187  26.343  1.00  0.00     0.118 C 
BRANCH   3   4
ATOM      4  N   UNL A   1      30.963  25.916  26.812  1.00  0.00    -0.351 N 
ATOM      5  C   UNL A   1      31.265  24.602  26.530  1.00  0.00     0.269 C 
ATOM      6  O   UNL A   1      30.633  23.766  27.182  1.00  0.00    -0.268 OA
ATOM      7  H   UNL A   1      30.242  26.015  27.475  1.00  0.00     0.163 HD
BRANCH   5   8
ATOM      8  C   UNL A   1      32.296  24.146  25.526  1.00  0.00     0.130 A 
ATOM      9  C   UNL A   1      33.051  23.268  23.418  1.00  0.00     0.043 A 
ATOM     10  C   UNL A   1      32.011  23.673  24.258  1.00  0.00     0.060 A 
ATOM     11  C   UNL A   1      34.385  23.362  23.881  1.00  0.00     0.023 A 
ATOM     12  C   UNL A   1      34.576  23.814  25.203  1.00  0.00     0.073 A 
ATOM     13  C   UNL A   1      35.522  23.014  23.112  1.00  0.00     0.012 A 
ATOM     14  N   UNL A   1      33.569  24.203  25.994  1.00  0.00    -0.242 NA
ATOM     15  C   UNL A   1      35.864  23.862  25.719  1.00  0.00     0.029 A 
ATOM     16  C   UNL A   1      36.808  23.077  23.652  1.00  0.00     0.001 A 
ATOM     17  C   UNL A   1      36.978  23.495  24.963  1.00  0.00     0.002 A 
BRANCH   9  18
ATOM     18  N   UNL A   1      32.735  22.901  22.107  1.00  0.00    -0.398 N 
ATOM     19  H   UNL A   1      32.670  21.950  21.864  1.00  0.00     0.156 HD
ATOM     20  H   UNL A   1      32.577  23.595  21.427  1.00  0.00     0.156 HD
ENDBRANCH   9  18
ENDBRANCH   5   8
ENDBRANCH   3   4
ENDBRANCH   2   3
ENDBRANCH   1   2
BRANCH   1  21
ATOM     21  N   UNL A   1      33.374  30.092  27.645  1.00  0.00    -0.352 N 
ATOM     22  C   UNL A   1      34.383  30.810  28.248  1.00  0.00     0.251 C 
ATOM     23  H   UNL A   1      32.555  30.603  27.453  1.00  0.00     0.163 HD
ATOM     24  O   UNL A   1      34.158  31.932  28.681  1.00  0.00    -0.269 OA
BRANCH  22  25
ATOM     25  C   UNL A   1      35.727  30.209  28.397  1.00  0.00     0.039 A 
ATOM     26  C   UNL A   1      36.118  29.622  29.603  1.00  0.00     0.014 A 
ATOM     27  C   UNL A   1      36.611  30.246  27.315  1.00  0.00     0.014 A 
ATOM     28  C   UNL A   1      37.440  29.223  29.780  1.00  0.00     0.010 A 
ATOM     29  C   UNL A   1      37.921  29.785  27.476  1.00  0.00     0.010 A 
ATOM     30  C   UNL A   1      38.361  29.321  28.725  1.00  0.00    -0.014 A 
BRANCH  30  31
ATOM     31  C   UNL A   1      39.793  28.997  28.957  1.00  0.00     0.031 A 
ATOM     32  C   UNL A   1      40.696  30.009  29.615  1.00  0.00     0.074 A 
ATOM     33  C   UNL A   1      40.272  27.781  28.627  1.00  0.00     0.049 A 
ATOM     34  N   UNL A   1      41.984  29.951  29.835  1.00  0.00    -0.248 NA
ATOM     35  C   UNL A   1      40.066  31.254  30.090  1.00  0.00     0.031 C 
ATOM     36  C   UNL A   1      39.492  26.700  28.024  1.00  0.00     0.029 A 
ATOM     37  N   UNL A   1      41.528  27.246  28.768  1.00  0.00    -0.354 N 
ATOM     38  C   UNL A   1      42.322  31.150  30.453  1.00  0.00     0.074 A 
ATOM     39  C   UNL A   1      41.108  31.930  30.554  1.00  0.00     0.031 C 
ATOM     40  C   UNL A   1      40.277  25.619  27.878  1.00  0.00     0.029 A 
ATOM     41  C   UNL A   1      41.627  25.951  28.319  1.00  0.00     0.049 A 
ATOM     42  H   UNL A   1      42.285  27.743  29.154  1.00  0.00     0.167 HD
ATOM     43  C   UNL A   1      43.532  31.558  30.906  1.00  0.00     0.037 A 
ATOM     44  C   UNL A   1      42.695  25.131  28.249  1.00  0.00     0.037 A 
ATOM     45  C   UNL A   1      44.734  30.768  30.830  1.00  0.00     0.049 A 
ATOM     46  C   UNL A   1      44.036  25.632  28.705  1.00  0.00     0.074 A 
ATOM     47  C   UNL A   1      46.011  31.099  31.250  1.00  0.00     0.029 A 
ATOM     48  N   UNL A   1      44.804  29.482  30.315  1.00  0.00    -0.354 N 
ATOM     49  N   UNL A   1      44.347  26.792  29.234  1.00  0.00    -0.248 NA
ATOM     50  C   UNL A   1      45.174  24.718  28.541  1.00  0.00     0.031 C 
ATOM     51  C   UNL A   1      46.859  30.023  30.966  1.00  0.00     0.029 A 
ATOM     52  C   UNL A   1      46.103  29.009  30.401  1.00  0.00     0.049 A 
ATOM     53  H   UNL A   1      44.043  28.980  29.945  1.00  0.00     0.167 HD
ATOM     54  C   UNL A   1      45.717  26.745  29.465  1.00  0.00     0.074 A 
ATOM     55  C   UNL A   1      46.168  25.433  29.048  1.00  0.00     0.031 C 
ATOM     56  C   UNL A   1      46.533  27.704  29.969  1.00  0.00     0.037 A 
BRANCH  43  57
ATOM     57  C   UNL A   1      43.626  32.923  31.528  1.00  0.00     0.058 A 
ATOM     58  C   UNL A   1      43.812  34.074  30.746  1.00  0.00     0.135 A 
ATOM     59  C   UNL A   1      43.459  33.091  32.912  1.00  0.00     0.135 A 
ATOM     60  F   UNL A   1      44.001  33.967  29.421  1.00  0.00    -0.206 F 
ATOM     61  C   UNL A   1      43.832  35.342  31.315  1.00  0.00     0.059 A 
ATOM     62  C   UNL A   1      43.457  34.353  33.500  1.00  0.00     0.059 A 
ATOM     63  F   UNL A   1      43.285  32.022  33.706  1.00  0.00    -0.206 F 
ATOM     64  C   UNL A   1      43.649  35.472  32.693  1.00  0.00     0.060 A 
BRANCH  64  65
ATOM     65  S   UNL A   1      43.652  37.131  33.408  1.00  0.00     0.124 S 
ATOM     66  O   UNL A   1      42.415  37.113  34.186  1.00  0.00    -0.237 OA
ATOM     67  O   UNL A   1      44.887  37.133  34.184  1.00  0.00    -0.237 OA
ATOM     68  O   UNL A   1      43.644  38.006  32.240  1.00  0.00    -0.744 OA
ENDBRANCH  64  65
ENDBRANCH  43  57
BRANCH  44  69
ATOM     69  C   UNL A   1      42.547  23.760  27.694  1.00  0.00     0.058 A 
ATOM     70  C   UNL A   1      42.392  22.652  28.540  1.00  0.00     0.135 A 
ATOM     71  C   UNL A   1      42.576  23.529  26.310  1.00  0.00     0.135 A 
ATOM     72  F   UNL A   1      42.371  22.822  29.871  1.00  0.00    -0.206 F 
ATOM     73  C   UNL A   1      42.287  21.360  28.036  1.00  0.00     0.059 A 
ATOM     74  C   UNL A   1      42.446  22.249  25.780  1.00  0.00     0.059 A 
ATOM     75  F   UNL A   1      42.712  24.558  25.459  1.00  0.00    -0.206 F 
ATOM     76  C   UNL A   1      42.316  21.170  26.653  1.00  0.00     0.060 A 
BRANCH  76  77
ATOM     77  S   UNL A   1      42.146  19.493  26.004  1.00  0.00     0.124 S 
ATOM     78  O   UNL A   1      42.653  18.697  27.116  1.00  0.00    -0.237 OA
ATOM     79  O   UNL A   1      40.711  19.403  25.755  1.00  0.00    -0.237 OA
ATOM     80  O   UNL A   1      42.982  19.513  24.806  1.00  0.00    -0.744 OA
ENDBRANCH  76  77
ENDBRANCH  44  69
BRANCH  56  81
ATOM     81  C   UNL A   1      47.988  27.360  30.096  1.00  0.00     0.058 A 
ATOM     82  C   UNL A   1      48.498  26.769  31.261  1.00  0.00     0.135 A 
ATOM     83  C   UNL A   1      48.879  27.614  29.041  1.00  0.00     0.135 A 
ATOM     84  F   UNL A   1      47.688  26.511  32.299  1.00  0.00    -0.206 F 
ATOM     85  C   UNL A   1      49.850  26.471  31.391  1.00  0.00     0.059 A 
ATOM     86  C   UNL A   1      50.231  27.304  29.140  1.00  0.00     0.059 A 
ATOM     87  F   UNL A   1      48.437  28.169  27.901  1.00  0.00    -0.206 F 
ATOM     88  C   UNL A   1      50.711  26.750  30.327  1.00  0.00     0.060 A 
BRANCH  88  89
ATOM     89  S   UNL A   1      52.464  26.361  30.507  1.00  0.00     0.124 S 
ATOM     90  O   UNL A   1      52.418  25.203  31.393  1.00  0.00    -0.237 OA
ATOM     91  O   UNL A   1      52.870  26.090  29.131  1.00  0.00    -0.237 OA
ATOM     92  O   UNL A   1      53.022  27.577  31.089  1.00  0.00    -0.744 OA
ENDBRANCH  88  89
ENDBRANCH  56  81
ENDBRANCH  30  31
ENDBRANCH  22  25
ENDBRANCH   1  21
TORSDOF 14
ENDMDL
MODEL 2
REMARK VINA RESULT:     -11.8      1.961      3.335
REMARK SMILES Nc1cc(C(=O)NCCCNC(=O)c2ccc(-c3c4nc(c(-c5c(F)cc(S(=O)(=O)[O-])cc5F)c5ccc([nH]5)c(-c5c(F)cc(S(=O)(=O)[O-])cc5F)c5nc(c(-c6c(F)cc(S(=O)(=O)[O-])cc6F)c6ccc3[nH]6)C=C5)C=C4)cc2)nc2ccccc12
REMARK SMILES IDX 10 1 9 2 8 3 7 4 5 5 6 6 4 8 2 9 3 10 86 11 81 12 85 13
REMARK SMILES IDX 80 14 82 15 84 16 83 17 1 18 11 21 12 22 13 24 14 25 15 26
REMARK SMILES IDX 79 27 16 28 78 29 17 30 18 31 19 32 72 33 20 34 77 35 71 36
REMARK SMILES IDX 73 37 21 38 76 39 70 40 69 41 22 43 56 44 35 45 55 46 36 47
REMARK SMILES IDX 39 48 54 49 74 50 37 51 38 52 53 54 75 55 40 56 23 57 24 58
REMARK SMILES IDX 33 59 25 60 26 61 32 62 34 63 27 64 28 65 29 66 30 67 31 68
REMARK SMILES IDX 57 69 58 70 67 71 59 72 60 73 66 74 68 75 61 76 62 77 63 78
REMARK SMILES IDX 64 79 65 80 41 81 42 82 51 83 43 84 44 85 50 86 52 87 45 88
REMARK SMILES IDX 46 89 47 90 48 91 49 92
REMARK H PARENT 7 7 1 19 1 20 11 23 73 42 39 53
REMARK Flexibility Score: inf
ROOT
ATOM      1  C   UNL A   1      33.322  28.474  27.309  1.00  0.00     0.118 C 
ENDROOT
BRANCH   1   2
ATOM      2  C   UNL A   1      33.513  28.227  25.814  1.00  0.00     0.042 C 
BRANCH   2   3
ATOM      3  C   UNL A   1      33.648  26.748  25.458  1.00  0.00     0.118 C 
BRANCH   3   4
ATOM      4  N   UNL A   1      33.817  26.560  24.029  1.00  0.00    -0.351 N 
ATOM      5  C   UNL A   1      32.989  26.732  22.942  1.00  0.00     0.269 C 
ATOM      6  O   UNL A   1      33.511  26.521  21.844  1.00  0.00    -0.268 OA
ATOM      7  H   UNL A   1      34.717  26.244  23.784  1.00  0.00     0.163 HD
BRANCH   5   8
ATOM      8  C   UNL A   1      31.545  27.168  23.013  1.00  0.00     0.130 A 
ATOM      9  C   UNL A   1      29.207  26.902  23.507  1.00  0.00     0.043 A 
ATOM     10  C   UNL A   1      30.509  26.394  23.502  1.00  0.00     0.060 A 
ATOM     11  C   UNL A   1      28.977  28.210  23.021  1.00  0.00     0.023 A 
ATOM     12  C   UNL A   1      30.087  28.908  22.502  1.00  0.00     0.073 A 
ATOM     13  C   UNL A   1      27.710  28.845  23.006  1.00  0.00     0.012 A 
ATOM     14  N   UNL A   1      31.329  28.409  22.508  1.00  0.00    -0.242 NA
ATOM     15  C   UNL A   1      29.896  30.171  21.957  1.00  0.00     0.029 A 
ATOM     16  C   UNL A   1      27.545  30.118  22.458  1.00  0.00     0.001 A 
ATOM     17  C   UNL A   1      28.640  30.779  21.924  1.00  0.00     0.002 A 
BRANCH   9  18
ATOM     18  N   UNL A   1      28.204  26.137  24.110  1.00  0.00    -0.398 N 
ATOM     19  H   UNL A   1      27.405  26.577  24.480  1.00  0.00     0.156 HD
ATOM     20  H   UNL A   1      28.298  25.159  24.165  1.00  0.00     0.156 HD
ENDBRANCH   9  18
ENDBRANCH   5   8
ENDBRANCH   3   4
ENDBRANCH   2   3
ENDBRANCH   1   2
BRANCH   1  21
ATOM     21  N   UNL A   1      33.344  29.894  27.641  1.00  0.00    -0.352 N 
ATOM     22  C   UNL A   1      34.357  30.654  28.183  1.00  0.00     0.251 C 
ATOM     23  H   UNL A   1      32.512  30.382  27.450  1.00  0.00     0.163 HD
ATOM     24  O   UNL A   1      34.125  31.790  28.572  1.00  0.00    -0.269 OA
BRANCH  22  25
ATOM     25  C   UNL A   1      35.715  30.082  28.320  1.00  0.00     0.039 A 
ATOM     26  C   UNL A   1      36.143  29.540  29.534  1.00  0.00     0.014 A 
ATOM     27  C   UNL A   1      36.575  30.101  27.217  1.00  0.00     0.014 A 
ATOM     28  C   UNL A   1      37.477  29.171  29.694  1.00  0.00     0.010 A 
ATOM     29  C   UNL A   1      37.896  29.668  27.363  1.00  0.00     0.010 A 
ATOM     30  C   UNL A   1      38.372  29.252  28.616  1.00  0.00    -0.014 A 
BRANCH  30  31
ATOM     31  C   UNL A   1      39.815  28.960  28.824  1.00  0.00     0.031 A 
ATOM     32  C   UNL A   1      40.711  30.006  29.437  1.00  0.00     0.074 A 
ATOM     33  C   UNL A   1      40.310  27.746  28.516  1.00  0.00     0.049 A 
ATOM     34  N   UNL A   1      42.005  29.978  29.630  1.00  0.00    -0.248 NA
ATOM     35  C   UNL A   1      40.068  31.251  29.893  1.00  0.00     0.031 C 
ATOM     36  C   UNL A   1      39.538  26.634  27.958  1.00  0.00     0.029 A 
ATOM     37  N   UNL A   1      41.578  27.238  28.644  1.00  0.00    -0.354 N 
ATOM     38  C   UNL A   1      42.332  31.199  30.210  1.00  0.00     0.074 A 
ATOM     39  C   UNL A   1      41.106  31.958  30.317  1.00  0.00     0.031 C 
ATOM     40  C   UNL A   1      40.341  25.566  27.823  1.00  0.00     0.029 A 
ATOM     41  C   UNL A   1      41.693  25.933  28.227  1.00  0.00     0.049 A 
ATOM     42  H   UNL A   1      42.334  27.759  29.001  1.00  0.00     0.167 HD
ATOM     43  C   UNL A   1      43.544  31.641  30.627  1.00  0.00     0.037 A 
ATOM     44  C   UNL A   1      42.774  25.132  28.154  1.00  0.00     0.037 A 
ATOM     45  C   UNL A   1      44.758  30.872  30.546  1.00  0.00     0.049 A 
ATOM     46  C   UNL A   1      44.115  25.670  28.569  1.00  0.00     0.074 A 
ATOM     47  C   UNL A   1      46.038  31.237  30.929  1.00  0.00     0.029 A 
ATOM     48  N   UNL A   1      44.842  29.574  30.062  1.00  0.00    -0.354 N 
ATOM     49  N   UNL A   1      44.415  26.849  29.061  1.00  0.00    -0.248 NA
ATOM     50  C   UNL A   1      45.267  24.773  28.404  1.00  0.00     0.031 C 
ATOM     51  C   UNL A   1      46.900  30.170  30.655  1.00  0.00     0.029 A 
ATOM     52  C   UNL A   1      46.151  29.128  30.133  1.00  0.00     0.049 A 
ATOM     53  H   UNL A   1      44.084  29.049  29.721  1.00  0.00     0.167 HD
ATOM     54  C   UNL A   1      45.790  26.833  29.264  1.00  0.00     0.074 A 
ATOM     55  C   UNL A   1      46.257  25.520  28.871  1.00  0.00     0.031 C 
ATOM     56  C   UNL A   1      46.597  27.821  29.725  1.00  0.00     0.037 A 
BRANCH  43  57
ATOM     57  C   UNL A   1      43.625  33.024  31.211  1.00  0.00     0.058 A 
ATOM     58  C   UNL A   1      43.535  33.240  32.595  1.00  0.00     0.135 A 
ATOM     59  C   UNL A   1      43.865  34.135  30.387  1.00  0.00     0.135 A 
ATOM     60  F   UNL A   1      43.283  32.216  33.425  1.00  0.00    -0.206 F 
ATOM     61  C   UNL A   1      43.677  34.511  33.141  1.00  0.00     0.059 A 
ATOM     62  C   UNL A   1      44.029  35.413  30.914  1.00  0.00     0.059 A 
ATOM     63  F   UNL A   1      43.953  33.982  29.056  1.00  0.00    -0.206 F 
ATOM     64  C   UNL A   1      43.929  35.591  32.292  1.00  0.00     0.060 A 
BRANCH  64  65
ATOM     65  S   UNL A   1      44.137  37.229  33.023  1.00  0.00     0.124 S 
ATOM     66  O   UNL A   1      44.181  38.076  31.833  1.00  0.00    -0.237 OA
ATOM     67  O   UNL A   1      42.939  37.357  33.847  1.00  0.00    -0.237 OA
ATOM     68  O   UNL A   1      45.393  37.118  33.758  1.00  0.00    -0.744 OA
ENDBRANCH  64  65
ENDBRANCH  43  57
BRANCH  44  69
ATOM     69  C   UNL A   1      42.641  23.744  27.638  1.00  0.00     0.058 A 
ATOM     70  C   UNL A   1      42.663  23.482  26.261  1.00  0.00     0.135 A 
ATOM     71  C   UNL A   1      42.474  22.658  28.510  1.00  0.00     0.135 A 
ATOM     72  F   UNL A   1      42.809  24.491  25.388  1.00  0.00    -0.206 F 
ATOM     73  C   UNL A   1      42.506  22.193  25.763  1.00  0.00     0.059 A 
ATOM     74  C   UNL A   1      42.341  21.356  28.038  1.00  0.00     0.059 A 
ATOM     75  F   UNL A   1      42.457  22.856  29.837  1.00  0.00    -0.206 F 
ATOM     76  C   UNL A   1      42.345  21.136  26.661  1.00  0.00     0.060 A 
BRANCH  76  77
ATOM     77  S   UNL A   1      42.174  19.460  26.008  1.00  0.00     0.124 S 
ATOM     78  O   UNL A   1      40.738  19.387  25.764  1.00  0.00    -0.237 OA
ATOM     79  O   UNL A   1      43.023  19.504  24.823  1.00  0.00    -0.237 OA
ATOM     80  O   UNL A   1      42.674  18.626  27.098  1.00  0.00    -0.744 OA
ENDBRANCH  76  77
ENDBRANCH  44  69
BRANCH  56  81
ATOM     81  C   UNL A   1      48.062  27.507  29.830  1.00  0.00     0.058 A 
ATOM     82  C   UNL A   1      48.598  26.904  30.977  1.00  0.00     0.135 A 
ATOM     83  C   UNL A   1      48.935  27.802  28.770  1.00  0.00     0.135 A 
ATOM     84  F   UNL A   1      47.805  26.608  32.019  1.00  0.00    -0.206 F 
ATOM     85  C   UNL A   1      49.957  26.635  31.087  1.00  0.00     0.059 A 
ATOM     86  C   UNL A   1      50.294  27.521  28.849  1.00  0.00     0.059 A 
ATOM     87  F   UNL A   1      48.467  28.369  27.647  1.00  0.00    -0.206 F 
ATOM     88  C   UNL A   1      50.799  26.954  30.019  1.00  0.00     0.060 A 
BRANCH  88  89
ATOM     89  S   UNL A   1      52.563  26.602  30.172  1.00  0.00     0.124 S 
ATOM     90  O   UNL A   1      52.564  25.550  31.184  1.00  0.00    -0.237 OA
ATOM     91  O   UNL A   1      52.919  26.181  28.820  1.00  0.00    -0.237 OA
ATOM     92  O   UNL A   1      53.128  27.880  30.593  1.00  0.00    -0.744 OA
ENDBRANCH  88  89
ENDBRANCH  56  81
ENDBRANCH  30  31
ENDBRANCH  22  25
ENDBRANCH   1  21
TORSDOF 14
ENDMDL
MODEL 3
REMARK VINA RESULT:     -11.7      0.323      1.758
REMARK SMILES Nc1cc(C(=O)NCCCNC(=O)c2ccc(-c3c4nc(c(-c5c(F)cc(S(=O)(=O)[O-])cc5F)c5ccc([nH]5)c(-c5c(F)cc(S(=O)(=O)[O-])cc5F)c5nc(c(-c6c(F)cc(S(=O)(=O)[O-])cc6F)c6ccc3[nH]6)C=C5)C=C4)cc2)nc2ccccc12
REMARK SMILES IDX 10 1 9 2 8 3 7 4 5 5 6 6 4 8 2 9 3 10 86 11 81 12 85 13
REMARK SMILES IDX 80 14 82 15 84 16 83 17 1 18 11 21 12 22 13 24 14 25 15 26
REMARK SMILES IDX 79 27 16 28 78 29 17 30 18 31 19 32 72 33 20 34 77 35 71 36
REMARK SMILES IDX 73 37 21 38 76 39 70 40 69 41 22 43 56 44 35 45 55 46 36 47
REMARK SMILES IDX 39 48 54 49 74 50 37 51 38 52 53 54 75 55 40 56 23 57 24 58
REMARK SMILES IDX 33 59 25 60 26 61 32 62 34 63 27 64 28 65 29 66 30 67 31 68
REMARK SMILES IDX 57 69 58 70 67 71 59 72 60 73 66 74 68 75 61 76 62 77 63 78
REMARK SMILES IDX 64 79 65 80 41 81 42 82 51 83 43 84 44 85 50 86 52 87 45 88
REMARK SMILES IDX 46 89 47 90 48 91 49 92
REMARK H PARENT 7 7 1 19 1 20 11 23 73 42 39 53
REMARK Flexibility Score: inf
ROOT
ATOM      1  C   UNL A   1      33.322  28.632  27.188  1.00  0.00     0.118 C 
ENDROOT
BRANCH   1   2
ATOM      2  C   UNL A   1      32.016  27.917  27.528  1.00  0.00     0.042 C 
BRANCH   2   3
ATOM      3  C   UNL A   1      31.441  27.119  26.360  1.00  0.00     0.118 C 
BRANCH   3   4
ATOM      4  N   UNL A   1      30.921  25.837  26.799  1.00  0.00    -0.351 N 
ATOM      5  C   UNL A   1      31.239  24.530  26.503  1.00  0.00     0.269 C 
ATOM      6  O   UNL A   1      30.601  23.679  27.129  1.00  0.00    -0.268 OA
ATOM      7  H   UNL A   1      30.185  25.920  27.448  1.00  0.00     0.163 HD
BRANCH   5   8
ATOM      8  C   UNL A   1      32.295  24.097  25.515  1.00  0.00     0.130 A 
ATOM      9  C   UNL A   1      33.102  23.268  23.407  1.00  0.00     0.043 A 
ATOM     10  C   UNL A   1      32.041  23.653  24.230  1.00  0.00     0.060 A 
ATOM     11  C   UNL A   1      34.424  23.352  23.903  1.00  0.00     0.023 A 
ATOM     12  C   UNL A   1      34.583  23.774  25.240  1.00  0.00     0.073 A 
ATOM     13  C   UNL A   1      35.580  23.022  23.155  1.00  0.00     0.012 A 
ATOM     14  N   UNL A   1      33.556  24.144  26.015  1.00  0.00    -0.242 NA
ATOM     15  C   UNL A   1      35.858  23.811  25.788  1.00  0.00     0.029 A 
ATOM     16  C   UNL A   1      36.852  23.074  23.727  1.00  0.00     0.001 A 
ATOM     17  C   UNL A   1      36.990  23.461  25.051  1.00  0.00     0.002 A 
BRANCH   9  18
ATOM     18  N   UNL A   1      32.818  22.931  22.080  1.00  0.00    -0.398 N 
ATOM     19  H   UNL A   1      33.467  23.139  21.370  1.00  0.00     0.156 HD
ATOM     20  H   UNL A   1      31.969  22.487  21.856  1.00  0.00     0.156 HD
ENDBRANCH   9  18
ENDBRANCH   5   8
ENDBRANCH   3   4
ENDBRANCH   2   3
ENDBRANCH   1   2
BRANCH   1  21
ATOM     21  N   UNL A   1      33.320  30.023  27.626  1.00  0.00    -0.352 N 
ATOM     22  C   UNL A   1      34.309  30.748  28.254  1.00  0.00     0.251 C 
ATOM     23  H   UNL A   1      32.489  30.517  27.447  1.00  0.00     0.163 HD
ATOM     24  O   UNL A   1      34.053  31.850  28.719  1.00  0.00    -0.269 OA
BRANCH  22  25
ATOM     25  C   UNL A   1      35.668  30.178  28.389  1.00  0.00     0.039 A 
ATOM     26  C   UNL A   1      36.115  29.679  29.614  1.00  0.00     0.014 A 
ATOM     27  C   UNL A   1      36.509  30.156  27.272  1.00  0.00     0.014 A 
ATOM     28  C   UNL A   1      37.450  29.313  29.765  1.00  0.00     0.010 A 
ATOM     29  C   UNL A   1      37.832  29.726  27.411  1.00  0.00     0.010 A 
ATOM     30  C   UNL A   1      38.328  29.354  28.670  1.00  0.00    -0.014 A 
BRANCH  30  31
ATOM     31  C   UNL A   1      39.773  29.067  28.866  1.00  0.00     0.031 A 
ATOM     32  C   UNL A   1      40.673  30.116  29.468  1.00  0.00     0.074 A 
ATOM     33  C   UNL A   1      40.269  27.853  28.555  1.00  0.00     0.049 A 
ATOM     34  N   UNL A   1      41.968  30.092  29.649  1.00  0.00    -0.248 NA
ATOM     35  C   UNL A   1      40.030  31.360  29.928  1.00  0.00     0.031 C 
ATOM     36  C   UNL A   1      39.495  26.739  28.006  1.00  0.00     0.029 A 
ATOM     37  N   UNL A   1      41.540  27.349  28.671  1.00  0.00    -0.354 N 
ATOM     38  C   UNL A   1      42.298  31.315  30.224  1.00  0.00     0.074 A 
ATOM     39  C   UNL A   1      41.070  32.071  30.341  1.00  0.00     0.031 C 
ATOM     40  C   UNL A   1      40.299  25.672  27.865  1.00  0.00     0.029 A 
ATOM     41  C   UNL A   1      41.655  26.044  28.255  1.00  0.00     0.049 A 
ATOM     42  H   UNL A   1      42.297  27.873  29.020  1.00  0.00     0.167 HD
ATOM     43  C   UNL A   1      43.512  31.761  30.628  1.00  0.00     0.037 A 
ATOM     44  C   UNL A   1      42.737  25.246  28.173  1.00  0.00     0.037 A 
ATOM     45  C   UNL A   1      44.728  30.995  30.536  1.00  0.00     0.049 A 
ATOM     46  C   UNL A   1      44.080  25.788  28.574  1.00  0.00     0.074 A 
ATOM     47  C   UNL A   1      46.010  31.365  30.907  1.00  0.00     0.029 A 
ATOM     48  N   UNL A   1      44.811  29.697  30.054  1.00  0.00    -0.354 N 
ATOM     49  N   UNL A   1      44.382  26.969  29.061  1.00  0.00    -0.248 NA
ATOM     50  C   UNL A   1      45.233  24.894  28.399  1.00  0.00     0.031 C 
ATOM     51  C   UNL A   1      46.872  30.300  30.626  1.00  0.00     0.029 A 
ATOM     52  C   UNL A   1      46.122  29.255  30.113  1.00  0.00     0.049 A 
ATOM     53  H   UNL A   1      44.050  29.169  29.721  1.00  0.00     0.167 HD
ATOM     54  C   UNL A   1      45.759  26.957  29.251  1.00  0.00     0.074 A 
ATOM     55  C   UNL A   1      46.226  25.645  28.856  1.00  0.00     0.031 C 
ATOM     56  C   UNL A   1      46.568  27.948  29.703  1.00  0.00     0.037 A 
BRANCH  43  57
ATOM     57  C   UNL A   1      43.595  33.145  31.209  1.00  0.00     0.058 A 
ATOM     58  C   UNL A   1      43.588  33.358  32.597  1.00  0.00     0.135 A 
ATOM     59  C   UNL A   1      43.753  34.262  30.374  1.00  0.00     0.135 A 
ATOM     60  F   UNL A   1      43.415  32.327  33.438  1.00  0.00    -0.206 F 
ATOM     61  C   UNL A   1      43.732  34.632  33.135  1.00  0.00     0.059 A 
ATOM     62  C   UNL A   1      43.918  35.544  30.892  1.00  0.00     0.059 A 
ATOM     63  F   UNL A   1      43.760  34.113  29.040  1.00  0.00    -0.206 F 
ATOM     64  C   UNL A   1      43.901  35.719  32.275  1.00  0.00     0.060 A 
BRANCH  64  65
ATOM     65  S   UNL A   1      44.113  37.361  32.996  1.00  0.00     0.124 S 
ATOM     66  O   UNL A   1      45.397  37.214  33.678  1.00  0.00    -0.237 OA
ATOM     67  O   UNL A   1      44.118  38.220  31.816  1.00  0.00    -0.237 OA
ATOM     68  O   UNL A   1      42.953  37.503  33.869  1.00  0.00    -0.744 OA
ENDBRANCH  64  65
ENDBRANCH  43  57
BRANCH  44  69
ATOM     69  C   UNL A   1      42.604  23.857  27.661  1.00  0.00     0.058 A 
ATOM     70  C   UNL A   1      42.602  23.594  26.283  1.00  0.00     0.135 A 
ATOM     71  C   UNL A   1      42.457  22.770  28.536  1.00  0.00     0.135 A 
ATOM     72  F   UNL A   1      42.728  24.603  25.407  1.00  0.00    -0.206 F 
ATOM     73  C   UNL A   1      42.444  22.303  25.789  1.00  0.00     0.059 A 
ATOM     74  C   UNL A   1      42.324  21.467  28.067  1.00  0.00     0.059 A 
ATOM     75  F   UNL A   1      42.463  22.969  29.863  1.00  0.00    -0.206 F 
ATOM     76  C   UNL A   1      42.305  21.246  26.691  1.00  0.00     0.060 A 
BRANCH  76  77
ATOM     77  S   UNL A   1      42.133  19.569  26.042  1.00  0.00     0.124 S 
ATOM     78  O   UNL A   1      43.051  19.599  24.909  1.00  0.00    -0.237 OA
ATOM     79  O   UNL A   1      42.548  18.755  27.180  1.00  0.00    -0.237 OA
ATOM     80  O   UNL A   1      40.714  19.487  25.706  1.00  0.00    -0.744 OA
ENDBRANCH  76  77
ENDBRANCH  44  69
BRANCH  56  81
ATOM     81  C   UNL A   1      48.034  27.639  29.794  1.00  0.00     0.058 A 
ATOM     82  C   UNL A   1      48.919  27.997  28.766  1.00  0.00     0.135 A 
ATOM     83  C   UNL A   1      48.560  26.990  30.922  1.00  0.00     0.135 A 
ATOM     84  F   UNL A   1      48.463  28.615  27.665  1.00  0.00    -0.206 F 
ATOM     85  C   UNL A   1      50.274  27.691  28.837  1.00  0.00     0.059 A 
ATOM     86  C   UNL A   1      49.916  26.694  31.024  1.00  0.00     0.059 A 
ATOM     87  F   UNL A   1      47.755  26.637  31.937  1.00  0.00    -0.206 F 
ATOM     88  C   UNL A   1      50.761  27.032  29.967  1.00  0.00     0.060 A 
BRANCH  88  89
ATOM     89  S   UNL A   1      52.521  26.638  30.048  1.00  0.00     0.124 S 
ATOM     90  O   UNL A   1      52.755  26.075  28.722  1.00  0.00    -0.237 OA
ATOM     91  O   UNL A   1      53.125  27.943  30.299  1.00  0.00    -0.237 OA
ATOM     92  O   UNL A   1      52.605  25.692  31.156  1.00  0.00    -0.744 OA
ENDBRANCH  88  89
ENDBRANCH  56  81
ENDBRANCH  30  31
ENDBRANCH  22  25
ENDBRANCH   1  21
TORSDOF 14
ENDMDL
