MODEL 1
REMARK VINA RESULT:     -11.2      0.000      0.000
REMARK SMILES Cc1cc(C(=O)N[C@@H](C)C(=O)NCCCNC(=O)c2ccc(-c3c4nc(c(-c5c(F)cc(S(=O)(=O)[O-])cc5F)c5ccc([nH]5)c(-c5c(F)cc(S(=O)(=O)[O-])cc5F)c5nc(c(-c6c(F)cc(S(=O)(=O)[O-])cc6F)c6ccc3[nH]6)C=C5)C=C4)cc2)cc(C)c1OC(F)F
REMARK SMILES IDX 13 1 12 2 10 3 11 4 8 6 9 7 7 8 5 9 6 10 4 12 1 13 2 14 3 15
REMARK SMILES IDX 88 16 86 17 85 18 87 19 89 20 90 21 91 22 92 23 14 24 15 25
REMARK SMILES IDX 16 26 17 27 18 29 19 30 20 31 84 32 21 33 83 34 22 35 23 36
REMARK SMILES IDX 24 37 77 38 25 39 82 40 76 41 78 42 26 43 81 44 75 45 74 46
REMARK SMILES IDX 27 48 61 49 40 50 60 51 41 52 44 53 59 54 79 55 42 56 43 57
REMARK SMILES IDX 58 59 80 60 45 61 28 62 29 63 38 64 30 65 31 66 37 67 39 68
REMARK SMILES IDX 32 69 33 70 34 71 35 72 36 73 62 74 63 75 72 76 64 77 65 78
REMARK SMILES IDX 71 79 73 80 66 81 67 82 68 83 69 84 70 85 46 86 47 87 56 88
REMARK SMILES IDX 48 89 49 90 55 91 57 92 50 93 51 94 52 95 53 96 54 97
REMARK H PARENT 12 5 7 11 16 28 78 47 44 58
REMARK Flexibility Score: inf
ROOT
ATOM      1  C   UNL A   1      33.695  28.890  27.429  1.00  0.00     0.117 C 
ENDROOT
BRANCH   1   2
ATOM      2  N   UNL A   1      32.742  29.678  26.665  1.00  0.00    -0.354 N 
ATOM      3  C   UNL A   1      32.014  29.362  25.555  1.00  0.00     0.242 C 
ATOM      4  O   UNL A   1      31.209  30.203  25.143  1.00  0.00    -0.273 OA
ATOM      5  H   UNL A   1      32.599  30.591  27.004  1.00  0.00     0.163 HD
BRANCH   3   6
ATOM      6  C   UNL A   1      32.193  28.021  24.816  1.00  0.00     0.168 C 
ATOM      7  C   UNL A   1      33.317  28.026  23.789  1.00  0.00     0.041 C 
BRANCH   6   8
ATOM      8  N   UNL A   1      30.894  27.594  24.300  1.00  0.00    -0.341 N 
ATOM      9  C   UNL A   1      30.285  26.362  24.218  1.00  0.00     0.251 C 
ATOM     10  O   UNL A   1      29.105  26.340  23.866  1.00  0.00    -0.269 OA
ATOM     11  H   UNL A   1      30.347  28.330  23.941  1.00  0.00     0.164 HD
BRANCH   9  12
ATOM     12  C   UNL A   1      30.997  25.067  24.419  1.00  0.00     0.040 A 
ATOM     13  C   UNL A   1      33.065  22.909  22.111  1.00  0.00     0.048 C 
ATOM     14  C   UNL A   1      32.494  23.358  23.427  1.00  0.00    -0.008 A 
ATOM     15  C   UNL A   1      31.665  24.508  23.322  1.00  0.00     0.021 A 
ATOM     16  C   UNL A   1      32.727  22.826  24.706  1.00  0.00     0.131 A 
ATOM     17  C   UNL A   1      31.987  23.340  25.801  1.00  0.00    -0.008 A 
ATOM     18  C   UNL A   1      31.068  24.387  25.620  1.00  0.00     0.021 A 
ATOM     19  C   UNL A   1      32.209  22.889  27.224  1.00  0.00     0.048 C 
BRANCH  16  20
ATOM     20  O   UNL A   1      33.646  21.903  25.104  1.00  0.00    -0.434 OA
BRANCH  20  21
ATOM     21  C   UNL A   1      35.017  22.183  25.283  1.00  0.00     0.542 C 
ATOM     22  F   UNL A   1      35.502  21.563  26.381  1.00  0.00    -0.167 F 
ATOM     23  F   UNL A   1      35.709  21.790  24.191  1.00  0.00    -0.167 F 
ENDBRANCH  20  21
ENDBRANCH  16  20
ENDBRANCH   9  12
ENDBRANCH   6   8
ENDBRANCH   3   6
ENDBRANCH   1   2
BRANCH   1  24
ATOM     24  C   UNL A   1      35.139  29.312  27.211  1.00  0.00     0.042 C 
BRANCH  24  25
ATOM     25  C   UNL A   1      35.587  30.503  28.048  1.00  0.00     0.118 C 
BRANCH  25  26
ATOM     26  N   UNL A   1      35.573  30.228  29.479  1.00  0.00    -0.352 N 
ATOM     27  C   UNL A   1      36.572  29.785  30.317  1.00  0.00     0.251 C 
ATOM     28  H   UNL A   1      34.707  30.387  29.920  1.00  0.00     0.163 HD
ATOM     29  O   UNL A   1      36.291  29.435  31.456  1.00  0.00    -0.269 OA
BRANCH  27  30
ATOM     30  C   UNL A   1      37.970  29.700  29.836  1.00  0.00     0.039 A 
ATOM     31  C   UNL A   1      38.978  29.366  30.744  1.00  0.00     0.014 A 
ATOM     32  C   UNL A   1      38.289  29.949  28.500  1.00  0.00     0.014 A 
ATOM     33  C   UNL A   1      40.287  29.183  30.289  1.00  0.00     0.010 A 
ATOM     34  C   UNL A   1      39.574  29.684  28.033  1.00  0.00     0.010 A 
ATOM     35  C   UNL A   1      40.584  29.284  28.921  1.00  0.00    -0.014 A 
BRANCH  35  36
ATOM     36  C   UNL A   1      41.926  28.932  28.387  1.00  0.00     0.031 A 
ATOM     37  C   UNL A   1      42.231  27.518  27.968  1.00  0.00     0.074 A 
ATOM     38  C   UNL A   1      42.897  29.868  28.373  1.00  0.00     0.049 A 
ATOM     39  N   UNL A   1      43.371  26.999  27.591  1.00  0.00    -0.248 NA
ATOM     40  C   UNL A   1      41.116  26.558  27.998  1.00  0.00     0.031 C 
ATOM     41  C   UNL A   1      42.738  31.261  28.804  1.00  0.00     0.029 A 
ATOM     42  N   UNL A   1      44.217  29.790  28.003  1.00  0.00    -0.354 N 
ATOM     43  C   UNL A   1      43.117  25.653  27.357  1.00  0.00     0.074 A 
ATOM     44  C   UNL A   1      41.724  25.425  27.671  1.00  0.00     0.031 C 
ATOM     45  C   UNL A   1      43.908  31.904  28.667  1.00  0.00     0.029 A 
ATOM     46  C   UNL A   1      44.914  30.963  28.186  1.00  0.00     0.049 A 
ATOM     47  H   UNL A   1      44.628  28.971  27.642  1.00  0.00     0.167 HD
ATOM     48  C   UNL A   1      43.967  24.700  26.908  1.00  0.00     0.037 A 
ATOM     49  C   UNL A   1      46.221  31.245  28.013  1.00  0.00     0.037 A 
ATOM     50  C   UNL A   1      45.346  24.943  26.570  1.00  0.00     0.049 A 
ATOM     51  C   UNL A   1      47.143  30.161  27.523  1.00  0.00     0.074 A 
ATOM     52  C   UNL A   1      46.265  24.058  26.031  1.00  0.00     0.029 A 
ATOM     53  N   UNL A   1      46.008  26.149  26.744  1.00  0.00    -0.354 N 
ATOM     54  N   UNL A   1      46.864  28.913  27.228  1.00  0.00    -0.248 NA
ATOM     55  C   UNL A   1      48.556  30.521  27.341  1.00  0.00     0.031 C 
ATOM     56  C   UNL A   1      47.496  24.713  25.932  1.00  0.00     0.029 A 
ATOM     57  C   UNL A   1      47.331  26.022  26.355  1.00  0.00     0.049 A 
ATOM     58  H   UNL A   1      45.598  26.973  27.093  1.00  0.00     0.167 HD
ATOM     59  C   UNL A   1      48.062  28.348  26.803  1.00  0.00     0.074 A 
ATOM     60  C   UNL A   1      49.061  29.393  26.858  1.00  0.00     0.031 C 
ATOM     61  C   UNL A   1      48.313  27.075  26.408  1.00  0.00     0.037 A 
BRANCH  48  62
ATOM     62  C   UNL A   1      43.442  23.299  26.743  1.00  0.00     0.058 A 
ATOM     63  C   UNL A   1      43.221  22.739  25.476  1.00  0.00     0.135 A 
ATOM     64  C   UNL A   1      43.249  22.477  27.865  1.00  0.00     0.135 A 
ATOM     65  F   UNL A   1      43.373  23.486  24.370  1.00  0.00    -0.206 F 
ATOM     66  C   UNL A   1      42.821  21.415  25.325  1.00  0.00     0.059 A 
ATOM     67  C   UNL A   1      42.876  21.141  27.738  1.00  0.00     0.059 A 
ATOM     68  F   UNL A   1      43.443  22.963  29.101  1.00  0.00    -0.206 F 
ATOM     69  C   UNL A   1      42.661  20.621  26.462  1.00  0.00     0.060 A 
BRANCH  69  70
ATOM     70  S   UNL A   1      42.195  18.891  26.245  1.00  0.00     0.124 S 
ATOM     71  O   UNL A   1      43.171  18.449  25.253  1.00  0.00    -0.237 OA
ATOM     72  O   UNL A   1      42.371  18.352  27.590  1.00  0.00    -0.237 OA
ATOM     73  O   UNL A   1      40.815  18.964  25.778  1.00  0.00    -0.744 OA
ENDBRANCH  69  70
ENDBRANCH  48  62
BRANCH  49  74
ATOM     74  C   UNL A   1      46.746  32.605  28.320  1.00  0.00     0.058 A 
ATOM     75  C   UNL A   1      46.744  33.618  27.351  1.00  0.00     0.135 A 
ATOM     76  C   UNL A   1      47.285  32.910  29.580  1.00  0.00     0.135 A 
ATOM     77  F   UNL A   1      46.244  33.377  26.129  1.00  0.00    -0.206 F 
ATOM     78  C   UNL A   1      47.288  34.874  27.606  1.00  0.00     0.059 A 
ATOM     79  C   UNL A   1      47.806  34.166  29.870  1.00  0.00     0.059 A 
ATOM     80  F   UNL A   1      47.295  31.982  30.550  1.00  0.00    -0.206 F 
ATOM     81  C   UNL A   1      47.821  35.136  28.869  1.00  0.00     0.060 A 
BRANCH  81  82
ATOM     82  S   UNL A   1      48.515  36.772  29.192  1.00  0.00     0.124 S 
ATOM     83  O   UNL A   1      47.415  37.641  28.790  1.00  0.00    -0.237 OA
ATOM     84  O   UNL A   1      48.790  36.711  30.623  1.00  0.00    -0.237 OA
ATOM     85  O   UNL A   1      49.696  36.810  28.335  1.00  0.00    -0.744 OA
ENDBRANCH  81  82
ENDBRANCH  49  74
BRANCH  61  86
ATOM     86  C   UNL A   1      49.717  26.748  25.976  1.00  0.00     0.058 A 
ATOM     87  C   UNL A   1      50.149  26.955  24.657  1.00  0.00     0.135 A 
ATOM     88  C   UNL A   1      50.655  26.272  26.906  1.00  0.00     0.135 A 
ATOM     89  F   UNL A   1      49.290  27.402  23.726  1.00  0.00    -0.206 F 
ATOM     90  C   UNL A   1      51.455  26.676  24.269  1.00  0.00     0.059 A 
ATOM     91  C   UNL A   1      51.975  26.017  26.547  1.00  0.00     0.059 A 
ATOM     92  F   UNL A   1      50.297  26.066  28.183  1.00  0.00    -0.206 F 
ATOM     93  C   UNL A   1      52.362  26.211  25.223  1.00  0.00     0.060 A 
BRANCH  93  94
ATOM     94  S   UNL A   1      54.063  25.889  24.713  1.00  0.00     0.124 S 
ATOM     95  O   UNL A   1      54.026  26.273  23.305  1.00  0.00    -0.237 OA
ATOM     96  O   UNL A   1      54.825  26.772  25.591  1.00  0.00    -0.237 OA
ATOM     97  O   UNL A   1      54.232  24.462  24.969  1.00  0.00    -0.744 OA
ENDBRANCH  93  94
ENDBRANCH  61  86
ENDBRANCH  35  36
ENDBRANCH  27  30
ENDBRANCH  25  26
ENDBRANCH  24  25
ENDBRANCH   1  24
TORSDOF 17
ENDMDL
MODEL 2
REMARK VINA RESULT:     -11.2      5.257     11.888
REMARK SMILES Cc1cc(C(=O)N[C@@H](C)C(=O)NCCCNC(=O)c2ccc(-c3c4nc(c(-c5c(F)cc(S(=O)(=O)[O-])cc5F)c5ccc([nH]5)c(-c5c(F)cc(S(=O)(=O)[O-])cc5F)c5nc(c(-c6c(F)cc(S(=O)(=O)[O-])cc6F)c6ccc3[nH]6)C=C5)C=C4)cc2)cc(C)c1OC(F)F
REMARK SMILES IDX 13 1 12 2 10 3 11 4 8 6 9 7 7 8 5 9 6 10 4 12 1 13 2 14 3 15
REMARK SMILES IDX 88 16 86 17 85 18 87 19 89 20 90 21 91 22 92 23 14 24 15 25
REMARK SMILES IDX 16 26 17 27 18 29 19 30 20 31 84 32 21 33 83 34 22 35 23 36
REMARK SMILES IDX 24 37 77 38 25 39 82 40 76 41 78 42 26 43 81 44 75 45 74 46
REMARK SMILES IDX 27 48 61 49 40 50 60 51 41 52 44 53 59 54 79 55 42 56 43 57
REMARK SMILES IDX 58 59 80 60 45 61 28 62 29 63 38 64 30 65 31 66 37 67 39 68
REMARK SMILES IDX 32 69 33 70 34 71 35 72 36 73 62 74 63 75 72 76 64 77 65 78
REMARK SMILES IDX 71 79 73 80 66 81 67 82 68 83 69 84 70 85 46 86 47 87 56 88
REMARK SMILES IDX 48 89 49 90 55 91 57 92 50 93 51 94 52 95 53 96 54 97
REMARK H PARENT 12 5 7 11 16 28 78 47 44 58
REMARK Flexibility Score: inf
ROOT
ATOM      1  C   UNL A   1      41.290  19.784  26.912  1.00  0.00     0.117 C 
ENDROOT
BRANCH   1   2
ATOM      2  N   UNL A   1      42.213  19.251  25.925  1.00  0.00    -0.354 N 
ATOM      3  C   UNL A   1      43.357  19.778  25.400  1.00  0.00     0.242 C 
ATOM      4  O   UNL A   1      44.004  19.073  24.619  1.00  0.00    -0.273 OA
ATOM      5  H   UNL A   1      41.974  18.362  25.576  1.00  0.00     0.163 HD
BRANCH   3   6
ATOM      6  C   UNL A   1      43.826  21.207  25.738  1.00  0.00     0.168 C 
ATOM      7  C   UNL A   1      45.296  21.465  25.435  1.00  0.00     0.041 C 
BRANCH   6   8
ATOM      8  N   UNL A   1      43.419  21.522  27.107  1.00  0.00    -0.341 N 
ATOM      9  C   UNL A   1      43.478  22.678  27.853  1.00  0.00     0.251 C 
ATOM     10  O   UNL A   1      42.907  22.673  28.944  1.00  0.00    -0.269 OA
ATOM     11  H   UNL A   1      43.025  20.759  27.589  1.00  0.00     0.164 HD
BRANCH   9  12
ATOM     12  C   UNL A   1      44.277  23.876  27.467  1.00  0.00     0.040 A 
ATOM     13  C   UNL A   1      43.465  26.922  25.388  1.00  0.00     0.048 C 
ATOM     14  C   UNL A   1      44.279  26.078  26.329  1.00  0.00    -0.008 A 
ATOM     15  C   UNL A   1      43.671  24.833  26.644  1.00  0.00     0.021 A 
ATOM     16  C   UNL A   1      45.495  26.396  26.956  1.00  0.00     0.131 A 
ATOM     17  C   UNL A   1      46.146  25.397  27.722  1.00  0.00    -0.008 A 
ATOM     18  C   UNL A   1      45.571  24.126  27.886  1.00  0.00     0.021 A 
ATOM     19  C   UNL A   1      47.419  25.654  28.492  1.00  0.00     0.048 C 
BRANCH  16  20
ATOM     20  O   UNL A   1      46.150  27.589  27.017  1.00  0.00    -0.434 OA
BRANCH  20  21
ATOM     21  C   UNL A   1      46.892  28.136  25.949  1.00  0.00     0.542 C 
ATOM     22  F   UNL A   1      46.930  27.290  24.897  1.00  0.00    -0.167 F 
ATOM     23  F   UNL A   1      46.346  29.315  25.572  1.00  0.00    -0.167 F 
ENDBRANCH  20  21
ENDBRANCH  16  20
ENDBRANCH   9  12
ENDBRANCH   6   8
ENDBRANCH   3   6
ENDBRANCH   1   2
BRANCH   1  24
ATOM     24  C   UNL A   1      40.073  20.458  26.299  1.00  0.00     0.042 C 
BRANCH  24  25
ATOM     25  C   UNL A   1      40.167  21.976  26.206  1.00  0.00     0.118 C 
BRANCH  25  26
ATOM     26  N   UNL A   1      38.954  22.588  25.679  1.00  0.00    -0.352 N 
ATOM     27  C   UNL A   1      38.338  23.777  26.000  1.00  0.00     0.251 C 
ATOM     28  H   UNL A   1      38.502  22.067  24.976  1.00  0.00     0.163 HD
ATOM     29  O   UNL A   1      37.216  24.009  25.567  1.00  0.00    -0.269 OA
BRANCH  27  30
ATOM     30  C   UNL A   1      39.010  24.754  26.887  1.00  0.00     0.039 A 
ATOM     31  C   UNL A   1      39.883  25.689  26.324  1.00  0.00     0.014 A 
ATOM     32  C   UNL A   1      38.784  24.750  28.265  1.00  0.00     0.014 A 
ATOM     33  C   UNL A   1      40.448  26.681  27.131  1.00  0.00     0.010 A 
ATOM     34  C   UNL A   1      39.278  25.788  29.050  1.00  0.00     0.010 A 
ATOM     35  C   UNL A   1      40.104  26.774  28.489  1.00  0.00    -0.014 A 
BRANCH  35  36
ATOM     36  C   UNL A   1      40.554  27.913  29.330  1.00  0.00     0.031 A 
ATOM     37  C   UNL A   1      39.657  29.103  29.544  1.00  0.00     0.074 A 
ATOM     38  C   UNL A   1      41.811  27.916  29.820  1.00  0.00     0.049 A 
ATOM     39  N   UNL A   1      39.918  30.234  30.145  1.00  0.00    -0.248 NA
ATOM     40  C   UNL A   1      38.295  29.019  28.990  1.00  0.00     0.031 C 
ATOM     41  C   UNL A   1      42.795  26.843  29.635  1.00  0.00     0.029 A 
ATOM     42  N   UNL A   1      42.490  28.857  30.554  1.00  0.00    -0.354 N 
ATOM     43  C   UNL A   1      38.766  31.003  30.028  1.00  0.00     0.074 A 
ATOM     44  C   UNL A   1      37.816  30.225  29.264  1.00  0.00     0.031 C 
ATOM     45  C   UNL A   1      43.941  27.184  30.245  1.00  0.00     0.029 A 
ATOM     46  C   UNL A   1      43.796  28.516  30.821  1.00  0.00     0.049 A 
ATOM     47  H   UNL A   1      42.080  29.699  30.860  1.00  0.00     0.167 HD
ATOM     48  C   UNL A   1      38.522  32.239  30.524  1.00  0.00     0.037 A 
ATOM     49  C   UNL A   1      44.777  29.206  31.437  1.00  0.00     0.037 A 
ATOM     50  C   UNL A   1      39.465  32.994  31.309  1.00  0.00     0.049 A 
ATOM     51  C   UNL A   1      44.477  30.583  31.969  1.00  0.00     0.074 A 
ATOM     52  C   UNL A   1      39.281  34.221  31.924  1.00  0.00     0.029 A 
ATOM     53  N   UNL A   1      40.768  32.604  31.580  1.00  0.00    -0.354 N 
ATOM     54  N   UNL A   1      43.354  31.259  31.920  1.00  0.00    -0.248 NA
ATOM     55  C   UNL A   1      45.576  31.290  32.641  1.00  0.00     0.031 C 
ATOM     56  C   UNL A   1      40.488  34.599  32.518  1.00  0.00     0.029 A 
ATOM     57  C   UNL A   1      41.409  33.581  32.324  1.00  0.00     0.049 A 
ATOM     58  H   UNL A   1      41.177  31.758  31.287  1.00  0.00     0.167 HD
ATOM     59  C   UNL A   1      43.605  32.460  32.575  1.00  0.00     0.074 A 
ATOM     60  C   UNL A   1      44.978  32.408  33.030  1.00  0.00     0.031 C 
ATOM     61  C   UNL A   1      42.775  33.513  32.776  1.00  0.00     0.037 A 
BRANCH  48  62
ATOM     62  C   UNL A   1      37.182  32.864  30.250  1.00  0.00     0.058 A 
ATOM     63  C   UNL A   1      36.127  32.782  31.171  1.00  0.00     0.135 A 
ATOM     64  C   UNL A   1      36.981  33.634  29.093  1.00  0.00     0.135 A 
ATOM     65  F   UNL A   1      36.258  32.045  32.287  1.00  0.00    -0.206 F 
ATOM     66  C   UNL A   1      34.919  33.436  30.954  1.00  0.00     0.059 A 
ATOM     67  C   UNL A   1      35.791  34.319  28.867  1.00  0.00     0.059 A 
ATOM     68  F   UNL A   1      37.956  33.742  28.176  1.00  0.00    -0.206 F 
ATOM     69  C   UNL A   1      34.763  34.211  29.803  1.00  0.00     0.060 A 
BRANCH  69  70
ATOM     70  S   UNL A   1      33.209  35.097  29.565  1.00  0.00     0.124 S 
ATOM     71  O   UNL A   1      32.581  34.305  28.512  1.00  0.00    -0.237 OA
ATOM     72  O   UNL A   1      32.591  34.999  30.884  1.00  0.00    -0.237 OA
ATOM     73  O   UNL A   1      33.634  36.437  29.174  1.00  0.00    -0.744 OA
ENDBRANCH  69  70
ENDBRANCH  48  62
BRANCH  49  74
ATOM     74  C   UNL A   1      46.140  28.622  31.571  1.00  0.00     0.058 A 
ATOM     75  C   UNL A   1      47.106  28.798  30.569  1.00  0.00     0.135 A 
ATOM     76  C   UNL A   1      46.496  27.855  32.691  1.00  0.00     0.135 A 
ATOM     77  F   UNL A   1      46.815  29.520  29.476  1.00  0.00    -0.206 F 
ATOM     78  C   UNL A   1      48.362  28.206  30.654  1.00  0.00     0.059 A 
ATOM     79  C   UNL A   1      47.756  27.279  32.815  1.00  0.00     0.059 A 
ATOM     80  F   UNL A   1      45.616  27.671  33.688  1.00  0.00    -0.206 F 
ATOM     81  C   UNL A   1      48.676  27.444  31.781  1.00  0.00     0.060 A 
BRANCH  81  82
ATOM     82  S   UNL A   1      50.313  26.689  31.886  1.00  0.00     0.124 S 
ATOM     83  O   UNL A   1      51.003  27.330  30.771  1.00  0.00    -0.237 OA
ATOM     84  O   UNL A   1      50.750  27.086  33.220  1.00  0.00    -0.237 OA
ATOM     85  O   UNL A   1      50.037  25.265  31.723  1.00  0.00    -0.744 OA
ENDBRANCH  81  82
ENDBRANCH  49  74
BRANCH  61  86
ATOM     86  C   UNL A   1      43.318  34.686  33.547  1.00  0.00     0.058 A 
ATOM     87  C   UNL A   1      43.915  35.779  32.901  1.00  0.00     0.135 A 
ATOM     88  C   UNL A   1      43.193  34.738  34.944  1.00  0.00     0.135 A 
ATOM     89  F   UNL A   1      44.067  35.777  31.566  1.00  0.00    -0.206 F 
ATOM     90  C   UNL A   1      44.392  36.873  33.615  1.00  0.00     0.059 A 
ATOM     91  C   UNL A   1      43.633  35.837  35.676  1.00  0.00     0.059 A 
ATOM     92  F   UNL A   1      42.620  33.724  35.611  1.00  0.00    -0.206 F 
ATOM     93  C   UNL A   1      44.243  36.894  35.004  1.00  0.00     0.060 A 
BRANCH  93  94
ATOM     94  S   UNL A   1      44.833  38.336  35.914  1.00  0.00     0.124 S 
ATOM     95  O   UNL A   1      46.267  38.288  35.645  1.00  0.00    -0.237 OA
ATOM     96  O   UNL A   1      44.105  39.428  35.276  1.00  0.00    -0.237 OA
ATOM     97  O   UNL A   1      44.444  38.052  37.292  1.00  0.00    -0.744 OA
ENDBRANCH  93  94
ENDBRANCH  61  86
ENDBRANCH  35  36
ENDBRANCH  27  30
ENDBRANCH  25  26
ENDBRANCH  24  25
ENDBRANCH   1  24
TORSDOF 17
ENDMDL
MODEL 3
REMARK VINA RESULT:     -11.1      5.517     11.774
REMARK SMILES Cc1cc(C(=O)N[C@@H](C)C(=O)NCCCNC(=O)c2ccc(-c3c4nc(c(-c5c(F)cc(S(=O)(=O)[O-])cc5F)c5ccc([nH]5)c(-c5c(F)cc(S(=O)(=O)[O-])cc5F)c5nc(c(-c6c(F)cc(S(=O)(=O)[O-])cc6F)c6ccc3[nH]6)C=C5)C=C4)cc2)cc(C)c1OC(F)F
REMARK SMILES IDX 13 1 12 2 10 3 11 4 8 6 9 7 7 8 5 9 6 10 4 12 1 13 2 14 3 15
REMARK SMILES IDX 88 16 86 17 85 18 87 19 89 20 90 21 91 22 92 23 14 24 15 25
REMARK SMILES IDX 16 26 17 27 18 29 19 30 20 31 84 32 21 33 83 34 22 35 23 36
REMARK SMILES IDX 24 37 77 38 25 39 82 40 76 41 78 42 26 43 81 44 75 45 74 46
REMARK SMILES IDX 27 48 61 49 40 50 60 51 41 52 44 53 59 54 79 55 42 56 43 57
REMARK SMILES IDX 58 59 80 60 45 61 28 62 29 63 38 64 30 65 31 66 37 67 39 68
REMARK SMILES IDX 32 69 33 70 34 71 35 72 36 73 62 74 63 75 72 76 64 77 65 78
REMARK SMILES IDX 71 79 73 80 66 81 67 82 68 83 69 84 70 85 46 86 47 87 56 88
REMARK SMILES IDX 48 89 49 90 55 91 57 92 50 93 51 94 52 95 53 96 54 97
REMARK H PARENT 12 5 7 11 16 28 78 47 44 58
REMARK Flexibility Score: inf
ROOT
ATOM      1  C   UNL A   1      41.729  20.164  27.203  1.00  0.00     0.117 C 
ENDROOT
BRANCH   1   2
ATOM      2  N   UNL A   1      42.401  19.721  25.993  1.00  0.00    -0.354 N 
ATOM      3  C   UNL A   1      43.475  20.239  25.331  1.00  0.00     0.242 C 
ATOM      4  O   UNL A   1      43.898  19.616  24.353  1.00  0.00    -0.273 OA
ATOM      5  H   UNL A   1      42.016  18.913  25.583  1.00  0.00     0.163 HD
BRANCH   3   6
ATOM      6  C   UNL A   1      44.135  21.565  25.760  1.00  0.00     0.168 C 
ATOM      7  C   UNL A   1      45.617  21.657  25.424  1.00  0.00     0.041 C 
BRANCH   6   8
ATOM      8  N   UNL A   1      43.808  21.819  27.162  1.00  0.00    -0.341 N 
ATOM      9  C   UNL A   1      43.822  22.963  27.929  1.00  0.00     0.251 C 
ATOM     10  O   UNL A   1      43.340  22.888  29.059  1.00  0.00    -0.269 OA
ATOM     11  H   UNL A   1      43.523  21.015  27.655  1.00  0.00     0.164 HD
BRANCH   9  12
ATOM     12  C   UNL A   1      44.479  24.235  27.512  1.00  0.00     0.040 A 
ATOM     13  C   UNL A   1      43.431  26.997  25.161  1.00  0.00     0.048 C 
ATOM     14  C   UNL A   1      44.274  26.338  26.217  1.00  0.00    -0.008 A 
ATOM     15  C   UNL A   1      43.817  25.042  26.580  1.00  0.00     0.021 A 
ATOM     16  C   UNL A   1      45.381  26.864  26.902  1.00  0.00     0.131 A 
ATOM     17  C   UNL A   1      46.098  26.017  27.785  1.00  0.00    -0.008 A 
ATOM     18  C   UNL A   1      45.689  24.691  28.001  1.00  0.00     0.021 A 
ATOM     19  C   UNL A   1      47.259  26.499  28.622  1.00  0.00     0.048 C 
BRANCH  16  20
ATOM     20  O   UNL A   1      45.862  28.138  26.921  1.00  0.00    -0.434 OA
BRANCH  20  21
ATOM     21  C   UNL A   1      45.428  29.131  27.824  1.00  0.00     0.542 C 
ATOM     22  F   UNL A   1      46.174  30.252  27.712  1.00  0.00    -0.167 F 
ATOM     23  F   UNL A   1      44.128  29.420  27.594  1.00  0.00    -0.167 F 
ENDBRANCH  20  21
ENDBRANCH  16  20
ENDBRANCH   9  12
ENDBRANCH   6   8
ENDBRANCH   3   6
ENDBRANCH   1   2
BRANCH   1  24
ATOM     24  C   UNL A   1      40.396  20.847  26.939  1.00  0.00     0.042 C 
BRANCH  24  25
ATOM     25  C   UNL A   1      40.487  22.113  26.098  1.00  0.00     0.118 C 
BRANCH  25  26
ATOM     26  N   UNL A   1      39.182  22.627  25.703  1.00  0.00    -0.352 N 
ATOM     27  C   UNL A   1      38.504  23.756  26.103  1.00  0.00     0.251 C 
ATOM     28  H   UNL A   1      38.707  22.076  25.039  1.00  0.00     0.163 HD
ATOM     29  O   UNL A   1      37.329  23.897  25.787  1.00  0.00    -0.269 OA
BRANCH  27  30
ATOM     30  C   UNL A   1      39.177  24.778  26.937  1.00  0.00     0.039 A 
ATOM     31  C   UNL A   1      40.031  25.697  26.323  1.00  0.00     0.014 A 
ATOM     32  C   UNL A   1      38.970  24.832  28.318  1.00  0.00     0.014 A 
ATOM     33  C   UNL A   1      40.596  26.729  27.077  1.00  0.00     0.010 A 
ATOM     34  C   UNL A   1      39.463  25.908  29.050  1.00  0.00     0.010 A 
ATOM     35  C   UNL A   1      40.269  26.877  28.435  1.00  0.00    -0.014 A 
BRANCH  35  36
ATOM     36  C   UNL A   1      40.719  28.057  29.219  1.00  0.00     0.031 A 
ATOM     37  C   UNL A   1      42.036  28.030  29.948  1.00  0.00     0.074 A 
ATOM     38  C   UNL A   1      39.893  29.115  29.351  1.00  0.00     0.049 A 
ATOM     39  N   UNL A   1      42.539  28.912  30.772  1.00  0.00    -0.248 NA
ATOM     40  C   UNL A   1      42.887  26.846  29.744  1.00  0.00     0.031 C 
ATOM     41  C   UNL A   1      38.567  29.238  28.735  1.00  0.00     0.029 A 
ATOM     42  N   UNL A   1      40.030  30.282  30.062  1.00  0.00    -0.354 N 
ATOM     43  C   UNL A   1      43.753  28.385  31.197  1.00  0.00     0.074 A 
ATOM     44  C   UNL A   1      43.894  27.089  30.571  1.00  0.00     0.031 C 
ATOM     45  C   UNL A   1      38.021  30.412  29.088  1.00  0.00     0.029 A 
ATOM     46  C   UNL A   1      38.930  31.107  29.993  1.00  0.00     0.049 A 
ATOM     47  H   UNL A   1      40.841  30.508  30.575  1.00  0.00     0.167 HD
ATOM     48  C   UNL A   1      44.671  28.941  32.023  1.00  0.00     0.037 A 
ATOM     49  C   UNL A   1      38.669  32.277  30.609  1.00  0.00     0.037 A 
ATOM     50  C   UNL A   1      44.535  30.246  32.620  1.00  0.00     0.049 A 
ATOM     51  C   UNL A   1      39.705  32.864  31.530  1.00  0.00     0.074 A 
ATOM     52  C   UNL A   1      45.447  30.928  33.406  1.00  0.00     0.029 A 
ATOM     53  N   UNL A   1      43.419  31.060  32.505  1.00  0.00    -0.354 N 
ATOM     54  N   UNL A   1      40.884  32.389  31.854  1.00  0.00    -0.248 NA
ATOM     55  C   UNL A   1      39.378  34.146  32.170  1.00  0.00     0.031 C 
ATOM     56  C   UNL A   1      44.861  32.130  33.814  1.00  0.00     0.029 A 
ATOM     57  C   UNL A   1      43.606  32.223  33.234  1.00  0.00     0.049 A 
ATOM     58  H   UNL A   1      42.613  30.845  31.983  1.00  0.00     0.167 HD
ATOM     59  C   UNL A   1      41.447  33.325  32.715  1.00  0.00     0.074 A 
ATOM     60  C   UNL A   1      40.490  34.403  32.843  1.00  0.00     0.031 C 
ATOM     61  C   UNL A   1      42.647  33.292  33.347  1.00  0.00     0.037 A 
BRANCH  48  62
ATOM     62  C   UNL A   1      45.915  28.156  32.336  1.00  0.00     0.058 A 
ATOM     63  C   UNL A   1      47.128  28.402  31.677  1.00  0.00     0.135 A 
ATOM     64  C   UNL A   1      45.915  27.210  33.375  1.00  0.00     0.135 A 
ATOM     65  F   UNL A   1      47.182  29.284  30.665  1.00  0.00    -0.206 F 
ATOM     66  C   UNL A   1      48.297  27.736  32.031  1.00  0.00     0.059 A 
ATOM     67  C   UNL A   1      47.078  26.551  33.764  1.00  0.00     0.059 A 
ATOM     68  F   UNL A   1      44.780  26.932  34.036  1.00  0.00    -0.206 F 
ATOM     69  C   UNL A   1      48.264  26.819  33.083  1.00  0.00     0.060 A 
BRANCH  69  70
ATOM     70  S   UNL A   1      49.802  26.005  33.564  1.00  0.00     0.124 S 
ATOM     71  O   UNL A   1      49.997  26.525  34.914  1.00  0.00    -0.237 OA
ATOM     72  O   UNL A   1      49.445  24.592  33.475  1.00  0.00    -0.237 OA
ATOM     73  O   UNL A   1      50.762  26.470  32.568  1.00  0.00    -0.744 OA
ENDBRANCH  69  70
ENDBRANCH  48  62
BRANCH  49  74
ATOM     74  C   UNL A   1      37.367  32.968  30.394  1.00  0.00     0.058 A 
ATOM     75  C   UNL A   1      36.320  32.843  31.318  1.00  0.00     0.135 A 
ATOM     76  C   UNL A   1      37.136  33.744  29.248  1.00  0.00     0.135 A 
ATOM     77  F   UNL A   1      36.488  32.108  32.428  1.00  0.00    -0.206 F 
ATOM     78  C   UNL A   1      35.078  33.433  31.099  1.00  0.00     0.059 A 
ATOM     79  C   UNL A   1      35.915  34.370  29.021  1.00  0.00     0.059 A 
ATOM     80  F   UNL A   1      38.111  33.912  28.340  1.00  0.00    -0.206 F 
ATOM     81  C   UNL A   1      34.885  34.192  29.943  1.00  0.00     0.060 A 
BRANCH  81  82
ATOM     82  S   UNL A   1      33.274  34.961  29.673  1.00  0.00     0.124 S 
ATOM     83  O   UNL A   1      32.718  34.957  31.022  1.00  0.00    -0.237 OA
ATOM     84  O   UNL A   1      33.643  36.268  29.139  1.00  0.00    -0.237 OA
ATOM     85  O   UNL A   1      32.628  34.062  28.722  1.00  0.00    -0.744 OA
ENDBRANCH  81  82
ENDBRANCH  49  74
BRANCH  61  86
ATOM     86  C   UNL A   1      43.006  34.470  34.212  1.00  0.00     0.058 A 
ATOM     87  C   UNL A   1      42.777  34.464  35.597  1.00  0.00     0.135 A 
ATOM     88  C   UNL A   1      43.635  35.595  33.656  1.00  0.00     0.135 A 
ATOM     89  F   UNL A   1      42.172  33.415  36.178  1.00  0.00    -0.206 F 
ATOM     90  C   UNL A   1      43.135  35.544  36.396  1.00  0.00     0.059 A 
ATOM     91  C   UNL A   1      44.031  36.673  34.442  1.00  0.00     0.059 A 
ATOM     92  F   UNL A   1      43.887  35.648  32.339  1.00  0.00    -0.206 F 
ATOM     93  C   UNL A   1      43.766  36.643  35.810  1.00  0.00     0.060 A 
BRANCH  93  94
ATOM     94  S   UNL A   1      44.258  38.022  36.866  1.00  0.00     0.124 S 
ATOM     95  O   UNL A   1      44.256  39.133  35.919  1.00  0.00    -0.237 OA
ATOM     96  O   UNL A   1      43.198  38.041  37.869  1.00  0.00    -0.237 OA
ATOM     97  O   UNL A   1      45.572  37.621  37.359  1.00  0.00    -0.744 OA
ENDBRANCH  93  94
ENDBRANCH  61  86
ENDBRANCH  35  36
ENDBRANCH  27  30
ENDBRANCH  25  26
ENDBRANCH  24  25
ENDBRANCH   1  24
TORSDOF 17
ENDMDL
