MODEL 1
REMARK VINA RESULT:     -12.1      0.000      0.000
REMARK SMILES Cc1oc2ccc(NS(=O)(=O)c3ccc(C(C)C)cc3)cc2c1C(=O)NCCCNC(=O)c1ccc(-c2c3nc(c(-c4c(F)cc(S(=O)(=O)[O-])cc4F)c4ccc([nH]4)c(-c4c(F)cc(S(=O)(=O)[O-])cc4F)c4nc(c(-c5c(F)cc(S(=O)(=O)[O-])cc5F)c5ccc2[nH]5)C=C4)C=C3)cc1
REMARK SMILES IDX 27 1 26 2 24 3 25 4 23 6 1 7 2 8 3 9 4 10 22 11 5 12 21 13
REMARK SMILES IDX 6 14 7 15 8 16 9 18 10 19 11 20 12 21 13 22 20 23 14 24
REMARK SMILES IDX 19 25 15 26 16 27 17 28 18 29 28 30 29 31 30 32 31 33 32 35
REMARK SMILES IDX 33 36 34 37 98 38 35 39 97 40 36 41 37 42 38 43 91 44 39 45
REMARK SMILES IDX 96 46 90 47 92 48 40 49 95 50 89 51 88 52 41 54 75 55 54 56
REMARK SMILES IDX 74 57 55 58 58 59 73 60 93 61 56 62 57 63 72 65 94 66 59 67
REMARK SMILES IDX 42 68 43 69 52 70 44 71 45 72 51 73 53 74 46 75 47 76 48 77
REMARK SMILES IDX 49 78 50 79 76 80 77 81 86 82 78 83 79 84 85 85 87 86 80 87
REMARK SMILES IDX 81 88 82 89 83 90 84 91 60 92 61 93 70 94 62 95 63 96 69 97
REMARK SMILES IDX 71 98 64 99 65 100 66 101 67 102 68 103
REMARK H PARENT 26 5 8 17 30 34 92 53 58 64
REMARK Flexibility Score: inf
ROOT
ATOM      1  C   UNL A   1      45.575  39.158  26.216  1.00  0.00     0.118 C 
ENDROOT
BRANCH   1   2
ATOM      2  N   UNL A   1      44.202  39.399  26.616  1.00  0.00    -0.352 N 
ATOM      3  C   UNL A   1      43.504  40.566  26.827  1.00  0.00     0.255 C 
ATOM      4  O   UNL A   1      42.308  40.453  27.097  1.00  0.00    -0.269 OA
ATOM      5  H   UNL A   1      43.674  38.581  26.765  1.00  0.00     0.163 HD
BRANCH   3   6
ATOM      6  C   UNL A   1      44.152  41.870  26.823  1.00  0.00     0.088 A 
ATOM      7  C   UNL A   1      45.037  42.334  29.285  1.00  0.00     0.088 C 
ATOM      8  C   UNL A   1      44.730  42.592  27.860  1.00  0.00     0.114 A 
ATOM      9  O   UNL A   1      45.125  43.824  27.422  1.00  0.00    -0.461 OA
ATOM     10  C   UNL A   1      44.912  43.871  26.086  1.00  0.00     0.135 A 
ATOM     11  C   UNL A   1      44.403  42.662  25.643  1.00  0.00     0.035 A 
ATOM     12  C   UNL A   1      45.188  44.956  25.257  1.00  0.00     0.050 A 
ATOM     13  C   UNL A   1      44.245  42.486  24.250  1.00  0.00     0.039 A 
ATOM     14  C   UNL A   1      44.937  44.783  23.887  1.00  0.00     0.030 A 
ATOM     15  C   UNL A   1      44.471  43.563  23.379  1.00  0.00     0.050 A 
BRANCH  15  16
ATOM     16  N   UNL A   1      44.385  43.382  21.954  1.00  0.00    -0.280 N 
ATOM     17  H   UNL A   1      45.211  43.427  21.419  1.00  0.00     0.180 HD
BRANCH  16  18
ATOM     18  S   UNL A   1      42.901  43.093  21.162  1.00  0.00     0.261 S 
ATOM     19  O   UNL A   1      42.916  41.713  20.737  1.00  0.00    -0.201 OA
ATOM     20  O   UNL A   1      41.882  43.549  22.096  1.00  0.00    -0.201 OA
BRANCH  18  21
ATOM     21  C   UNL A   1      42.815  44.110  19.718  1.00  0.00     0.087 A 
ATOM     22  C   UNL A   1      41.576  44.476  19.188  1.00  0.00     0.022 A 
ATOM     23  C   UNL A   1      43.995  44.532  19.103  1.00  0.00     0.022 A 
ATOM     24  C   UNL A   1      41.523  45.379  18.124  1.00  0.00     0.005 A 
ATOM     25  C   UNL A   1      43.934  45.474  18.076  1.00  0.00     0.005 A 
ATOM     26  C   UNL A   1      42.697  45.948  17.606  1.00  0.00    -0.045 A 
BRANCH  26  27
ATOM     27  C   UNL A   1      42.678  47.081  16.593  1.00  0.00     0.013 C 
ATOM     28  C   UNL A   1      41.472  47.995  16.803  1.00  0.00     0.012 C 
ATOM     29  C   UNL A   1      43.974  47.900  16.556  1.00  0.00     0.012 C 
ENDBRANCH  26  27
ENDBRANCH  18  21
ENDBRANCH  16  18
ENDBRANCH  15  16
ENDBRANCH   3   6
ENDBRANCH   1   2
BRANCH   1  30
ATOM     30  C   UNL A   1      46.613  39.233  27.330  1.00  0.00     0.042 C 
BRANCH  30  31
ATOM     31  C   UNL A   1      46.631  38.091  28.336  1.00  0.00     0.118 C 
BRANCH  31  32
ATOM     32  N   UNL A   1      47.951  37.754  28.844  1.00  0.00    -0.352 N 
ATOM     33  C   UNL A   1      48.565  36.561  29.144  1.00  0.00     0.251 C 
ATOM     34  H   UNL A   1      48.521  38.540  29.005  1.00  0.00     0.163 HD
ATOM     35  O   UNL A   1      49.691  36.603  29.640  1.00  0.00    -0.269 OA
BRANCH  33  36
ATOM     36  C   UNL A   1      47.911  35.242  28.942  1.00  0.00     0.039 A 
ATOM     37  C   UNL A   1      47.487  34.907  27.647  1.00  0.00     0.014 A 
ATOM     38  C   UNL A   1      47.656  34.352  29.983  1.00  0.00     0.014 A 
ATOM     39  C   UNL A   1      46.901  33.661  27.392  1.00  0.00     0.010 A 
ATOM     40  C   UNL A   1      47.166  33.072  29.712  1.00  0.00     0.010 A 
ATOM     41  C   UNL A   1      46.784  32.707  28.413  1.00  0.00    -0.014 A 
BRANCH  41  42
ATOM     42  C   UNL A   1      46.276  31.331  28.147  1.00  0.00     0.031 A 
ATOM     43  C   UNL A   1      44.844  30.970  28.451  1.00  0.00     0.074 A 
ATOM     44  C   UNL A   1      47.124  30.378  27.709  1.00  0.00     0.049 A 
ATOM     45  N   UNL A   1      44.254  29.802  28.393  1.00  0.00    -0.248 NA
ATOM     46  C   UNL A   1      43.967  32.058  28.911  1.00  0.00     0.031 C 
ATOM     47  C   UNL A   1      48.547  30.576  27.423  1.00  0.00     0.029 A 
ATOM     48  N   UNL A   1      46.919  29.046  27.438  1.00  0.00    -0.354 N 
ATOM     49  C   UNL A   1      42.952  30.009  28.836  1.00  0.00     0.074 A 
ATOM     50  C   UNL A   1      42.851  31.405  29.203  1.00  0.00     0.031 C 
ATOM     51  C   UNL A   1      49.079  29.419  26.996  1.00  0.00     0.029 A 
ATOM     52  C   UNL A   1      48.049  28.385  27.019  1.00  0.00     0.049 A 
ATOM     53  H   UNL A   1      46.043  28.607  27.536  1.00  0.00     0.167 HD
ATOM     54  C   UNL A   1      41.928  29.124  28.910  1.00  0.00     0.037 A 
ATOM     55  C   UNL A   1      48.244  27.089  26.697  1.00  0.00     0.037 A 
ATOM     56  C   UNL A   1      42.018  27.747  28.502  1.00  0.00     0.049 A 
ATOM     57  C   UNL A   1      47.087  26.132  26.766  1.00  0.00     0.074 A 
ATOM     58  C   UNL A   1      41.015  26.793  28.470  1.00  0.00     0.029 A 
ATOM     59  N   UNL A   1      43.172  27.126  28.049  1.00  0.00    -0.354 N 
ATOM     60  N   UNL A   1      45.849  26.361  27.135  1.00  0.00    -0.248 NA
ATOM     61  C   UNL A   1      47.350  24.741  26.371  1.00  0.00     0.031 C 
ATOM     62  C   UNL A   1      41.572  25.585  28.035  1.00  0.00     0.029 A 
ATOM     63  C   UNL A   1      42.911  25.798  27.753  1.00  0.00     0.049 A 
ATOM     64  H   UNL A   1      44.048  27.565  27.954  1.00  0.00     0.167 HD
ATOM     65  C   UNL A   1      45.180  25.150  26.992  1.00  0.00     0.074 A 
ATOM     66  C   UNL A   1      46.147  24.195  26.493  1.00  0.00     0.031 C 
ATOM     67  C   UNL A   1      43.881  24.857  27.249  1.00  0.00     0.037 A 
BRANCH  54  68
ATOM     68  C   UNL A   1      40.613  29.621  29.448  1.00  0.00     0.058 A 
ATOM     69  C   UNL A   1      39.524  29.891  28.603  1.00  0.00     0.135 A 
ATOM     70  C   UNL A   1      40.427  29.796  30.829  1.00  0.00     0.135 A 
ATOM     71  F   UNL A   1      39.649  29.753  27.274  1.00  0.00    -0.206 F 
ATOM     72  C   UNL A   1      38.309  30.346  29.104  1.00  0.00     0.059 A 
ATOM     73  C   UNL A   1      39.210  30.224  31.355  1.00  0.00     0.059 A 
ATOM     74  F   UNL A   1      41.432  29.552  31.684  1.00  0.00    -0.206 F 
ATOM     75  C   UNL A   1      38.163  30.512  30.482  1.00  0.00     0.060 A 
BRANCH  75  76
ATOM     76  S   UNL A   1      36.579  31.105  31.115  1.00  0.00     0.124 S 
ATOM     77  O   UNL A   1      36.959  32.395  31.685  1.00  0.00    -0.237 OA
ATOM     78  O   UNL A   1      35.760  31.162  29.908  1.00  0.00    -0.237 OA
ATOM     79  O   UNL A   1      36.194  30.081  32.082  1.00  0.00    -0.744 OA
ENDBRANCH  75  76
ENDBRANCH  54  68
BRANCH  55  80
ATOM     80  C   UNL A   1      49.588  26.630  26.255  1.00  0.00     0.058 A 
ATOM     81  C   UNL A   1      50.056  26.919  24.965  1.00  0.00     0.135 A 
ATOM     82  C   UNL A   1      50.436  25.915  27.114  1.00  0.00     0.135 A 
ATOM     83  F   UNL A   1      49.278  27.593  24.104  1.00  0.00    -0.206 F 
ATOM     84  C   UNL A   1      51.314  26.507  24.536  1.00  0.00     0.059 A 
ATOM     85  C   UNL A   1      51.709  25.514  26.717  1.00  0.00     0.059 A 
ATOM     86  F   UNL A   1      50.042  25.629  28.365  1.00  0.00    -0.206 F 
ATOM     87  C   UNL A   1      52.134  25.808  25.422  1.00  0.00     0.060 A 
BRANCH  87  88
ATOM     88  S   UNL A   1      53.789  25.331  24.877  1.00  0.00     0.124 S 
ATOM     89  O   UNL A   1      54.610  25.799  25.988  1.00  0.00    -0.237 OA
ATOM     90  O   UNL A   1      53.662  23.884  24.740  1.00  0.00    -0.237 OA
ATOM     91  O   UNL A   1      53.950  26.059  23.621  1.00  0.00    -0.744 OA
ENDBRANCH  87  88
ENDBRANCH  55  80
BRANCH  67  92
ATOM     92  C   UNL A   1      43.416  23.457  26.964  1.00  0.00     0.058 A 
ATOM     93  C   UNL A   1      43.250  22.987  25.652  1.00  0.00     0.135 A 
ATOM     94  C   UNL A   1      43.187  22.557  28.018  1.00  0.00     0.135 A 
ATOM     95  F   UNL A   1      43.449  23.809  24.610  1.00  0.00    -0.206 F 
ATOM     96  C   UNL A   1      42.851  21.680  25.394  1.00  0.00     0.059 A 
ATOM     97  C   UNL A   1      42.813  21.237  27.782  1.00  0.00     0.059 A 
ATOM     98  F   UNL A   1      43.342  22.953  29.291  1.00  0.00    -0.206 F 
ATOM     99  C   UNL A   1      42.637  20.812  26.467  1.00  0.00     0.060 A 
BRANCH  99 100
ATOM    100  S   UNL A   1      42.153  19.107  26.118  1.00  0.00     0.124 S 
ATOM    101  O   UNL A   1      40.713  19.243  25.926  1.00  0.00    -0.237 OA
ATOM    102  O   UNL A   1      42.927  18.800  24.919  1.00  0.00    -0.237 OA
ATOM    103  O   UNL A   1      42.562  18.386  27.320  1.00  0.00    -0.744 OA
ENDBRANCH  99 100
ENDBRANCH  67  92
ENDBRANCH  41  42
ENDBRANCH  33  36
ENDBRANCH  31  32
ENDBRANCH  30  31
ENDBRANCH   1  30
TORSDOF 17
ENDMDL
MODEL 2
REMARK VINA RESULT:     -12.0      9.118     17.040
REMARK SMILES Cc1oc2ccc(NS(=O)(=O)c3ccc(C(C)C)cc3)cc2c1C(=O)NCCCNC(=O)c1ccc(-c2c3nc(c(-c4c(F)cc(S(=O)(=O)[O-])cc4F)c4ccc([nH]4)c(-c4c(F)cc(S(=O)(=O)[O-])cc4F)c4nc(c(-c5c(F)cc(S(=O)(=O)[O-])cc5F)c5ccc2[nH]5)C=C4)C=C3)cc1
REMARK SMILES IDX 27 1 26 2 24 3 25 4 23 6 1 7 2 8 3 9 4 10 22 11 5 12 21 13
REMARK SMILES IDX 6 14 7 15 8 16 9 18 10 19 11 20 12 21 13 22 20 23 14 24
REMARK SMILES IDX 19 25 15 26 16 27 17 28 18 29 28 30 29 31 30 32 31 33 32 35
REMARK SMILES IDX 33 36 34 37 98 38 35 39 97 40 36 41 37 42 38 43 91 44 39 45
REMARK SMILES IDX 96 46 90 47 92 48 40 49 95 50 89 51 88 52 41 54 75 55 54 56
REMARK SMILES IDX 74 57 55 58 58 59 73 60 93 61 56 62 57 63 72 65 94 66 59 67
REMARK SMILES IDX 42 68 43 69 52 70 44 71 45 72 51 73 53 74 46 75 47 76 48 77
REMARK SMILES IDX 49 78 50 79 76 80 77 81 86 82 78 83 79 84 85 85 87 86 80 87
REMARK SMILES IDX 81 88 82 89 83 90 84 91 60 92 61 93 70 94 62 95 63 96 69 97
REMARK SMILES IDX 71 98 64 99 65 100 66 101 67 102 68 103
REMARK H PARENT 26 5 8 17 30 34 92 53 58 64
REMARK Flexibility Score: inf
ROOT
ATOM      1  C   UNL A   1      50.355  24.663  35.402  1.00  0.00     0.118 C 
ENDROOT
BRANCH   1   2
ATOM      2  N   UNL A   1      50.479  23.768  34.269  1.00  0.00    -0.352 N 
ATOM      3  C   UNL A   1      50.090  22.459  34.092  1.00  0.00     0.255 C 
ATOM      4  O   UNL A   1      50.271  21.976  32.973  1.00  0.00    -0.269 OA
ATOM      5  H   UNL A   1      50.922  24.166  33.485  1.00  0.00     0.163 HD
BRANCH   3   6
ATOM      6  C   UNL A   1      49.574  21.648  35.185  1.00  0.00     0.088 A 
ATOM      7  C   UNL A   1      51.618  21.049  36.774  1.00  0.00     0.088 C 
ATOM      8  C   UNL A   1      50.235  21.042  36.247  1.00  0.00     0.114 A 
ATOM      9  O   UNL A   1      49.367  20.283  36.979  1.00  0.00    -0.461 OA
ATOM     10  C   UNL A   1      48.126  20.477  36.471  1.00  0.00     0.135 A 
ATOM     11  C   UNL A   1      48.177  21.382  35.426  1.00  0.00     0.035 A 
ATOM     12  C   UNL A   1      46.955  19.885  36.941  1.00  0.00     0.050 A 
ATOM     13  C   UNL A   1      46.952  21.805  34.863  1.00  0.00     0.039 A 
ATOM     14  C   UNL A   1      45.762  20.257  36.303  1.00  0.00     0.030 A 
ATOM     15  C   UNL A   1      45.750  21.207  35.273  1.00  0.00     0.050 A 
BRANCH  15  16
ATOM     16  N   UNL A   1      44.488  21.677  34.764  1.00  0.00    -0.280 N 
ATOM     17  H   UNL A   1      43.893  21.039  34.308  1.00  0.00     0.180 HD
BRANCH  16  18
ATOM     18  S   UNL A   1      43.993  23.302  34.923  1.00  0.00     0.261 S 
ATOM     19  O   UNL A   1      42.559  23.320  34.754  1.00  0.00    -0.201 OA
ATOM     20  O   UNL A   1      44.577  23.752  36.179  1.00  0.00    -0.201 OA
BRANCH  18  21
ATOM     21  C   UNL A   1      44.712  24.250  33.615  1.00  0.00     0.087 A 
ATOM     22  C   UNL A   1      45.716  25.180  33.889  1.00  0.00     0.022 A 
ATOM     23  C   UNL A   1      44.256  24.073  32.307  1.00  0.00     0.022 A 
ATOM     24  C   UNL A   1      46.359  25.831  32.833  1.00  0.00     0.005 A 
ATOM     25  C   UNL A   1      44.937  24.685  31.255  1.00  0.00     0.005 A 
ATOM     26  C   UNL A   1      46.030  25.534  31.501  1.00  0.00    -0.045 A 
BRANCH  26  27
ATOM     27  C   UNL A   1      46.836  26.059  30.324  1.00  0.00     0.013 C 
ATOM     28  C   UNL A   1      46.386  27.462  29.923  1.00  0.00     0.012 C 
ATOM     29  C   UNL A   1      48.353  26.022  30.546  1.00  0.00     0.012 C 
ENDBRANCH  26  27
ENDBRANCH  18  21
ENDBRANCH  16  18
ENDBRANCH  15  16
ENDBRANCH   3   6
ENDBRANCH   1   2
BRANCH   1  30
ATOM     30  C   UNL A   1      49.027  25.404  35.519  1.00  0.00     0.042 C 
BRANCH  30  31
ATOM     31  C   UNL A   1      48.114  25.007  36.671  1.00  0.00     0.118 C 
BRANCH  31  32
ATOM     32  N   UNL A   1      48.162  25.902  37.816  1.00  0.00    -0.352 N 
ATOM     33  C   UNL A   1      47.456  27.032  38.155  1.00  0.00     0.251 C 
ATOM     34  H   UNL A   1      48.837  25.646  38.485  1.00  0.00     0.163 HD
ATOM     35  O   UNL A   1      47.785  27.628  39.181  1.00  0.00    -0.269 OA
BRANCH  33  36
ATOM     36  C   UNL A   1      46.360  27.582  37.317  1.00  0.00     0.039 A 
ATOM     37  C   UNL A   1      45.063  27.087  37.517  1.00  0.00     0.014 A 
ATOM     38  C   UNL A   1      46.570  28.524  36.312  1.00  0.00     0.014 A 
ATOM     39  C   UNL A   1      43.985  27.597  36.783  1.00  0.00     0.010 A 
ATOM     40  C   UNL A   1      45.484  29.105  35.652  1.00  0.00     0.010 A 
ATOM     41  C   UNL A   1      44.177  28.653  35.880  1.00  0.00    -0.014 A 
BRANCH  41  42
ATOM     42  C   UNL A   1      43.034  29.297  35.173  1.00  0.00     0.031 A 
ATOM     43  C   UNL A   1      42.651  28.866  33.780  1.00  0.00     0.074 A 
ATOM     44  C   UNL A   1      42.389  30.332  35.750  1.00  0.00     0.049 A 
ATOM     45  N   UNL A   1      41.765  29.383  32.966  1.00  0.00    -0.248 NA
ATOM     46  C   UNL A   1      43.383  27.722  33.213  1.00  0.00     0.031 C 
ATOM     47  C   UNL A   1      42.689  30.887  37.072  1.00  0.00     0.029 A 
ATOM     48  N   UNL A   1      41.354  31.113  35.295  1.00  0.00    -0.354 N 
ATOM     49  C   UNL A   1      41.853  28.650  31.788  1.00  0.00     0.074 A 
ATOM     50  C   UNL A   1      42.912  27.681  31.975  1.00  0.00     0.031 C 
ATOM     51  C   UNL A   1      41.845  31.899  37.330  1.00  0.00     0.029 A 
ATOM     52  C   UNL A   1      40.972  32.097  36.177  1.00  0.00     0.049 A 
ATOM     53  H   UNL A   1      40.926  30.981  34.417  1.00  0.00     0.167 HD
ATOM     54  C   UNL A   1      41.108  28.758  30.661  1.00  0.00     0.037 A 
ATOM     55  C   UNL A   1      40.033  33.059  36.071  1.00  0.00     0.037 A 
ATOM     56  C   UNL A   1      40.025  29.691  30.494  1.00  0.00     0.049 A 
ATOM     57  C   UNL A   1      39.203  33.145  34.820  1.00  0.00     0.074 A 
ATOM     58  C   UNL A   1      39.164  29.825  29.417  1.00  0.00     0.029 A 
ATOM     59  N   UNL A   1      39.648  30.646  31.426  1.00  0.00    -0.354 N 
ATOM     60  N   UNL A   1      39.266  32.405  33.738  1.00  0.00    -0.248 NA
ATOM     61  C   UNL A   1      38.172  34.190  34.775  1.00  0.00     0.031 C 
ATOM     62  C   UNL A   1      38.292  30.887  29.683  1.00  0.00     0.029 A 
ATOM     63  C   UNL A   1      38.579  31.384  30.943  1.00  0.00     0.049 A 
ATOM     64  H   UNL A   1      40.077  30.779  32.302  1.00  0.00     0.167 HD
ATOM     65  C   UNL A   1      38.267  32.880  32.895  1.00  0.00     0.074 A 
ATOM     66  C   UNL A   1      37.608  33.962  33.597  1.00  0.00     0.031 C 
ATOM     67  C   UNL A   1      37.926  32.455  31.653  1.00  0.00     0.037 A 
BRANCH  54  68
ATOM     68  C   UNL A   1      41.433  27.834  29.517  1.00  0.00     0.058 A 
ATOM     69  C   UNL A   1      40.586  26.773  29.161  1.00  0.00     0.135 A 
ATOM     70  C   UNL A   1      42.588  28.036  28.744  1.00  0.00     0.135 A 
ATOM     71  F   UNL A   1      39.475  26.526  29.874  1.00  0.00    -0.206 F 
ATOM     72  C   UNL A   1      40.888  25.924  28.102  1.00  0.00     0.059 A 
ATOM     73  C   UNL A   1      42.895  27.216  27.661  1.00  0.00     0.059 A 
ATOM     74  F   UNL A   1      43.433  29.037  29.037  1.00  0.00    -0.206 F 
ATOM     75  C   UNL A   1      42.046  26.153  27.358  1.00  0.00     0.060 A 
BRANCH  75  76
ATOM     76  S   UNL A   1      42.424  25.040  25.986  1.00  0.00     0.124 S 
ATOM     77  O   UNL A   1      43.819  24.707  26.259  1.00  0.00    -0.237 OA
ATOM     78  O   UNL A   1      41.463  23.960  26.186  1.00  0.00    -0.237 OA
ATOM     79  O   UNL A   1      42.196  25.868  24.806  1.00  0.00    -0.744 OA
ENDBRANCH  75  76
ENDBRANCH  54  68
BRANCH  55  80
ATOM     80  C   UNL A   1      39.811  34.004  37.198  1.00  0.00     0.058 A 
ATOM     81  C   UNL A   1      38.993  33.650  38.281  1.00  0.00     0.135 A 
ATOM     82  C   UNL A   1      40.424  35.266  37.227  1.00  0.00     0.135 A 
ATOM     83  F   UNL A   1      38.378  32.457  38.295  1.00  0.00    -0.206 F 
ATOM     84  C   UNL A   1      38.781  34.516  39.349  1.00  0.00     0.059 A 
ATOM     85  C   UNL A   1      40.248  36.140  38.296  1.00  0.00     0.059 A 
ATOM     86  F   UNL A   1      41.230  35.645  36.223  1.00  0.00    -0.206 F 
ATOM     87  C   UNL A   1      39.417  35.758  39.349  1.00  0.00     0.060 A 
BRANCH  87  88
ATOM     88  S   UNL A   1      39.185  36.850  40.769  1.00  0.00     0.124 S 
ATOM     89  O   UNL A   1      38.394  37.926  40.186  1.00  0.00    -0.237 OA
ATOM     90  O   UNL A   1      38.488  35.982  41.712  1.00  0.00    -0.237 OA
ATOM     91  O   UNL A   1      40.551  37.202  41.146  1.00  0.00    -0.744 OA
ENDBRANCH  87  88
ENDBRANCH  55  80
BRANCH  67  92
ATOM     92  C   UNL A   1      36.766  33.136  30.982  1.00  0.00     0.058 A 
ATOM     93  C   UNL A   1      36.953  34.043  29.927  1.00  0.00     0.135 A 
ATOM     94  C   UNL A   1      35.449  32.836  31.365  1.00  0.00     0.135 A 
ATOM     95  F   UNL A   1      38.192  34.368  29.527  1.00  0.00    -0.206 F 
ATOM     96  C   UNL A   1      35.873  34.645  29.288  1.00  0.00     0.059 A 
ATOM     97  C   UNL A   1      34.354  33.407  30.723  1.00  0.00     0.059 A 
ATOM     98  F   UNL A   1      35.215  31.968  32.362  1.00  0.00    -0.206 F 
ATOM     99  C   UNL A   1      34.578  34.319  29.693  1.00  0.00     0.060 A 
BRANCH  99 100
ATOM    100  S   UNL A   1      33.184  35.080  28.833  1.00  0.00     0.124 S 
ATOM    101  O   UNL A   1      32.760  34.001  27.947  1.00  0.00    -0.237 OA
ATOM    102  O   UNL A   1      32.274  35.397  29.929  1.00  0.00    -0.237 OA
ATOM    103  O   UNL A   1      33.784  36.236  28.172  1.00  0.00    -0.744 OA
ENDBRANCH  99 100
ENDBRANCH  67  92
ENDBRANCH  41  42
ENDBRANCH  33  36
ENDBRANCH  31  32
ENDBRANCH  30  31
ENDBRANCH   1  30
TORSDOF 17
ENDMDL
MODEL 3
REMARK VINA RESULT:     -12.0      7.232     12.798
REMARK SMILES Cc1oc2ccc(NS(=O)(=O)c3ccc(C(C)C)cc3)cc2c1C(=O)NCCCNC(=O)c1ccc(-c2c3nc(c(-c4c(F)cc(S(=O)(=O)[O-])cc4F)c4ccc([nH]4)c(-c4c(F)cc(S(=O)(=O)[O-])cc4F)c4nc(c(-c5c(F)cc(S(=O)(=O)[O-])cc5F)c5ccc2[nH]5)C=C4)C=C3)cc1
REMARK SMILES IDX 27 1 26 2 24 3 25 4 23 6 1 7 2 8 3 9 4 10 22 11 5 12 21 13
REMARK SMILES IDX 6 14 7 15 8 16 9 18 10 19 11 20 12 21 13 22 20 23 14 24
REMARK SMILES IDX 19 25 15 26 16 27 17 28 18 29 28 30 29 31 30 32 31 33 32 35
REMARK SMILES IDX 33 36 34 37 98 38 35 39 97 40 36 41 37 42 38 43 91 44 39 45
REMARK SMILES IDX 96 46 90 47 92 48 40 49 95 50 89 51 88 52 41 54 75 55 54 56
REMARK SMILES IDX 74 57 55 58 58 59 73 60 93 61 56 62 57 63 72 65 94 66 59 67
REMARK SMILES IDX 42 68 43 69 52 70 44 71 45 72 51 73 53 74 46 75 47 76 48 77
REMARK SMILES IDX 49 78 50 79 76 80 77 81 86 82 78 83 79 84 85 85 87 86 80 87
REMARK SMILES IDX 81 88 82 89 83 90 84 91 60 92 61 93 70 94 62 95 63 96 69 97
REMARK SMILES IDX 71 98 64 99 65 100 66 101 67 102 68 103
REMARK H PARENT 26 5 8 17 30 34 92 53 58 64
REMARK Flexibility Score: inf
ROOT
ATOM      1  C   UNL A   1      35.859  32.446  30.211  1.00  0.00     0.118 C 
ENDROOT
BRANCH   1   2
ATOM      2  N   UNL A   1      36.942  33.386  29.993  1.00  0.00    -0.352 N 
ATOM      3  C   UNL A   1      37.690  34.136  30.871  1.00  0.00     0.255 C 
ATOM      4  O   UNL A   1      38.605  34.803  30.387  1.00  0.00    -0.269 OA
ATOM      5  H   UNL A   1      37.186  33.510  29.048  1.00  0.00     0.163 HD
BRANCH   3   6
ATOM      6  C   UNL A   1      37.371  34.218  32.290  1.00  0.00     0.088 A 
ATOM      7  C   UNL A   1      34.997  35.393  32.512  1.00  0.00     0.088 C 
ATOM      8  C   UNL A   1      36.279  34.784  32.936  1.00  0.00     0.114 A 
ATOM      9  O   UNL A   1      36.443  34.727  34.291  1.00  0.00    -0.461 OA
ATOM     10  C   UNL A   1      37.579  34.031  34.536  1.00  0.00     0.135 A 
ATOM     11  C   UNL A   1      38.143  33.608  33.345  1.00  0.00     0.035 A 
ATOM     12  C   UNL A   1      38.099  33.745  35.796  1.00  0.00     0.050 A 
ATOM     13  C   UNL A   1      39.265  32.753  33.417  1.00  0.00     0.039 A 
ATOM     14  C   UNL A   1      39.267  32.966  35.833  1.00  0.00     0.030 A 
ATOM     15  C   UNL A   1      39.851  32.469  34.661  1.00  0.00     0.050 A 
BRANCH  15  16
ATOM     16  N   UNL A   1      40.947  31.542  34.759  1.00  0.00    -0.280 N 
ATOM     17  H   UNL A   1      41.697  31.625  34.127  1.00  0.00     0.180 HD
BRANCH  16  18
ATOM     18  S   UNL A   1      40.986  30.304  35.932  1.00  0.00     0.261 S 
ATOM     19  O   UNL A   1      41.644  30.852  37.096  1.00  0.00    -0.201 OA
ATOM     20  O   UNL A   1      39.611  29.838  36.035  1.00  0.00    -0.201 OA
BRANCH  18  21
ATOM     21  C   UNL A   1      41.972  28.968  35.323  1.00  0.00     0.087 A 
ATOM     22  C   UNL A   1      43.242  28.732  35.854  1.00  0.00     0.022 A 
ATOM     23  C   UNL A   1      41.479  28.162  34.297  1.00  0.00     0.022 A 
ATOM     24  C   UNL A   1      43.957  27.602  35.452  1.00  0.00     0.005 A 
ATOM     25  C   UNL A   1      42.173  27.006  33.939  1.00  0.00     0.005 A 
ATOM     26  C   UNL A   1      43.399  26.685  34.547  1.00  0.00    -0.045 A 
BRANCH  26  27
ATOM     27  C   UNL A   1      44.047  25.345  34.238  1.00  0.00     0.013 C 
ATOM     28  C   UNL A   1      43.188  24.184  34.735  1.00  0.00     0.012 C 
ATOM     29  C   UNL A   1      44.404  25.156  32.759  1.00  0.00     0.012 C 
ENDBRANCH  26  27
ENDBRANCH  18  21
ENDBRANCH  16  18
ENDBRANCH  15  16
ENDBRANCH   3   6
ENDBRANCH   1   2
BRANCH   1  30
ATOM     30  C   UNL A   1      34.502  32.856  29.649  1.00  0.00     0.042 C 
BRANCH  30  31
ATOM     31  C   UNL A   1      34.244  32.557  28.179  1.00  0.00     0.118 C 
BRANCH  31  32
ATOM     32  N   UNL A   1      33.785  31.204  27.909  1.00  0.00    -0.352 N 
ATOM     33  C   UNL A   1      34.420  29.984  27.881  1.00  0.00     0.251 C 
ATOM     34  H   UNL A   1      32.824  31.150  27.705  1.00  0.00     0.163 HD
ATOM     35  O   UNL A   1      33.762  29.003  27.538  1.00  0.00    -0.269 OA
BRANCH  33  36
ATOM     36  C   UNL A   1      35.862  29.817  28.196  1.00  0.00     0.039 A 
ATOM     37  C   UNL A   1      36.210  29.357  29.475  1.00  0.00     0.014 A 
ATOM     38  C   UNL A   1      36.879  30.143  27.301  1.00  0.00     0.014 A 
ATOM     39  C   UNL A   1      37.552  29.143  29.813  1.00  0.00     0.010 A 
ATOM     40  C   UNL A   1      38.208  29.834  27.602  1.00  0.00     0.010 A 
ATOM     41  C   UNL A   1      38.563  29.328  28.860  1.00  0.00    -0.014 A 
BRANCH  41  42
ATOM     42  C   UNL A   1      39.987  28.994  29.152  1.00  0.00     0.031 A 
ATOM     43  C   UNL A   1      40.913  30.029  29.737  1.00  0.00     0.074 A 
ATOM     44  C   UNL A   1      40.472  27.781  28.813  1.00  0.00     0.049 A 
ATOM     45  N   UNL A   1      42.203  29.960  29.953  1.00  0.00    -0.248 NA
ATOM     46  C   UNL A   1      40.318  31.325  30.100  1.00  0.00     0.031 C 
ATOM     47  C   UNL A   1      39.700  26.702  28.192  1.00  0.00     0.029 A 
ATOM     48  N   UNL A   1      41.736  27.254  28.930  1.00  0.00    -0.354 N 
ATOM     49  C   UNL A   1      42.576  31.205  30.445  1.00  0.00     0.074 A 
ATOM     50  C   UNL A   1      41.385  32.027  30.453  1.00  0.00     0.031 C 
ATOM     51  C   UNL A   1      40.497  25.638  28.005  1.00  0.00     0.029 A 
ATOM     52  C   UNL A   1      41.847  25.970  28.450  1.00  0.00     0.049 A 
ATOM     53  H   UNL A   1      42.492  27.750  29.320  1.00  0.00     0.167 HD
ATOM     54  C   UNL A   1      43.794  31.621  30.871  1.00  0.00     0.037 A 
ATOM     55  C   UNL A   1      42.915  25.150  28.366  1.00  0.00     0.037 A 
ATOM     56  C   UNL A   1      44.967  30.788  30.906  1.00  0.00     0.049 A 
ATOM     57  C   UNL A   1      44.251  25.627  28.867  1.00  0.00     0.074 A 
ATOM     58  C   UNL A   1      46.227  31.098  31.390  1.00  0.00     0.029 A 
ATOM     59  N   UNL A   1      45.028  29.482  30.444  1.00  0.00    -0.354 N 
ATOM     60  N   UNL A   1      44.570  26.791  29.380  1.00  0.00    -0.248 NA
ATOM     61  C   UNL A   1      45.370  24.679  28.782  1.00  0.00     0.031 C 
ATOM     62  C   UNL A   1      47.060  29.992  31.185  1.00  0.00     0.029 A 
ATOM     63  C   UNL A   1      46.307  28.978  30.615  1.00  0.00     0.049 A 
ATOM     64  H   UNL A   1      44.273  28.987  30.052  1.00  0.00     0.167 HD
ATOM     65  C   UNL A   1      45.920  26.706  29.703  1.00  0.00     0.074 A 
ATOM     66  C   UNL A   1      46.354  25.374  29.337  1.00  0.00     0.031 C 
ATOM     67  C   UNL A   1      46.726  27.647  30.254  1.00  0.00     0.037 A 
BRANCH  54  68
ATOM     68  C   UNL A   1      43.919  33.045  31.346  1.00  0.00     0.058 A 
ATOM     69  C   UNL A   1      44.174  34.100  30.455  1.00  0.00     0.135 A 
ATOM     70  C   UNL A   1      43.743  33.363  32.702  1.00  0.00     0.135 A 
ATOM     71  F   UNL A   1      44.363  33.853  29.149  1.00  0.00    -0.206 F 
ATOM     72  C   UNL A   1      44.285  35.415  30.897  1.00  0.00     0.059 A 
ATOM     73  C   UNL A   1      43.822  34.675  33.162  1.00  0.00     0.059 A 
ATOM     74  F   UNL A   1      43.494  32.395  33.598  1.00  0.00    -0.206 F 
ATOM     75  C   UNL A   1      44.109  35.692  32.253  1.00  0.00     0.060 A 
BRANCH  75  76
ATOM     76  S   UNL A   1      44.257  37.404  32.809  1.00  0.00     0.124 S 
ATOM     77  O   UNL A   1      43.263  37.449  33.878  1.00  0.00    -0.237 OA
ATOM     78  O   UNL A   1      45.651  37.475  33.236  1.00  0.00    -0.237 OA
ATOM     79  O   UNL A   1      43.929  38.178  31.616  1.00  0.00    -0.744 OA
ENDBRANCH  75  76
ENDBRANCH  54  68
BRANCH  55  80
ATOM     80  C   UNL A   1      42.755  23.781  27.807  1.00  0.00     0.058 A 
ATOM     81  C   UNL A   1      42.763  23.567  26.421  1.00  0.00     0.135 A 
ATOM     82  C   UNL A   1      42.613  22.662  28.642  1.00  0.00     0.135 A 
ATOM     83  F   UNL A   1      42.888  24.607  25.582  1.00  0.00    -0.206 F 
ATOM     84  C   UNL A   1      42.625  22.293  25.879  1.00  0.00     0.059 A 
ATOM     85  C   UNL A   1      42.499  21.374  28.124  1.00  0.00     0.059 A 
ATOM     86  F   UNL A   1      42.617  22.812  29.975  1.00  0.00    -0.206 F 
ATOM     87  C   UNL A   1      42.497  21.202  26.740  1.00  0.00     0.060 A 
BRANCH  87  88
ATOM     88  S   UNL A   1      42.381  19.546  26.029  1.00  0.00     0.124 S 
ATOM     89  O   UNL A   1      42.746  18.711  27.167  1.00  0.00    -0.237 OA
ATOM     90  O   UNL A   1      40.983  19.488  25.615  1.00  0.00    -0.237 OA
ATOM     91  O   UNL A   1      43.348  19.583  24.935  1.00  0.00    -0.744 OA
ENDBRANCH  87  88
ENDBRANCH  55  80
BRANCH  67  92
ATOM     92  C   UNL A   1      48.153  27.262  30.530  1.00  0.00     0.058 A 
ATOM     93  C   UNL A   1      48.528  26.625  31.723  1.00  0.00     0.135 A 
ATOM     94  C   UNL A   1      49.147  27.486  29.564  1.00  0.00     0.135 A 
ATOM     95  F   UNL A   1      47.617  26.393  32.681  1.00  0.00    -0.206 F 
ATOM     96  C   UNL A   1      49.844  26.242  31.958  1.00  0.00     0.059 A 
ATOM     97  C   UNL A   1      50.465  27.087  29.768  1.00  0.00     0.059 A 
ATOM     98  F   UNL A   1      48.839  28.083  28.402  1.00  0.00    -0.206 F 
ATOM     99  C   UNL A   1      50.806  26.476  30.973  1.00  0.00     0.060 A 
BRANCH  99 100
ATOM    100  S   UNL A   1      52.504  25.942  31.276  1.00  0.00     0.124 S 
ATOM    101  O   UNL A   1      53.056  25.937  29.925  1.00  0.00    -0.237 OA
ATOM    102  O   UNL A   1      53.007  26.987  32.163  1.00  0.00    -0.237 OA
ATOM    103  O   UNL A   1      52.342  24.630  31.894  1.00  0.00    -0.744 OA
ENDBRANCH  99 100
ENDBRANCH  67  92
ENDBRANCH  41  42
ENDBRANCH  33  36
ENDBRANCH  31  32
ENDBRANCH  30  31
ENDBRANCH   1  30
TORSDOF 17
ENDMDL
