MODEL 1
REMARK VINA RESULT:     -12.3      0.000      0.000
REMARK SMILES Cc1nsc(NC(=O)c2ccc(N)cc2)c1C(=O)NCCCNC(=O)c1ccc(-c2c3nc(c(-c4c(F)cc(S(=O)(=O)[O-])cc4F)c4ccc([nH]4)c(-c4c(F)cc(S(=O)(=O)[O-])cc4F)c4nc(c(-c5c(F)cc(S(=O)(=O)[O-])cc5F)c5ccc2[nH]5)C=C4)C=C3)cc1
REMARK SMILES IDX 21 1 20 2 19 3 17 4 18 5 16 7 1 8 2 9 3 10 4 11 5 12 6 13
REMARK SMILES IDX 7 14 8 16 9 17 10 18 15 19 11 20 14 21 12 22 13 23 22 26
REMARK SMILES IDX 23 27 24 28 25 30 26 31 27 32 91 33 28 34 90 35 29 36 30 37
REMARK SMILES IDX 31 38 84 39 32 40 89 41 83 42 85 43 33 44 88 45 82 46 81 47
REMARK SMILES IDX 34 49 68 50 47 51 67 52 48 53 51 54 66 55 86 56 49 57 50 58
REMARK SMILES IDX 65 60 87 61 52 62 35 63 36 64 45 65 37 66 38 67 44 68 46 69
REMARK SMILES IDX 39 70 40 71 41 72 42 73 43 74 69 75 70 76 79 77 71 78 72 79
REMARK SMILES IDX 78 80 80 81 73 82 74 83 75 84 76 85 77 86 53 87 54 88 63 89
REMARK SMILES IDX 55 90 56 91 62 92 64 93 57 94 58 95 59 96 60 97 61 98
REMARK H PARENT 19 6 6 15 13 24 13 25 23 29 85 48 51 59
REMARK Flexibility Score: inf
ROOT
ATOM      1  C   UNL A   1      38.767  22.308  26.127  1.00  0.00     0.042 C 
ENDROOT
BRANCH   1   2
ATOM      2  C   UNL A   1      37.713  23.415  26.146  1.00  0.00     0.118 C 
BRANCH   2   3
ATOM      3  N   UNL A   1      36.444  22.966  26.658  1.00  0.00    -0.352 N 
ATOM      4  C   UNL A   1      35.228  22.691  26.101  1.00  0.00     0.256 C 
ATOM      5  O   UNL A   1      34.465  22.107  26.883  1.00  0.00    -0.269 OA
ATOM      6  H   UNL A   1      36.455  22.827  27.631  1.00  0.00     0.163 HD
BRANCH   4   7
ATOM      7  C   UNL A   1      34.763  23.028  24.741  1.00  0.00     0.097 A 
ATOM      8  C   UNL A   1      36.686  22.662  22.869  1.00  0.00     0.069 C 
ATOM      9  C   UNL A   1      35.361  23.070  23.401  1.00  0.00     0.066 A 
ATOM     10  N   UNL A   1      34.603  23.607  22.439  1.00  0.00    -0.195 NA
ATOM     11  S   UNL A   1      33.201  24.128  23.074  1.00  0.00    -0.017 S 
ATOM     12  C   UNL A   1      33.419  23.422  24.598  1.00  0.00     0.129 A 
BRANCH  12  13
ATOM     13  N   UNL A   1      32.407  23.406  25.550  1.00  0.00    -0.312 N 
ATOM     14  C   UNL A   1      31.835  24.419  26.292  1.00  0.00     0.256 C 
ATOM     15  H   UNL A   1      32.031  22.513  25.727  1.00  0.00     0.171 HD
ATOM     16  O   UNL A   1      31.069  24.168  27.220  1.00  0.00    -0.269 OA
BRANCH  14  17
ATOM     17  C   UNL A   1      32.068  25.840  25.968  1.00  0.00     0.040 A 
ATOM     18  C   UNL A   1      31.161  26.558  25.182  1.00  0.00     0.016 A 
ATOM     19  C   UNL A   1      33.244  26.444  26.418  1.00  0.00     0.016 A 
ATOM     20  C   UNL A   1      31.498  27.839  24.743  1.00  0.00     0.026 A 
ATOM     21  C   UNL A   1      33.559  27.735  25.989  1.00  0.00     0.026 A 
ATOM     22  C   UNL A   1      32.716  28.421  25.108  1.00  0.00     0.031 A 
BRANCH  22  23
ATOM     23  N   UNL A   1      33.039  29.699  24.681  1.00  0.00    -0.399 N 
ATOM     24  H   UNL A   1      33.845  30.145  25.029  1.00  0.00     0.156 HD
ATOM     25  H   UNL A   1      32.461  30.161  24.032  1.00  0.00     0.156 HD
ENDBRANCH  22  23
ENDBRANCH  14  17
ENDBRANCH  12  13
ENDBRANCH   4   7
ENDBRANCH   2   3
ENDBRANCH   1   2
BRANCH   1  26
ATOM     26  C   UNL A   1      39.930  22.588  27.050  1.00  0.00     0.118 C 
BRANCH  26  27
ATOM     27  N   UNL A   1      41.219  22.283  26.419  1.00  0.00    -0.352 N 
ATOM     28  C   UNL A   1      42.166  23.166  25.920  1.00  0.00     0.251 C 
ATOM     29  H   UNL A   1      41.442  21.327  26.339  1.00  0.00     0.163 HD
ATOM     30  O   UNL A   1      42.998  22.797  25.111  1.00  0.00    -0.269 OA
BRANCH  28  31
ATOM     31  C   UNL A   1      42.130  24.557  26.404  1.00  0.00     0.039 A 
ATOM     32  C   UNL A   1      41.387  25.558  25.774  1.00  0.00     0.014 A 
ATOM     33  C   UNL A   1      42.818  24.818  27.581  1.00  0.00     0.014 A 
ATOM     34  C   UNL A   1      41.302  26.803  26.396  1.00  0.00     0.010 A 
ATOM     35  C   UNL A   1      42.487  25.912  28.316  1.00  0.00     0.010 A 
ATOM     36  C   UNL A   1      41.846  26.959  27.682  1.00  0.00    -0.014 A 
BRANCH  36  37
ATOM     37  C   UNL A   1      41.690  28.176  28.464  1.00  0.00     0.031 A 
ATOM     38  C   UNL A   1      42.784  29.150  28.244  1.00  0.00     0.074 A 
ATOM     39  C   UNL A   1      40.539  28.479  29.108  1.00  0.00     0.049 A 
ATOM     40  N   UNL A   1      43.773  29.405  29.033  1.00  0.00    -0.248 NA
ATOM     41  C   UNL A   1      42.930  29.745  26.903  1.00  0.00     0.031 C 
ATOM     42  C   UNL A   1      39.264  27.745  29.111  1.00  0.00     0.029 A 
ATOM     43  N   UNL A   1      40.232  29.585  29.834  1.00  0.00    -0.354 N 
ATOM     44  C   UNL A   1      44.492  30.416  28.407  1.00  0.00     0.074 A 
ATOM     45  C   UNL A   1      44.097  30.381  27.025  1.00  0.00     0.031 C 
ATOM     46  C   UNL A   1      38.278  28.534  29.598  1.00  0.00     0.029 A 
ATOM     47  C   UNL A   1      38.874  29.752  30.109  1.00  0.00     0.049 A 
ATOM     48  H   UNL A   1      40.916  30.221  30.144  1.00  0.00     0.167 HD
ATOM     49  C   UNL A   1      45.104  31.387  29.142  1.00  0.00     0.037 A 
ATOM     50  C   UNL A   1      38.296  30.829  30.705  1.00  0.00     0.037 A 
ATOM     51  C   UNL A   1      45.165  31.003  30.535  1.00  0.00     0.049 A 
ATOM     52  C   UNL A   1      39.383  31.540  31.431  1.00  0.00     0.074 A 
ATOM     53  C   UNL A   1      45.703  29.935  31.227  1.00  0.00     0.029 A 
ATOM     54  N   UNL A   1      44.239  31.569  31.380  1.00  0.00    -0.354 N 
ATOM     55  N   UNL A   1      40.028  31.027  32.446  1.00  0.00    -0.248 NA
ATOM     56  C   UNL A   1      40.085  32.592  30.713  1.00  0.00     0.031 C 
ATOM     57  C   UNL A   1      44.742  29.627  32.234  1.00  0.00     0.029 A 
ATOM     58  C   UNL A   1      43.720  30.575  32.170  1.00  0.00     0.049 A 
ATOM     59  H   UNL A   1      43.991  32.522  31.413  1.00  0.00     0.167 HD
ATOM     60  C   UNL A   1      41.357  31.369  32.232  1.00  0.00     0.074 A 
ATOM     61  C   UNL A   1      41.319  32.391  31.187  1.00  0.00     0.031 C 
ATOM     62  C   UNL A   1      42.372  30.584  32.703  1.00  0.00     0.037 A 
BRANCH  49  63
ATOM     63  C   UNL A   1      45.265  32.826  28.705  1.00  0.00     0.058 A 
ATOM     64  C   UNL A   1      46.561  33.387  28.684  1.00  0.00     0.135 A 
ATOM     65  C   UNL A   1      44.205  33.752  28.575  1.00  0.00     0.135 A 
ATOM     66  F   UNL A   1      47.645  32.604  28.797  1.00  0.00    -0.206 F 
ATOM     67  C   UNL A   1      46.781  34.762  28.628  1.00  0.00     0.059 A 
ATOM     68  C   UNL A   1      44.405  35.123  28.463  1.00  0.00     0.059 A 
ATOM     69  F   UNL A   1      42.918  33.396  28.646  1.00  0.00    -0.206 F 
ATOM     70  C   UNL A   1      45.694  35.623  28.532  1.00  0.00     0.060 A 
BRANCH  70  71
ATOM     71  S   UNL A   1      45.967  37.401  28.547  1.00  0.00     0.124 S 
ATOM     72  O   UNL A   1      46.647  37.578  29.825  1.00  0.00    -0.237 OA
ATOM     73  O   UNL A   1      46.786  37.587  27.354  1.00  0.00    -0.237 OA
ATOM     74  O   UNL A   1      44.617  37.950  28.466  1.00  0.00    -0.744 OA
ENDBRANCH  70  71
ENDBRANCH  49  63
BRANCH  50  75
ATOM     75  C   UNL A   1      36.988  31.472  30.389  1.00  0.00     0.058 A 
ATOM     76  C   UNL A   1      36.132  31.932  31.407  1.00  0.00     0.135 A 
ATOM     77  C   UNL A   1      36.689  31.917  29.085  1.00  0.00     0.135 A 
ATOM     78  F   UNL A   1      36.350  31.577  32.683  1.00  0.00    -0.206 F 
ATOM     79  C   UNL A   1      35.075  32.819  31.156  1.00  0.00     0.059 A 
ATOM     80  C   UNL A   1      35.640  32.797  28.810  1.00  0.00     0.059 A 
ATOM     81  F   UNL A   1      37.470  31.581  28.047  1.00  0.00    -0.206 F 
ATOM     82  C   UNL A   1      34.851  33.265  29.853  1.00  0.00     0.060 A 
BRANCH  82  83
ATOM     83  S   UNL A   1      33.606  34.545  29.549  1.00  0.00     0.124 S 
ATOM     84  O   UNL A   1      34.402  35.598  28.926  1.00  0.00    -0.237 OA
ATOM     85  O   UNL A   1      32.663  33.857  28.672  1.00  0.00    -0.237 OA
ATOM     86  O   UNL A   1      33.101  34.851  30.884  1.00  0.00    -0.744 OA
ENDBRANCH  82  83
ENDBRANCH  50  75
BRANCH  62  87
ATOM     87  C   UNL A   1      42.046  29.515  33.717  1.00  0.00     0.058 A 
ATOM     88  C   UNL A   1      41.716  28.181  33.412  1.00  0.00     0.135 A 
ATOM     89  C   UNL A   1      42.243  29.827  35.071  1.00  0.00     0.135 A 
ATOM     90  F   UNL A   1      41.604  27.771  32.142  1.00  0.00    -0.206 F 
ATOM     91  C   UNL A   1      41.559  27.213  34.410  1.00  0.00     0.059 A 
ATOM     92  C   UNL A   1      42.124  28.875  36.077  1.00  0.00     0.059 A 
ATOM     93  F   UNL A   1      42.616  31.068  35.424  1.00  0.00    -0.206 F 
ATOM     94  C   UNL A   1      41.769  27.572  35.743  1.00  0.00     0.060 A 
BRANCH  94  95
ATOM     95  S   UNL A   1      41.638  26.313  37.031  1.00  0.00     0.124 S 
ATOM     96  O   UNL A   1      40.369  26.654  37.667  1.00  0.00    -0.237 OA
ATOM     97  O   UNL A   1      41.648  25.070  36.264  1.00  0.00    -0.237 OA
ATOM     98  O   UNL A   1      42.826  26.537  37.851  1.00  0.00    -0.744 OA
ENDBRANCH  94  95
ENDBRANCH  62  87
ENDBRANCH  36  37
ENDBRANCH  28  31
ENDBRANCH  26  27
ENDBRANCH   1  26
TORSDOF 16
ENDMDL
MODEL 2
REMARK VINA RESULT:     -12.0      1.709      2.436
REMARK SMILES Cc1nsc(NC(=O)c2ccc(N)cc2)c1C(=O)NCCCNC(=O)c1ccc(-c2c3nc(c(-c4c(F)cc(S(=O)(=O)[O-])cc4F)c4ccc([nH]4)c(-c4c(F)cc(S(=O)(=O)[O-])cc4F)c4nc(c(-c5c(F)cc(S(=O)(=O)[O-])cc5F)c5ccc2[nH]5)C=C4)C=C3)cc1
REMARK SMILES IDX 21 1 20 2 19 3 17 4 18 5 16 7 1 8 2 9 3 10 4 11 5 12 6 13
REMARK SMILES IDX 7 14 8 16 9 17 10 18 15 19 11 20 14 21 12 22 13 23 22 26
REMARK SMILES IDX 23 27 24 28 25 30 26 31 27 32 91 33 28 34 90 35 29 36 30 37
REMARK SMILES IDX 31 38 84 39 32 40 89 41 83 42 85 43 33 44 88 45 82 46 81 47
REMARK SMILES IDX 34 49 68 50 47 51 67 52 48 53 51 54 66 55 86 56 49 57 50 58
REMARK SMILES IDX 65 60 87 61 52 62 35 63 36 64 45 65 37 66 38 67 44 68 46 69
REMARK SMILES IDX 39 70 40 71 41 72 42 73 43 74 69 75 70 76 79 77 71 78 72 79
REMARK SMILES IDX 78 80 80 81 73 82 74 83 75 84 76 85 77 86 53 87 54 88 63 89
REMARK SMILES IDX 55 90 56 91 62 92 64 93 57 94 58 95 59 96 60 97 61 98
REMARK H PARENT 19 6 6 15 13 24 13 25 23 29 85 48 51 59
REMARK Flexibility Score: inf
ROOT
ATOM      1  C   UNL A   1      36.821  22.298  24.604  1.00  0.00     0.042 C 
ENDROOT
BRANCH   1   2
ATOM      2  C   UNL A   1      35.477  21.877  25.197  1.00  0.00     0.118 C 
BRANCH   2   3
ATOM      3  N   UNL A   1      34.413  21.887  24.225  1.00  0.00    -0.352 N 
ATOM      4  C   UNL A   1      33.196  22.501  24.141  1.00  0.00     0.256 C 
ATOM      5  O   UNL A   1      32.693  22.411  23.013  1.00  0.00    -0.269 OA
ATOM      6  H   UNL A   1      34.607  21.321  23.445  1.00  0.00     0.163 HD
BRANCH   4   7
ATOM      7  C   UNL A   1      32.464  23.200  25.215  1.00  0.00     0.097 A 
ATOM      8  C   UNL A   1      32.998  22.181  27.666  1.00  0.00     0.069 C 
ATOM      9  C   UNL A   1      32.329  23.054  26.669  1.00  0.00     0.066 A 
ATOM     10  N   UNL A   1      31.404  23.824  27.251  1.00  0.00    -0.195 NA
ATOM     11  S   UNL A   1      30.627  24.695  26.120  1.00  0.00    -0.017 S 
ATOM     12  C   UNL A   1      31.663  24.296  24.841  1.00  0.00     0.129 A 
BRANCH  12  13
ATOM     13  N   UNL A   1      31.569  24.916  23.601  1.00  0.00    -0.312 N 
ATOM     14  C   UNL A   1      31.641  26.245  23.237  1.00  0.00     0.256 C 
ATOM     15  H   UNL A   1      31.427  24.297  22.848  1.00  0.00     0.171 HD
ATOM     16  O   UNL A   1      31.352  26.604  22.097  1.00  0.00    -0.269 OA
BRANCH  14  17
ATOM     17  C   UNL A   1      32.123  27.279  24.174  1.00  0.00     0.040 A 
ATOM     18  C   UNL A   1      31.265  28.275  24.650  1.00  0.00     0.016 A 
ATOM     19  C   UNL A   1      33.471  27.276  24.536  1.00  0.00     0.016 A 
ATOM     20  C   UNL A   1      31.791  29.339  25.385  1.00  0.00     0.026 A 
ATOM     21  C   UNL A   1      33.980  28.335  25.290  1.00  0.00     0.026 A 
ATOM     22  C   UNL A   1      33.158  29.399  25.675  1.00  0.00     0.031 A 
BRANCH  22  23
ATOM     23  N   UNL A   1      33.671  30.449  26.417  1.00  0.00    -0.399 N 
ATOM     24  H   UNL A   1      33.558  31.376  26.103  1.00  0.00     0.156 HD
ATOM     25  H   UNL A   1      34.150  30.271  27.258  1.00  0.00     0.156 HD
ENDBRANCH  22  23
ENDBRANCH  14  17
ENDBRANCH  12  13
ENDBRANCH   4   7
ENDBRANCH   2   3
ENDBRANCH   1   2
BRANCH   1  26
ATOM     26  C   UNL A   1      37.682  23.063  25.583  1.00  0.00     0.118 C 
BRANCH  26  27
ATOM     27  N   UNL A   1      38.631  22.189  26.281  1.00  0.00    -0.352 N 
ATOM     28  C   UNL A   1      39.836  22.527  26.880  1.00  0.00     0.251 C 
ATOM     29  H   UNL A   1      38.380  21.238  26.331  1.00  0.00     0.163 HD
ATOM     30  O   UNL A   1      40.685  21.681  27.095  1.00  0.00    -0.269 OA
BRANCH  28  31
ATOM     31  C   UNL A   1      40.047  23.938  27.248  1.00  0.00     0.039 A 
ATOM     32  C   UNL A   1      39.117  24.941  26.966  1.00  0.00     0.014 A 
ATOM     33  C   UNL A   1      41.199  24.221  27.969  1.00  0.00     0.014 A 
ATOM     34  C   UNL A   1      39.344  26.214  27.487  1.00  0.00     0.010 A 
ATOM     35  C   UNL A   1      41.257  25.359  28.711  1.00  0.00     0.010 A 
ATOM     36  C   UNL A   1      40.415  26.403  28.376  1.00  0.00    -0.014 A 
BRANCH  36  37
ATOM     37  C   UNL A   1      40.653  27.657  29.073  1.00  0.00     0.031 A 
ATOM     38  C   UNL A   1      41.718  28.476  28.447  1.00  0.00     0.074 A 
ATOM     39  C   UNL A   1      39.810  28.129  30.021  1.00  0.00     0.049 A 
ATOM     40  N   UNL A   1      42.928  28.631  28.865  1.00  0.00    -0.248 NA
ATOM     41  C   UNL A   1      41.489  28.997  27.087  1.00  0.00     0.031 C 
ATOM     42  C   UNL A   1      38.531  27.564  30.480  1.00  0.00     0.029 A 
ATOM     43  N   UNL A   1      39.874  29.291  30.721  1.00  0.00    -0.354 N 
ATOM     44  C   UNL A   1      43.514  29.519  27.969  1.00  0.00     0.074 A 
ATOM     45  C   UNL A   1      42.696  29.483  26.788  1.00  0.00     0.031 C 
ATOM     46  C   UNL A   1      37.846  28.489  31.190  1.00  0.00     0.029 A 
ATOM     47  C   UNL A   1      38.703  29.639  31.395  1.00  0.00     0.049 A 
ATOM     48  H   UNL A   1      40.687  29.846  30.751  1.00  0.00     0.167 HD
ATOM     49  C   UNL A   1      44.432  30.430  28.400  1.00  0.00     0.037 A 
ATOM     50  C   UNL A   1      38.468  30.802  32.059  1.00  0.00     0.037 A 
ATOM     51  C   UNL A   1      44.895  30.094  29.727  1.00  0.00     0.049 A 
ATOM     52  C   UNL A   1      39.801  31.396  32.351  1.00  0.00     0.074 A 
ATOM     53  C   UNL A   1      45.506  28.992  30.294  1.00  0.00     0.029 A 
ATOM     54  N   UNL A   1      44.356  30.804  30.776  1.00  0.00    -0.354 N 
ATOM     55  N   UNL A   1      40.678  30.843  33.147  1.00  0.00    -0.248 NA
ATOM     56  C   UNL A   1      40.346  32.322  31.371  1.00  0.00     0.031 C 
ATOM     57  C   UNL A   1      44.892  28.846  31.572  1.00  0.00     0.029 A 
ATOM     58  C   UNL A   1      44.013  29.914  31.761  1.00  0.00     0.049 A 
ATOM     59  H   UNL A   1      44.237  31.781  30.812  1.00  0.00     0.167 HD
ATOM     60  C   UNL A   1      41.897  31.005  32.502  1.00  0.00     0.074 A 
ATOM     61  C   UNL A   1      41.637  31.984  31.447  1.00  0.00     0.031 C 
ATOM     62  C   UNL A   1      42.917  30.115  32.688  1.00  0.00     0.037 A 
BRANCH  49  63
ATOM     63  C   UNL A   1      44.600  31.820  27.826  1.00  0.00     0.058 A 
ATOM     64  C   UNL A   1      45.787  32.124  27.124  1.00  0.00     0.135 A 
ATOM     65  C   UNL A   1      43.796  32.933  28.162  1.00  0.00     0.135 A 
ATOM     66  F   UNL A   1      46.628  31.148  26.750  1.00  0.00    -0.206 F 
ATOM     67  C   UNL A   1      46.184  33.433  26.857  1.00  0.00     0.059 A 
ATOM     68  C   UNL A   1      44.148  34.243  27.856  1.00  0.00     0.059 A 
ATOM     69  F   UNL A   1      42.677  32.827  28.886  1.00  0.00    -0.206 F 
ATOM     70  C   UNL A   1      45.363  34.487  27.241  1.00  0.00     0.060 A 
BRANCH  70  71
ATOM     71  S   UNL A   1      45.911  36.180  26.977  1.00  0.00     0.124 S 
ATOM     72  O   UNL A   1      44.638  36.883  26.869  1.00  0.00    -0.237 OA
ATOM     73  O   UNL A   1      46.685  36.435  28.187  1.00  0.00    -0.237 OA
ATOM     74  O   UNL A   1      46.693  36.091  25.747  1.00  0.00    -0.744 OA
ENDBRANCH  70  71
ENDBRANCH  49  63
BRANCH  50  75
ATOM     75  C   UNL A   1      37.206  31.595  32.122  1.00  0.00     0.058 A 
ATOM     76  C   UNL A   1      36.717  32.100  33.341  1.00  0.00     0.135 A 
ATOM     77  C   UNL A   1      36.617  32.125  30.955  1.00  0.00     0.135 A 
ATOM     78  F   UNL A   1      37.231  31.669  34.504  1.00  0.00    -0.206 F 
ATOM     79  C   UNL A   1      35.741  33.105  33.400  1.00  0.00     0.059 A 
ATOM     80  C   UNL A   1      35.641  33.123  30.989  1.00  0.00     0.059 A 
ATOM     81  F   UNL A   1      37.043  31.752  29.739  1.00  0.00    -0.206 F 
ATOM     82  C   UNL A   1      35.224  33.628  32.215  1.00  0.00     0.060 A 
BRANCH  82  83
ATOM     83  S   UNL A   1      34.099  35.046  32.279  1.00  0.00     0.124 S 
ATOM     84  O   UNL A   1      33.999  35.416  30.872  1.00  0.00    -0.237 OA
ATOM     85  O   UNL A   1      32.899  34.462  32.871  1.00  0.00    -0.237 OA
ATOM     86  O   UNL A   1      34.806  36.001  33.127  1.00  0.00    -0.744 OA
ENDBRANCH  82  83
ENDBRANCH  50  75
BRANCH  62  87
ATOM     87  C   UNL A   1      42.819  29.134  33.831  1.00  0.00     0.058 A 
ATOM     88  C   UNL A   1      43.098  29.428  35.179  1.00  0.00     0.135 A 
ATOM     89  C   UNL A   1      42.251  27.880  33.559  1.00  0.00     0.135 A 
ATOM     90  F   UNL A   1      43.552  30.636  35.542  1.00  0.00    -0.206 F 
ATOM     91  C   UNL A   1      42.854  28.506  36.201  1.00  0.00     0.059 A 
ATOM     92  C   UNL A   1      41.970  26.959  34.562  1.00  0.00     0.059 A 
ATOM     93  F   UNL A   1      41.907  27.559  32.301  1.00  0.00    -0.206 F 
ATOM     94  C   UNL A   1      42.285  27.272  35.881  1.00  0.00     0.060 A 
BRANCH  94  95
ATOM     95  S   UNL A   1      41.901  26.103  37.203  1.00  0.00     0.124 S 
ATOM     96  O   UNL A   1      40.581  26.550  37.636  1.00  0.00    -0.237 OA
ATOM     97  O   UNL A   1      41.939  24.817  36.512  1.00  0.00    -0.237 OA
ATOM     98  O   UNL A   1      42.977  26.312  38.168  1.00  0.00    -0.744 OA
ENDBRANCH  94  95
ENDBRANCH  62  87
ENDBRANCH  36  37
ENDBRANCH  28  31
ENDBRANCH  26  27
ENDBRANCH   1  26
TORSDOF 16
ENDMDL
MODEL 3
REMARK VINA RESULT:     -11.9      2.634      9.290
REMARK SMILES Cc1nsc(NC(=O)c2ccc(N)cc2)c1C(=O)NCCCNC(=O)c1ccc(-c2c3nc(c(-c4c(F)cc(S(=O)(=O)[O-])cc4F)c4ccc([nH]4)c(-c4c(F)cc(S(=O)(=O)[O-])cc4F)c4nc(c(-c5c(F)cc(S(=O)(=O)[O-])cc5F)c5ccc2[nH]5)C=C4)C=C3)cc1
REMARK SMILES IDX 21 1 20 2 19 3 17 4 18 5 16 7 1 8 2 9 3 10 4 11 5 12 6 13
REMARK SMILES IDX 7 14 8 16 9 17 10 18 15 19 11 20 14 21 12 22 13 23 22 26
REMARK SMILES IDX 23 27 24 28 25 30 26 31 27 32 91 33 28 34 90 35 29 36 30 37
REMARK SMILES IDX 31 38 84 39 32 40 89 41 83 42 85 43 33 44 88 45 82 46 81 47
REMARK SMILES IDX 34 49 68 50 47 51 67 52 48 53 51 54 66 55 86 56 49 57 50 58
REMARK SMILES IDX 65 60 87 61 52 62 35 63 36 64 45 65 37 66 38 67 44 68 46 69
REMARK SMILES IDX 39 70 40 71 41 72 42 73 43 74 69 75 70 76 79 77 71 78 72 79
REMARK SMILES IDX 78 80 80 81 73 82 74 83 75 84 76 85 77 86 53 87 54 88 63 89
REMARK SMILES IDX 55 90 56 91 62 92 64 93 57 94 58 95 59 96 60 97 61 98
REMARK H PARENT 19 6 6 15 13 24 13 25 23 29 85 48 51 59
REMARK Flexibility Score: inf
ROOT
ATOM      1  C   UNL A   1      32.926  29.805  26.395  1.00  0.00     0.042 C 
ENDROOT
BRANCH   1   2
ATOM      2  C   UNL A   1      33.059  28.301  26.155  1.00  0.00     0.118 C 
BRANCH   2   3
ATOM      3  N   UNL A   1      31.822  27.693  25.739  1.00  0.00    -0.352 N 
ATOM      4  C   UNL A   1      31.476  26.771  24.792  1.00  0.00     0.256 C 
ATOM      5  O   UNL A   1      30.315  26.361  24.926  1.00  0.00    -0.269 OA
ATOM      6  H   UNL A   1      31.048  28.017  26.253  1.00  0.00     0.163 HD
BRANCH   4   7
ATOM      7  C   UNL A   1      32.305  26.270  23.679  1.00  0.00     0.097 A 
ATOM      8  C   UNL A   1      33.683  28.245  22.441  1.00  0.00     0.069 C 
ATOM      9  C   UNL A   1      33.185  26.865  22.666  1.00  0.00     0.066 A 
ATOM     10  N   UNL A   1      33.625  26.036  21.714  1.00  0.00    -0.195 NA
ATOM     11  S   UNL A   1      32.986  24.559  21.936  1.00  0.00    -0.017 S 
ATOM     12  C   UNL A   1      32.314  24.879  23.457  1.00  0.00     0.129 A 
BRANCH  12  13
ATOM     13  N   UNL A   1      31.752  23.875  24.237  1.00  0.00    -0.312 N 
ATOM     14  C   UNL A   1      32.321  22.799  24.886  1.00  0.00     0.256 C 
ATOM     15  H   UNL A   1      30.776  23.945  24.347  1.00  0.00     0.171 HD
ATOM     16  O   UNL A   1      31.620  21.917  25.380  1.00  0.00    -0.269 OA
BRANCH  14  17
ATOM     17  C   UNL A   1      33.781  22.688  25.068  1.00  0.00     0.040 A 
ATOM     18  C   UNL A   1      34.487  21.589  24.570  1.00  0.00     0.016 A 
ATOM     19  C   UNL A   1      34.440  23.679  25.798  1.00  0.00     0.016 A 
ATOM     20  C   UNL A   1      35.830  21.422  24.915  1.00  0.00     0.026 A 
ATOM     21  C   UNL A   1      35.789  23.511  26.117  1.00  0.00     0.026 A 
ATOM     22  C   UNL A   1      36.480  22.360  25.725  1.00  0.00     0.031 A 
BRANCH  22  23
ATOM     23  N   UNL A   1      37.815  22.196  26.052  1.00  0.00    -0.399 N 
ATOM     24  H   UNL A   1      38.433  21.780  25.407  1.00  0.00     0.156 HD
ATOM     25  H   UNL A   1      38.148  22.494  26.929  1.00  0.00     0.156 HD
ENDBRANCH  22  23
ENDBRANCH  14  17
ENDBRANCH  12  13
ENDBRANCH   4   7
ENDBRANCH   2   3
ENDBRANCH   1   2
BRANCH   1  26
ATOM     26  C   UNL A   1      33.715  30.281  27.594  1.00  0.00     0.118 C 
BRANCH  26  27
ATOM     27  N   UNL A   1      34.178  31.664  27.434  1.00  0.00    -0.352 N 
ATOM     28  C   UNL A   1      35.342  32.245  27.916  1.00  0.00     0.251 C 
ATOM     29  H   UNL A   1      33.586  32.257  26.916  1.00  0.00     0.163 HD
ATOM     30  O   UNL A   1      35.434  33.453  28.031  1.00  0.00    -0.269 OA
BRANCH  28  31
ATOM     31  C   UNL A   1      36.457  31.352  28.278  1.00  0.00     0.039 A 
ATOM     32  C   UNL A   1      36.642  30.098  27.691  1.00  0.00     0.014 A 
ATOM     33  C   UNL A   1      37.376  31.852  29.189  1.00  0.00     0.014 A 
ATOM     34  C   UNL A   1      37.808  29.397  27.995  1.00  0.00     0.010 A 
ATOM     35  C   UNL A   1      38.623  31.312  29.241  1.00  0.00     0.010 A 
ATOM     36  C   UNL A   1      38.801  30.028  28.762  1.00  0.00    -0.014 A 
BRANCH  36  37
ATOM     37  C   UNL A   1      40.103  29.431  29.017  1.00  0.00     0.031 A 
ATOM     38  C   UNL A   1      40.381  29.243  30.460  1.00  0.00     0.074 A 
ATOM     39  C   UNL A   1      40.847  28.872  28.035  1.00  0.00     0.049 A 
ATOM     40  N   UNL A   1      41.157  29.957  31.204  1.00  0.00    -0.248 NA
ATOM     41  C   UNL A   1      39.533  28.305  31.218  1.00  0.00     0.031 C 
ATOM     42  C   UNL A   1      40.513  28.693  26.613  1.00  0.00     0.029 A 
ATOM     43  N   UNL A   1      42.049  28.244  28.125  1.00  0.00    -0.354 N 
ATOM     44  C   UNL A   1      41.118  29.356  32.458  1.00  0.00     0.074 A 
ATOM     45  C   UNL A   1      39.928  28.550  32.470  1.00  0.00     0.031 C 
ATOM     46  C   UNL A   1      41.367  27.811  26.045  1.00  0.00     0.029 A 
ATOM     47  C   UNL A   1      42.413  27.504  27.000  1.00  0.00     0.049 A 
ATOM     48  H   UNL A   1      42.620  28.308  28.924  1.00  0.00     0.167 HD
ATOM     49  C   UNL A   1      42.228  29.333  33.248  1.00  0.00     0.037 A 
ATOM     50  C   UNL A   1      43.497  26.691  26.883  1.00  0.00     0.037 A 
ATOM     51  C   UNL A   1      43.222  30.258  32.751  1.00  0.00     0.049 A 
ATOM     52  C   UNL A   1      44.450  27.107  27.947  1.00  0.00     0.074 A 
ATOM     53  C   UNL A   1      43.248  31.618  32.504  1.00  0.00     0.029 A 
ATOM     54  N   UNL A   1      44.267  29.727  32.032  1.00  0.00    -0.354 N 
ATOM     55  N   UNL A   1      45.035  28.276  27.974  1.00  0.00    -0.248 NA
ATOM     56  C   UNL A   1      44.354  26.428  29.229  1.00  0.00     0.031 C 
ATOM     57  C   UNL A   1      43.982  31.758  31.291  1.00  0.00     0.029 A 
ATOM     58  C   UNL A   1      44.448  30.498  30.912  1.00  0.00     0.049 A 
ATOM     59  H   UNL A   1      44.793  28.931  32.277  1.00  0.00     0.167 HD
ATOM     60  C   UNL A   1      44.986  28.668  29.305  1.00  0.00     0.074 A 
ATOM     61  C   UNL A   1      44.617  27.458  30.041  1.00  0.00     0.031 C 
ATOM     62  C   UNL A   1      44.952  29.989  29.652  1.00  0.00     0.037 A 
BRANCH  49  63
ATOM     63  C   UNL A   1      42.589  28.208  34.193  1.00  0.00     0.058 A 
ATOM     64  C   UNL A   1      42.649  28.479  35.577  1.00  0.00     0.135 A 
ATOM     65  C   UNL A   1      43.143  26.970  33.796  1.00  0.00     0.135 A 
ATOM     66  F   UNL A   1      42.152  29.624  36.071  1.00  0.00    -0.206 F 
ATOM     67  C   UNL A   1      43.285  27.629  36.480  1.00  0.00     0.059 A 
ATOM     68  C   UNL A   1      43.733  26.082  34.689  1.00  0.00     0.059 A 
ATOM     69  F   UNL A   1      43.230  26.590  32.517  1.00  0.00    -0.206 F 
ATOM     70  C   UNL A   1      43.838  26.438  36.022  1.00  0.00     0.060 A 
BRANCH  70  71
ATOM     71  S   UNL A   1      44.735  25.380  37.166  1.00  0.00     0.124 S 
ATOM     72  O   UNL A   1      44.134  25.756  38.441  1.00  0.00    -0.237 OA
ATOM     73  O   UNL A   1      44.401  24.050  36.667  1.00  0.00    -0.237 OA
ATOM     74  O   UNL A   1      46.125  25.783  36.978  1.00  0.00    -0.744 OA
ENDBRANCH  70  71
ENDBRANCH  49  63
BRANCH  50  75
ATOM     75  C   UNL A   1      43.598  25.378  26.184  1.00  0.00     0.058 A 
ATOM     76  C   UNL A   1      44.628  25.116  25.260  1.00  0.00     0.135 A 
ATOM     77  C   UNL A   1      42.869  24.255  26.627  1.00  0.00     0.135 A 
ATOM     78  F   UNL A   1      45.389  26.121  24.797  1.00  0.00    -0.206 F 
ATOM     79  C   UNL A   1      44.949  23.817  24.841  1.00  0.00     0.059 A 
ATOM     80  C   UNL A   1      43.168  22.952  26.221  1.00  0.00     0.059 A 
ATOM     81  F   UNL A   1      41.901  24.383  27.546  1.00  0.00    -0.206 F 
ATOM     82  C   UNL A   1      44.226  22.737  25.346  1.00  0.00     0.060 A 
BRANCH  82  83
ATOM     83  S   UNL A   1      44.748  21.048  24.950  1.00  0.00     0.124 S 
ATOM     84  O   UNL A   1      44.669  21.041  23.494  1.00  0.00    -0.237 OA
ATOM     85  O   UNL A   1      46.094  20.999  25.515  1.00  0.00    -0.237 OA
ATOM     86  O   UNL A   1      43.759  20.219  25.634  1.00  0.00    -0.744 OA
ENDBRANCH  82  83
ENDBRANCH  50  75
BRANCH  62  87
ATOM     87  C   UNL A   1      45.281  31.019  28.598  1.00  0.00     0.058 A 
ATOM     88  C   UNL A   1      44.349  31.616  27.728  1.00  0.00     0.135 A 
ATOM     89  C   UNL A   1      46.583  31.543  28.591  1.00  0.00     0.135 A 
ATOM     90  F   UNL A   1      43.062  31.245  27.736  1.00  0.00    -0.206 F 
ATOM     91  C   UNL A   1      44.706  32.661  26.870  1.00  0.00     0.059 A 
ATOM     92  C   UNL A   1      46.952  32.602  27.770  1.00  0.00     0.059 A 
ATOM     93  F   UNL A   1      47.505  31.057  29.439  1.00  0.00    -0.206 F 
ATOM     94  C   UNL A   1      46.013  33.150  26.902  1.00  0.00     0.060 A 
BRANCH  94  95
ATOM     95  S   UNL A   1      46.463  34.546  25.848  1.00  0.00     0.124 S 
ATOM     96  O   UNL A   1      45.520  34.415  24.743  1.00  0.00    -0.237 OA
ATOM     97  O   UNL A   1      46.252  35.691  26.729  1.00  0.00    -0.237 OA
ATOM     98  O   UNL A   1      47.860  34.283  25.510  1.00  0.00    -0.744 OA
ENDBRANCH  94  95
ENDBRANCH  62  87
ENDBRANCH  36  37
ENDBRANCH  28  31
ENDBRANCH  26  27
ENDBRANCH   1  26
TORSDOF 16
ENDMDL
