MODEL 1
REMARK VINA RESULT:     -11.2      0.000      0.000
REMARK SMILES O=C(NCCCNC(=O)[C@H]1C[C@H](O)CN1C(=O)CS[C@H]1CCS(=O)(=O)C1)c1ccc(-c2c3nc(c(-c4c(F)cc(S(=O)(=O)[O-])cc4F)c4ccc([nH]4)c(-c4c(F)cc(S(=O)(=O)[O-])cc4F)c4nc(c(-c5c(F)cc(S(=O)(=O)[O-])cc5F)c5ccc2[nH]5)C=C4)C=C3)cc1
REMARK SMILES IDX 5 1 4 2 3 3 1 4 2 5 27 7 28 8 92 9 29 10 91 11 30 12 31 13
REMARK SMILES IDX 32 14 85 15 33 16 90 17 84 18 86 19 34 20 89 21 83 22 82 23
REMARK SMILES IDX 35 25 69 26 48 27 68 28 49 29 52 30 67 31 87 32 50 33 51 34
REMARK SMILES IDX 66 36 88 37 53 38 36 39 37 40 46 41 38 42 39 43 45 44 47 45
REMARK SMILES IDX 40 46 41 47 42 48 43 49 44 50 70 51 71 52 80 53 72 54 73 55
REMARK SMILES IDX 79 56 81 57 74 58 75 59 76 60 77 61 78 62 54 63 55 64 64 65
REMARK SMILES IDX 56 66 57 67 63 68 65 69 58 70 59 71 60 72 61 73 62 74 6 75
REMARK SMILES IDX 7 76 8 77 9 79 10 80 11 81 15 82 12 83 14 84 16 85 17 86
REMARK SMILES IDX 18 87 19 88 20 89 21 90 26 91 22 92 23 93 24 94 25 95 13 96
REMARK H PARENT 3 6 86 24 52 35 7 78 13 97
REMARK Flexibility Score: inf
ROOT
ATOM      1  C   UNL A   1      31.725  31.289  26.635  1.00  0.00     0.042 C 
ENDROOT
BRANCH   1   2
ATOM      2  C   UNL A   1      32.940  32.008  27.173  1.00  0.00     0.118 C 
BRANCH   2   3
ATOM      3  N   UNL A   1      32.670  33.402  27.509  1.00  0.00    -0.352 N 
ATOM      4  O   UNL A   1      32.794  35.291  28.742  1.00  0.00    -0.269 OA
ATOM      5  C   UNL A   1      33.276  34.202  28.452  1.00  0.00     0.251 C 
ATOM      6  H   UNL A   1      31.954  33.831  26.989  1.00  0.00     0.163 HD
BRANCH   5   7
ATOM      7  C   UNL A   1      34.493  33.706  29.122  1.00  0.00     0.039 A 
ATOM      8  C   UNL A   1      34.370  32.775  30.152  1.00  0.00     0.014 A 
ATOM      9  C   UNL A   1      35.749  34.198  28.761  1.00  0.00     0.014 A 
ATOM     10  C   UNL A   1      35.451  32.512  30.970  1.00  0.00     0.010 A 
ATOM     11  C   UNL A   1      36.874  33.786  29.478  1.00  0.00     0.010 A 
ATOM     12  C   UNL A   1      36.728  32.953  30.598  1.00  0.00    -0.014 A 
BRANCH  12  13
ATOM     13  C   UNL A   1      37.892  32.363  31.297  1.00  0.00     0.031 A 
ATOM     14  C   UNL A   1      38.643  31.196  30.733  1.00  0.00     0.074 A 
ATOM     15  C   UNL A   1      38.253  32.928  32.468  1.00  0.00     0.049 A 
ATOM     16  N   UNL A   1      39.649  30.549  31.260  1.00  0.00    -0.248 NA
ATOM     17  C   UNL A   1      38.218  30.678  29.423  1.00  0.00     0.031 C 
ATOM     18  C   UNL A   1      37.567  34.065  33.102  1.00  0.00     0.029 A 
ATOM     19  N   UNL A   1      39.275  32.646  33.332  1.00  0.00    -0.354 N 
ATOM     20  C   UNL A   1      39.956  29.528  30.370  1.00  0.00     0.074 A 
ATOM     21  C   UNL A   1      39.030  29.639  29.264  1.00  0.00     0.031 C 
ATOM     22  C   UNL A   1      38.212  34.407  34.223  1.00  0.00     0.029 A 
ATOM     23  C   UNL A   1      39.282  33.450  34.449  1.00  0.00     0.049 A 
ATOM     24  H   UNL A   1      39.940  31.938  33.171  1.00  0.00     0.167 HD
ATOM     25  C   UNL A   1      40.921  28.585  30.486  1.00  0.00     0.037 A 
ATOM     26  C   UNL A   1      40.025  33.390  35.567  1.00  0.00     0.037 A 
ATOM     27  C   UNL A   1      41.845  28.517  31.590  1.00  0.00     0.049 A 
ATOM     28  C   UNL A   1      41.057  32.308  35.674  1.00  0.00     0.074 A 
ATOM     29  C   UNL A   1      42.908  27.649  31.765  1.00  0.00     0.029 A 
ATOM     30  N   UNL A   1      41.806  29.330  32.715  1.00  0.00    -0.354 N 
ATOM     31  N   UNL A   1      41.379  31.395  34.790  1.00  0.00    -0.248 NA
ATOM     32  C   UNL A   1      41.815  32.237  36.928  1.00  0.00     0.031 C 
ATOM     33  C   UNL A   1      43.467  27.890  33.023  1.00  0.00     0.029 A 
ATOM     34  C   UNL A   1      42.794  28.950  33.608  1.00  0.00     0.049 A 
ATOM     35  H   UNL A   1      41.170  30.069  32.856  1.00  0.00     0.167 HD
ATOM     36  C   UNL A   1      42.383  30.640  35.381  1.00  0.00     0.074 A 
ATOM     37  C   UNL A   1      42.637  31.228  36.681  1.00  0.00     0.031 C 
ATOM     38  C   UNL A   1      43.027  29.552  34.897  1.00  0.00     0.037 A 
BRANCH  25  39
ATOM     39  C   UNL A   1      41.030  27.526  29.423  1.00  0.00     0.058 A 
ATOM     40  C   UNL A   1      42.123  27.458  28.548  1.00  0.00     0.135 A 
ATOM     41  C   UNL A   1      40.080  26.492  29.367  1.00  0.00     0.135 A 
ATOM     42  F   UNL A   1      43.052  28.428  28.547  1.00  0.00    -0.206 F 
ATOM     43  C   UNL A   1      42.276  26.398  27.658  1.00  0.00     0.059 A 
ATOM     44  C   UNL A   1      40.225  25.410  28.502  1.00  0.00     0.059 A 
ATOM     45  F   UNL A   1      39.012  26.511  30.179  1.00  0.00    -0.206 F 
ATOM     46  C   UNL A   1      41.328  25.373  27.652  1.00  0.00     0.060 A 
BRANCH  46  47
ATOM     47  S   UNL A   1      41.576  23.976  26.534  1.00  0.00     0.124 S 
ATOM     48  O   UNL A   1      40.228  23.419  26.459  1.00  0.00    -0.237 OA
ATOM     49  O   UNL A   1      42.058  24.631  25.323  1.00  0.00    -0.237 OA
ATOM     50  O   UNL A   1      42.556  23.150  27.231  1.00  0.00    -0.744 OA
ENDBRANCH  46  47
ENDBRANCH  25  39
BRANCH  26  51
ATOM     51  C   UNL A   1      39.759  34.327  36.689  1.00  0.00     0.058 A 
ATOM     52  C   UNL A   1      40.357  35.592  36.738  1.00  0.00     0.135 A 
ATOM     53  C   UNL A   1      38.898  33.968  37.741  1.00  0.00     0.135 A 
ATOM     54  F   UNL A   1      41.183  35.982  35.755  1.00  0.00    -0.206 F 
ATOM     55  C   UNL A   1      40.144  36.455  37.807  1.00  0.00     0.059 A 
ATOM     56  C   UNL A   1      38.640  34.828  38.802  1.00  0.00     0.059 A 
ATOM     57  F   UNL A   1      38.278  32.778  37.730  1.00  0.00    -0.206 F 
ATOM     58  C   UNL A   1      39.287  36.060  38.837  1.00  0.00     0.060 A 
BRANCH  58  59
ATOM     59  S   UNL A   1      39.023  37.183  40.224  1.00  0.00     0.124 S 
ATOM     60  O   UNL A   1      40.391  37.578  40.541  1.00  0.00    -0.237 OA
ATOM     61  O   UNL A   1      38.181  38.215  39.627  1.00  0.00    -0.237 OA
ATOM     62  O   UNL A   1      38.363  36.341  41.217  1.00  0.00    -0.744 OA
ENDBRANCH  58  59
ENDBRANCH  26  51
BRANCH  38  63
ATOM     63  C   UNL A   1      44.074  28.933  35.777  1.00  0.00     0.058 A 
ATOM     64  C   UNL A   1      45.392  29.416  35.796  1.00  0.00     0.135 A 
ATOM     65  C   UNL A   1      43.743  27.884  36.650  1.00  0.00     0.135 A 
ATOM     66  F   UNL A   1      45.761  30.406  34.966  1.00  0.00    -0.206 F 
ATOM     67  C   UNL A   1      46.350  28.873  36.643  1.00  0.00     0.059 A 
ATOM     68  C   UNL A   1      44.678  27.349  37.528  1.00  0.00     0.059 A 
ATOM     69  F   UNL A   1      42.496  27.390  36.671  1.00  0.00    -0.206 F 
ATOM     70  C   UNL A   1      45.980  27.846  37.513  1.00  0.00     0.060 A 
BRANCH  70  71
ATOM     71  S   UNL A   1      47.220  27.195  38.650  1.00  0.00     0.124 S 
ATOM     72  O   UNL A   1      48.444  27.346  37.869  1.00  0.00    -0.237 OA
ATOM     73  O   UNL A   1      47.086  28.085  39.798  1.00  0.00    -0.237 OA
ATOM     74  O   UNL A   1      46.786  25.820  38.876  1.00  0.00    -0.744 OA
ENDBRANCH  70  71
ENDBRANCH  38  63
ENDBRANCH  12  13
ENDBRANCH   5   7
ENDBRANCH   2   3
ENDBRANCH   1   2
BRANCH   1  75
ATOM     75  C   UNL A   1      32.070  30.107  25.767  1.00  0.00     0.117 C 
BRANCH  75  76
ATOM     76  N   UNL A   1      31.123  29.879  24.690  1.00  0.00    -0.354 N 
ATOM     77  C   UNL A   1      30.836  28.721  24.036  1.00  0.00     0.242 C 
ATOM     78  H   UNL A   1      30.621  30.672  24.393  1.00  0.00     0.163 HD
ATOM     79  O   UNL A   1      29.923  28.741  23.206  1.00  0.00    -0.273 OA
BRANCH  77  80
ATOM     80  C   UNL A   1      31.635  27.444  24.377  1.00  0.00     0.177 C 
ATOM     81  C   UNL A   1      31.258  26.868  25.736  1.00  0.00     0.069 C 
ATOM     82  N   UNL A   1      31.220  26.360  23.480  1.00  0.00    -0.327 N 
ATOM     83  C   UNL A   1      29.902  26.230  25.470  1.00  0.00     0.136 C 
ATOM     84  C   UNL A   1      30.032  25.709  24.038  1.00  0.00     0.152 C 
BRANCH  82  85
ATOM     85  C   UNL A   1      31.888  26.137  22.287  1.00  0.00     0.233 C 
ATOM     86  O   UNL A   1      31.401  26.523  21.220  1.00  0.00    -0.274 OA
BRANCH  85  87
ATOM     87  C   UNL A   1      33.234  25.406  22.306  1.00  0.00     0.169 C 
BRANCH  87  88
ATOM     88  S   UNL A   1      33.084  23.558  22.485  1.00  0.00    -0.148 SA
BRANCH  88  89
ATOM     89  C   UNL A   1      33.469  23.185  24.254  1.00  0.00     0.063 C 
ATOM     90  C   UNL A   1      33.940  24.400  25.013  1.00  0.00     0.031 C 
ATOM     91  C   UNL A   1      32.256  22.687  25.045  1.00  0.00     0.151 C 
ATOM     92  C   UNL A   1      34.013  24.106  26.491  1.00  0.00     0.138 C 
ATOM     93  S   UNL A   1      32.694  22.953  26.771  1.00  0.00     0.151 S 
ATOM     94  O   UNL A   1      33.279  21.737  27.308  1.00  0.00    -0.229 OA
ATOM     95  O   UNL A   1      31.612  23.646  27.431  1.00  0.00    -0.229 OA
ENDBRANCH  88  89
ENDBRANCH  87  88
ENDBRANCH  85  87
ENDBRANCH  82  85
BRANCH  83  96
ATOM     96  O   UNL A   1      29.648  25.191  26.406  1.00  0.00    -0.391 OA
ATOM     97  H   UNL A   1      29.182  24.464  25.962  1.00  0.00     0.211 HD
ENDBRANCH  83  96
ENDBRANCH  77  80
ENDBRANCH  75  76
ENDBRANCH   1  75
TORSDOF 18
ENDMDL
MODEL 2
REMARK VINA RESULT:     -11.2      4.349      5.900
REMARK SMILES O=C(NCCCNC(=O)[C@H]1C[C@H](O)CN1C(=O)CS[C@H]1CCS(=O)(=O)C1)c1ccc(-c2c3nc(c(-c4c(F)cc(S(=O)(=O)[O-])cc4F)c4ccc([nH]4)c(-c4c(F)cc(S(=O)(=O)[O-])cc4F)c4nc(c(-c5c(F)cc(S(=O)(=O)[O-])cc5F)c5ccc2[nH]5)C=C4)C=C3)cc1
REMARK SMILES IDX 5 1 4 2 3 3 1 4 2 5 27 7 28 8 92 9 29 10 91 11 30 12 31 13
REMARK SMILES IDX 32 14 85 15 33 16 90 17 84 18 86 19 34 20 89 21 83 22 82 23
REMARK SMILES IDX 35 25 69 26 48 27 68 28 49 29 52 30 67 31 87 32 50 33 51 34
REMARK SMILES IDX 66 36 88 37 53 38 36 39 37 40 46 41 38 42 39 43 45 44 47 45
REMARK SMILES IDX 40 46 41 47 42 48 43 49 44 50 70 51 71 52 80 53 72 54 73 55
REMARK SMILES IDX 79 56 81 57 74 58 75 59 76 60 77 61 78 62 54 63 55 64 64 65
REMARK SMILES IDX 56 66 57 67 63 68 65 69 58 70 59 71 60 72 61 73 62 74 6 75
REMARK SMILES IDX 7 76 8 77 9 79 10 80 11 81 15 82 12 83 14 84 16 85 17 86
REMARK SMILES IDX 18 87 19 88 20 89 21 90 26 91 22 92 23 93 24 94 25 95 13 96
REMARK H PARENT 3 6 86 24 52 35 7 78 13 97
REMARK Flexibility Score: inf
ROOT
ATOM      1  C   UNL A   1      33.835  28.517  25.032  1.00  0.00     0.042 C 
ENDROOT
BRANCH   1   2
ATOM      2  C   UNL A   1      34.141  28.582  26.510  1.00  0.00     0.118 C 
BRANCH   2   3
ATOM      3  N   UNL A   1      33.835  29.883  27.095  1.00  0.00    -0.352 N 
ATOM      4  O   UNL A   1      34.081  31.614  28.525  1.00  0.00    -0.269 OA
ATOM      5  C   UNL A   1      34.576  30.634  27.980  1.00  0.00     0.251 C 
ATOM      6  H   UNL A   1      32.979  30.280  26.818  1.00  0.00     0.163 HD
BRANCH   5   7
ATOM      7  C   UNL A   1      35.958  30.214  28.279  1.00  0.00     0.039 A 
ATOM      8  C   UNL A   1      36.941  30.368  27.303  1.00  0.00     0.014 A 
ATOM      9  C   UNL A   1      36.268  29.627  29.508  1.00  0.00     0.014 A 
ATOM     10  C   UNL A   1      38.159  29.736  27.454  1.00  0.00     0.010 A 
ATOM     11  C   UNL A   1      37.561  29.149  29.728  1.00  0.00     0.010 A 
ATOM     12  C   UNL A   1      38.510  29.187  28.694  1.00  0.00    -0.014 A 
BRANCH  12  13
ATOM     13  C   UNL A   1      39.931  28.839  28.917  1.00  0.00     0.031 A 
ATOM     14  C   UNL A   1      40.497  27.517  28.495  1.00  0.00     0.074 A 
ATOM     15  C   UNL A   1      40.702  29.772  29.516  1.00  0.00     0.049 A 
ATOM     16  N   UNL A   1      41.708  27.061  28.672  1.00  0.00    -0.248 NA
ATOM     17  C   UNL A   1      39.600  26.583  27.798  1.00  0.00     0.031 C 
ATOM     18  C   UNL A   1      40.231  31.087  29.974  1.00  0.00     0.029 A 
ATOM     19  N   UNL A   1      42.032  29.775  29.837  1.00  0.00    -0.354 N 
ATOM     20  C   UNL A   1      41.715  25.777  28.142  1.00  0.00     0.074 A 
ATOM     21  C   UNL A   1      40.384  25.523  27.635  1.00  0.00     0.031 C 
ATOM     22  C   UNL A   1      41.259  31.781  30.473  1.00  0.00     0.029 A 
ATOM     23  C   UNL A   1      42.434  30.926  30.477  1.00  0.00     0.049 A 
ATOM     24  H   UNL A   1      42.641  29.030  29.631  1.00  0.00     0.167 HD
ATOM     25  C   UNL A   1      42.745  24.900  28.101  1.00  0.00     0.037 A 
ATOM     26  C   UNL A   1      43.602  31.239  31.062  1.00  0.00     0.037 A 
ATOM     27  C   UNL A   1      44.068  25.193  28.593  1.00  0.00     0.049 A 
ATOM     28  C   UNL A   1      44.706  30.226  31.029  1.00  0.00     0.074 A 
ATOM     29  C   UNL A   1      45.201  24.402  28.528  1.00  0.00     0.029 A 
ATOM     30  N   UNL A   1      44.431  26.357  29.257  1.00  0.00    -0.354 N 
ATOM     31  N   UNL A   1      44.714  29.044  30.462  1.00  0.00    -0.248 NA
ATOM     32  C   UNL A   1      45.949  30.578  31.722  1.00  0.00     0.031 C 
ATOM     33  C   UNL A   1      46.229  25.055  29.213  1.00  0.00     0.029 A 
ATOM     34  C   UNL A   1      45.757  26.282  29.652  1.00  0.00     0.049 A 
ATOM     35  H   UNL A   1      43.835  27.123  29.423  1.00  0.00     0.167 HD
ATOM     36  C   UNL A   1      45.967  28.511  30.727  1.00  0.00     0.074 A 
ATOM     37  C   UNL A   1      46.699  29.515  31.473  1.00  0.00     0.031 C 
ATOM     38  C   UNL A   1      46.463  27.295  30.394  1.00  0.00     0.037 A 
BRANCH  25  39
ATOM     39  C   UNL A   1      42.504  23.526  27.536  1.00  0.00     0.058 A 
ATOM     40  C   UNL A   1      42.565  23.265  26.160  1.00  0.00     0.135 A 
ATOM     41  C   UNL A   1      42.332  22.434  28.404  1.00  0.00     0.135 A 
ATOM     42  F   UNL A   1      42.712  24.273  25.284  1.00  0.00    -0.206 F 
ATOM     43  C   UNL A   1      42.471  21.968  25.663  1.00  0.00     0.059 A 
ATOM     44  C   UNL A   1      42.259  21.127  27.930  1.00  0.00     0.059 A 
ATOM     45  F   UNL A   1      42.262  22.630  29.730  1.00  0.00    -0.206 F 
ATOM     46  C   UNL A   1      42.330  20.904  26.557  1.00  0.00     0.060 A 
BRANCH  46  47
ATOM     47  S   UNL A   1      42.272  19.224  25.898  1.00  0.00     0.124 S 
ATOM     48  O   UNL A   1      42.826  18.455  27.008  1.00  0.00    -0.237 OA
ATOM     49  O   UNL A   1      40.846  19.039  25.649  1.00  0.00    -0.237 OA
ATOM     50  O   UNL A   1      43.111  19.295  24.706  1.00  0.00    -0.744 OA
ENDBRANCH  46  47
ENDBRANCH  25  39
BRANCH  26  51
ATOM     51  C   UNL A   1      43.748  32.527  31.790  1.00  0.00     0.058 A 
ATOM     52  C   UNL A   1      43.413  32.637  33.146  1.00  0.00     0.135 A 
ATOM     53  C   UNL A   1      44.223  33.677  31.137  1.00  0.00     0.135 A 
ATOM     54  F   UNL A   1      42.959  31.566  33.815  1.00  0.00    -0.206 F 
ATOM     55  C   UNL A   1      43.508  33.850  33.820  1.00  0.00     0.059 A 
ATOM     56  C   UNL A   1      44.362  34.891  31.799  1.00  0.00     0.059 A 
ATOM     57  F   UNL A   1      44.583  33.620  29.845  1.00  0.00    -0.206 F 
ATOM     58  C   UNL A   1      43.979  34.972  33.135  1.00  0.00     0.060 A 
BRANCH  58  59
ATOM     59  S   UNL A   1      44.090  36.542  34.016  1.00  0.00     0.124 S 
ATOM     60  O   UNL A   1      45.520  36.621  34.290  1.00  0.00    -0.237 OA
ATOM     61  O   UNL A   1      43.574  37.485  33.027  1.00  0.00    -0.237 OA
ATOM     62  O   UNL A   1      43.234  36.336  35.180  1.00  0.00    -0.744 OA
ENDBRANCH  58  59
ENDBRANCH  26  51
BRANCH  38  63
ATOM     63  C   UNL A   1      47.868  26.990  30.830  1.00  0.00     0.058 A 
ATOM     64  C   UNL A   1      48.133  26.392  32.072  1.00  0.00     0.135 A 
ATOM     65  C   UNL A   1      48.951  27.248  29.976  1.00  0.00     0.135 A 
ATOM     66  F   UNL A   1      47.131  26.143  32.930  1.00  0.00    -0.206 F 
ATOM     67  C   UNL A   1      49.428  26.068  32.456  1.00  0.00     0.059 A 
ATOM     68  C   UNL A   1      50.251  26.902  30.327  1.00  0.00     0.059 A 
ATOM     69  F   UNL A   1      48.748  27.816  28.777  1.00  0.00    -0.206 F 
ATOM     70  C   UNL A   1      50.480  26.319  31.572  1.00  0.00     0.060 A 
BRANCH  70  71
ATOM     71  S   UNL A   1      52.147  25.836  32.063  1.00  0.00     0.124 S 
ATOM     72  O   UNL A   1      52.029  24.382  32.120  1.00  0.00    -0.237 OA
ATOM     73  O   UNL A   1      52.957  26.364  30.970  1.00  0.00    -0.237 OA
ATOM     74  O   UNL A   1      52.329  26.500  33.350  1.00  0.00    -0.744 OA
ENDBRANCH  70  71
ENDBRANCH  38  63
ENDBRANCH  12  13
ENDBRANCH   5   7
ENDBRANCH   2   3
ENDBRANCH   1   2
BRANCH   1  75
ATOM     75  C   UNL A   1      32.490  27.909  24.730  1.00  0.00     0.117 C 
BRANCH  75  76
ATOM     76  N   UNL A   1      32.565  26.693  23.941  1.00  0.00    -0.354 N 
ATOM     77  C   UNL A   1      32.641  25.402  24.366  1.00  0.00     0.242 C 
ATOM     78  H   UNL A   1      32.560  26.819  22.965  1.00  0.00     0.163 HD
ATOM     79  O   UNL A   1      32.604  24.512  23.512  1.00  0.00    -0.273 OA
BRANCH  77  80
ATOM     80  C   UNL A   1      32.739  25.112  25.880  1.00  0.00     0.177 C 
ATOM     81  C   UNL A   1      31.404  25.286  26.594  1.00  0.00     0.069 C 
ATOM     82  N   UNL A   1      32.988  23.680  26.082  1.00  0.00    -0.327 N 
ATOM     83  C   UNL A   1      30.628  24.048  26.168  1.00  0.00     0.136 C 
ATOM     84  C   UNL A   1      31.708  22.969  26.076  1.00  0.00     0.152 C 
BRANCH  82  85
ATOM     85  C   UNL A   1      34.283  23.195  26.176  1.00  0.00     0.233 C 
ATOM     86  O   UNL A   1      35.244  23.955  26.025  1.00  0.00    -0.274 OA
BRANCH  85  87
ATOM     87  C   UNL A   1      34.507  21.708  26.470  1.00  0.00     0.169 C 
BRANCH  87  88
ATOM     88  S   UNL A   1      35.151  20.743  25.012  1.00  0.00    -0.148 SA
BRANCH  88  89
ATOM     89  C   UNL A   1      34.094  19.232  24.896  1.00  0.00     0.063 C 
ATOM     90  C   UNL A   1      33.030  19.349  23.836  1.00  0.00     0.031 C 
ATOM     91  C   UNL A   1      34.879  17.973  24.512  1.00  0.00     0.151 C 
ATOM     92  C   UNL A   1      32.352  18.019  23.615  1.00  0.00     0.138 C 
ATOM     93  S   UNL A   1      33.634  16.825  23.901  1.00  0.00     0.151 S 
ATOM     94  O   UNL A   1      33.200  15.969  24.990  1.00  0.00    -0.229 OA
ATOM     95  O   UNL A   1      34.062  16.299  22.626  1.00  0.00    -0.229 OA
ENDBRANCH  88  89
ENDBRANCH  87  88
ENDBRANCH  85  87
ENDBRANCH  82  85
BRANCH  83  96
ATOM     96  O   UNL A   1      29.627  23.734  27.127  1.00  0.00    -0.391 OA
ATOM     97  H   UNL A   1      28.802  24.191  26.894  1.00  0.00     0.211 HD
ENDBRANCH  83  96
ENDBRANCH  77  80
ENDBRANCH  75  76
ENDBRANCH   1  75
TORSDOF 18
ENDMDL
MODEL 3
REMARK VINA RESULT:     -11.1      6.185     11.708
REMARK SMILES O=C(NCCCNC(=O)[C@H]1C[C@H](O)CN1C(=O)CS[C@H]1CCS(=O)(=O)C1)c1ccc(-c2c3nc(c(-c4c(F)cc(S(=O)(=O)[O-])cc4F)c4ccc([nH]4)c(-c4c(F)cc(S(=O)(=O)[O-])cc4F)c4nc(c(-c5c(F)cc(S(=O)(=O)[O-])cc5F)c5ccc2[nH]5)C=C4)C=C3)cc1
REMARK SMILES IDX 5 1 4 2 3 3 1 4 2 5 27 7 28 8 92 9 29 10 91 11 30 12 31 13
REMARK SMILES IDX 32 14 85 15 33 16 90 17 84 18 86 19 34 20 89 21 83 22 82 23
REMARK SMILES IDX 35 25 69 26 48 27 68 28 49 29 52 30 67 31 87 32 50 33 51 34
REMARK SMILES IDX 66 36 88 37 53 38 36 39 37 40 46 41 38 42 39 43 45 44 47 45
REMARK SMILES IDX 40 46 41 47 42 48 43 49 44 50 70 51 71 52 80 53 72 54 73 55
REMARK SMILES IDX 79 56 81 57 74 58 75 59 76 60 77 61 78 62 54 63 55 64 64 65
REMARK SMILES IDX 56 66 57 67 63 68 65 69 58 70 59 71 60 72 61 73 62 74 6 75
REMARK SMILES IDX 7 76 8 77 9 79 10 80 11 81 15 82 12 83 14 84 16 85 17 86
REMARK SMILES IDX 18 87 19 88 20 89 21 90 26 91 22 92 23 93 24 94 25 95 13 96
REMARK H PARENT 3 6 86 24 52 35 7 78 13 97
REMARK Flexibility Score: inf
ROOT
ATOM      1  C   UNL A   1      37.855  20.348  24.961  1.00  0.00     0.042 C 
ENDROOT
BRANCH   1   2
ATOM      2  C   UNL A   1      38.916  20.558  26.015  1.00  0.00     0.118 C 
BRANCH   2   3
ATOM      3  N   UNL A   1      39.955  19.533  25.984  1.00  0.00    -0.352 N 
ATOM      4  O   UNL A   1      42.062  18.731  25.851  1.00  0.00    -0.269 OA
ATOM      5  C   UNL A   1      41.320  19.675  26.097  1.00  0.00     0.251 C 
ATOM      6  H   UNL A   1      39.634  18.611  25.865  1.00  0.00     0.163 HD
BRANCH   5   7
ATOM      7  C   UNL A   1      41.864  20.989  26.488  1.00  0.00     0.039 A 
ATOM      8  C   UNL A   1      42.096  21.948  25.504  1.00  0.00     0.014 A 
ATOM      9  C   UNL A   1      42.185  21.252  27.821  1.00  0.00     0.014 A 
ATOM     10  C   UNL A   1      42.854  23.064  25.801  1.00  0.00     0.010 A 
ATOM     11  C   UNL A   1      42.791  22.467  28.149  1.00  0.00     0.010 A 
ATOM     12  C   UNL A   1      43.143  23.372  27.136  1.00  0.00    -0.014 A 
BRANCH  12  13
ATOM     13  C   UNL A   1      43.642  24.734  27.436  1.00  0.00     0.031 A 
ATOM     14  C   UNL A   1      42.728  25.823  27.911  1.00  0.00     0.074 A 
ATOM     15  C   UNL A   1      44.963  24.952  27.269  1.00  0.00     0.049 A 
ATOM     16  N   UNL A   1      43.019  27.071  28.164  1.00  0.00    -0.248 NA
ATOM     17  C   UNL A   1      41.313  25.482  28.122  1.00  0.00     0.031 C 
ATOM     18  C   UNL A   1      45.929  23.949  26.795  1.00  0.00     0.029 A 
ATOM     19  N   UNL A   1      45.730  26.065  27.477  1.00  0.00    -0.354 N 
ATOM     20  C   UNL A   1      41.824  27.676  28.530  1.00  0.00     0.074 A 
ATOM     21  C   UNL A   1      40.798  26.657  28.467  1.00  0.00     0.031 C 
ATOM     22  C   UNL A   1      47.158  24.478  26.793  1.00  0.00     0.029 A 
ATOM     23  C   UNL A   1      47.055  25.882  27.153  1.00  0.00     0.049 A 
ATOM     24  H   UNL A   1      45.370  26.913  27.827  1.00  0.00     0.167 HD
ATOM     25  C   UNL A   1      41.617  28.969  28.874  1.00  0.00     0.037 A 
ATOM     26  C   UNL A   1      48.069  26.761  27.088  1.00  0.00     0.037 A 
ATOM     27  C   UNL A   1      42.666  29.955  28.952  1.00  0.00     0.049 A 
ATOM     28  C   UNL A   1      47.792  28.191  27.440  1.00  0.00     0.074 A 
ATOM     29  C   UNL A   1      42.575  31.272  29.365  1.00  0.00     0.029 A 
ATOM     30  N   UNL A   1      43.990  29.741  28.591  1.00  0.00    -0.354 N 
ATOM     31  N   UNL A   1      46.669  28.730  27.851  1.00  0.00    -0.248 NA
ATOM     32  C   UNL A   1      48.908  29.134  27.308  1.00  0.00     0.031 C 
ATOM     33  C   UNL A   1      43.824  31.873  29.188  1.00  0.00     0.029 A 
ATOM     34  C   UNL A   1      44.712  30.916  28.724  1.00  0.00     0.049 A 
ATOM     35  H   UNL A   1      44.361  28.882  28.286  1.00  0.00     0.167 HD
ATOM     36  C   UNL A   1      46.944  30.077  28.030  1.00  0.00     0.074 A 
ATOM     37  C   UNL A   1      48.348  30.263  27.719  1.00  0.00     0.031 C 
ATOM     38  C   UNL A   1      46.109  31.074  28.407  1.00  0.00     0.037 A 
BRANCH  25  39
ATOM     39  C   UNL A   1      40.214  29.425  29.170  1.00  0.00     0.058 A 
ATOM     40  C   UNL A   1      39.785  29.721  30.470  1.00  0.00     0.135 A 
ATOM     41  C   UNL A   1      39.326  29.685  28.111  1.00  0.00     0.135 A 
ATOM     42  F   UNL A   1      40.586  29.476  31.521  1.00  0.00    -0.206 F 
ATOM     43  C   UNL A   1      38.527  30.266  30.714  1.00  0.00     0.059 A 
ATOM     44  C   UNL A   1      38.073  30.251  28.329  1.00  0.00     0.059 A 
ATOM     45  F   UNL A   1      39.686  29.414  26.846  1.00  0.00    -0.206 F 
ATOM     46  C   UNL A   1      37.683  30.539  29.634  1.00  0.00     0.060 A 
BRANCH  46  47
ATOM     47  S   UNL A   1      36.081  31.303  29.964  1.00  0.00     0.124 S 
ATOM     48  O   UNL A   1      35.240  30.665  28.956  1.00  0.00    -0.237 OA
ATOM     49  O   UNL A   1      35.826  30.904  31.345  1.00  0.00    -0.237 OA
ATOM     50  O   UNL A   1      36.332  32.726  29.761  1.00  0.00    -0.744 OA
ENDBRANCH  46  47
ENDBRANCH  25  39
BRANCH  26  51
ATOM     51  C   UNL A   1      49.403  26.323  26.598  1.00  0.00     0.058 A 
ATOM     52  C   UNL A   1      50.308  25.669  27.442  1.00  0.00     0.135 A 
ATOM     53  C   UNL A   1      49.797  26.557  25.269  1.00  0.00     0.135 A 
ATOM     54  F   UNL A   1      49.977  25.419  28.718  1.00  0.00    -0.206 F 
ATOM     55  C   UNL A   1      51.573  25.296  27.000  1.00  0.00     0.059 A 
ATOM     56  C   UNL A   1      51.040  26.160  24.793  1.00  0.00     0.059 A 
ATOM     57  F   UNL A   1      48.956  27.157  24.411  1.00  0.00    -0.206 F 
ATOM     58  C   UNL A   1      51.931  25.551  25.674  1.00  0.00     0.060 A 
BRANCH  58  59
ATOM     59  S   UNL A   1      53.575  25.071  25.111  1.00  0.00     0.124 S 
ATOM     60  O   UNL A   1      53.556  25.533  23.728  1.00  0.00    -0.237 OA
ATOM     61  O   UNL A   1      54.440  25.815  26.022  1.00  0.00    -0.237 OA
ATOM     62  O   UNL A   1      53.584  23.623  25.293  1.00  0.00    -0.744 OA
ENDBRANCH  58  59
ENDBRANCH  26  51
BRANCH  38  63
ATOM     63  C   UNL A   1      46.696  32.453  28.510  1.00  0.00     0.058 A 
ATOM     64  C   UNL A   1      46.636  33.354  27.435  1.00  0.00     0.135 A 
ATOM     65  C   UNL A   1      47.273  32.895  29.710  1.00  0.00     0.135 A 
ATOM     66  F   UNL A   1      46.110  32.971  26.260  1.00  0.00    -0.206 F 
ATOM     67  C   UNL A   1      47.139  34.644  27.544  1.00  0.00     0.059 A 
ATOM     68  C   UNL A   1      47.752  34.192  29.851  1.00  0.00     0.059 A 
ATOM     69  F   UNL A   1      47.351  32.071  30.767  1.00  0.00    -0.206 F 
ATOM     70  C   UNL A   1      47.686  35.057  28.760  1.00  0.00     0.060 A 
BRANCH  70  71
ATOM     71  S   UNL A   1      48.278  36.755  28.903  1.00  0.00     0.124 S 
ATOM     72  O   UNL A   1      49.721  36.576  28.779  1.00  0.00    -0.237 OA
ATOM     73  O   UNL A   1      47.620  37.408  27.777  1.00  0.00    -0.237 OA
ATOM     74  O   UNL A   1      47.808  37.168  30.223  1.00  0.00    -0.744 OA
ENDBRANCH  70  71
ENDBRANCH  38  63
ENDBRANCH  12  13
ENDBRANCH   5   7
ENDBRANCH   2   3
ENDBRANCH   1   2
BRANCH   1  75
ATOM     75  C   UNL A   1      36.751  21.372  25.017  1.00  0.00     0.117 C 
BRANCH  75  76
ATOM     76  N   UNL A   1      35.858  21.205  26.149  1.00  0.00    -0.354 N 
ATOM     77  C   UNL A   1      34.623  21.740  26.349  1.00  0.00     0.242 C 
ATOM     78  H   UNL A   1      36.192  20.624  26.870  1.00  0.00     0.163 HD
ATOM     79  O   UNL A   1      33.999  21.387  27.354  1.00  0.00    -0.273 OA
BRANCH  77  80
ATOM     80  C   UNL A   1      34.053  22.730  25.310  1.00  0.00     0.177 C 
ATOM     81  C   UNL A   1      33.930  22.111  23.923  1.00  0.00     0.069 C 
ATOM     82  N   UNL A   1      32.647  23.006  25.626  1.00  0.00    -0.327 N 
ATOM     83  C   UNL A   1      32.721  21.198  24.065  1.00  0.00     0.136 C 
ATOM     84  C   UNL A   1      31.811  21.965  25.024  1.00  0.00     0.152 C 
BRANCH  82  85
ATOM     85  C   UNL A   1      32.303  24.075  26.438  1.00  0.00     0.233 C 
ATOM     86  O   UNL A   1      31.685  23.884  27.490  1.00  0.00    -0.274 OA
BRANCH  85  87
ATOM     87  C   UNL A   1      32.698  25.494  26.016  1.00  0.00     0.169 C 
BRANCH  87  88
ATOM     88  S   UNL A   1      32.444  25.837  24.202  1.00  0.00    -0.148 SA
BRANCH  88  89
ATOM     89  C   UNL A   1      31.074  27.073  24.105  1.00  0.00     0.063 C 
ATOM     90  C   UNL A   1      31.534  28.474  24.417  1.00  0.00     0.031 C 
ATOM     91  C   UNL A   1      30.451  27.176  22.710  1.00  0.00     0.151 C 
ATOM     92  C   UNL A   1      30.449  29.472  24.096  1.00  0.00     0.138 C 
ATOM     93  S   UNL A   1      29.608  28.767  22.701  1.00  0.00     0.151 S 
ATOM     94  O   UNL A   1      28.219  28.573  23.078  1.00  0.00    -0.229 OA
ATOM     95  O   UNL A   1      29.993  29.499  21.517  1.00  0.00    -0.229 OA
ENDBRANCH  88  89
ENDBRANCH  87  88
ENDBRANCH  85  87
ENDBRANCH  82  85
BRANCH  83  96
ATOM     96  O   UNL A   1      32.113  20.978  22.799  1.00  0.00    -0.391 OA
ATOM     97  H   UNL A   1      31.160  20.838  22.918  1.00  0.00     0.211 HD
ENDBRANCH  83  96
ENDBRANCH  77  80
ENDBRANCH  75  76
ENDBRANCH   1  75
TORSDOF 18
ENDMDL
