MODEL 1
REMARK VINA RESULT:     -10.1      0.000      0.000
REMARK SMILES CNC(=O)c1cccc(-c2cnc(O)c(C(=O)NCCCNC(=O)c3ccc(-c4c5nc(c(-c6c(F)cc(S(=O)(=O)[O-])cc6F)c6ccc([nH]6)c(-c6c(F)cc(S(=O)(=O)[O-])cc6F)c6nc(c(-c7c(F)cc(S(=O)(=O)[O-])cc7F)c7ccc4[nH]7)C=C6)C=C5)cc3)c2)c1
REMARK SMILES IDX 20 1 19 2 18 3 16 4 17 5 15 7 10 8 11 9 91 10 12 11 13 12
REMARK SMILES IDX 9 13 5 14 6 15 92 16 7 17 8 18 3 19 1 20 2 21 4 23 14 24
REMARK SMILES IDX 21 26 22 27 23 28 24 30 25 31 26 32 90 33 27 34 89 35 28 36
REMARK SMILES IDX 29 37 30 38 83 39 31 40 88 41 82 42 84 43 32 44 87 45 81 46
REMARK SMILES IDX 80 47 33 49 67 50 46 51 66 52 47 53 50 54 65 55 85 56 48 57
REMARK SMILES IDX 49 58 64 60 86 61 51 62 34 63 35 64 44 65 36 66 37 67 43 68
REMARK SMILES IDX 45 69 38 70 39 71 40 72 41 73 42 74 68 75 69 76 78 77 70 78
REMARK SMILES IDX 71 79 77 80 79 81 72 82 73 83 74 84 75 85 76 86 52 87 53 88
REMARK SMILES IDX 62 89 54 90 55 91 61 92 63 93 56 94 57 95 58 96 59 97 60 98
REMARK H PARENT 18 6 2 22 14 25 22 29 84 48 50 59
REMARK Flexibility Score: inf
ROOT
ATOM      1  C   UNL A   1      34.166  33.839  28.936  1.00  0.00     0.042 C 
ENDROOT
BRANCH   1   2
ATOM      2  C   UNL A   1      35.027  33.689  30.190  1.00  0.00     0.118 C 
BRANCH   2   3
ATOM      3  N   UNL A   1      34.217  33.443  31.374  1.00  0.00    -0.352 N 
ATOM      4  C   UNL A   1      34.541  33.118  32.668  1.00  0.00     0.256 C 
ATOM      5  O   UNL A   1      33.636  33.104  33.505  1.00  0.00    -0.269 OA
ATOM      6  H   UNL A   1      33.249  33.525  31.217  1.00  0.00     0.163 HD
BRANCH   4   7
ATOM      7  C   UNL A   1      35.919  32.849  33.139  1.00  0.00     0.102 A 
ATOM      8  C   UNL A   1      37.846  31.406  33.488  1.00  0.00     0.001 A 
ATOM      9  C   UNL A   1      38.536  32.532  33.921  1.00  0.00     0.124 A 
ATOM     10  C   UNL A   1      36.498  31.583  33.152  1.00  0.00     0.029 A 
ATOM     11  N   UNL A   1      37.994  33.769  33.999  1.00  0.00    -0.221 NA
ATOM     12  C   UNL A   1      36.707  33.904  33.606  1.00  0.00     0.223 A 
BRANCH   8  13
ATOM     13  C   UNL A   1      38.486  30.106  33.285  1.00  0.00    -0.016 A 
ATOM     14  C   UNL A   1      40.516  28.751  33.356  1.00  0.00     0.040 A 
ATOM     15  C   UNL A   1      39.816  27.675  32.804  1.00  0.00     0.014 A 
ATOM     16  C   UNL A   1      39.857  29.964  33.570  1.00  0.00     0.022 A 
ATOM     17  C   UNL A   1      38.456  27.800  32.520  1.00  0.00     0.001 A 
ATOM     18  C   UNL A   1      37.791  29.006  32.768  1.00  0.00     0.009 A 
BRANCH  14  19
ATOM     19  C   UNL A   1      41.970  28.611  33.600  1.00  0.00     0.251 C 
ATOM     20  C   UNL A   1      41.897  29.458  36.003  1.00  0.00     0.143 C 
ATOM     21  N   UNL A   1      42.533  29.040  34.775  1.00  0.00    -0.355 N 
ATOM     22  H   UNL A   1      43.517  29.068  34.783  1.00  0.00     0.163 HD
ATOM     23  O   UNL A   1      42.682  28.106  32.738  1.00  0.00    -0.269 OA
ENDBRANCH  14  19
ENDBRANCH   8  13
BRANCH  12  24
ATOM     24  O   UNL A   1      36.249  35.190  33.696  1.00  0.00    -0.493 OA
ATOM     25  H   UNL A   1      35.702  35.540  33.020  1.00  0.00     0.295 HD
ENDBRANCH  12  24
ENDBRANCH   4   7
ENDBRANCH   2   3
ENDBRANCH   1   2
BRANCH   1  26
ATOM     26  C   UNL A   1      34.627  32.967  27.771  1.00  0.00     0.118 C 
BRANCH  26  27
ATOM     27  N   UNL A   1      33.846  31.744  27.662  1.00  0.00    -0.352 N 
ATOM     28  C   UNL A   1      34.251  30.433  27.683  1.00  0.00     0.251 C 
ATOM     29  H   UNL A   1      32.877  31.878  27.557  1.00  0.00     0.163 HD
ATOM     30  O   UNL A   1      33.451  29.558  27.361  1.00  0.00    -0.269 OA
BRANCH  28  31
ATOM     31  C   UNL A   1      35.630  30.065  28.079  1.00  0.00     0.039 A 
ATOM     32  C   UNL A   1      36.637  30.092  27.108  1.00  0.00     0.014 A 
ATOM     33  C   UNL A   1      35.927  29.638  29.376  1.00  0.00     0.014 A 
ATOM     34  C   UNL A   1      37.944  29.736  27.447  1.00  0.00     0.010 A 
ATOM     35  C   UNL A   1      37.244  29.343  29.729  1.00  0.00     0.010 A 
ATOM     36  C   UNL A   1      38.264  29.381  28.767  1.00  0.00    -0.014 A 
BRANCH  36  37
ATOM     37  C   UNL A   1      39.658  29.044  29.157  1.00  0.00     0.031 A 
ATOM     38  C   UNL A   1      40.520  30.065  29.851  1.00  0.00     0.074 A 
ATOM     39  C   UNL A   1      40.167  27.839  28.831  1.00  0.00     0.049 A 
ATOM     40  N   UNL A   1      41.780  29.986  30.195  1.00  0.00    -0.248 NA
ATOM     41  C   UNL A   1      39.889  31.355  30.177  1.00  0.00     0.031 C 
ATOM     42  C   UNL A   1      39.447  26.781  28.118  1.00  0.00     0.029 A 
ATOM     43  N   UNL A   1      41.414  27.305  29.041  1.00  0.00    -0.354 N 
ATOM     44  C   UNL A   1      42.098  31.216  30.758  1.00  0.00     0.074 A 
ATOM     45  C   UNL A   1      40.910  32.039  30.673  1.00  0.00     0.031 C 
ATOM     46  C   UNL A   1      40.259  25.723  27.961  1.00  0.00     0.029 A 
ATOM     47  C   UNL A   1      41.565  26.037  28.531  1.00  0.00     0.049 A 
ATOM     48  H   UNL A   1      42.132  27.785  29.513  1.00  0.00     0.167 HD
ATOM     49  C   UNL A   1      43.268  31.617  31.310  1.00  0.00     0.037 A 
ATOM     50  C   UNL A   1      42.638  25.223  28.514  1.00  0.00     0.037 A 
ATOM     51  C   UNL A   1      44.436  30.782  31.424  1.00  0.00     0.049 A 
ATOM     52  C   UNL A   1      43.918  25.683  29.155  1.00  0.00     0.074 A 
ATOM     53  C   UNL A   1      45.647  31.073  32.027  1.00  0.00     0.029 A 
ATOM     54  N   UNL A   1      44.537  29.490  30.930  1.00  0.00    -0.354 N 
ATOM     55  N   UNL A   1      44.184  26.830  29.735  1.00  0.00    -0.248 NA
ATOM     56  C   UNL A   1      45.044  24.738  29.147  1.00  0.00     0.031 C 
ATOM     57  C   UNL A   1      46.493  29.970  31.866  1.00  0.00     0.029 A 
ATOM     58  C   UNL A   1      45.795  28.977  31.200  1.00  0.00     0.049 A 
ATOM     59  H   UNL A   1      43.821  29.009  30.456  1.00  0.00     0.167 HD
ATOM     60  C   UNL A   1      45.497  26.734  30.182  1.00  0.00     0.074 A 
ATOM     61  C   UNL A   1      45.968  25.414  29.816  1.00  0.00     0.031 C 
ATOM     62  C   UNL A   1      46.245  27.656  30.836  1.00  0.00     0.037 A 
BRANCH  49  63
ATOM     63  C   UNL A   1      43.346  33.021  31.845  1.00  0.00     0.058 A 
ATOM     64  C   UNL A   1      43.851  34.077  31.069  1.00  0.00     0.135 A 
ATOM     65  C   UNL A   1      42.869  33.324  33.130  1.00  0.00     0.135 A 
ATOM     66  F   UNL A   1      44.334  33.842  29.839  1.00  0.00    -0.206 F 
ATOM     67  C   UNL A   1      43.902  35.379  31.557  1.00  0.00     0.059 A 
ATOM     68  C   UNL A   1      42.887  34.624  33.630  1.00  0.00     0.059 A 
ATOM     69  F   UNL A   1      42.376  32.352  33.915  1.00  0.00    -0.206 F 
ATOM     70  C   UNL A   1      43.418  35.642  32.840  1.00  0.00     0.060 A 
BRANCH  70  71
ATOM     71  S   UNL A   1      43.481  37.339  33.455  1.00  0.00     0.124 S 
ATOM     72  O   UNL A   1      42.280  37.391  34.284  1.00  0.00    -0.237 OA
ATOM     73  O   UNL A   1      44.749  37.365  34.176  1.00  0.00    -0.237 OA
ATOM     74  O   UNL A   1      43.438  38.143  32.238  1.00  0.00    -0.744 OA
ENDBRANCH  70  71
ENDBRANCH  49  63
BRANCH  50  75
ATOM     75  C   UNL A   1      42.542  23.881  27.883  1.00  0.00     0.058 A 
ATOM     76  C   UNL A   1      42.604  23.733  26.489  1.00  0.00     0.135 A 
ATOM     77  C   UNL A   1      42.396  22.720  28.659  1.00  0.00     0.135 A 
ATOM     78  F   UNL A   1      42.737  24.815  25.707  1.00  0.00    -0.206 F 
ATOM     79  C   UNL A   1      42.506  22.485  25.884  1.00  0.00     0.059 A 
ATOM     80  C   UNL A   1      42.320  21.458  28.077  1.00  0.00     0.059 A 
ATOM     81  F   UNL A   1      42.350  22.806  29.997  1.00  0.00    -0.206 F 
ATOM     82  C   UNL A   1      42.363  21.352  26.688  1.00  0.00     0.060 A 
BRANCH  82  83
ATOM     83  S   UNL A   1      42.279  19.731  25.896  1.00  0.00     0.124 S 
ATOM     84  O   UNL A   1      40.893  19.698  25.444  1.00  0.00    -0.237 OA
ATOM     85  O   UNL A   1      43.291  19.843  24.851  1.00  0.00    -0.237 OA
ATOM     86  O   UNL A   1      42.611  18.812  26.981  1.00  0.00    -0.744 OA
ENDBRANCH  82  83
ENDBRANCH  50  75
BRANCH  62  87
ATOM     87  C   UNL A   1      47.640  27.261  31.229  1.00  0.00     0.058 A 
ATOM     88  C   UNL A   1      47.908  26.621  32.450  1.00  0.00     0.135 A 
ATOM     89  C   UNL A   1      48.714  27.480  30.353  1.00  0.00     0.135 A 
ATOM     90  F   UNL A   1      46.916  26.395  33.325  1.00  0.00    -0.206 F 
ATOM     91  C   UNL A   1      49.197  26.232  32.797  1.00  0.00     0.059 A 
ATOM     92  C   UNL A   1      50.008  27.077  30.669  1.00  0.00     0.059 A 
ATOM     93  F   UNL A   1      48.509  28.079  29.169  1.00  0.00    -0.206 F 
ATOM     94  C   UNL A   1      50.241  26.464  31.899  1.00  0.00     0.060 A 
BRANCH  94  95
ATOM     95  S   UNL A   1      51.906  25.925  32.346  1.00  0.00     0.124 S 
ATOM     96  O   UNL A   1      52.305  26.962  33.293  1.00  0.00    -0.237 OA
ATOM     97  O   UNL A   1      51.665  24.604  32.916  1.00  0.00    -0.237 OA
ATOM     98  O   UNL A   1      52.616  25.931  31.071  1.00  0.00    -0.744 OA
ENDBRANCH  94  95
ENDBRANCH  62  87
ENDBRANCH  36  37
ENDBRANCH  28  31
ENDBRANCH  26  27
ENDBRANCH   1  26
TORSDOF 16
ENDMDL
MODEL 2
REMARK VINA RESULT:     -10.1      3.048     10.620
REMARK SMILES CNC(=O)c1cccc(-c2cnc(O)c(C(=O)NCCCNC(=O)c3ccc(-c4c5nc(c(-c6c(F)cc(S(=O)(=O)[O-])cc6F)c6ccc([nH]6)c(-c6c(F)cc(S(=O)(=O)[O-])cc6F)c6nc(c(-c7c(F)cc(S(=O)(=O)[O-])cc7F)c7ccc4[nH]7)C=C6)C=C5)cc3)c2)c1
REMARK SMILES IDX 20 1 19 2 18 3 16 4 17 5 15 7 10 8 11 9 91 10 12 11 13 12
REMARK SMILES IDX 9 13 5 14 6 15 92 16 7 17 8 18 3 19 1 20 2 21 4 23 14 24
REMARK SMILES IDX 21 26 22 27 23 28 24 30 25 31 26 32 90 33 27 34 89 35 28 36
REMARK SMILES IDX 29 37 30 38 83 39 31 40 88 41 82 42 84 43 32 44 87 45 81 46
REMARK SMILES IDX 80 47 33 49 67 50 46 51 66 52 47 53 50 54 65 55 85 56 48 57
REMARK SMILES IDX 49 58 64 60 86 61 51 62 34 63 35 64 44 65 36 66 37 67 43 68
REMARK SMILES IDX 45 69 38 70 39 71 40 72 41 73 42 74 68 75 69 76 78 77 70 78
REMARK SMILES IDX 71 79 77 80 79 81 72 82 73 83 74 84 75 85 76 86 52 87 53 88
REMARK SMILES IDX 62 89 54 90 55 91 61 92 63 93 56 94 57 95 58 96 59 97 60 98
REMARK H PARENT 18 6 2 22 14 25 22 29 84 48 50 59
REMARK Flexibility Score: inf
ROOT
ATOM      1  C   UNL A   1      41.574  21.370  26.115  1.00  0.00     0.042 C 
ENDROOT
BRANCH   1   2
ATOM      2  C   UNL A   1      42.353  22.673  25.932  1.00  0.00     0.118 C 
BRANCH   2   3
ATOM      3  N   UNL A   1      43.200  22.633  24.749  1.00  0.00    -0.352 N 
ATOM      4  C   UNL A   1      44.345  23.308  24.405  1.00  0.00     0.256 C 
ATOM      5  O   UNL A   1      44.932  22.965  23.376  1.00  0.00    -0.269 OA
ATOM      6  H   UNL A   1      42.892  22.000  24.061  1.00  0.00     0.163 HD
BRANCH   4   7
ATOM      7  C   UNL A   1      44.958  24.378  25.225  1.00  0.00     0.102 A 
ATOM      8  C   UNL A   1      45.001  26.607  26.197  1.00  0.00     0.001 A 
ATOM      9  C   UNL A   1      46.138  26.217  26.894  1.00  0.00     0.124 A 
ATOM     10  C   UNL A   1      44.454  25.673  25.309  1.00  0.00     0.029 A 
ATOM     11  N   UNL A   1      46.710  24.995  26.787  1.00  0.00    -0.221 NA
ATOM     12  C   UNL A   1      46.112  24.105  25.963  1.00  0.00     0.223 A 
BRANCH   8  13
ATOM     13  C   UNL A   1      44.323  27.883  26.426  1.00  0.00    -0.016 A 
ATOM     14  C   UNL A   1      44.344  30.099  27.453  1.00  0.00     0.040 A 
ATOM     15  C   UNL A   1      43.035  30.314  27.015  1.00  0.00     0.014 A 
ATOM     16  C   UNL A   1      44.971  28.880  27.179  1.00  0.00     0.022 A 
ATOM     17  C   UNL A   1      42.382  29.336  26.264  1.00  0.00     0.001 A 
ATOM     18  C   UNL A   1      43.025  28.130  25.962  1.00  0.00     0.009 A 
BRANCH  14  19
ATOM     19  C   UNL A   1      44.999  31.128  28.292  1.00  0.00     0.251 C 
ATOM     20  C   UNL A   1      47.056  31.383  26.809  1.00  0.00     0.143 C 
ATOM     21  N   UNL A   1      46.257  31.586  27.995  1.00  0.00    -0.355 N 
ATOM     22  H   UNL A   1      46.679  32.135  28.695  1.00  0.00     0.163 HD
ATOM     23  O   UNL A   1      44.407  31.578  29.269  1.00  0.00    -0.269 OA
ENDBRANCH  14  19
ENDBRANCH   8  13
BRANCH  12  24
ATOM     24  O   UNL A   1      46.743  22.891  25.934  1.00  0.00    -0.493 OA
ATOM     25  H   UNL A   1      46.238  22.102  25.900  1.00  0.00     0.295 HD
ENDBRANCH  12  24
ENDBRANCH   4   7
ENDBRANCH   2   3
ENDBRANCH   1   2
BRANCH   1  26
ATOM     26  C   UNL A   1      40.259  21.546  26.869  1.00  0.00     0.118 C 
BRANCH  26  27
ATOM     27  N   UNL A   1      39.190  22.013  25.999  1.00  0.00    -0.352 N 
ATOM     28  C   UNL A   1      38.532  23.218  25.975  1.00  0.00     0.251 C 
ATOM     29  H   UNL A   1      38.891  21.363  25.322  1.00  0.00     0.163 HD
ATOM     30  O   UNL A   1      37.514  23.326  25.297  1.00  0.00    -0.269 OA
BRANCH  28  31
ATOM     31  C   UNL A   1      39.029  24.374  26.756  1.00  0.00     0.039 A 
ATOM     32  C   UNL A   1      39.896  25.280  26.135  1.00  0.00     0.014 A 
ATOM     33  C   UNL A   1      38.698  24.541  28.103  1.00  0.00     0.014 A 
ATOM     34  C   UNL A   1      40.393  26.372  26.851  1.00  0.00     0.010 A 
ATOM     35  C   UNL A   1      39.144  25.665  28.797  1.00  0.00     0.010 A 
ATOM     36  C   UNL A   1      40.003  26.587  28.181  1.00  0.00    -0.014 A 
BRANCH  36  37
ATOM     37  C   UNL A   1      40.485  27.769  28.944  1.00  0.00     0.031 A 
ATOM     38  C   UNL A   1      41.844  27.750  29.592  1.00  0.00     0.074 A 
ATOM     39  C   UNL A   1      39.673  28.832  29.105  1.00  0.00     0.049 A 
ATOM     40  N   UNL A   1      42.404  28.648  30.362  1.00  0.00    -0.248 NA
ATOM     41  C   UNL A   1      42.672  26.555  29.365  1.00  0.00     0.031 C 
ATOM     42  C   UNL A   1      38.317  28.951  28.565  1.00  0.00     0.029 A 
ATOM     43  N   UNL A   1      39.863  30.011  29.782  1.00  0.00    -0.354 N 
ATOM     44  C   UNL A   1      43.637  28.120  30.727  1.00  0.00     0.074 A 
ATOM     45  C   UNL A   1      43.727  26.806  30.127  1.00  0.00     0.031 C 
ATOM     46  C   UNL A   1      37.802  30.139  28.921  1.00  0.00     0.029 A 
ATOM     47  C   UNL A   1      38.776  30.853  29.741  1.00  0.00     0.049 A 
ATOM     48  H   UNL A   1      40.698  30.233  30.252  1.00  0.00     0.167 HD
ATOM     49  C   UNL A   1      44.611  28.686  31.479  1.00  0.00     0.037 A 
ATOM     50  C   UNL A   1      38.581  32.059  30.307  1.00  0.00     0.037 A 
ATOM     51  C   UNL A   1      44.530  30.008  32.044  1.00  0.00     0.049 A 
ATOM     52  C   UNL A   1      39.688  32.675  31.119  1.00  0.00     0.074 A 
ATOM     53  C   UNL A   1      45.490  30.697  32.765  1.00  0.00     0.029 A 
ATOM     54  N   UNL A   1      43.428  30.845  31.947  1.00  0.00    -0.354 N 
ATOM     55  N   UNL A   1      40.870  32.185  31.406  1.00  0.00    -0.248 NA
ATOM     56  C   UNL A   1      39.438  34.012  31.678  1.00  0.00     0.031 C 
ATOM     57  C   UNL A   1      44.955  31.936  33.134  1.00  0.00     0.029 A 
ATOM     58  C   UNL A   1      43.678  32.037  32.609  1.00  0.00     0.049 A 
ATOM     59  H   UNL A   1      42.591  30.624  31.479  1.00  0.00     0.167 HD
ATOM     60  C   UNL A   1      41.513  33.162  32.157  1.00  0.00     0.074 A 
ATOM     61  C   UNL A   1      40.595  34.276  32.271  1.00  0.00     0.031 C 
ATOM     62  C   UNL A   1      42.754  33.139  32.704  1.00  0.00     0.037 A 
BRANCH  49  63
ATOM     63  C   UNL A   1      45.857  27.883  31.732  1.00  0.00     0.058 A 
ATOM     64  C   UNL A   1      45.957  27.001  32.820  1.00  0.00     0.135 A 
ATOM     65  C   UNL A   1      46.948  27.961  30.851  1.00  0.00     0.135 A 
ATOM     66  F   UNL A   1      44.950  26.899  33.702  1.00  0.00    -0.206 F 
ATOM     67  C   UNL A   1      47.102  26.243  33.039  1.00  0.00     0.059 A 
ATOM     68  C   UNL A   1      48.094  27.192  31.037  1.00  0.00     0.059 A 
ATOM     69  F   UNL A   1      46.907  28.788  29.794  1.00  0.00    -0.206 F 
ATOM     70  C   UNL A   1      48.167  26.346  32.142  1.00  0.00     0.060 A 
BRANCH  70  71
ATOM     71  S   UNL A   1      49.642  25.346  32.434  1.00  0.00     0.124 S 
ATOM     72  O   UNL A   1      50.563  26.340  32.977  1.00  0.00    -0.237 OA
ATOM     73  O   UNL A   1      49.160  24.346  33.381  1.00  0.00    -0.237 OA
ATOM     74  O   UNL A   1      49.977  24.839  31.106  1.00  0.00    -0.744 OA
ENDBRANCH  70  71
ENDBRANCH  49  63
BRANCH  50  75
ATOM     75  C   UNL A   1      37.291  32.771  30.113  1.00  0.00     0.058 A 
ATOM     76  C   UNL A   1      37.100  33.635  29.025  1.00  0.00     0.135 A 
ATOM     77  C   UNL A   1      36.221  32.595  31.005  1.00  0.00     0.135 A 
ATOM     78  F   UNL A   1      38.097  33.839  28.150  1.00  0.00    -0.206 F 
ATOM     79  C   UNL A   1      35.902  34.315  28.836  1.00  0.00     0.059 A 
ATOM     80  C   UNL A   1      35.004  33.246  30.824  1.00  0.00     0.059 A 
ATOM     81  F   UNL A   1      36.347  31.765  32.052  1.00  0.00    -0.206 F 
ATOM     82  C   UNL A   1      34.859  34.114  29.742  1.00  0.00     0.060 A 
BRANCH  82  83
ATOM     83  S   UNL A   1      33.292  34.968  29.467  1.00  0.00     0.124 S 
ATOM     84  O   UNL A   1      32.691  34.913  30.794  1.00  0.00    -0.237 OA
ATOM     85  O   UNL A   1      33.732  36.285  29.017  1.00  0.00    -0.237 OA
ATOM     86  O   UNL A   1      32.642  34.152  28.445  1.00  0.00    -0.744 OA
ENDBRANCH  82  83
ENDBRANCH  50  75
BRANCH  62  87
ATOM     87  C   UNL A   1      43.204  34.365  33.446  1.00  0.00     0.058 A 
ATOM     88  C   UNL A   1      43.832  35.435  32.789  1.00  0.00     0.135 A 
ATOM     89  C   UNL A   1      42.961  34.492  34.823  1.00  0.00     0.135 A 
ATOM     90  F   UNL A   1      44.094  35.359  31.475  1.00  0.00    -0.206 F 
ATOM     91  C   UNL A   1      44.222  36.580  33.476  1.00  0.00     0.059 A 
ATOM     92  C   UNL A   1      43.320  35.638  35.525  1.00  0.00     0.059 A 
ATOM     93  F   UNL A   1      42.355  33.502  35.496  1.00  0.00    -0.206 F 
ATOM     94  C   UNL A   1      43.961  36.672  34.844  1.00  0.00     0.060 A 
BRANCH  94  95
ATOM     95  S   UNL A   1      44.442  38.176  35.720  1.00  0.00     0.124 S 
ATOM     96  O   UNL A   1      43.811  37.974  37.020  1.00  0.00    -0.237 OA
ATOM     97  O   UNL A   1      45.900  38.096  35.703  1.00  0.00    -0.237 OA
ATOM     98  O   UNL A   1      43.871  39.241  34.901  1.00  0.00    -0.744 OA
ENDBRANCH  94  95
ENDBRANCH  62  87
ENDBRANCH  36  37
ENDBRANCH  28  31
ENDBRANCH  26  27
ENDBRANCH   1  26
TORSDOF 16
ENDMDL
MODEL 3
REMARK VINA RESULT:     -10.0      1.363      2.670
REMARK SMILES CNC(=O)c1cccc(-c2cnc(O)c(C(=O)NCCCNC(=O)c3ccc(-c4c5nc(c(-c6c(F)cc(S(=O)(=O)[O-])cc6F)c6ccc([nH]6)c(-c6c(F)cc(S(=O)(=O)[O-])cc6F)c6nc(c(-c7c(F)cc(S(=O)(=O)[O-])cc7F)c7ccc4[nH]7)C=C6)C=C5)cc3)c2)c1
REMARK SMILES IDX 20 1 19 2 18 3 16 4 17 5 15 7 10 8 11 9 91 10 12 11 13 12
REMARK SMILES IDX 9 13 5 14 6 15 92 16 7 17 8 18 3 19 1 20 2 21 4 23 14 24
REMARK SMILES IDX 21 26 22 27 23 28 24 30 25 31 26 32 90 33 27 34 89 35 28 36
REMARK SMILES IDX 29 37 30 38 83 39 31 40 88 41 82 42 84 43 32 44 87 45 81 46
REMARK SMILES IDX 80 47 33 49 67 50 46 51 66 52 47 53 50 54 65 55 85 56 48 57
REMARK SMILES IDX 49 58 64 60 86 61 51 62 34 63 35 64 44 65 36 66 37 67 43 68
REMARK SMILES IDX 45 69 38 70 39 71 40 72 41 73 42 74 68 75 69 76 78 77 70 78
REMARK SMILES IDX 71 79 77 80 79 81 72 82 73 83 74 84 75 85 76 86 52 87 53 88
REMARK SMILES IDX 62 89 54 90 55 91 61 92 63 93 56 94 57 95 58 96 59 97 60 98
REMARK H PARENT 18 6 2 22 14 25 22 29 84 48 50 59
REMARK Flexibility Score: inf
ROOT
ATOM      1  C   UNL A   1      33.560  34.124  28.230  1.00  0.00     0.042 C 
ENDROOT
BRANCH   1   2
ATOM      2  C   UNL A   1      34.325  35.442  28.357  1.00  0.00     0.118 C 
BRANCH   2   3
ATOM      3  N   UNL A   1      33.638  36.383  29.230  1.00  0.00    -0.352 N 
ATOM      4  C   UNL A   1      33.427  36.406  30.586  1.00  0.00     0.256 C 
ATOM      5  O   UNL A   1      32.918  37.417  31.075  1.00  0.00    -0.269 OA
ATOM      6  H   UNL A   1      33.247  37.152  28.755  1.00  0.00     0.163 HD
BRANCH   4   7
ATOM      7  C   UNL A   1      33.833  35.322  31.510  1.00  0.00     0.102 A 
ATOM      8  C   UNL A   1      35.485  33.892  32.578  1.00  0.00     0.001 A 
ATOM      9  C   UNL A   1      34.457  33.396  33.370  1.00  0.00     0.124 A 
ATOM     10  C   UNL A   1      35.132  34.828  31.599  1.00  0.00     0.029 A 
ATOM     11  N   UNL A   1      33.166  33.788  33.268  1.00  0.00    -0.221 NA
ATOM     12  C   UNL A   1      32.881  34.739  32.349  1.00  0.00     0.223 A 
BRANCH   8  13
ATOM     13  C   UNL A   1      36.893  33.554  32.793  1.00  0.00    -0.016 A 
ATOM     14  C   UNL A   1      38.565  31.873  33.379  1.00  0.00     0.040 A 
ATOM     15  C   UNL A   1      39.561  32.852  33.342  1.00  0.00     0.014 A 
ATOM     16  C   UNL A   1      37.238  32.231  33.130  1.00  0.00     0.022 A 
ATOM     17  C   UNL A   1      39.234  34.167  33.007  1.00  0.00     0.001 A 
ATOM     18  C   UNL A   1      37.909  34.515  32.724  1.00  0.00     0.009 A 
BRANCH  14  19
ATOM     19  C   UNL A   1      38.927  30.497  33.788  1.00  0.00     0.251 C 
ATOM     20  C   UNL A   1      38.334  30.809  36.248  1.00  0.00     0.143 C 
ATOM     21  N   UNL A   1      38.892  30.120  35.107  1.00  0.00    -0.355 N 
ATOM     22  H   UNL A   1      39.309  29.251  35.305  1.00  0.00     0.163 HD
ATOM     23  O   UNL A   1      39.264  29.681  32.936  1.00  0.00    -0.269 OA
ENDBRANCH  14  19
ENDBRANCH   8  13
BRANCH  12  24
ATOM     24  O   UNL A   1      31.559  35.091  32.332  1.00  0.00    -0.493 OA
ATOM     25  H   UNL A   1      30.899  34.433  32.426  1.00  0.00     0.295 HD
ENDBRANCH  12  24
ENDBRANCH   4   7
ENDBRANCH   2   3
ENDBRANCH   1   2
BRANCH   1  26
ATOM     26  C   UNL A   1      34.430  32.889  28.449  1.00  0.00     0.118 C 
BRANCH  26  27
ATOM     27  N   UNL A   1      33.716  31.659  28.144  1.00  0.00    -0.352 N 
ATOM     28  C   UNL A   1      34.194  30.389  27.933  1.00  0.00     0.251 C 
ATOM     29  H   UNL A   1      32.738  31.751  28.079  1.00  0.00     0.163 HD
ATOM     30  O   UNL A   1      33.436  29.537  27.478  1.00  0.00    -0.269 OA
BRANCH  28  31
ATOM     31  C   UNL A   1      35.601  30.042  28.239  1.00  0.00     0.039 A 
ATOM     32  C   UNL A   1      36.539  30.070  27.201  1.00  0.00     0.014 A 
ATOM     33  C   UNL A   1      35.991  29.634  29.517  1.00  0.00     0.014 A 
ATOM     34  C   UNL A   1      37.871  29.732  27.456  1.00  0.00     0.010 A 
ATOM     35  C   UNL A   1      37.332  29.358  29.783  1.00  0.00     0.010 A 
ATOM     36  C   UNL A   1      38.284  29.396  28.754  1.00  0.00    -0.014 A 
BRANCH  36  37
ATOM     37  C   UNL A   1      39.704  29.079  29.052  1.00  0.00     0.031 A 
ATOM     38  C   UNL A   1      40.609  30.131  29.638  1.00  0.00     0.074 A 
ATOM     39  C   UNL A   1      40.196  27.864  28.738  1.00  0.00     0.049 A 
ATOM     40  N   UNL A   1      41.892  30.070  29.891  1.00  0.00    -0.248 NA
ATOM     41  C   UNL A   1      39.996  31.430  29.959  1.00  0.00     0.031 C 
ATOM     42  C   UNL A   1      39.431  26.776  28.124  1.00  0.00     0.029 A 
ATOM     43  N   UNL A   1      41.458  27.343  28.876  1.00  0.00    -0.354 N 
ATOM     44  C   UNL A   1      42.244  31.323  30.379  1.00  0.00     0.074 A 
ATOM     45  C   UNL A   1      41.048  32.137  30.350  1.00  0.00     0.031 C 
ATOM     46  C   UNL A   1      40.235  25.715  27.950  1.00  0.00     0.029 A 
ATOM     47  C   UNL A   1      41.579  26.056  28.407  1.00  0.00     0.049 A 
ATOM     48  H   UNL A   1      42.206  27.844  29.274  1.00  0.00     0.167 HD
ATOM     49  C   UNL A   1      43.449  31.749  30.826  1.00  0.00     0.037 A 
ATOM     50  C   UNL A   1      42.652  25.245  28.343  1.00  0.00     0.037 A 
ATOM     51  C   UNL A   1      44.627  30.923  30.886  1.00  0.00     0.049 A 
ATOM     52  C   UNL A   1      43.974  25.735  28.868  1.00  0.00     0.074 A 
ATOM     53  C   UNL A   1      45.878  31.242  31.385  1.00  0.00     0.029 A 
ATOM     54  N   UNL A   1      44.699  29.613  30.438  1.00  0.00    -0.354 N 
ATOM     55  N   UNL A   1      44.275  26.905  29.380  1.00  0.00    -0.248 NA
ATOM     56  C   UNL A   1      45.101  24.794  28.814  1.00  0.00     0.031 C 
ATOM     57  C   UNL A   1      46.716  30.137  31.205  1.00  0.00     0.029 A 
ATOM     58  C   UNL A   1      45.977  29.115  30.634  1.00  0.00     0.049 A 
ATOM     59  H   UNL A   1      43.952  29.111  30.039  1.00  0.00     0.167 HD
ATOM     60  C   UNL A   1      45.618  26.831  29.731  1.00  0.00     0.074 A 
ATOM     61  C   UNL A   1      46.069  25.500  29.385  1.00  0.00     0.031 C 
ATOM     62  C   UNL A   1      46.406  27.782  30.291  1.00  0.00     0.037 A 
BRANCH  49  63
ATOM     63  C   UNL A   1      43.558  33.174  31.297  1.00  0.00     0.058 A 
ATOM     64  C   UNL A   1      43.297  33.531  32.629  1.00  0.00     0.135 A 
ATOM     65  C   UNL A   1      43.972  34.187  30.417  1.00  0.00     0.135 A 
ATOM     66  F   UNL A   1      42.883  32.605  33.508  1.00  0.00    -0.206 F 
ATOM     67  C   UNL A   1      43.420  34.845  33.068  1.00  0.00     0.059 A 
ATOM     68  C   UNL A   1      44.126  35.505  30.840  1.00  0.00     0.059 A 
ATOM     69  F   UNL A   1      44.235  33.902  29.131  1.00  0.00    -0.206 F 
ATOM     70  C   UNL A   1      43.835  35.826  32.164  1.00  0.00     0.060 A 
BRANCH  70  71
ATOM     71  S   UNL A   1      44.001  37.526  32.752  1.00  0.00     0.124 S 
ATOM     72  O   UNL A   1      43.772  38.281  31.524  1.00  0.00    -0.237 OA
ATOM     73  O   UNL A   1      42.945  37.615  33.755  1.00  0.00    -0.237 OA
ATOM     74  O   UNL A   1      45.364  37.574  33.273  1.00  0.00    -0.744 OA
ENDBRANCH  70  71
ENDBRANCH  49  63
BRANCH  50  75
ATOM     75  C   UNL A   1      42.517  23.878  27.775  1.00  0.00     0.058 A 
ATOM     76  C   UNL A   1      42.402  22.757  28.610  1.00  0.00     0.135 A 
ATOM     77  C   UNL A   1      42.491  23.667  26.387  1.00  0.00     0.135 A 
ATOM     78  F   UNL A   1      42.428  22.911  29.943  1.00  0.00    -0.206 F 
ATOM     79  C   UNL A   1      42.285  21.472  28.093  1.00  0.00     0.059 A 
ATOM     80  C   UNL A   1      42.351  22.392  25.846  1.00  0.00     0.059 A 
ATOM     81  F   UNL A   1      42.579  24.708  25.546  1.00  0.00    -0.206 F 
ATOM     82  C   UNL A   1      42.261  21.300  26.707  1.00  0.00     0.060 A 
BRANCH  82  83
ATOM     83  S   UNL A   1      42.066  19.632  26.043  1.00  0.00     0.124 S 
ATOM     84  O   UNL A   1      43.004  19.650  24.926  1.00  0.00    -0.237 OA
ATOM     85  O   UNL A   1      42.442  18.799  27.181  1.00  0.00    -0.237 OA
ATOM     86  O   UNL A   1      40.653  19.580  25.680  1.00  0.00    -0.744 OA
ENDBRANCH  82  83
ENDBRANCH  50  75
BRANCH  62  87
ATOM     87  C   UNL A   1      47.829  27.407  30.594  1.00  0.00     0.058 A 
ATOM     88  C   UNL A   1      48.881  27.749  29.729  1.00  0.00     0.135 A 
ATOM     89  C   UNL A   1      48.150  26.741  31.787  1.00  0.00     0.135 A 
ATOM     90  F   UNL A   1      48.625  28.379  28.572  1.00  0.00    -0.206 F 
ATOM     91  C   UNL A   1      50.200  27.423  30.027  1.00  0.00     0.059 A 
ATOM     92  C   UNL A   1      49.465  26.428  32.118  1.00  0.00     0.059 A 
ATOM     93  F   UNL A   1      47.182  26.401  32.653  1.00  0.00    -0.206 F 
ATOM     94  C   UNL A   1      50.482  26.763  31.225  1.00  0.00     0.060 A 
BRANCH  94  95
ATOM     95  S   UNL A   1      52.201  26.375  31.618  1.00  0.00     0.124 S 
ATOM     96  O   UNL A   1      52.044  25.294  32.586  1.00  0.00    -0.237 OA
ATOM     97  O   UNL A   1      52.740  25.988  30.317  1.00  0.00    -0.237 OA
ATOM     98  O   UNL A   1      52.717  27.630  32.154  1.00  0.00    -0.744 OA
ENDBRANCH  94  95
ENDBRANCH  62  87
ENDBRANCH  36  37
ENDBRANCH  28  31
ENDBRANCH  26  27
ENDBRANCH   1  26
TORSDOF 16
ENDMDL
