MODEL 1
REMARK VINA RESULT:     -11.3      0.000      0.000
REMARK SMILES COc1ccc(F)cc1-c1cc(C(=O)NCCCNC(=O)c2ccc(-c3c4nc(c(-c5c(F)cc(S(=O)(=O)[O-])cc5F)c5ccc([nH]5)c(-c5c(F)cc(S(=O)(=O)[O-])cc5F)c5nc(c(-c6c(F)cc(S(=O)(=O)[O-])cc6F)c6ccc3[nH]6)C=C5)C=C4)cc2)n(C)n1
REMARK SMILES IDX 17 1 16 2 15 3 13 4 14 5 12 7 10 8 11 9 90 10 88 11 89 12
REMARK SMILES IDX 9 13 3 14 4 15 5 16 8 17 6 18 7 19 2 20 1 21 18 22 19 23
REMARK SMILES IDX 20 24 21 26 22 27 23 28 87 29 24 30 86 31 25 32 26 33 27 34
REMARK SMILES IDX 80 35 28 36 85 37 79 38 81 39 29 40 84 41 78 42 77 43 30 45
REMARK SMILES IDX 64 46 43 47 63 48 44 49 47 50 62 51 82 52 45 53 46 54 61 56
REMARK SMILES IDX 83 57 48 58 31 59 32 60 41 61 33 62 34 63 40 64 42 65 35 66
REMARK SMILES IDX 36 67 37 68 38 69 39 70 65 71 66 72 75 73 67 74 68 75 74 76
REMARK SMILES IDX 76 77 69 78 70 79 71 80 72 81 73 82 49 83 50 84 59 85 51 86
REMARK SMILES IDX 52 87 58 88 60 89 53 90 54 91 55 92 56 93 57 94
REMARK H PARENT 15 6 19 25 81 44 47 55
REMARK Flexibility Score: inf
ROOT
ATOM      1  C   UNL A   1      33.009  27.855  25.909  1.00  0.00     0.042 C 
ENDROOT
BRANCH   1   2
ATOM      2  C   UNL A   1      31.490  27.725  25.816  1.00  0.00     0.118 C 
BRANCH   2   3
ATOM      3  N   UNL A   1      31.054  26.504  26.454  1.00  0.00    -0.351 N 
ATOM      4  C   UNL A   1      31.442  25.198  26.380  1.00  0.00     0.269 C 
ATOM      5  O   UNL A   1      30.792  24.445  27.116  1.00  0.00    -0.268 OA
ATOM      6  H   UNL A   1      30.310  26.647  27.083  1.00  0.00     0.163 HD
BRANCH   4   7
ATOM      7  C   UNL A   1      32.558  24.696  25.610  1.00  0.00     0.126 A 
ATOM      8  C   UNL A   1      34.520  23.674  25.172  1.00  0.00     0.097 A 
ATOM      9  C   UNL A   1      33.630  24.033  26.201  1.00  0.00     0.064 A 
ATOM     10  N   UNL A   1      34.098  24.173  24.009  1.00  0.00    -0.172 NA
ATOM     11  N   UNL A   1      32.835  24.585  24.265  1.00  0.00    -0.262 N 
ATOM     12  C   UNL A   1      31.955  24.608  23.124  1.00  0.00     0.174 C 
BRANCH   8  13
ATOM     13  C   UNL A   1      35.738  22.884  25.278  1.00  0.00     0.047 A 
ATOM     14  C   UNL A   1      35.747  21.514  24.944  1.00  0.00     0.128 A 
ATOM     15  C   UNL A   1      36.940  20.789  25.045  1.00  0.00     0.050 A 
ATOM     16  C   UNL A   1      38.105  21.416  25.491  1.00  0.00     0.043 A 
ATOM     17  C   UNL A   1      36.913  23.507  25.714  1.00  0.00     0.053 A 
ATOM     18  C   UNL A   1      38.080  22.767  25.821  1.00  0.00     0.124 A 
ATOM     19  F   UNL A   1      39.205  23.360  26.243  1.00  0.00    -0.207 F 
BRANCH  14  20
ATOM     20  O   UNL A   1      34.588  20.979  24.439  1.00  0.00    -0.496 OA
ATOM     21  C   UNL A   1      33.830  20.162  25.320  1.00  0.00     0.278 C 
ENDBRANCH  14  20
ENDBRANCH   8  13
ENDBRANCH   4   7
ENDBRANCH   2   3
ENDBRANCH   1   2
BRANCH   1  22
ATOM     22  C   UNL A   1      33.497  28.289  27.287  1.00  0.00     0.118 C 
BRANCH  22  23
ATOM     23  N   UNL A   1      33.398  29.729  27.468  1.00  0.00    -0.352 N 
ATOM     24  C   UNL A   1      34.291  30.600  28.040  1.00  0.00     0.251 C 
ATOM     25  H   UNL A   1      32.570  30.138  27.129  1.00  0.00     0.163 HD
ATOM     26  O   UNL A   1      33.921  31.743  28.317  1.00  0.00    -0.269 OA
BRANCH  24  27
ATOM     27  C   UNL A   1      35.678  30.178  28.337  1.00  0.00     0.039 A 
ATOM     28  C   UNL A   1      36.636  30.235  27.319  1.00  0.00     0.014 A 
ATOM     29  C   UNL A   1      36.034  29.696  29.601  1.00  0.00     0.014 A 
ATOM     30  C   UNL A   1      37.956  29.862  27.584  1.00  0.00     0.010 A 
ATOM     31  C   UNL A   1      37.366  29.401  29.884  1.00  0.00     0.010 A 
ATOM     32  C   UNL A   1      38.340  29.473  28.878  1.00  0.00    -0.014 A 
BRANCH  32  33
ATOM     33  C   UNL A   1      39.750  29.132  29.199  1.00  0.00     0.031 A 
ATOM     34  C   UNL A   1      40.642  30.149  29.859  1.00  0.00     0.074 A 
ATOM     35  C   UNL A   1      40.246  27.932  28.837  1.00  0.00     0.049 A 
ATOM     36  N   UNL A   1      41.919  30.074  30.132  1.00  0.00    -0.248 NA
ATOM     37  C   UNL A   1      40.023  31.429  30.242  1.00  0.00     0.031 C 
ATOM     38  C   UNL A   1      39.490  26.876  28.159  1.00  0.00     0.029 A 
ATOM     39  N   UNL A   1      41.503  27.398  28.979  1.00  0.00    -0.354 N 
ATOM     40  C   UNL A   1      42.260  31.295  30.701  1.00  0.00     0.074 A 
ATOM     41  C   UNL A   1      41.066  32.113  30.690  1.00  0.00     0.031 C 
ATOM     42  C   UNL A   1      40.291  25.817  27.966  1.00  0.00     0.029 A 
ATOM     43  C   UNL A   1      41.627  26.129  28.466  1.00  0.00     0.049 A 
ATOM     44  H   UNL A   1      42.247  27.881  29.408  1.00  0.00     0.167 HD
ATOM     45  C   UNL A   1      43.450  31.690  31.209  1.00  0.00     0.037 A 
ATOM     46  C   UNL A   1      42.696  25.311  28.395  1.00  0.00     0.037 A 
ATOM     47  C   UNL A   1      44.625  30.858  31.246  1.00  0.00     0.049 A 
ATOM     48  C   UNL A   1      44.012  25.774  28.956  1.00  0.00     0.074 A 
ATOM     49  C   UNL A   1      45.864  31.146  31.790  1.00  0.00     0.029 A 
ATOM     50  N   UNL A   1      44.707  29.575  30.722  1.00  0.00    -0.354 N 
ATOM     51  N   UNL A   1      44.303  26.917  29.530  1.00  0.00    -0.248 NA
ATOM     52  C   UNL A   1      45.144  24.842  28.861  1.00  0.00     0.031 C 
ATOM     53  C   UNL A   1      46.708  30.055  31.557  1.00  0.00     0.029 A 
ATOM     54  C   UNL A   1      45.981  29.068  30.910  1.00  0.00     0.049 A 
ATOM     55  H   UNL A   1      43.968  29.098  30.280  1.00  0.00     0.167 HD
ATOM     56  C   UNL A   1      45.646  26.835  29.883  1.00  0.00     0.074 A 
ATOM     57  C   UNL A   1      46.106  25.525  29.468  1.00  0.00     0.031 C 
ATOM     58  C   UNL A   1      46.425  27.760  30.494  1.00  0.00     0.037 A 
BRANCH  45  59
ATOM     59  C   UNL A   1      43.548  33.077  31.782  1.00  0.00     0.058 A 
ATOM     60  C   UNL A   1      43.349  33.300  33.154  1.00  0.00     0.135 A 
ATOM     61  C   UNL A   1      43.778  34.195  30.965  1.00  0.00     0.135 A 
ATOM     62  F   UNL A   1      43.131  32.267  33.984  1.00  0.00    -0.206 F 
ATOM     63  C   UNL A   1      43.360  34.583  33.692  1.00  0.00     0.059 A 
ATOM     64  C   UNL A   1      43.821  35.485  31.486  1.00  0.00     0.059 A 
ATOM     65  F   UNL A   1      43.997  34.036  29.650  1.00  0.00    -0.206 F 
ATOM     66  C   UNL A   1      43.596  35.670  32.849  1.00  0.00     0.060 A 
BRANCH  66  67
ATOM     67  S   UNL A   1      43.639  37.325  33.569  1.00  0.00     0.124 S 
ATOM     68  O   UNL A   1      42.354  37.389  34.254  1.00  0.00    -0.237 OA
ATOM     69  O   UNL A   1      44.818  37.255  34.427  1.00  0.00    -0.237 OA
ATOM     70  O   UNL A   1      43.776  38.196  32.404  1.00  0.00    -0.744 OA
ENDBRANCH  66  67
ENDBRANCH  45  59
BRANCH  46  71
ATOM     71  C   UNL A   1      42.548  23.961  27.790  1.00  0.00     0.058 A 
ATOM     72  C   UNL A   1      42.430  22.811  28.588  1.00  0.00     0.135 A 
ATOM     73  C   UNL A   1      42.575  23.789  26.398  1.00  0.00     0.135 A 
ATOM     74  F   UNL A   1      42.410  22.919  29.925  1.00  0.00    -0.206 F 
ATOM     75  C   UNL A   1      42.375  21.540  28.029  1.00  0.00     0.059 A 
ATOM     76  C   UNL A   1      42.495  22.529  25.814  1.00  0.00     0.059 A 
ATOM     77  F   UNL A   1      42.673  24.859  25.594  1.00  0.00    -0.206 F 
ATOM     78  C   UNL A   1      42.416  21.408  26.640  1.00  0.00     0.060 A 
BRANCH  78  79
ATOM     79  S   UNL A   1      42.375  19.746  25.936  1.00  0.00     0.124 S 
ATOM     80  O   UNL A   1      40.991  19.657  25.481  1.00  0.00    -0.237 OA
ATOM     81  O   UNL A   1      43.384  19.834  24.887  1.00  0.00    -0.237 OA
ATOM     82  O   UNL A   1      42.721  18.891  27.067  1.00  0.00    -0.744 OA
ENDBRANCH  78  79
ENDBRANCH  46  71
BRANCH  58  83
ATOM     83  C   UNL A   1      47.857  27.399  30.771  1.00  0.00     0.058 A 
ATOM     84  C   UNL A   1      48.868  27.757  29.866  1.00  0.00     0.135 A 
ATOM     85  C   UNL A   1      48.214  26.618  31.880  1.00  0.00     0.135 A 
ATOM     86  F   UNL A   1      48.579  28.501  28.785  1.00  0.00    -0.206 F 
ATOM     87  C   UNL A   1      50.181  27.332  30.038  1.00  0.00     0.059 A 
ATOM     88  C   UNL A   1      49.526  26.203  32.086  1.00  0.00     0.059 A 
ATOM     89  F   UNL A   1      47.285  26.260  32.781  1.00  0.00    -0.206 F 
ATOM     90  C   UNL A   1      50.499  26.549  31.147  1.00  0.00     0.060 A 
BRANCH  90  91
ATOM     91  S   UNL A   1      52.206  25.998  31.350  1.00  0.00     0.124 S 
ATOM     92  O   UNL A   1      52.711  26.081  29.984  1.00  0.00    -0.237 OA
ATOM     93  O   UNL A   1      52.739  26.985  32.284  1.00  0.00    -0.237 OA
ATOM     94  O   UNL A   1      52.066  24.648  31.887  1.00  0.00    -0.744 OA
ENDBRANCH  90  91
ENDBRANCH  58  83
ENDBRANCH  32  33
ENDBRANCH  24  27
ENDBRANCH  22  23
ENDBRANCH   1  22
TORSDOF 15
ENDMDL
MODEL 2
REMARK VINA RESULT:     -11.2      2.996      5.998
REMARK SMILES COc1ccc(F)cc1-c1cc(C(=O)NCCCNC(=O)c2ccc(-c3c4nc(c(-c5c(F)cc(S(=O)(=O)[O-])cc5F)c5ccc([nH]5)c(-c5c(F)cc(S(=O)(=O)[O-])cc5F)c5nc(c(-c6c(F)cc(S(=O)(=O)[O-])cc6F)c6ccc3[nH]6)C=C5)C=C4)cc2)n(C)n1
REMARK SMILES IDX 17 1 16 2 15 3 13 4 14 5 12 7 10 8 11 9 90 10 88 11 89 12
REMARK SMILES IDX 9 13 3 14 4 15 5 16 8 17 6 18 7 19 2 20 1 21 18 22 19 23
REMARK SMILES IDX 20 24 21 26 22 27 23 28 87 29 24 30 86 31 25 32 26 33 27 34
REMARK SMILES IDX 80 35 28 36 85 37 79 38 81 39 29 40 84 41 78 42 77 43 30 45
REMARK SMILES IDX 64 46 43 47 63 48 44 49 47 50 62 51 82 52 45 53 46 54 61 56
REMARK SMILES IDX 83 57 48 58 31 59 32 60 41 61 33 62 34 63 40 64 42 65 35 66
REMARK SMILES IDX 36 67 37 68 38 69 39 70 65 71 66 72 75 73 67 74 68 75 74 76
REMARK SMILES IDX 76 77 69 78 70 79 71 80 72 81 73 82 49 83 50 84 59 85 51 86
REMARK SMILES IDX 52 87 58 88 60 89 53 90 54 91 55 92 56 93 57 94
REMARK H PARENT 15 6 19 25 81 44 47 55
REMARK Flexibility Score: inf
ROOT
ATOM      1  C   UNL A   1      34.586  33.379  29.965  1.00  0.00     0.042 C 
ENDROOT
BRANCH   1   2
ATOM      2  C   UNL A   1      34.890  32.302  31.004  1.00  0.00     0.118 C 
BRANCH   2   3
ATOM      3  N   UNL A   1      34.676  32.819  32.336  1.00  0.00    -0.351 N 
ATOM      4  C   UNL A   1      35.471  32.992  33.431  1.00  0.00     0.269 C 
ATOM      5  O   UNL A   1      34.881  33.485  34.400  1.00  0.00    -0.268 OA
ATOM      6  H   UNL A   1      33.749  33.112  32.487  1.00  0.00     0.163 HD
BRANCH   4   7
ATOM      7  C   UNL A   1      36.893  32.734  33.486  1.00  0.00     0.126 A 
ATOM      8  C   UNL A   1      38.813  31.613  33.860  1.00  0.00     0.097 A 
ATOM      9  C   UNL A   1      37.412  31.532  33.957  1.00  0.00     0.064 A 
ATOM     10  N   UNL A   1      39.173  32.833  33.457  1.00  0.00    -0.172 NA
ATOM     11  N   UNL A   1      38.016  33.397  33.042  1.00  0.00    -0.262 N 
ATOM     12  C   UNL A   1      38.159  34.426  32.043  1.00  0.00     0.174 C 
BRANCH   8  13
ATOM     13  C   UNL A   1      39.791  30.573  34.143  1.00  0.00     0.047 A 
ATOM     14  C   UNL A   1      40.388  30.463  35.416  1.00  0.00     0.128 A 
ATOM     15  C   UNL A   1      41.314  29.441  35.656  1.00  0.00     0.050 A 
ATOM     16  C   UNL A   1      41.657  28.552  34.635  1.00  0.00     0.043 A 
ATOM     17  C   UNL A   1      40.133  29.671  33.128  1.00  0.00     0.053 A 
ATOM     18  C   UNL A   1      41.065  28.676  33.383  1.00  0.00     0.124 A 
ATOM     19  F   UNL A   1      41.397  27.815  32.411  1.00  0.00    -0.207 F 
BRANCH  14  20
ATOM     20  O   UNL A   1      39.949  31.318  36.395  1.00  0.00    -0.496 OA
ATOM     21  C   UNL A   1      40.880  32.287  36.855  1.00  0.00     0.278 C 
ENDBRANCH  14  20
ENDBRANCH   8  13
ENDBRANCH   4   7
ENDBRANCH   2   3
ENDBRANCH   1   2
BRANCH   1  22
ATOM     22  C   UNL A   1      34.829  32.924  28.530  1.00  0.00     0.118 C 
BRANCH  22  23
ATOM     23  N   UNL A   1      34.021  31.765  28.185  1.00  0.00    -0.352 N 
ATOM     24  C   UNL A   1      34.415  30.481  27.903  1.00  0.00     0.251 C 
ATOM     25  H   UNL A   1      33.051  31.925  28.149  1.00  0.00     0.163 HD
ATOM     26  O   UNL A   1      33.603  29.702  27.399  1.00  0.00    -0.269 OA
BRANCH  24  27
ATOM     27  C   UNL A   1      35.796  30.031  28.186  1.00  0.00     0.039 A 
ATOM     28  C   UNL A   1      36.762  30.139  27.180  1.00  0.00     0.014 A 
ATOM     29  C   UNL A   1      36.138  29.472  29.422  1.00  0.00     0.014 A 
ATOM     30  C   UNL A   1      38.078  29.740  27.433  1.00  0.00     0.010 A 
ATOM     31  C   UNL A   1      37.464  29.149  29.697  1.00  0.00     0.010 A 
ATOM     32  C   UNL A   1      38.448  29.272  28.705  1.00  0.00    -0.014 A 
BRANCH  32  33
ATOM     33  C   UNL A   1      39.852  28.900  29.016  1.00  0.00     0.031 A 
ATOM     34  C   UNL A   1      40.778  29.906  29.646  1.00  0.00     0.074 A 
ATOM     35  C   UNL A   1      40.312  27.682  28.671  1.00  0.00     0.049 A 
ATOM     36  N   UNL A   1      42.056  29.803  29.905  1.00  0.00    -0.248 NA
ATOM     37  C   UNL A   1      40.197  31.209  30.011  1.00  0.00     0.031 C 
ATOM     38  C   UNL A   1      39.522  26.633  28.022  1.00  0.00     0.029 A 
ATOM     39  N   UNL A   1      41.557  27.118  28.809  1.00  0.00    -0.354 N 
ATOM     40  C   UNL A   1      42.435  31.026  30.446  1.00  0.00     0.074 A 
ATOM     41  C   UNL A   1      41.262  31.874  30.434  1.00  0.00     0.031 C 
ATOM     42  C   UNL A   1      40.293  25.549  27.841  1.00  0.00     0.029 A 
ATOM     43  C   UNL A   1      41.642  25.836  28.319  1.00  0.00     0.049 A 
ATOM     44  H   UNL A   1      42.318  27.589  29.221  1.00  0.00     0.167 HD
ATOM     45  C   UNL A   1      43.641  31.399  30.933  1.00  0.00     0.037 A 
ATOM     46  C   UNL A   1      42.689  24.990  28.252  1.00  0.00     0.037 A 
ATOM     47  C   UNL A   1      44.794  30.538  30.972  1.00  0.00     0.049 A 
ATOM     48  C   UNL A   1      44.022  25.428  28.789  1.00  0.00     0.074 A 
ATOM     49  C   UNL A   1      46.046  30.803  31.497  1.00  0.00     0.029 A 
ATOM     50  N   UNL A   1      44.837  29.244  30.473  1.00  0.00    -0.354 N 
ATOM     51  N   UNL A   1      44.351  26.574  29.338  1.00  0.00    -0.248 NA
ATOM     52  C   UNL A   1      45.129  24.466  28.699  1.00  0.00     0.031 C 
ATOM     53  C   UNL A   1      46.859  29.687  31.275  1.00  0.00     0.029 A 
ATOM     54  C   UNL A   1      46.099  28.707  30.656  1.00  0.00     0.049 A 
ATOM     55  H   UNL A   1      44.080  28.777  30.049  1.00  0.00     0.167 HD
ATOM     56  C   UNL A   1      45.694  26.464  29.676  1.00  0.00     0.074 A 
ATOM     57  C   UNL A   1      46.116  25.135  29.281  1.00  0.00     0.031 C 
ATOM     58  C   UNL A   1      46.504  27.380  30.260  1.00  0.00     0.037 A 
BRANCH  45  59
ATOM     59  C   UNL A   1      43.781  32.794  31.478  1.00  0.00     0.058 A 
ATOM     60  C   UNL A   1      43.489  33.069  32.824  1.00  0.00     0.135 A 
ATOM     61  C   UNL A   1      44.146  33.871  30.655  1.00  0.00     0.135 A 
ATOM     62  F   UNL A   1      43.140  32.077  33.658  1.00  0.00    -0.206 F 
ATOM     63  C   UNL A   1      43.539  34.364  33.330  1.00  0.00     0.059 A 
ATOM     64  C   UNL A   1      44.230  35.171  31.147  1.00  0.00     0.059 A 
ATOM     65  F   UNL A   1      44.458  33.660  29.366  1.00  0.00    -0.206 F 
ATOM     66  C   UNL A   1      43.910  35.409  32.482  1.00  0.00     0.060 A 
BRANCH  66  67
ATOM     67  S   UNL A   1      44.001  37.079  33.162  1.00  0.00     0.124 S 
ATOM     68  O   UNL A   1      42.769  37.157  33.937  1.00  0.00    -0.237 OA
ATOM     69  O   UNL A   1      45.239  37.028  33.935  1.00  0.00    -0.237 OA
ATOM     70  O   UNL A   1      44.053  37.926  31.972  1.00  0.00    -0.744 OA
ENDBRANCH  66  67
ENDBRANCH  45  59
BRANCH  46  71
ATOM     71  C   UNL A   1      42.499  23.632  27.675  1.00  0.00     0.058 A 
ATOM     72  C   UNL A   1      42.325  22.507  28.496  1.00  0.00     0.135 A 
ATOM     73  C   UNL A   1      42.539  23.428  26.288  1.00  0.00     0.135 A 
ATOM     74  F   UNL A   1      42.290  22.646  29.831  1.00  0.00    -0.206 F 
ATOM     75  C   UNL A   1      42.231  21.225  27.965  1.00  0.00     0.059 A 
ATOM     76  C   UNL A   1      42.421  22.159  25.731  1.00  0.00     0.059 A 
ATOM     77  F   UNL A   1      42.690  24.475  25.462  1.00  0.00    -0.206 F 
ATOM     78  C   UNL A   1      42.287  21.060  26.580  1.00  0.00     0.060 A 
BRANCH  78  79
ATOM     79  S   UNL A   1      42.194  19.386  25.913  1.00  0.00     0.124 S 
ATOM     80  O   UNL A   1      43.067  19.489  24.747  1.00  0.00    -0.237 OA
ATOM     81  O   UNL A   1      42.704  18.587  27.021  1.00  0.00    -0.237 OA
ATOM     82  O   UNL A   1      40.774  19.216  25.621  1.00  0.00    -0.744 OA
ENDBRANCH  78  79
ENDBRANCH  46  71
BRANCH  58  83
ATOM     83  C   UNL A   1      47.930  26.987  30.528  1.00  0.00     0.058 A 
ATOM     84  C   UNL A   1      48.269  26.299  31.704  1.00  0.00     0.135 A 
ATOM     85  C   UNL A   1      48.970  27.375  29.670  1.00  0.00     0.135 A 
ATOM     86  F   UNL A   1      47.312  25.909  32.561  1.00  0.00    -0.206 F 
ATOM     87  C   UNL A   1      49.594  26.032  32.032  1.00  0.00     0.059 A 
ATOM     88  C   UNL A   1      50.300  27.095  29.966  1.00  0.00     0.059 A 
ATOM     89  F   UNL A   1      48.695  28.024  28.527  1.00  0.00    -0.206 F 
ATOM     90  C   UNL A   1      50.603  26.440  31.160  1.00  0.00     0.060 A 
BRANCH  90  91
ATOM     91  S   UNL A   1      52.317  26.092  31.606  1.00  0.00     0.124 S 
ATOM     92  O   UNL A   1      52.640  27.227  32.463  1.00  0.00    -0.237 OA
ATOM     93  O   UNL A   1      52.205  24.801  32.279  1.00  0.00    -0.237 OA
ATOM     94  O   UNL A   1      53.004  26.062  30.318  1.00  0.00    -0.744 OA
ENDBRANCH  90  91
ENDBRANCH  58  83
ENDBRANCH  32  33
ENDBRANCH  24  27
ENDBRANCH  22  23
ENDBRANCH   1  22
TORSDOF 15
ENDMDL
MODEL 3
REMARK VINA RESULT:     -11.1      3.566     10.523
REMARK SMILES COc1ccc(F)cc1-c1cc(C(=O)NCCCNC(=O)c2ccc(-c3c4nc(c(-c5c(F)cc(S(=O)(=O)[O-])cc5F)c5ccc([nH]5)c(-c5c(F)cc(S(=O)(=O)[O-])cc5F)c5nc(c(-c6c(F)cc(S(=O)(=O)[O-])cc6F)c6ccc3[nH]6)C=C5)C=C4)cc2)n(C)n1
REMARK SMILES IDX 17 1 16 2 15 3 13 4 14 5 12 7 10 8 11 9 90 10 88 11 89 12
REMARK SMILES IDX 9 13 3 14 4 15 5 16 8 17 6 18 7 19 2 20 1 21 18 22 19 23
REMARK SMILES IDX 20 24 21 26 22 27 23 28 87 29 24 30 86 31 25 32 26 33 27 34
REMARK SMILES IDX 80 35 28 36 85 37 79 38 81 39 29 40 84 41 78 42 77 43 30 45
REMARK SMILES IDX 64 46 43 47 63 48 44 49 47 50 62 51 82 52 45 53 46 54 61 56
REMARK SMILES IDX 83 57 48 58 31 59 32 60 41 61 33 62 34 63 40 64 42 65 35 66
REMARK SMILES IDX 36 67 37 68 38 69 39 70 65 71 66 72 75 73 67 74 68 75 74 76
REMARK SMILES IDX 76 77 69 78 70 79 71 80 72 81 73 82 49 83 50 84 59 85 51 86
REMARK SMILES IDX 52 87 58 88 60 89 53 90 54 91 55 92 56 93 57 94
REMARK H PARENT 15 6 19 25 81 44 47 55
REMARK Flexibility Score: inf
ROOT
ATOM      1  C   UNL A   1      41.682  21.815  25.964  1.00  0.00     0.042 C 
ENDROOT
BRANCH   1   2
ATOM      2  C   UNL A   1      42.720  22.263  26.991  1.00  0.00     0.118 C 
BRANCH   2   3
ATOM      3  N   UNL A   1      44.038  21.832  26.588  1.00  0.00    -0.351 N 
ATOM      4  C   UNL A   1      45.111  22.450  26.015  1.00  0.00     0.269 C 
ATOM      5  O   UNL A   1      46.078  21.700  25.833  1.00  0.00    -0.268 OA
ATOM      6  H   UNL A   1      44.198  20.877  26.766  1.00  0.00     0.163 HD
BRANCH   4   7
ATOM      7  C   UNL A   1      45.205  23.862  25.716  1.00  0.00     0.126 A 
ATOM      8  C   UNL A   1      44.809  26.076  25.877  1.00  0.00     0.097 A 
ATOM      9  C   UNL A   1      44.471  24.819  26.411  1.00  0.00     0.064 A 
ATOM     10  N   UNL A   1      45.624  25.924  24.832  1.00  0.00    -0.172 NA
ATOM     11  N   UNL A   1      46.005  24.628  24.897  1.00  0.00    -0.262 N 
ATOM     12  C   UNL A   1      47.285  24.334  24.301  1.00  0.00     0.174 C 
BRANCH   8  13
ATOM     13  C   UNL A   1      44.376  27.388  26.335  1.00  0.00     0.047 A 
ATOM     14  C   UNL A   1      45.233  28.214  27.091  1.00  0.00     0.128 A 
ATOM     15  C   UNL A   1      44.788  29.476  27.502  1.00  0.00     0.050 A 
ATOM     16  C   UNL A   1      43.497  29.902  27.181  1.00  0.00     0.043 A 
ATOM     17  C   UNL A   1      43.087  27.827  26.008  1.00  0.00     0.053 A 
ATOM     18  C   UNL A   1      42.661  29.074  26.439  1.00  0.00     0.124 A 
ATOM     19  F   UNL A   1      41.426  29.494  26.133  1.00  0.00    -0.207 F 
BRANCH  14  20
ATOM     20  O   UNL A   1      46.513  27.768  27.304  1.00  0.00    -0.496 OA
ATOM     21  C   UNL A   1      47.549  28.474  26.636  1.00  0.00     0.278 C 
ENDBRANCH  14  20
ENDBRANCH   8  13
ENDBRANCH   4   7
ENDBRANCH   2   3
ENDBRANCH   1   2
BRANCH   1  22
ATOM     22  C   UNL A   1      40.361  21.376  26.588  1.00  0.00     0.118 C 
BRANCH  22  23
ATOM     23  N   UNL A   1      39.218  21.845  25.821  1.00  0.00    -0.352 N 
ATOM     24  C   UNL A   1      38.527  23.026  25.919  1.00  0.00     0.251 C 
ATOM     25  H   UNL A   1      38.893  21.223  25.130  1.00  0.00     0.163 HD
ATOM     26  O   UNL A   1      37.441  23.135  25.347  1.00  0.00    -0.269 OA
BRANCH  24  27
ATOM     27  C   UNL A   1      39.064  24.156  26.709  1.00  0.00     0.039 A 
ATOM     28  C   UNL A   1      39.916  25.074  26.086  1.00  0.00     0.014 A 
ATOM     29  C   UNL A   1      38.763  24.299  28.067  1.00  0.00     0.014 A 
ATOM     30  C   UNL A   1      40.418  26.161  26.808  1.00  0.00     0.010 A 
ATOM     31  C   UNL A   1      39.199  25.424  28.763  1.00  0.00     0.010 A 
ATOM     32  C   UNL A   1      40.037  26.363  28.145  1.00  0.00    -0.014 A 
BRANCH  32  33
ATOM     33  C   UNL A   1      40.507  27.544  28.914  1.00  0.00     0.031 A 
ATOM     34  C   UNL A   1      41.870  27.535  29.554  1.00  0.00     0.074 A 
ATOM     35  C   UNL A   1      39.685  28.596  29.091  1.00  0.00     0.049 A 
ATOM     36  N   UNL A   1      42.419  28.425  30.340  1.00  0.00    -0.248 NA
ATOM     37  C   UNL A   1      42.717  26.358  29.300  1.00  0.00     0.031 C 
ATOM     38  C   UNL A   1      38.327  28.708  28.550  1.00  0.00     0.029 A 
ATOM     39  N   UNL A   1      39.861  29.770  29.781  1.00  0.00    -0.354 N 
ATOM     40  C   UNL A   1      43.664  27.913  30.684  1.00  0.00     0.074 A 
ATOM     41  C   UNL A   1      43.771  26.611  30.063  1.00  0.00     0.031 C 
ATOM     42  C   UNL A   1      37.807  29.892  28.909  1.00  0.00     0.029 A 
ATOM     43  C   UNL A   1      38.771  30.607  29.739  1.00  0.00     0.049 A 
ATOM     44  H   UNL A   1      40.692  29.992  30.261  1.00  0.00     0.167 HD
ATOM     45  C   UNL A   1      44.639  28.486  31.428  1.00  0.00     0.037 A 
ATOM     46  C   UNL A   1      38.565  31.809  30.313  1.00  0.00     0.037 A 
ATOM     47  C   UNL A   1      44.537  29.797  32.015  1.00  0.00     0.049 A 
ATOM     48  C   UNL A   1      39.658  32.423  31.143  1.00  0.00     0.074 A 
ATOM     49  C   UNL A   1      45.491  30.489  32.739  1.00  0.00     0.029 A 
ATOM     50  N   UNL A   1      43.419  30.615  31.943  1.00  0.00    -0.354 N 
ATOM     51  N   UNL A   1      40.846  31.942  31.422  1.00  0.00    -0.248 NA
ATOM     52  C   UNL A   1      39.386  33.738  31.739  1.00  0.00     0.031 C 
ATOM     53  C   UNL A   1      44.935  31.707  33.142  1.00  0.00     0.029 A 
ATOM     54  C   UNL A   1      43.651  31.795  32.629  1.00  0.00     0.049 A 
ATOM     55  H   UNL A   1      42.583  30.389  31.475  1.00  0.00     0.167 HD
ATOM     56  C   UNL A   1      41.472  32.903  32.208  1.00  0.00     0.074 A 
ATOM     57  C   UNL A   1      40.534  33.999  32.352  1.00  0.00     0.031 C 
ATOM     58  C   UNL A   1      42.708  32.879  32.761  1.00  0.00     0.037 A 
BRANCH  45  59
ATOM     59  C   UNL A   1      45.910  27.712  31.642  1.00  0.00     0.058 A 
ATOM     60  C   UNL A   1      45.978  26.701  32.614  1.00  0.00     0.135 A 
ATOM     61  C   UNL A   1      47.081  28.011  30.928  1.00  0.00     0.135 A 
ATOM     62  F   UNL A   1      44.887  26.369  33.323  1.00  0.00    -0.206 F 
ATOM     63  C   UNL A   1      47.164  26.025  32.880  1.00  0.00     0.059 A 
ATOM     64  C   UNL A   1      48.272  27.328  31.158  1.00  0.00     0.059 A 
ATOM     65  F   UNL A   1      47.067  28.953  29.971  1.00  0.00    -0.206 F 
ATOM     66  C   UNL A   1      48.308  26.347  32.147  1.00  0.00     0.060 A 
BRANCH  66  67
ATOM     67  S   UNL A   1      49.831  25.438  32.483  1.00  0.00     0.124 S 
ATOM     68  O   UNL A   1      50.723  26.500  32.933  1.00  0.00    -0.237 OA
ATOM     69  O   UNL A   1      49.402  24.489  33.505  1.00  0.00    -0.237 OA
ATOM     70  O   UNL A   1      50.160  24.843  31.190  1.00  0.00    -0.744 OA
ENDBRANCH  66  67
ENDBRANCH  45  59
BRANCH  46  71
ATOM     71  C   UNL A   1      37.277  32.517  30.090  1.00  0.00     0.058 A 
ATOM     72  C   UNL A   1      37.153  33.524  29.120  1.00  0.00     0.135 A 
ATOM     73  C   UNL A   1      36.154  32.233  30.884  1.00  0.00     0.135 A 
ATOM     74  F   UNL A   1      38.199  33.842  28.342  1.00  0.00    -0.206 F 
ATOM     75  C   UNL A   1      35.975  34.246  28.965  1.00  0.00     0.059 A 
ATOM     76  C   UNL A   1      34.956  32.924  30.730  1.00  0.00     0.059 A 
ATOM     77  F   UNL A   1      36.220  31.270  31.816  1.00  0.00    -0.206 F 
ATOM     78  C   UNL A   1      34.883  33.943  29.780  1.00  0.00     0.060 A 
BRANCH  78  79
ATOM     79  S   UNL A   1      33.373  34.912  29.585  1.00  0.00     0.124 S 
ATOM     80  O   UNL A   1      33.891  36.142  28.995  1.00  0.00    -0.237 OA
ATOM     81  O   UNL A   1      32.580  34.068  28.698  1.00  0.00    -0.237 OA
ATOM     82  O   UNL A   1      32.869  35.033  30.949  1.00  0.00    -0.744 OA
ENDBRANCH  78  79
ENDBRANCH  46  71
BRANCH  58  83
ATOM     83  C   UNL A   1      43.141  34.073  33.564  1.00  0.00     0.058 A 
ATOM     84  C   UNL A   1      42.684  34.248  34.880  1.00  0.00     0.135 A 
ATOM     85  C   UNL A   1      43.929  35.088  33.002  1.00  0.00     0.135 A 
ATOM     86  F   UNL A   1      41.922  33.308  35.464  1.00  0.00    -0.206 F 
ATOM     87  C   UNL A   1      42.971  35.402  35.601  1.00  0.00     0.059 A 
ATOM     88  C   UNL A   1      44.251  36.239  33.715  1.00  0.00     0.059 A 
ATOM     89  F   UNL A   1      44.402  34.961  31.752  1.00  0.00    -0.206 F 
ATOM     90  C   UNL A   1      43.750  36.395  35.008  1.00  0.00     0.060 A 
BRANCH  90  91
ATOM     91  S   UNL A   1      44.106  37.890  35.955  1.00  0.00     0.124 S 
ATOM     92  O   UNL A   1      43.531  38.927  35.106  1.00  0.00    -0.237 OA
ATOM     93  O   UNL A   1      43.404  37.634  37.209  1.00  0.00    -0.237 OA
ATOM     94  O   UNL A   1      45.564  37.892  36.051  1.00  0.00    -0.744 OA
ENDBRANCH  90  91
ENDBRANCH  58  83
ENDBRANCH  32  33
ENDBRANCH  24  27
ENDBRANCH  22  23
ENDBRANCH   1  22
TORSDOF 15
ENDMDL
