MODEL 1
REMARK VINA RESULT:     -13.4      0.000      0.000
REMARK SMILES CC(=O)Nc1ccc(/C=C2/CCc3oc(C(=O)NCCCNC(=O)c4ccc(-c5c6nc(c(-c7c(F)cc(S(=O)(=O)[O-])cc7F)c7ccc([nH]7)c(-c7c(F)cc(S(=O)(=O)[O-])cc7F)c7nc(c(-c8c(F)cc(S(=O)(=O)[O-])cc8F)c8ccc5[nH]8)C=C7)C=C6)cc4)c(C)c3C2=O)cc1
REMARK SMILES IDX 20 1 19 2 18 3 16 4 17 5 15 7 9 8 10 9 11 10 94 11 12 12
REMARK SMILES IDX 93 13 95 14 13 15 91 16 14 17 92 18 8 19 5 20 6 21 97 22
REMARK SMILES IDX 7 23 96 24 4 25 1 26 2 27 3 28 21 30 22 31 23 32 24 34 25 35
REMARK SMILES IDX 26 36 90 37 27 38 89 39 28 40 29 41 30 42 83 43 31 44 88 45
REMARK SMILES IDX 82 46 84 47 32 48 87 49 81 50 80 51 33 53 67 54 46 55 66 56
REMARK SMILES IDX 47 57 50 58 65 59 85 60 48 61 49 62 64 64 86 65 51 66 34 67
REMARK SMILES IDX 35 68 44 69 36 70 37 71 43 72 45 73 38 74 39 75 40 76 41 77
REMARK SMILES IDX 42 78 68 79 69 80 78 81 70 82 71 83 77 84 79 85 72 86 73 87
REMARK SMILES IDX 74 88 75 89 76 90 52 91 53 92 62 93 54 94 55 95 61 96 63 97
REMARK SMILES IDX 56 98 57 99 58 100 59 101 60 102
REMARK H PARENT 18 6 4 29 22 33 84 52 50 63
REMARK Flexibility Score: inf
ROOT
ATOM      1  C   UNL A   1      35.049  29.931  27.774  1.00  0.00     0.042 C 
ENDROOT
BRANCH   1   2
ATOM      2  C   UNL A   1      34.397  29.358  26.510  1.00  0.00     0.118 C 
BRANCH   2   3
ATOM      3  N   UNL A   1      33.191  30.076  26.111  1.00  0.00    -0.349 N 
ATOM      4  C   UNL A   1      32.116  29.691  25.336  1.00  0.00     0.287 C 
ATOM      5  O   UNL A   1      31.172  30.481  25.279  1.00  0.00    -0.266 OA
ATOM      6  H   UNL A   1      33.135  30.997  26.455  1.00  0.00     0.163 HD
BRANCH   4   7
ATOM      7  C   UNL A   1      32.113  28.408  24.651  1.00  0.00     0.195 A 
ATOM      8  C   UNL A   1      33.011  23.140  22.309  1.00  0.00     0.016 C 
ATOM      9  C   UNL A   1      32.445  24.357  22.441  1.00  0.00     0.001 C 
ATOM     10  C   UNL A   1      32.615  25.374  21.311  1.00  0.00     0.048 C 
ATOM     11  C   UNL A   1      31.661  24.869  23.635  1.00  0.00     0.192 C 
ATOM     12  C   UNL A   1      33.339  26.629  21.805  1.00  0.00     0.081 C 
ATOM     13  C   UNL A   1      31.920  26.273  23.909  1.00  0.00     0.067 A 
ATOM     14  O   UNL A   1      30.865  24.184  24.271  1.00  0.00    -0.289 OA
ATOM     15  C   UNL A   1      32.679  27.034  23.054  1.00  0.00     0.116 A 
ATOM     16  C   UNL A   1      31.532  27.170  24.961  1.00  0.00     0.012 A 
ATOM     17  O   UNL A   1      32.771  28.305  23.456  1.00  0.00    -0.455 OA
ATOM     18  C   UNL A   1      30.695  26.818  26.141  1.00  0.00     0.049 C 
BRANCH   8  19
ATOM     19  C   UNL A   1      33.149  21.960  23.182  1.00  0.00    -0.025 A 
ATOM     20  C   UNL A   1      33.387  19.515  24.592  1.00  0.00     0.041 A 
ATOM     21  C   UNL A   1      34.204  20.601  24.905  1.00  0.00     0.027 A 
ATOM     22  C   UNL A   1      32.407  19.669  23.618  1.00  0.00     0.027 A 
ATOM     23  C   UNL A   1      34.114  21.795  24.177  1.00  0.00     0.010 A 
ATOM     24  C   UNL A   1      32.286  20.880  22.929  1.00  0.00     0.010 A 
BRANCH  20  25
ATOM     25  N   UNL A   1      33.579  18.327  25.310  1.00  0.00    -0.326 N 
ATOM     26  C   UNL A   1      34.136  16.817  23.418  1.00  0.00     0.114 C 
ATOM     27  C   UNL A   1      33.783  17.052  24.864  1.00  0.00     0.221 C 
ATOM     28  O   UNL A   1      33.757  16.116  25.666  1.00  0.00    -0.275 OA
ATOM     29  H   UNL A   1      33.564  18.427  26.290  1.00  0.00     0.169 HD
ENDBRANCH  20  25
ENDBRANCH   8  19
ENDBRANCH   4   7
ENDBRANCH   2   3
ENDBRANCH   1   2
BRANCH   1  30
ATOM     30  C   UNL A   1      35.166  31.445  27.687  1.00  0.00     0.118 C 
BRANCH  30  31
ATOM     31  N   UNL A   1      34.702  32.122  28.912  1.00  0.00    -0.352 N 
ATOM     32  C   UNL A   1      35.139  31.959  30.217  1.00  0.00     0.251 C 
ATOM     33  H   UNL A   1      33.981  32.780  28.785  1.00  0.00     0.163 HD
ATOM     34  O   UNL A   1      34.459  32.354  31.157  1.00  0.00    -0.269 OA
BRANCH  32  35
ATOM     35  C   UNL A   1      36.445  31.315  30.447  1.00  0.00     0.039 A 
ATOM     36  C   UNL A   1      36.592  29.943  30.676  1.00  0.00     0.014 A 
ATOM     37  C   UNL A   1      37.556  32.142  30.386  1.00  0.00     0.014 A 
ATOM     38  C   UNL A   1      37.882  29.418  30.771  1.00  0.00     0.010 A 
ATOM     39  C   UNL A   1      38.790  31.597  30.213  1.00  0.00     0.010 A 
ATOM     40  C   UNL A   1      38.976  30.262  30.528  1.00  0.00    -0.014 A 
BRANCH  40  41
ATOM     41  C   UNL A   1      40.355  29.798  30.483  1.00  0.00     0.031 A 
ATOM     42  C   UNL A   1      40.931  29.554  31.831  1.00  0.00     0.074 A 
ATOM     43  C   UNL A   1      40.889  29.325  29.329  1.00  0.00     0.049 A 
ATOM     44  N   UNL A   1      41.839  30.236  32.447  1.00  0.00    -0.248 NA
ATOM     45  C   UNL A   1      40.261  28.561  32.694  1.00  0.00     0.031 C 
ATOM     46  C   UNL A   1      40.235  29.192  28.016  1.00  0.00     0.029 A 
ATOM     47  N   UNL A   1      42.093  28.734  29.105  1.00  0.00    -0.354 N 
ATOM     48  C   UNL A   1      42.055  29.562  33.648  1.00  0.00     0.074 A 
ATOM     49  C   UNL A   1      40.885  28.757  33.857  1.00  0.00     0.031 C 
ATOM     50  C   UNL A   1      40.946  28.356  27.226  1.00  0.00     0.029 A 
ATOM     51  C   UNL A   1      42.189  28.035  27.898  1.00  0.00     0.049 A 
ATOM     52  H   UNL A   1      42.840  28.793  29.743  1.00  0.00     0.167 HD
ATOM     53  C   UNL A   1      43.308  29.463  34.178  1.00  0.00     0.037 A 
ATOM     54  C   UNL A   1      43.214  27.231  27.506  1.00  0.00     0.037 A 
ATOM     55  C   UNL A   1      44.195  30.404  33.529  1.00  0.00     0.049 A 
ATOM     56  C   UNL A   1      44.374  27.587  28.366  1.00  0.00     0.074 A 
ATOM     57  C   UNL A   1      44.238  31.775  33.381  1.00  0.00     0.029 A 
ATOM     58  N   UNL A   1      45.022  29.890  32.561  1.00  0.00    -0.354 N 
ATOM     59  N   UNL A   1      44.954  28.758  28.351  1.00  0.00    -0.248 NA
ATOM     60  C   UNL A   1      44.567  26.809  29.578  1.00  0.00     0.031 C 
ATOM     61  C   UNL A   1      44.730  31.990  32.059  1.00  0.00     0.029 A 
ATOM     62  C   UNL A   1      45.044  30.751  31.498  1.00  0.00     0.049 A 
ATOM     63  H   UNL A   1      45.519  29.041  32.621  1.00  0.00     0.167 HD
ATOM     64  C   UNL A   1      45.219  29.041  29.685  1.00  0.00     0.074 A 
ATOM     65  C   UNL A   1      45.031  27.769  30.383  1.00  0.00     0.031 C 
ATOM     66  C   UNL A   1      45.267  30.333  30.129  1.00  0.00     0.037 A 
BRANCH  53  67
ATOM     67  C   UNL A   1      43.855  28.247  34.913  1.00  0.00     0.058 A 
ATOM     68  C   UNL A   1      44.505  28.452  36.152  1.00  0.00     0.135 A 
ATOM     69  C   UNL A   1      44.043  26.964  34.350  1.00  0.00     0.135 A 
ATOM     70  F   UNL A   1      44.379  29.618  36.807  1.00  0.00    -0.206 F 
ATOM     71  C   UNL A   1      45.371  27.513  36.714  1.00  0.00     0.059 A 
ATOM     72  C   UNL A   1      44.864  25.996  34.920  1.00  0.00     0.059 A 
ATOM     73  F   UNL A   1      43.515  26.594  33.181  1.00  0.00    -0.206 F 
ATOM     74  C   UNL A   1      45.561  26.296  36.075  1.00  0.00     0.060 A 
BRANCH  74  75
ATOM     75  S   UNL A   1      46.756  25.123  36.737  1.00  0.00     0.124 S 
ATOM     76  O   UNL A   1      47.970  25.929  36.756  1.00  0.00    -0.237 OA
ATOM     77  O   UNL A   1      46.173  24.805  38.036  1.00  0.00    -0.237 OA
ATOM     78  O   UNL A   1      46.732  24.037  35.763  1.00  0.00    -0.744 OA
ENDBRANCH  74  75
ENDBRANCH  53  67
BRANCH  54  79
ATOM     79  C   UNL A   1      43.164  25.956  26.732  1.00  0.00     0.058 A 
ATOM     80  C   UNL A   1      43.903  25.788  25.545  1.00  0.00     0.135 A 
ATOM     81  C   UNL A   1      42.633  24.778  27.297  1.00  0.00     0.135 A 
ATOM     82  F   UNL A   1      44.465  26.849  24.946  1.00  0.00    -0.206 F 
ATOM     83  C   UNL A   1      44.143  24.526  24.980  1.00  0.00     0.059 A 
ATOM     84  C   UNL A   1      42.854  23.513  26.749  1.00  0.00     0.059 A 
ATOM     85  F   UNL A   1      41.958  24.817  28.456  1.00  0.00    -0.206 F 
ATOM     86  C   UNL A   1      43.630  23.389  25.603  1.00  0.00     0.060 A 
BRANCH  86  87
ATOM     87  S   UNL A   1      44.074  21.748  24.975  1.00  0.00     0.124 S 
ATOM     88  O   UNL A   1      42.915  20.952  25.363  1.00  0.00    -0.237 OA
ATOM     89  O   UNL A   1      44.227  21.994  23.545  1.00  0.00    -0.237 OA
ATOM     90  O   UNL A   1      45.310  21.437  25.687  1.00  0.00    -0.744 OA
ENDBRANCH  86  87
ENDBRANCH  54  79
BRANCH  66  91
ATOM     91  C   UNL A   1      45.381  31.438  29.110  1.00  0.00     0.058 A 
ATOM     92  C   UNL A   1      46.568  31.827  28.464  1.00  0.00     0.135 A 
ATOM     93  C   UNL A   1      44.185  32.000  28.642  1.00  0.00     0.135 A 
ATOM     94  F   UNL A   1      47.745  31.274  28.791  1.00  0.00    -0.206 F 
ATOM     95  C   UNL A   1      46.564  32.748  27.411  1.00  0.00     0.059 A 
ATOM     96  C   UNL A   1      44.153  32.894  27.578  1.00  0.00     0.059 A 
ATOM     97  F   UNL A   1      43.012  31.627  29.182  1.00  0.00    -0.206 F 
ATOM     98  C   UNL A   1      45.348  33.270  26.970  1.00  0.00     0.060 A 
BRANCH  98  99
ATOM     99  S   UNL A   1      45.322  34.386  25.549  1.00  0.00     0.124 S 
ATOM    100  O   UNL A   1      44.584  33.608  24.560  1.00  0.00    -0.237 OA
ATOM    101  O   UNL A   1      44.630  35.559  26.079  1.00  0.00    -0.237 OA
ATOM    102  O   UNL A   1      46.737  34.592  25.250  1.00  0.00    -0.744 OA
ENDBRANCH  98  99
ENDBRANCH  66  91
ENDBRANCH  40  41
ENDBRANCH  32  35
ENDBRANCH  30  31
ENDBRANCH   1  30
TORSDOF 15
ENDMDL
MODEL 2
REMARK VINA RESULT:     -13.2      4.490      8.426
REMARK SMILES CC(=O)Nc1ccc(/C=C2/CCc3oc(C(=O)NCCCNC(=O)c4ccc(-c5c6nc(c(-c7c(F)cc(S(=O)(=O)[O-])cc7F)c7ccc([nH]7)c(-c7c(F)cc(S(=O)(=O)[O-])cc7F)c7nc(c(-c8c(F)cc(S(=O)(=O)[O-])cc8F)c8ccc5[nH]8)C=C7)C=C6)cc4)c(C)c3C2=O)cc1
REMARK SMILES IDX 20 1 19 2 18 3 16 4 17 5 15 7 9 8 10 9 11 10 94 11 12 12
REMARK SMILES IDX 93 13 95 14 13 15 91 16 14 17 92 18 8 19 5 20 6 21 97 22
REMARK SMILES IDX 7 23 96 24 4 25 1 26 2 27 3 28 21 30 22 31 23 32 24 34 25 35
REMARK SMILES IDX 26 36 90 37 27 38 89 39 28 40 29 41 30 42 83 43 31 44 88 45
REMARK SMILES IDX 82 46 84 47 32 48 87 49 81 50 80 51 33 53 67 54 46 55 66 56
REMARK SMILES IDX 47 57 50 58 65 59 85 60 48 61 49 62 64 64 86 65 51 66 34 67
REMARK SMILES IDX 35 68 44 69 36 70 37 71 43 72 45 73 38 74 39 75 40 76 41 77
REMARK SMILES IDX 42 78 68 79 69 80 78 81 70 82 71 83 77 84 79 85 72 86 73 87
REMARK SMILES IDX 74 88 75 89 76 90 52 91 53 92 62 93 54 94 55 95 61 96 63 97
REMARK SMILES IDX 56 98 57 99 58 100 59 101 60 102
REMARK H PARENT 18 6 4 29 22 33 84 52 50 63
REMARK Flexibility Score: inf
ROOT
ATOM      1  C   UNL A   1      33.857  34.893  27.648  1.00  0.00     0.042 C 
ENDROOT
BRANCH   1   2
ATOM      2  C   UNL A   1      34.052  36.061  28.621  1.00  0.00     0.118 C 
BRANCH   2   3
ATOM      3  N   UNL A   1      32.909  36.270  29.502  1.00  0.00    -0.349 N 
ATOM      4  C   UNL A   1      32.694  35.906  30.818  1.00  0.00     0.287 C 
ATOM      5  O   UNL A   1      31.666  36.340  31.343  1.00  0.00    -0.266 OA
ATOM      6  H   UNL A   1      32.159  36.754  29.087  1.00  0.00     0.163 HD
BRANCH   4   7
ATOM      7  C   UNL A   1      33.652  35.075  31.527  1.00  0.00     0.195 A 
ATOM      8  C   UNL A   1      38.160  32.072  33.697  1.00  0.00     0.016 C 
ATOM      9  C   UNL A   1      36.864  32.382  33.485  1.00  0.00     0.001 C 
ATOM     10  C   UNL A   1      35.977  31.374  32.753  1.00  0.00     0.048 C 
ATOM     11  C   UNL A   1      36.166  33.672  33.868  1.00  0.00     0.192 C 
ATOM     12  C   UNL A   1      35.419  31.970  31.459  1.00  0.00     0.081 C 
ATOM     13  C   UNL A   1      35.196  34.096  32.871  1.00  0.00     0.067 A 
ATOM     14  O   UNL A   1      36.367  34.269  34.923  1.00  0.00    -0.289 OA
ATOM     15  C   UNL A   1      34.883  33.295  31.800  1.00  0.00     0.116 A 
ATOM     16  C   UNL A   1      34.384  35.269  32.708  1.00  0.00     0.012 A 
ATOM     17  O   UNL A   1      33.946  33.840  31.019  1.00  0.00    -0.455 OA
ATOM     18  C   UNL A   1      34.360  36.446  33.619  1.00  0.00     0.049 C 
BRANCH   8  19
ATOM     19  C   UNL A   1      39.319  32.788  34.260  1.00  0.00    -0.025 A 
ATOM     20  C   UNL A   1      41.414  34.433  35.225  1.00  0.00     0.041 A 
ATOM     21  C   UNL A   1      40.897  33.403  36.010  1.00  0.00     0.027 A 
ATOM     22  C   UNL A   1      40.930  34.602  33.933  1.00  0.00     0.027 A 
ATOM     23  C   UNL A   1      39.831  32.619  35.547  1.00  0.00     0.010 A 
ATOM     24  C   UNL A   1      39.901  33.783  33.455  1.00  0.00     0.010 A 
BRANCH  20  25
ATOM     25  N   UNL A   1      42.429  35.226  35.777  1.00  0.00    -0.326 N 
ATOM     26  C   UNL A   1      41.083  36.458  37.463  1.00  0.00     0.114 C 
ATOM     27  C   UNL A   1      42.355  36.247  36.681  1.00  0.00     0.221 C 
ATOM     28  O   UNL A   1      43.354  36.932  36.908  1.00  0.00    -0.275 OA
ATOM     29  H   UNL A   1      43.339  35.014  35.464  1.00  0.00     0.169 HD
ENDBRANCH  20  25
ENDBRANCH   8  19
ENDBRANCH   4   7
ENDBRANCH   2   3
ENDBRANCH   1   2
BRANCH   1  30
ATOM     30  C   UNL A   1      34.766  33.727  28.006  1.00  0.00     0.118 C 
BRANCH  30  31
ATOM     31  N   UNL A   1      34.058  32.434  28.012  1.00  0.00    -0.352 N 
ATOM     32  C   UNL A   1      34.575  31.156  27.867  1.00  0.00     0.251 C 
ATOM     33  H   UNL A   1      33.082  32.486  28.133  1.00  0.00     0.163 HD
ATOM     34  O   UNL A   1      33.843  30.215  27.584  1.00  0.00    -0.269 OA
BRANCH  32  35
ATOM     35  C   UNL A   1      36.019  30.953  28.077  1.00  0.00     0.039 A 
ATOM     36  C   UNL A   1      36.849  31.909  28.671  1.00  0.00     0.014 A 
ATOM     37  C   UNL A   1      36.529  29.725  27.684  1.00  0.00     0.014 A 
ATOM     38  C   UNL A   1      38.180  31.573  28.923  1.00  0.00     0.010 A 
ATOM     39  C   UNL A   1      37.732  29.312  28.167  1.00  0.00     0.010 A 
ATOM     40  C   UNL A   1      38.606  30.261  28.671  1.00  0.00    -0.014 A 
BRANCH  40  41
ATOM     41  C   UNL A   1      39.934  29.767  29.007  1.00  0.00     0.031 A 
ATOM     42  C   UNL A   1      40.151  29.632  30.471  1.00  0.00     0.074 A 
ATOM     43  C   UNL A   1      40.715  29.184  28.064  1.00  0.00     0.049 A 
ATOM     44  N   UNL A   1      40.907  30.348  31.235  1.00  0.00    -0.248 NA
ATOM     45  C   UNL A   1      39.249  28.733  31.218  1.00  0.00     0.031 C 
ATOM     46  C   UNL A   1      40.397  28.948  26.645  1.00  0.00     0.029 A 
ATOM     47  N   UNL A   1      41.911  28.551  28.194  1.00  0.00    -0.354 N 
ATOM     48  C   UNL A   1      40.794  29.778  32.503  1.00  0.00     0.074 A 
ATOM     49  C   UNL A   1      39.576  29.018  32.480  1.00  0.00     0.031 C 
ATOM     50  C   UNL A   1      41.246  28.032  26.126  1.00  0.00     0.029 A 
ATOM     51  C   UNL A   1      42.272  27.746  27.108  1.00  0.00     0.049 A 
ATOM     52  H   UNL A   1      42.481  28.652  28.990  1.00  0.00     0.167 HD
ATOM     53  C   UNL A   1      41.873  29.702  33.333  1.00  0.00     0.037 A 
ATOM     54  C   UNL A   1      43.328  26.891  27.050  1.00  0.00     0.037 A 
ATOM     55  C   UNL A   1      42.930  30.564  32.851  1.00  0.00     0.049 A 
ATOM     56  C   UNL A   1      44.254  27.299  28.139  1.00  0.00     0.074 A 
ATOM     57  C   UNL A   1      43.064  31.916  32.608  1.00  0.00     0.029 A 
ATOM     58  N   UNL A   1      43.948  29.950  32.163  1.00  0.00    -0.354 N 
ATOM     59  N   UNL A   1      44.868  28.451  28.174  1.00  0.00    -0.248 NA
ATOM     60  C   UNL A   1      44.112  26.627  29.420  1.00  0.00     0.031 C 
ATOM     61  C   UNL A   1      43.874  32.003  31.436  1.00  0.00     0.029 A 
ATOM     62  C   UNL A   1      44.265  30.714  31.073  1.00  0.00     0.049 A 
ATOM     63  H   UNL A   1      44.379  29.100  32.413  1.00  0.00     0.167 HD
ATOM     64  C   UNL A   1      44.809  28.846  29.504  1.00  0.00     0.074 A 
ATOM     65  C   UNL A   1      44.403  27.645  30.234  1.00  0.00     0.031 C 
ATOM     66  C   UNL A   1      44.800  30.171  29.840  1.00  0.00     0.037 A 
BRANCH  53  67
ATOM     67  C   UNL A   1      42.172  28.545  34.277  1.00  0.00     0.058 A 
ATOM     68  C   UNL A   1      42.152  28.796  35.669  1.00  0.00     0.135 A 
ATOM     69  C   UNL A   1      42.758  27.314  33.905  1.00  0.00     0.135 A 
ATOM     70  F   UNL A   1      41.594  29.917  36.154  1.00  0.00    -0.206 F 
ATOM     71  C   UNL A   1      42.776  27.960  36.595  1.00  0.00     0.059 A 
ATOM     72  C   UNL A   1      43.343  26.443  34.819  1.00  0.00     0.059 A 
ATOM     73  F   UNL A   1      42.874  26.913  32.637  1.00  0.00    -0.206 F 
ATOM     74  C   UNL A   1      43.390  26.795  36.155  1.00  0.00     0.060 A 
BRANCH  74  75
ATOM     75  S   UNL A   1      44.287  25.767  37.327  1.00  0.00     0.124 S 
ATOM     76  O   UNL A   1      43.856  24.433  36.930  1.00  0.00    -0.237 OA
ATOM     77  O   UNL A   1      45.673  26.112  37.027  1.00  0.00    -0.237 OA
ATOM     78  O   UNL A   1      43.798  26.231  38.622  1.00  0.00    -0.744 OA
ENDBRANCH  74  75
ENDBRANCH  53  67
BRANCH  54  79
ATOM     79  C   UNL A   1      43.417  25.553  26.393  1.00  0.00     0.058 A 
ATOM     80  C   UNL A   1      44.351  25.298  25.371  1.00  0.00     0.135 A 
ATOM     81  C   UNL A   1      42.800  24.419  26.959  1.00  0.00     0.135 A 
ATOM     82  F   UNL A   1      45.004  26.314  24.788  1.00  0.00    -0.206 F 
ATOM     83  C   UNL A   1      44.689  23.997  24.968  1.00  0.00     0.059 A 
ATOM     84  C   UNL A   1      43.117  23.115  26.571  1.00  0.00     0.059 A 
ATOM     85  F   UNL A   1      41.934  24.544  27.976  1.00  0.00    -0.206 F 
ATOM     86  C   UNL A   1      44.080  22.908  25.590  1.00  0.00     0.060 A 
BRANCH  86  87
ATOM     87  S   UNL A   1      44.631  21.228  25.195  1.00  0.00     0.124 S 
ATOM     88  O   UNL A   1      44.537  21.213  23.739  1.00  0.00    -0.237 OA
ATOM     89  O   UNL A   1      45.983  21.207  25.745  1.00  0.00    -0.237 OA
ATOM     90  O   UNL A   1      43.665  20.382  25.890  1.00  0.00    -0.744 OA
ENDBRANCH  86  87
ENDBRANCH  54  79
BRANCH  66  91
ATOM     91  C   UNL A   1      45.206  31.179  28.796  1.00  0.00     0.058 A 
ATOM     92  C   UNL A   1      44.332  31.799  27.884  1.00  0.00     0.135 A 
ATOM     93  C   UNL A   1      46.520  31.665  28.854  1.00  0.00     0.135 A 
ATOM     94  F   UNL A   1      43.039  31.453  27.823  1.00  0.00    -0.206 F 
ATOM     95  C   UNL A   1      44.755  32.845  27.056  1.00  0.00     0.059 A 
ATOM     96  C   UNL A   1      46.953  32.724  28.064  1.00  0.00     0.059 A 
ATOM     97  F   UNL A   1      47.385  31.152  29.744  1.00  0.00    -0.206 F 
ATOM     98  C   UNL A   1      46.068  33.305  27.160  1.00  0.00     0.060 A 
BRANCH  98  99
ATOM     99  S   UNL A   1      46.597  34.717  26.165  1.00  0.00     0.124 S 
ATOM    100  O   UNL A   1      47.819  34.216  25.545  1.00  0.00    -0.237 OA
ATOM    101  O   UNL A   1      45.463  34.914  25.265  1.00  0.00    -0.237 OA
ATOM    102  O   UNL A   1      46.788  35.779  27.151  1.00  0.00    -0.744 OA
ENDBRANCH  98  99
ENDBRANCH  66  91
ENDBRANCH  40  41
ENDBRANCH  32  35
ENDBRANCH  30  31
ENDBRANCH   1  30
TORSDOF 15
ENDMDL
MODEL 3
REMARK VINA RESULT:     -13.1      2.078      2.746
REMARK SMILES CC(=O)Nc1ccc(/C=C2/CCc3oc(C(=O)NCCCNC(=O)c4ccc(-c5c6nc(c(-c7c(F)cc(S(=O)(=O)[O-])cc7F)c7ccc([nH]7)c(-c7c(F)cc(S(=O)(=O)[O-])cc7F)c7nc(c(-c8c(F)cc(S(=O)(=O)[O-])cc8F)c8ccc5[nH]8)C=C7)C=C6)cc4)c(C)c3C2=O)cc1
REMARK SMILES IDX 20 1 19 2 18 3 16 4 17 5 15 7 9 8 10 9 11 10 94 11 12 12
REMARK SMILES IDX 93 13 95 14 13 15 91 16 14 17 92 18 8 19 5 20 6 21 97 22
REMARK SMILES IDX 7 23 96 24 4 25 1 26 2 27 3 28 21 30 22 31 23 32 24 34 25 35
REMARK SMILES IDX 26 36 90 37 27 38 89 39 28 40 29 41 30 42 83 43 31 44 88 45
REMARK SMILES IDX 82 46 84 47 32 48 87 49 81 50 80 51 33 53 67 54 46 55 66 56
REMARK SMILES IDX 47 57 50 58 65 59 85 60 48 61 49 62 64 64 86 65 51 66 34 67
REMARK SMILES IDX 35 68 44 69 36 70 37 71 43 72 45 73 38 74 39 75 40 76 41 77
REMARK SMILES IDX 42 78 68 79 69 80 78 81 70 82 71 83 77 84 79 85 72 86 73 87
REMARK SMILES IDX 74 88 75 89 76 90 52 91 53 92 62 93 54 94 55 95 61 96 63 97
REMARK SMILES IDX 56 98 57 99 58 100 59 101 60 102
REMARK H PARENT 18 6 4 29 22 33 84 52 50 63
REMARK Flexibility Score: inf
ROOT
ATOM      1  C   UNL A   1      35.509  30.063  28.834  1.00  0.00     0.042 C 
ENDROOT
BRANCH   1   2
ATOM      2  C   UNL A   1      35.086  29.937  27.366  1.00  0.00     0.118 C 
BRANCH   2   3
ATOM      3  N   UNL A   1      33.869  30.679  27.055  1.00  0.00    -0.349 N 
ATOM      4  C   UNL A   1      32.775  30.350  26.279  1.00  0.00     0.287 C 
ATOM      5  O   UNL A   1      31.828  31.139  26.308  1.00  0.00    -0.266 OA
ATOM      6  H   UNL A   1      33.819  31.570  27.471  1.00  0.00     0.163 HD
BRANCH   4   7
ATOM      7  C   UNL A   1      32.757  29.124  25.497  1.00  0.00     0.195 A 
ATOM      8  C   UNL A   1      33.582  24.029  22.777  1.00  0.00     0.016 C 
ATOM      9  C   UNL A   1      33.044  25.248  22.989  1.00  0.00     0.001 C 
ATOM     10  C   UNL A   1      33.269  26.343  21.946  1.00  0.00     0.048 C 
ATOM     11  C   UNL A   1      32.243  25.687  24.200  1.00  0.00     0.192 C 
ATOM     12  C   UNL A   1      34.012  27.536  22.553  1.00  0.00     0.081 C 
ATOM     13  C   UNL A   1      32.529  27.059  24.588  1.00  0.00     0.067 A 
ATOM     14  O   UNL A   1      31.413  24.977  24.762  1.00  0.00    -0.289 OA
ATOM     15  C   UNL A   1      33.330  27.862  23.813  1.00  0.00     0.116 A 
ATOM     16  C   UNL A   1      32.137  27.882  25.696  1.00  0.00     0.012 A 
ATOM     17  O   UNL A   1      33.443  29.095  24.315  1.00  0.00    -0.455 OA
ATOM     18  C   UNL A   1      31.261  27.464  26.825  1.00  0.00     0.049 C 
BRANCH   8  19
ATOM     19  C   UNL A   1      33.668  22.782  23.559  1.00  0.00    -0.025 A 
ATOM     20  C   UNL A   1      33.674  20.245  24.819  1.00  0.00     0.041 A 
ATOM     21  C   UNL A   1      34.808  21.057  24.845  1.00  0.00     0.027 A 
ATOM     22  C   UNL A   1      32.516  20.726  24.219  1.00  0.00     0.027 A 
ATOM     23  C   UNL A   1      34.816  22.293  24.184  1.00  0.00     0.010 A 
ATOM     24  C   UNL A   1      32.513  21.983  23.605  1.00  0.00     0.010 A 
BRANCH  20  25
ATOM     25  N   UNL A   1      33.758  18.991  25.437  1.00  0.00    -0.326 N 
ATOM     26  C   UNL A   1      33.585  17.552  23.419  1.00  0.00     0.114 C 
ATOM     27  C   UNL A   1      33.594  17.739  24.915  1.00  0.00     0.221 C 
ATOM     28  O   UNL A   1      33.539  16.767  25.671  1.00  0.00    -0.275 OA
ATOM     29  H   UNL A   1      33.966  19.014  26.399  1.00  0.00     0.169 HD
ENDBRANCH  20  25
ENDBRANCH   8  19
ENDBRANCH   4   7
ENDBRANCH   2   3
ENDBRANCH   1   2
BRANCH   1  30
ATOM     30  C   UNL A   1      36.138  31.422  29.104  1.00  0.00     0.118 C 
BRANCH  30  31
ATOM     31  N   UNL A   1      36.043  31.822  30.520  1.00  0.00    -0.352 N 
ATOM     32  C   UNL A   1      36.791  31.382  31.602  1.00  0.00     0.251 C 
ATOM     33  H   UNL A   1      35.353  32.493  30.726  1.00  0.00     0.163 HD
ATOM     34  O   UNL A   1      36.398  31.567  32.748  1.00  0.00    -0.269 OA
BRANCH  32  35
ATOM     35  C   UNL A   1      38.072  30.703  31.342  1.00  0.00     0.039 A 
ATOM     36  C   UNL A   1      39.300  31.372  31.303  1.00  0.00     0.014 A 
ATOM     37  C   UNL A   1      38.014  29.328  31.172  1.00  0.00     0.014 A 
ATOM     38  C   UNL A   1      40.466  30.617  31.161  1.00  0.00     0.010 A 
ATOM     39  C   UNL A   1      39.147  28.587  31.303  1.00  0.00     0.010 A 
ATOM     40  C   UNL A   1      40.372  29.218  31.169  1.00  0.00    -0.014 A 
BRANCH  40  41
ATOM     41  C   UNL A   1      41.529  28.334  31.148  1.00  0.00     0.031 A 
ATOM     42  C   UNL A   1      41.998  27.957  32.507  1.00  0.00     0.074 A 
ATOM     43  C   UNL A   1      41.880  27.680  30.012  1.00  0.00     0.049 A 
ATOM     44  N   UNL A   1      43.078  28.329  33.110  1.00  0.00    -0.248 NA
ATOM     45  C   UNL A   1      41.045  27.259  33.393  1.00  0.00     0.031 C 
ATOM     46  C   UNL A   1      41.215  27.726  28.699  1.00  0.00     0.029 A 
ATOM     47  N   UNL A   1      42.829  26.727  29.815  1.00  0.00    -0.354 N 
ATOM     48  C   UNL A   1      43.068  27.657  34.332  1.00  0.00     0.074 A 
ATOM     49  C   UNL A   1      41.701  27.278  34.555  1.00  0.00     0.031 C 
ATOM     50  C   UNL A   1      41.618  26.683  27.939  1.00  0.00     0.029 A 
ATOM     51  C   UNL A   1      42.692  25.999  28.629  1.00  0.00     0.049 A 
ATOM     52  H   UNL A   1      43.556  26.562  30.457  1.00  0.00     0.167 HD
ATOM     53  C   UNL A   1      44.223  27.176  34.874  1.00  0.00     0.037 A 
ATOM     54  C   UNL A   1      43.404  24.896  28.269  1.00  0.00     0.037 A 
ATOM     55  C   UNL A   1      45.364  27.762  34.205  1.00  0.00     0.049 A 
ATOM     56  C   UNL A   1      44.618  24.886  29.127  1.00  0.00     0.074 A 
ATOM     57  C   UNL A   1      45.846  29.042  34.019  1.00  0.00     0.029 A 
ATOM     58  N   UNL A   1      45.981  26.981  33.259  1.00  0.00    -0.354 N 
ATOM     59  N   UNL A   1      45.544  25.807  29.083  1.00  0.00    -0.248 NA
ATOM     60  C   UNL A   1      44.553  24.124  30.362  1.00  0.00     0.031 C 
ATOM     61  C   UNL A   1      46.379  29.048  32.695  1.00  0.00     0.029 A 
ATOM     62  C   UNL A   1      46.277  27.758  32.172  1.00  0.00     0.049 A 
ATOM     63  H   UNL A   1      46.178  26.020  33.348  1.00  0.00     0.167 HD
ATOM     64  C   UNL A   1      45.888  26.029  30.410  1.00  0.00     0.074 A 
ATOM     65  C   UNL A   1      45.302  24.906  31.143  1.00  0.00     0.031 C 
ATOM     66  C   UNL A   1      46.350  27.249  30.817  1.00  0.00     0.037 A 
BRANCH  53  67
ATOM     67  C   UNL A   1      44.351  25.871  35.648  1.00  0.00     0.058 A 
ATOM     68  C   UNL A   1      45.027  25.895  36.890  1.00  0.00     0.135 A 
ATOM     69  C   UNL A   1      44.123  24.580  35.121  1.00  0.00     0.135 A 
ATOM     70  F   UNL A   1      45.275  27.059  37.512  1.00  0.00    -0.206 F 
ATOM     71  C   UNL A   1      45.546  24.746  37.488  1.00  0.00     0.059 A 
ATOM     72  C   UNL A   1      44.591  23.418  35.727  1.00  0.00     0.059 A 
ATOM     73  F   UNL A   1      43.510  24.363  33.955  1.00  0.00    -0.206 F 
ATOM     74  C   UNL A   1      45.342  23.513  36.884  1.00  0.00     0.060 A 
BRANCH  74  75
ATOM     75  S   UNL A   1      46.098  22.041  37.592  1.00  0.00     0.124 S 
ATOM     76  O   UNL A   1      47.515  22.361  37.476  1.00  0.00    -0.237 OA
ATOM     77  O   UNL A   1      45.545  22.042  38.942  1.00  0.00    -0.237 OA
ATOM     78  O   UNL A   1      45.617  20.969  36.725  1.00  0.00    -0.744 OA
ENDBRANCH  74  75
ENDBRANCH  53  67
BRANCH  54  79
ATOM     79  C   UNL A   1      42.945  23.683  27.531  1.00  0.00     0.058 A 
ATOM     80  C   UNL A   1      43.614  23.226  26.379  1.00  0.00     0.135 A 
ATOM     81  C   UNL A   1      42.030  22.779  28.109  1.00  0.00     0.135 A 
ATOM     82  F   UNL A   1      44.519  24.009  25.773  1.00  0.00    -0.206 F 
ATOM     83  C   UNL A   1      43.427  21.936  25.861  1.00  0.00     0.059 A 
ATOM     84  C   UNL A   1      41.823  21.492  27.608  1.00  0.00     0.059 A 
ATOM     85  F   UNL A   1      41.377  23.091  29.238  1.00  0.00    -0.206 F 
ATOM     86  C   UNL A   1      42.541  21.066  26.497  1.00  0.00     0.060 A 
BRANCH  86  87
ATOM     87  S   UNL A   1      42.418  19.348  25.936  1.00  0.00     0.124 S 
ATOM     88  O   UNL A   1      40.985  19.204  25.709  1.00  0.00    -0.237 OA
ATOM     89  O   UNL A   1      43.254  19.351  24.740  1.00  0.00    -0.237 OA
ATOM     90  O   UNL A   1      42.950  18.585  27.062  1.00  0.00    -0.744 OA
ENDBRANCH  86  87
ENDBRANCH  54  79
BRANCH  66  91
ATOM     91  C   UNL A   1      46.812  28.228  29.768  1.00  0.00     0.058 A 
ATOM     92  C   UNL A   1      45.988  29.158  29.107  1.00  0.00     0.135 A 
ATOM     93  C   UNL A   1      48.195  28.340  29.564  1.00  0.00     0.135 A 
ATOM     94  F   UNL A   1      44.664  29.175  29.313  1.00  0.00    -0.206 F 
ATOM     95  C   UNL A   1      46.519  30.143  28.268  1.00  0.00     0.059 A 
ATOM     96  C   UNL A   1      48.746  29.331  28.759  1.00  0.00     0.059 A 
ATOM     97  F   UNL A   1      49.037  27.517  30.211  1.00  0.00    -0.206 F 
ATOM     98  C   UNL A   1      47.902  30.226  28.107  1.00  0.00     0.060 A 
BRANCH  98  99
ATOM     99  S   UNL A   1      48.603  31.553  27.102  1.00  0.00     0.124 S 
ATOM    100  O   UNL A   1      47.473  31.930  26.259  1.00  0.00    -0.237 OA
ATOM    101  O   UNL A   1      49.001  32.537  28.106  1.00  0.00    -0.237 OA
ATOM    102  O   UNL A   1      49.712  30.906  26.405  1.00  0.00    -0.744 OA
ENDBRANCH  98  99
ENDBRANCH  66  91
ENDBRANCH  40  41
ENDBRANCH  32  35
ENDBRANCH  30  31
ENDBRANCH   1  30
TORSDOF 15
ENDMDL
