MODEL 1
REMARK VINA RESULT:     -11.3      0.000      0.000
REMARK SMILES C[C@H]([NH3+])c1ccc(F)cc1OCC(C)(C)C(=O)NCCCNC(=O)c1ccc(-c2c3nc(c(-c4c(F)cc(S(=O)(=O)[O-])cc4F)c4ccc([nH]4)c(-c4c(F)cc(S(=O)(=O)[O-])cc4F)c4nc(c(-c5c(F)cc(S(=O)(=O)[O-])cc5F)c5ccc2[nH]5)C=C4)C=C3)cc1
REMARK SMILES IDX 19 1 18 2 16 3 17 4 13 6 14 7 15 8 12 9 11 10 10 11 4 12
REMARK SMILES IDX 5 13 6 14 9 15 7 16 8 17 2 18 1 19 3 20 20 24 21 25 22 26
REMARK SMILES IDX 23 27 24 29 25 30 26 31 90 32 27 33 89 34 28 35 29 36 30 37
REMARK SMILES IDX 83 38 31 39 88 40 82 41 84 42 32 43 87 44 81 45 80 46 33 48
REMARK SMILES IDX 67 49 46 50 66 51 47 52 50 53 65 54 85 55 48 56 49 57 64 59
REMARK SMILES IDX 86 60 51 61 34 62 35 63 44 64 36 65 37 66 43 67 45 68 38 69
REMARK SMILES IDX 39 70 40 71 41 72 42 73 68 74 69 75 78 76 70 77 71 78 77 79
REMARK SMILES IDX 79 80 72 81 73 82 74 83 75 84 76 85 52 86 53 87 62 88 54 89
REMARK SMILES IDX 55 90 61 91 63 92 56 93 57 94 58 95 59 96 60 97
REMARK H PARENT 18 5 3 21 3 22 3 23 22 28 84 47 50 58
REMARK Flexibility Score: inf
ROOT
ATOM      1  C   UNL A   1      33.894  29.781  26.902  1.00  0.00     0.117 C 
ENDROOT
BRANCH   1   2
ATOM      2  N   UNL A   1      32.753  29.178  27.589  1.00  0.00    -0.355 N 
ATOM      3  C   UNL A   1      31.861  28.231  27.140  1.00  0.00     0.229 C 
ATOM      4  O   UNL A   1      31.052  27.775  27.949  1.00  0.00    -0.274 OA
ATOM      5  H   UNL A   1      32.599  29.497  28.507  1.00  0.00     0.163 HD
BRANCH   3   6
ATOM      6  C   UNL A   1      31.893  27.815  25.660  1.00  0.00     0.077 C 
ATOM      7  C   UNL A   1      31.690  29.103  24.833  1.00  0.00     0.025 C 
ATOM      8  C   UNL A   1      30.757  26.763  25.499  1.00  0.00     0.025 C 
BRANCH   6   9
ATOM      9  C   UNL A   1      33.192  27.015  25.293  1.00  0.00     0.245 C 
BRANCH   9  10
ATOM     10  O   UNL A   1      33.187  25.603  25.424  1.00  0.00    -0.492 OA
BRANCH  10  11
ATOM     11  C   UNL A   1      34.013  24.720  24.789  1.00  0.00     0.131 A 
ATOM     12  C   UNL A   1      34.020  24.209  23.466  1.00  0.00     0.051 A 
ATOM     13  C   UNL A   1      35.168  23.473  23.063  1.00  0.00     0.017 A 
ATOM     14  C   UNL A   1      36.250  23.248  23.915  1.00  0.00     0.040 A 
ATOM     15  C   UNL A   1      35.084  24.419  25.653  1.00  0.00     0.086 A 
ATOM     16  C   UNL A   1      36.189  23.710  25.213  1.00  0.00     0.126 A 
ATOM     17  F   UNL A   1      37.220  23.504  26.042  1.00  0.00    -0.207 F 
BRANCH  12  18
ATOM     18  C   UNL A   1      32.942  24.423  22.409  1.00  0.00     0.212 C 
ATOM     19  C   UNL A   1      33.019  25.798  21.757  1.00  0.00     0.081 C 
BRANCH  18  20
ATOM     20  N   UNL A   1      31.580  24.187  22.921  1.00  0.00    -0.351 N 
ATOM     21  H   UNL A   1      30.974  23.894  22.155  1.00  0.00     0.345 HD
ATOM     22  H   UNL A   1      31.217  25.049  23.331  1.00  0.00     0.345 HD
ATOM     23  H   UNL A   1      31.605  23.457  23.633  1.00  0.00     0.345 HD
ENDBRANCH  18  20
ENDBRANCH  12  18
ENDBRANCH  10  11
ENDBRANCH   9  10
ENDBRANCH   6   9
ENDBRANCH   3   6
ENDBRANCH   1   2
BRANCH   1  24
ATOM     24  C   UNL A   1      35.223  29.392  27.495  1.00  0.00     0.042 C 
BRANCH  24  25
ATOM     25  C   UNL A   1      35.876  30.558  28.201  1.00  0.00     0.118 C 
BRANCH  25  26
ATOM     26  N   UNL A   1      35.687  30.510  29.650  1.00  0.00    -0.352 N 
ATOM     27  C   UNL A   1      36.581  30.148  30.632  1.00  0.00     0.251 C 
ATOM     28  H   UNL A   1      34.794  30.774  29.968  1.00  0.00     0.163 HD
ATOM     29  O   UNL A   1      36.209  29.975  31.779  1.00  0.00    -0.269 OA
BRANCH  27  30
ATOM     30  C   UNL A   1      37.991  29.951  30.248  1.00  0.00     0.039 A 
ATOM     31  C   UNL A   1      38.896  29.453  31.184  1.00  0.00     0.014 A 
ATOM     32  C   UNL A   1      38.380  30.181  28.927  1.00  0.00     0.014 A 
ATOM     33  C   UNL A   1      40.179  29.106  30.765  1.00  0.00     0.010 A 
ATOM     34  C   UNL A   1      39.602  29.705  28.487  1.00  0.00     0.010 A 
ATOM     35  C   UNL A   1      40.523  29.183  29.404  1.00  0.00    -0.014 A 
BRANCH  35  36
ATOM     36  C   UNL A   1      41.854  28.763  28.907  1.00  0.00     0.031 A 
ATOM     37  C   UNL A   1      42.959  29.781  28.821  1.00  0.00     0.074 A 
ATOM     38  C   UNL A   1      42.041  27.505  28.464  1.00  0.00     0.049 A 
ATOM     39  N   UNL A   1      44.157  29.657  28.316  1.00  0.00    -0.248 NA
ATOM     40  C   UNL A   1      42.665  31.134  29.332  1.00  0.00     0.031 C 
ATOM     41  C   UNL A   1      41.021  26.452  28.442  1.00  0.00     0.029 A 
ATOM     42  N   UNL A   1      43.154  26.897  27.944  1.00  0.00    -0.354 N 
ATOM     43  C   UNL A   1      44.744  30.911  28.428  1.00  0.00     0.074 A 
ATOM     44  C   UNL A   1      43.749  31.804  28.976  1.00  0.00     0.031 C 
ATOM     45  C   UNL A   1      41.570  25.319  27.977  1.00  0.00     0.029 A 
ATOM     46  C   UNL A   1      42.963  25.572  27.627  1.00  0.00     0.049 A 
ATOM     47  H   UNL A   1      44.009  27.365  27.811  1.00  0.00     0.167 HD
ATOM     48  C   UNL A   1      46.012  31.278  28.138  1.00  0.00     0.037 A 
ATOM     49  C   UNL A   1      43.819  24.667  27.114  1.00  0.00     0.037 A 
ATOM     50  C   UNL A   1      47.009  30.368  27.646  1.00  0.00     0.049 A 
ATOM     51  C   UNL A   1      45.231  25.093  26.816  1.00  0.00     0.074 A 
ATOM     52  C   UNL A   1      48.343  30.618  27.380  1.00  0.00     0.029 A 
ATOM     53  N   UNL A   1      46.784  29.029  27.361  1.00  0.00    -0.354 N 
ATOM     54  N   UNL A   1      45.784  26.273  26.973  1.00  0.00    -0.248 NA
ATOM     55  C   UNL A   1      46.136  24.069  26.276  1.00  0.00     0.031 C 
ATOM     56  C   UNL A   1      48.917  29.438  26.899  1.00  0.00     0.029 A 
ATOM     57  C   UNL A   1      47.951  28.442  26.909  1.00  0.00     0.049 A 
ATOM     58  H   UNL A   1      45.922  28.566  27.465  1.00  0.00     0.167 HD
ATOM     59  C   UNL A   1      47.106  26.129  26.570  1.00  0.00     0.074 A 
ATOM     60  C   UNL A   1      47.273  24.745  26.174  1.00  0.00     0.031 C 
ATOM     61  C   UNL A   1      48.092  27.058  26.527  1.00  0.00     0.037 A 
BRANCH  48  62
ATOM     62  C   UNL A   1      46.400  32.710  28.376  1.00  0.00     0.058 A 
ATOM     63  C   UNL A   1      46.302  33.660  27.347  1.00  0.00     0.135 A 
ATOM     64  C   UNL A   1      46.910  33.136  29.614  1.00  0.00     0.135 A 
ATOM     65  F   UNL A   1      45.809  33.311  26.149  1.00  0.00    -0.206 F 
ATOM     66  C   UNL A   1      46.710  34.976  27.533  1.00  0.00     0.059 A 
ATOM     67  C   UNL A   1      47.298  34.454  29.831  1.00  0.00     0.059 A 
ATOM     68  F   UNL A   1      46.997  32.274  30.641  1.00  0.00    -0.206 F 
ATOM     69  C   UNL A   1      47.209  35.363  28.777  1.00  0.00     0.060 A 
BRANCH  69  70
ATOM     70  S   UNL A   1      47.710  37.082  29.011  1.00  0.00     0.124 S 
ATOM     71  O   UNL A   1      46.570  37.629  29.739  1.00  0.00    -0.237 OA
ATOM     72  O   UNL A   1      48.946  36.938  29.774  1.00  0.00    -0.237 OA
ATOM     73  O   UNL A   1      47.880  37.573  27.647  1.00  0.00    -0.744 OA
ENDBRANCH  69  70
ENDBRANCH  48  62
BRANCH  49  74
ATOM     74  C   UNL A   1      43.370  23.267  26.896  1.00  0.00     0.058 A 
ATOM     75  C   UNL A   1      43.207  22.374  27.965  1.00  0.00     0.135 A 
ATOM     76  C   UNL A   1      43.140  22.782  25.599  1.00  0.00     0.135 A 
ATOM     77  F   UNL A   1      43.426  22.784  29.225  1.00  0.00    -0.206 F 
ATOM     78  C   UNL A   1      42.858  21.044  27.757  1.00  0.00     0.059 A 
ATOM     79  C   UNL A   1      42.766  21.461  25.366  1.00  0.00     0.059 A 
ATOM     80  F   UNL A   1      43.274  23.601  24.545  1.00  0.00    -0.206 F 
ATOM     81  C   UNL A   1      42.646  20.595  26.453  1.00  0.00     0.060 A 
BRANCH  81  82
ATOM     82  S   UNL A   1      42.217  18.859  26.202  1.00  0.00     0.124 S 
ATOM     83  O   UNL A   1      40.837  18.965  25.737  1.00  0.00    -0.237 OA
ATOM     84  O   UNL A   1      43.194  18.444  25.201  1.00  0.00    -0.237 OA
ATOM     85  O   UNL A   1      42.389  18.273  27.527  1.00  0.00    -0.744 OA
ENDBRANCH  81  82
ENDBRANCH  49  74
BRANCH  61  86
ATOM     86  C   UNL A   1      49.448  26.615  26.057  1.00  0.00     0.058 A 
ATOM     87  C   UNL A   1      50.379  26.092  26.968  1.00  0.00     0.135 A 
ATOM     88  C   UNL A   1      49.857  26.801  24.728  1.00  0.00     0.135 A 
ATOM     89  F   UNL A   1      50.038  25.902  28.253  1.00  0.00    -0.206 F 
ATOM     90  C   UNL A   1      51.679  25.789  26.582  1.00  0.00     0.059 A 
ATOM     91  C   UNL A   1      51.145  26.480  24.314  1.00  0.00     0.059 A 
ATOM     92  F   UNL A   1      48.998  27.289  23.820  1.00  0.00    -0.206 F 
ATOM     93  C   UNL A   1      52.054  25.993  25.253  1.00  0.00     0.060 A 
BRANCH  93  94
ATOM     94  S   UNL A   1      53.747  25.596  24.768  1.00  0.00     0.124 S 
ATOM     95  O   UNL A   1      54.515  26.178  25.864  1.00  0.00    -0.237 OA
ATOM     96  O   UNL A   1      53.719  24.138  24.718  1.00  0.00    -0.237 OA
ATOM     97  O   UNL A   1      53.894  26.259  23.476  1.00  0.00    -0.744 OA
ENDBRANCH  93  94
ENDBRANCH  61  86
ENDBRANCH  35  36
ENDBRANCH  27  30
ENDBRANCH  25  26
ENDBRANCH  24  25
ENDBRANCH   1  24
TORSDOF 18
ENDMDL
MODEL 2
REMARK VINA RESULT:     -11.0      6.816     11.714
REMARK SMILES C[C@H]([NH3+])c1ccc(F)cc1OCC(C)(C)C(=O)NCCCNC(=O)c1ccc(-c2c3nc(c(-c4c(F)cc(S(=O)(=O)[O-])cc4F)c4ccc([nH]4)c(-c4c(F)cc(S(=O)(=O)[O-])cc4F)c4nc(c(-c5c(F)cc(S(=O)(=O)[O-])cc5F)c5ccc2[nH]5)C=C4)C=C3)cc1
REMARK SMILES IDX 19 1 18 2 16 3 17 4 13 6 14 7 15 8 12 9 11 10 10 11 4 12
REMARK SMILES IDX 5 13 6 14 9 15 7 16 8 17 2 18 1 19 3 20 20 24 21 25 22 26
REMARK SMILES IDX 23 27 24 29 25 30 26 31 90 32 27 33 89 34 28 35 29 36 30 37
REMARK SMILES IDX 83 38 31 39 88 40 82 41 84 42 32 43 87 44 81 45 80 46 33 48
REMARK SMILES IDX 67 49 46 50 66 51 47 52 50 53 65 54 85 55 48 56 49 57 64 59
REMARK SMILES IDX 86 60 51 61 34 62 35 63 44 64 36 65 37 66 43 67 45 68 38 69
REMARK SMILES IDX 39 70 40 71 41 72 42 73 68 74 69 75 78 76 70 77 71 78 77 79
REMARK SMILES IDX 79 80 72 81 73 82 74 83 75 84 76 85 52 86 53 87 62 88 54 89
REMARK SMILES IDX 55 90 61 91 63 92 56 93 57 94 58 95 59 96 60 97
REMARK H PARENT 18 5 3 21 3 22 3 23 22 28 84 47 50 58
REMARK Flexibility Score: inf
ROOT
ATOM      1  C   UNL A   1      37.419  22.670  25.379  1.00  0.00     0.117 C 
ENDROOT
BRANCH   1   2
ATOM      2  N   UNL A   1      36.879  22.869  24.036  1.00  0.00    -0.355 N 
ATOM      3  C   UNL A   1      35.570  22.884  23.611  1.00  0.00     0.229 C 
ATOM      4  O   UNL A   1      35.349  23.204  22.443  1.00  0.00    -0.274 OA
ATOM      5  H   UNL A   1      37.550  23.014  23.330  1.00  0.00     0.163 HD
BRANCH   3   6
ATOM      6  C   UNL A   1      34.460  22.473  24.593  1.00  0.00     0.077 C 
ATOM      7  C   UNL A   1      35.003  21.271  25.398  1.00  0.00     0.025 C 
ATOM      8  C   UNL A   1      33.222  22.146  23.709  1.00  0.00     0.025 C 
BRANCH   6   9
ATOM      9  C   UNL A   1      33.975  23.672  25.481  1.00  0.00     0.245 C 
BRANCH   9  10
ATOM     10  O   UNL A   1      33.564  24.871  24.846  1.00  0.00    -0.492 OA
BRANCH  10  11
ATOM     11  C   UNL A   1      32.954  25.942  25.435  1.00  0.00     0.131 A 
ATOM     12  C   UNL A   1      31.596  26.208  25.746  1.00  0.00     0.051 A 
ATOM     13  C   UNL A   1      31.331  27.333  26.574  1.00  0.00     0.017 A 
ATOM     14  C   UNL A   1      32.345  28.153  27.071  1.00  0.00     0.040 A 
ATOM     15  C   UNL A   1      33.954  26.825  25.888  1.00  0.00     0.086 A 
ATOM     16  C   UNL A   1      33.650  27.900  26.706  1.00  0.00     0.126 A 
ATOM     17  F   UNL A   1      34.635  28.677  27.175  1.00  0.00    -0.207 F 
BRANCH  12  18
ATOM     18  C   UNL A   1      30.393  25.372  25.327  1.00  0.00     0.212 C 
ATOM     19  C   UNL A   1      29.381  26.161  24.505  1.00  0.00     0.081 C 
BRANCH  18  20
ATOM     20  N   UNL A   1      29.716  24.726  26.466  1.00  0.00    -0.351 N 
ATOM     21  H   UNL A   1      28.759  24.488  26.204  1.00  0.00     0.345 HD
ATOM     22  H   UNL A   1      29.701  25.367  27.260  1.00  0.00     0.345 HD
ATOM     23  H   UNL A   1      30.219  23.877  26.724  1.00  0.00     0.345 HD
ENDBRANCH  18  20
ENDBRANCH  12  18
ENDBRANCH  10  11
ENDBRANCH   9  10
ENDBRANCH   6   9
ENDBRANCH   3   6
ENDBRANCH   1   2
BRANCH   1  24
ATOM     24  C   UNL A   1      37.764  23.956  26.084  1.00  0.00     0.042 C 
BRANCH  24  25
ATOM     25  C   UNL A   1      39.071  23.844  26.832  1.00  0.00     0.118 C 
BRANCH  25  26
ATOM     26  N   UNL A   1      40.211  24.297  26.035  1.00  0.00    -0.352 N 
ATOM     27  C   UNL A   1      40.890  25.493  26.088  1.00  0.00     0.251 C 
ATOM     28  H   UNL A   1      40.540  23.654  25.366  1.00  0.00     0.163 HD
ATOM     29  O   UNL A   1      41.695  25.791  25.224  1.00  0.00    -0.269 OA
BRANCH  27  30
ATOM     30  C   UNL A   1      40.592  26.409  27.205  1.00  0.00     0.039 A 
ATOM     31  C   UNL A   1      39.833  25.956  28.283  1.00  0.00     0.014 A 
ATOM     32  C   UNL A   1      41.149  27.689  27.209  1.00  0.00     0.014 A 
ATOM     33  C   UNL A   1      39.706  26.768  29.409  1.00  0.00     0.010 A 
ATOM     34  C   UNL A   1      41.139  28.429  28.377  1.00  0.00     0.010 A 
ATOM     35  C   UNL A   1      40.399  27.988  29.482  1.00  0.00    -0.014 A 
BRANCH  35  36
ATOM     36  C   UNL A   1      40.343  28.851  30.685  1.00  0.00     0.031 A 
ATOM     37  C   UNL A   1      39.326  29.959  30.746  1.00  0.00     0.074 A 
ATOM     38  C   UNL A   1      41.246  28.691  31.671  1.00  0.00     0.049 A 
ATOM     39  N   UNL A   1      39.177  30.892  31.646  1.00  0.00    -0.248 NA
ATOM     40  C   UNL A   1      38.375  30.057  29.622  1.00  0.00     0.031 C 
ATOM     41  C   UNL A   1      42.317  27.689  31.687  1.00  0.00     0.029 A 
ATOM     42  N   UNL A   1      41.412  29.369  32.850  1.00  0.00    -0.354 N 
ATOM     43  C   UNL A   1      38.140  31.695  31.188  1.00  0.00     0.074 A 
ATOM     44  C   UNL A   1      37.744  31.188  29.894  1.00  0.00     0.031 C 
ATOM     45  C   UNL A   1      42.997  27.791  32.840  1.00  0.00     0.029 A 
ATOM     46  C   UNL A   1      42.443  28.890  33.625  1.00  0.00     0.049 A 
ATOM     47  H   UNL A   1      40.845  30.128  33.118  1.00  0.00     0.167 HD
ATOM     48  C   UNL A   1      37.542  32.737  31.807  1.00  0.00     0.037 A 
ATOM     49  C   UNL A   1      42.886  29.293  34.831  1.00  0.00     0.037 A 
ATOM     50  C   UNL A   1      37.907  33.196  33.120  1.00  0.00     0.049 A 
ATOM     51  C   UNL A   1      42.193  30.442  35.511  1.00  0.00     0.074 A 
ATOM     52  C   UNL A   1      37.324  34.201  33.869  1.00  0.00     0.029 A 
ATOM     53  N   UNL A   1      38.939  32.668  33.882  1.00  0.00    -0.354 N 
ATOM     54  N   UNL A   1      41.181  31.160  35.084  1.00  0.00    -0.248 NA
ATOM     55  C   UNL A   1      42.697  30.836  36.834  1.00  0.00     0.031 C 
ATOM     56  C   UNL A   1      38.029  34.307  35.072  1.00  0.00     0.029 A 
ATOM     57  C   UNL A   1      39.020  33.337  35.089  1.00  0.00     0.049 A 
ATOM     58  H   UNL A   1      39.527  31.930  33.604  1.00  0.00     0.167 HD
ATOM     59  C   UNL A   1      40.914  32.078  36.093  1.00  0.00     0.074 A 
ATOM     60  C   UNL A   1      41.863  31.815  37.157  1.00  0.00     0.031 C 
ATOM     61  C   UNL A   1      39.971  33.050  36.136  1.00  0.00     0.037 A 
BRANCH  48  62
ATOM     62  C   UNL A   1      36.414  33.425  31.092  1.00  0.00     0.058 A 
ATOM     63  C   UNL A   1      36.668  34.272  30.003  1.00  0.00     0.135 A 
ATOM     64  C   UNL A   1      35.081  33.279  31.512  1.00  0.00     0.135 A 
ATOM     65  F   UNL A   1      37.921  34.437  29.551  1.00  0.00    -0.206 F 
ATOM     66  C   UNL A   1      35.643  34.962  29.365  1.00  0.00     0.059 A 
ATOM     67  C   UNL A   1      34.036  33.937  30.871  1.00  0.00     0.059 A 
ATOM     68  F   UNL A   1      34.780  32.458  32.532  1.00  0.00    -0.206 F 
ATOM     69  C   UNL A   1      34.330  34.790  29.808  1.00  0.00     0.060 A 
BRANCH  69  70
ATOM     70  S   UNL A   1      33.007  35.672  28.953  1.00  0.00     0.124 S 
ATOM     71  O   UNL A   1      32.227  36.194  30.070  1.00  0.00    -0.237 OA
ATOM     72  O   UNL A   1      33.750  36.659  28.176  1.00  0.00    -0.237 OA
ATOM     73  O   UNL A   1      32.358  34.627  28.167  1.00  0.00    -0.744 OA
ENDBRANCH  69  70
ENDBRANCH  48  62
BRANCH  49  74
ATOM     74  C   UNL A   1      44.011  28.572  35.482  1.00  0.00     0.058 A 
ATOM     75  C   UNL A   1      43.786  27.524  36.387  1.00  0.00     0.135 A 
ATOM     76  C   UNL A   1      45.340  28.955  35.244  1.00  0.00     0.135 A 
ATOM     77  F   UNL A   1      42.533  27.127  36.659  1.00  0.00    -0.206 F 
ATOM     78  C   UNL A   1      44.835  26.898  37.052  1.00  0.00     0.059 A 
ATOM     79  C   UNL A   1      46.409  28.327  35.880  1.00  0.00     0.059 A 
ATOM     80  F   UNL A   1      45.607  29.946  34.380  1.00  0.00    -0.206 F 
ATOM     81  C   UNL A   1      46.143  27.311  36.797  1.00  0.00     0.060 A 
BRANCH  81  82
ATOM     82  S   UNL A   1      47.488  26.501  37.688  1.00  0.00     0.124 S 
ATOM     83  O   UNL A   1      46.761  25.505  38.470  1.00  0.00    -0.237 OA
ATOM     84  O   UNL A   1      48.306  25.979  36.599  1.00  0.00    -0.237 OA
ATOM     85  O   UNL A   1      48.087  27.587  38.457  1.00  0.00    -0.744 OA
ENDBRANCH  81  82
ENDBRANCH  49  74
BRANCH  61  86
ATOM     86  C   UNL A   1      39.897  33.896  37.374  1.00  0.00     0.058 A 
ATOM     87  C   UNL A   1      39.036  33.543  38.425  1.00  0.00     0.135 A 
ATOM     88  C   UNL A   1      40.603  35.105  37.477  1.00  0.00     0.135 A 
ATOM     89  F   UNL A   1      38.333  32.400  38.370  1.00  0.00    -0.206 F 
ATOM     90  C   UNL A   1      38.858  34.371  39.526  1.00  0.00     0.059 A 
ATOM     91  C   UNL A   1      40.461  35.936  38.582  1.00  0.00     0.059 A 
ATOM     92  F   UNL A   1      41.446  35.479  36.502  1.00  0.00    -0.206 F 
ATOM     93  C   UNL A   1      39.571  35.569  39.593  1.00  0.00     0.060 A 
BRANCH  93  94
ATOM     94  S   UNL A   1      39.327  36.634  41.029  1.00  0.00     0.124 S 
ATOM     95  O   UNL A   1      38.494  35.796  41.885  1.00  0.00    -0.237 OA
ATOM     96  O   UNL A   1      40.696  36.848  41.490  1.00  0.00    -0.237 OA
ATOM     97  O   UNL A   1      38.670  37.812  40.471  1.00  0.00    -0.744 OA
ENDBRANCH  93  94
ENDBRANCH  61  86
ENDBRANCH  35  36
ENDBRANCH  27  30
ENDBRANCH  25  26
ENDBRANCH  24  25
ENDBRANCH   1  24
TORSDOF 18
ENDMDL
MODEL 3
REMARK VINA RESULT:     -10.9      2.917      3.893
REMARK SMILES C[C@H]([NH3+])c1ccc(F)cc1OCC(C)(C)C(=O)NCCCNC(=O)c1ccc(-c2c3nc(c(-c4c(F)cc(S(=O)(=O)[O-])cc4F)c4ccc([nH]4)c(-c4c(F)cc(S(=O)(=O)[O-])cc4F)c4nc(c(-c5c(F)cc(S(=O)(=O)[O-])cc5F)c5ccc2[nH]5)C=C4)C=C3)cc1
REMARK SMILES IDX 19 1 18 2 16 3 17 4 13 6 14 7 15 8 12 9 11 10 10 11 4 12
REMARK SMILES IDX 5 13 6 14 9 15 7 16 8 17 2 18 1 19 3 20 20 24 21 25 22 26
REMARK SMILES IDX 23 27 24 29 25 30 26 31 90 32 27 33 89 34 28 35 29 36 30 37
REMARK SMILES IDX 83 38 31 39 88 40 82 41 84 42 32 43 87 44 81 45 80 46 33 48
REMARK SMILES IDX 67 49 46 50 66 51 47 52 50 53 65 54 85 55 48 56 49 57 64 59
REMARK SMILES IDX 86 60 51 61 34 62 35 63 44 64 36 65 37 66 43 67 45 68 38 69
REMARK SMILES IDX 39 70 40 71 41 72 42 73 68 74 69 75 78 76 70 77 71 78 77 79
REMARK SMILES IDX 79 80 72 81 73 82 74 83 75 84 76 85 52 86 53 87 62 88 54 89
REMARK SMILES IDX 55 90 61 91 63 92 56 93 57 94 58 95 59 96 60 97
REMARK H PARENT 18 5 3 21 3 22 3 23 22 28 84 47 50 58
REMARK Flexibility Score: inf
ROOT
ATOM      1  C   UNL A   1      32.527  27.492  25.320  1.00  0.00     0.117 C 
ENDROOT
BRANCH   1   2
ATOM      2  N   UNL A   1      31.574  27.661  24.224  1.00  0.00    -0.355 N 
ATOM      3  C   UNL A   1      31.686  27.297  22.901  1.00  0.00     0.229 C 
ATOM      4  O   UNL A   1      30.694  27.422  22.185  1.00  0.00    -0.274 OA
ATOM      5  H   UNL A   1      30.727  28.099  24.467  1.00  0.00     0.163 HD
BRANCH   3   6
ATOM      6  C   UNL A   1      33.040  26.787  22.379  1.00  0.00     0.077 C 
ATOM      7  C   UNL A   1      33.880  28.036  22.032  1.00  0.00     0.025 C 
ATOM      8  C   UNL A   1      32.700  25.883  21.158  1.00  0.00     0.025 C 
BRANCH   6   9
ATOM      9  C   UNL A   1      33.737  25.805  23.384  1.00  0.00     0.245 C 
BRANCH   9  10
ATOM     10  O   UNL A   1      33.237  24.483  23.507  1.00  0.00    -0.492 OA
BRANCH  10  11
ATOM     11  C   UNL A   1      33.093  23.767  24.662  1.00  0.00     0.131 A 
ATOM     12  C   UNL A   1      34.029  23.088  25.481  1.00  0.00     0.051 A 
ATOM     13  C   UNL A   1      33.570  22.632  26.748  1.00  0.00     0.017 A 
ATOM     14  C   UNL A   1      32.260  22.833  27.185  1.00  0.00     0.040 A 
ATOM     15  C   UNL A   1      31.758  23.894  25.094  1.00  0.00     0.086 A 
ATOM     16  C   UNL A   1      31.359  23.448  26.343  1.00  0.00     0.126 A 
ATOM     17  F   UNL A   1      30.099  23.649  26.749  1.00  0.00    -0.207 F 
BRANCH  12  18
ATOM     18  C   UNL A   1      35.501  22.848  25.163  1.00  0.00     0.212 C 
ATOM     19  C   UNL A   1      36.013  21.519  25.706  1.00  0.00     0.081 C 
BRANCH  18  20
ATOM     20  N   UNL A   1      36.374  23.945  25.620  1.00  0.00    -0.351 N 
ATOM     21  H   UNL A   1      35.831  24.805  25.693  1.00  0.00     0.345 HD
ATOM     22  H   UNL A   1      37.131  24.078  24.949  1.00  0.00     0.345 HD
ATOM     23  H   UNL A   1      36.765  23.711  26.533  1.00  0.00     0.345 HD
ENDBRANCH  18  20
ENDBRANCH  12  18
ENDBRANCH  10  11
ENDBRANCH   9  10
ENDBRANCH   6   9
ENDBRANCH   3   6
ENDBRANCH   1   2
BRANCH   1  24
ATOM     24  C   UNL A   1      33.295  28.747  25.643  1.00  0.00     0.042 C 
BRANCH  24  25
ATOM     25  C   UNL A   1      33.771  28.751  27.076  1.00  0.00     0.118 C 
BRANCH  25  26
ATOM     26  N   UNL A   1      33.726  30.084  27.677  1.00  0.00    -0.352 N 
ATOM     27  C   UNL A   1      34.683  30.734  28.423  1.00  0.00     0.251 C 
ATOM     28  H   UNL A   1      32.894  30.587  27.525  1.00  0.00     0.163 HD
ATOM     29  O   UNL A   1      34.416  31.765  29.014  1.00  0.00    -0.269 OA
BRANCH  27  30
ATOM     30  C   UNL A   1      36.026  30.131  28.505  1.00  0.00     0.039 A 
ATOM     31  C   UNL A   1      36.877  30.196  27.403  1.00  0.00     0.014 A 
ATOM     32  C   UNL A   1      36.460  29.583  29.713  1.00  0.00     0.014 A 
ATOM     33  C   UNL A   1      38.201  29.782  27.545  1.00  0.00     0.010 A 
ATOM     34  C   UNL A   1      37.803  29.309  29.890  1.00  0.00     0.010 A 
ATOM     35  C   UNL A   1      38.684  29.383  28.803  1.00  0.00    -0.014 A 
BRANCH  35  36
ATOM     36  C   UNL A   1      40.099  28.997  29.013  1.00  0.00     0.031 A 
ATOM     37  C   UNL A   1      41.057  30.007  29.585  1.00  0.00     0.074 A 
ATOM     38  C   UNL A   1      40.531  27.784  28.619  1.00  0.00     0.049 A 
ATOM     39  N   UNL A   1      42.350  29.917  29.746  1.00  0.00    -0.248 NA
ATOM     40  C   UNL A   1      40.494  31.309  29.991  1.00  0.00     0.031 C 
ATOM     41  C   UNL A   1      39.702  26.748  27.994  1.00  0.00     0.029 A 
ATOM     42  N   UNL A   1      41.776  27.215  28.682  1.00  0.00    -0.354 N 
ATOM     43  C   UNL A   1      42.752  31.149  30.247  1.00  0.00     0.074 A 
ATOM     44  C   UNL A   1      41.584  31.997  30.292  1.00  0.00     0.031 C 
ATOM     45  C   UNL A   1      40.453  25.657  27.774  1.00  0.00     0.029 A 
ATOM     46  C   UNL A   1      41.822  25.928  28.200  1.00  0.00     0.049 A 
ATOM     47  H   UNL A   1      42.564  27.684  29.041  1.00  0.00     0.167 HD
ATOM     48  C   UNL A   1      43.979  31.528  30.670  1.00  0.00     0.037 A 
ATOM     49  C   UNL A   1      42.853  25.065  28.114  1.00  0.00     0.037 A 
ATOM     50  C   UNL A   1      45.122  30.656  30.673  1.00  0.00     0.049 A 
ATOM     51  C   UNL A   1      44.206  25.501  28.608  1.00  0.00     0.074 A 
ATOM     52  C   UNL A   1      46.397  30.916  31.141  1.00  0.00     0.029 A 
ATOM     53  N   UNL A   1      45.122  29.352  30.200  1.00  0.00    -0.354 N 
ATOM     54  N   UNL A   1      44.559  26.655  29.124  1.00  0.00    -0.248 NA
ATOM     55  C   UNL A   1      45.297  24.523  28.514  1.00  0.00     0.031 C 
ATOM     56  C   UNL A   1      47.180  29.780  30.916  1.00  0.00     0.029 A 
ATOM     57  C   UNL A   1      46.379  28.798  30.351  1.00  0.00     0.049 A 
ATOM     58  H   UNL A   1      44.343  28.891  29.813  1.00  0.00     0.167 HD
ATOM     59  C   UNL A   1      45.909  26.536  29.433  1.00  0.00     0.074 A 
ATOM     60  C   UNL A   1      46.304  25.193  29.059  1.00  0.00     0.031 C 
ATOM     61  C   UNL A   1      46.745  27.454  29.975  1.00  0.00     0.037 A 
BRANCH  48  62
ATOM     62  C   UNL A   1      44.139  32.927  31.194  1.00  0.00     0.058 A 
ATOM     63  C   UNL A   1      43.895  33.218  32.545  1.00  0.00     0.135 A 
ATOM     64  C   UNL A   1      44.495  33.991  30.348  1.00  0.00     0.135 A 
ATOM     65  F   UNL A   1      43.566  32.238  33.400  1.00  0.00    -0.206 F 
ATOM     66  C   UNL A   1      43.983  34.517  33.035  1.00  0.00     0.059 A 
ATOM     67  C   UNL A   1      44.616  35.293  30.822  1.00  0.00     0.059 A 
ATOM     68  F   UNL A   1      44.767  33.762  29.052  1.00  0.00    -0.206 F 
ATOM     69  C   UNL A   1      44.341  35.548  32.165  1.00  0.00     0.060 A 
BRANCH  69  70
ATOM     70  S   UNL A   1      44.476  37.224  32.821  1.00  0.00     0.124 S 
ATOM     71  O   UNL A   1      45.917  37.354  33.015  1.00  0.00    -0.237 OA
ATOM     72  O   UNL A   1      43.903  38.022  31.741  1.00  0.00    -0.237 OA
ATOM     73  O   UNL A   1      43.679  37.174  34.043  1.00  0.00    -0.744 OA
ENDBRANCH  69  70
ENDBRANCH  48  62
BRANCH  49  74
ATOM     74  C   UNL A   1      42.628  23.697  27.580  1.00  0.00     0.058 A 
ATOM     75  C   UNL A   1      42.304  22.624  28.423  1.00  0.00     0.135 A 
ATOM     76  C   UNL A   1      42.783  23.428  26.211  1.00  0.00     0.135 A 
ATOM     77  F   UNL A   1      42.157  22.824  29.742  1.00  0.00    -0.206 F 
ATOM     78  C   UNL A   1      42.165  21.329  27.934  1.00  0.00     0.059 A 
ATOM     79  C   UNL A   1      42.626  22.144  25.693  1.00  0.00     0.059 A 
ATOM     80  F   UNL A   1      43.085  24.424  25.363  1.00  0.00    -0.206 F 
ATOM     81  C   UNL A   1      42.335  21.098  26.568  1.00  0.00     0.060 A 
BRANCH  81  82
ATOM     82  S   UNL A   1      42.174  19.407  25.957  1.00  0.00     0.124 S 
ATOM     83  O   UNL A   1      43.018  19.446  24.766  1.00  0.00    -0.237 OA
ATOM     84  O   UNL A   1      42.693  18.627  27.076  1.00  0.00    -0.237 OA
ATOM     85  O   UNL A   1      40.743  19.271  25.709  1.00  0.00    -0.744 OA
ENDBRANCH  81  82
ENDBRANCH  49  74
BRANCH  61  86
ATOM     86  C   UNL A   1      48.169  27.042  30.219  1.00  0.00     0.058 A 
ATOM     87  C   UNL A   1      48.523  26.374  31.401  1.00  0.00     0.135 A 
ATOM     88  C   UNL A   1      49.194  27.396  29.329  1.00  0.00     0.135 A 
ATOM     89  F   UNL A   1      47.578  26.021  32.288  1.00  0.00    -0.206 F 
ATOM     90  C   UNL A   1      49.849  26.092  31.706  1.00  0.00     0.059 A 
ATOM     91  C   UNL A   1      50.525  27.100  29.600  1.00  0.00     0.059 A 
ATOM     92  F   UNL A   1      48.903  28.027  28.180  1.00  0.00    -0.206 F 
ATOM     93  C   UNL A   1      50.844  26.464  30.801  1.00  0.00     0.060 A 
BRANCH  93  94
ATOM     94  S   UNL A   1      52.561  26.091  31.212  1.00  0.00     0.124 S 
ATOM     95  O   UNL A   1      52.939  27.258  32.001  1.00  0.00    -0.237 OA
ATOM     96  O   UNL A   1      52.436  24.839  31.951  1.00  0.00    -0.237 OA
ATOM     97  O   UNL A   1      53.205  25.979  29.907  1.00  0.00    -0.744 OA
ENDBRANCH  93  94
ENDBRANCH  61  86
ENDBRANCH  35  36
ENDBRANCH  27  30
ENDBRANCH  25  26
ENDBRANCH  24  25
ENDBRANCH   1  24
TORSDOF 18
ENDMDL
