MODEL 1
REMARK VINA RESULT:     -12.6      0.000      0.000
REMARK SMILES [NH3+]Cc1c(-c2ccccc2)c(C(=O)NCCCNC(=O)c2ccc(-c3c4nc(c(-c5c(F)cc(S(=O)(=O)[O-])cc5F)c5ccc([nH]5)c(-c5c(F)cc(S(=O)(=O)[O-])cc5F)c5nc(c(-c6c(F)cc(S(=O)(=O)[O-])cc6F)c6ccc3[nH]6)C=C5)C=C4)cc2)c2ccccn12
REMARK SMILES IDX 16 1 15 2 14 3 12 4 13 5 11 7 3 8 4 9 92 10 87 11 91 12
REMARK SMILES IDX 88 13 90 14 89 15 2 16 1 17 5 21 6 22 10 23 7 24 9 25 8 26
REMARK SMILES IDX 17 27 18 28 19 29 20 31 21 32 22 33 86 34 23 35 85 36 24 37
REMARK SMILES IDX 25 38 26 39 79 40 27 41 84 42 78 43 80 44 28 45 83 46 77 47
REMARK SMILES IDX 76 48 29 50 63 51 42 52 62 53 43 54 46 55 61 56 81 57 44 58
REMARK SMILES IDX 45 59 60 61 82 62 47 63 30 64 31 65 40 66 32 67 33 68 39 69
REMARK SMILES IDX 41 70 34 71 35 72 36 73 37 74 38 75 64 76 65 77 74 78 66 79
REMARK SMILES IDX 67 80 73 81 75 82 68 83 69 84 70 85 71 86 72 87 48 88 49 89
REMARK SMILES IDX 58 90 50 91 51 92 57 93 59 94 52 95 53 96 54 97 55 98 56 99
REMARK H PARENT 14 6 1 18 1 19 1 20 18 30 80 49 46 60
REMARK Flexibility Score: inf
ROOT
ATOM      1  C   UNL A   1      34.011  28.856  27.174  1.00  0.00     0.042 C 
ENDROOT
BRANCH   1   2
ATOM      2  C   UNL A   1      33.316  29.417  25.948  1.00  0.00     0.118 C 
BRANCH   2   3
ATOM      3  N   UNL A   1      34.003  29.224  24.689  1.00  0.00    -0.352 N 
ATOM      4  C   UNL A   1      33.616  28.584  23.531  1.00  0.00     0.254 C 
ATOM      5  O   UNL A   1      34.384  28.695  22.576  1.00  0.00    -0.269 OA
ATOM      6  H   UNL A   1      34.903  29.620  24.653  1.00  0.00     0.163 HD
BRANCH   4   7
ATOM      7  C   UNL A   1      32.410  27.748  23.461  1.00  0.00     0.073 A 
ATOM      8  C   UNL A   1      31.053  25.894  23.659  1.00  0.00     0.086 A 
ATOM      9  C   UNL A   1      32.373  26.329  23.735  1.00  0.00     0.022 A 
ATOM     10  N   UNL A   1      30.280  27.015  23.424  1.00  0.00    -0.314 N 
ATOM     11  C   UNL A   1      31.121  28.060  23.039  1.00  0.00     0.059 A 
ATOM     12  C   UNL A   1      28.889  27.162  23.501  1.00  0.00     0.092 A 
ATOM     13  C   UNL A   1      30.485  29.178  22.414  1.00  0.00     0.027 A 
ATOM     14  C   UNL A   1      28.314  28.304  23.092  1.00  0.00     0.018 A 
ATOM     15  C   UNL A   1      29.148  29.317  22.476  1.00  0.00     0.004 A 
BRANCH   8  16
ATOM     16  C   UNL A   1      30.468  24.530  23.815  1.00  0.00     0.315 C 
BRANCH  16  17
ATOM     17  N   UNL A   1      30.344  24.182  25.228  1.00  0.00    -0.353 N 
ATOM     18  H   UNL A   1      30.404  25.028  25.794  1.00  0.00     0.344 HD
ATOM     19  H   UNL A   1      31.096  23.544  25.488  1.00  0.00     0.344 HD
ATOM     20  H   UNL A   1      29.443  23.729  25.389  1.00  0.00     0.344 HD
ENDBRANCH  16  17
ENDBRANCH   8  16
BRANCH   9  21
ATOM     21  C   UNL A   1      33.481  25.432  24.034  1.00  0.00    -0.016 A 
ATOM     22  C   UNL A   1      34.011  24.598  23.044  1.00  0.00     0.009 A 
ATOM     23  C   UNL A   1      33.999  25.373  25.334  1.00  0.00     0.009 A 
ATOM     24  C   UNL A   1      35.046  23.711  23.356  1.00  0.00     0.001 A 
ATOM     25  C   UNL A   1      35.036  24.490  25.642  1.00  0.00     0.001 A 
ATOM     26  C   UNL A   1      35.557  23.658  24.653  1.00  0.00     0.000 A 
ENDBRANCH   9  21
ENDBRANCH   4   7
ENDBRANCH   2   3
ENDBRANCH   1   2
BRANCH   1  27
ATOM     27  C   UNL A   1      35.273  29.580  27.610  1.00  0.00     0.118 C 
BRANCH  27  28
ATOM     28  N   UNL A   1      35.240  30.057  28.987  1.00  0.00    -0.352 N 
ATOM     29  C   UNL A   1      36.235  30.221  29.927  1.00  0.00     0.251 C 
ATOM     30  H   UNL A   1      34.343  30.310  29.304  1.00  0.00     0.163 HD
ATOM     31  O   UNL A   1      35.925  30.535  31.072  1.00  0.00    -0.269 OA
BRANCH  29  32
ATOM     32  C   UNL A   1      37.659  29.984  29.590  1.00  0.00     0.039 A 
ATOM     33  C   UNL A   1      38.557  29.659  30.613  1.00  0.00     0.014 A 
ATOM     34  C   UNL A   1      38.126  30.086  28.282  1.00  0.00     0.014 A 
ATOM     35  C   UNL A   1      39.885  29.342  30.305  1.00  0.00     0.010 A 
ATOM     36  C   UNL A   1      39.404  29.641  27.960  1.00  0.00     0.010 A 
ATOM     37  C   UNL A   1      40.306  29.275  28.967  1.00  0.00    -0.014 A 
BRANCH  37  38
ATOM     38  C   UNL A   1      41.681  28.852  28.591  1.00  0.00     0.031 A 
ATOM     39  C   UNL A   1      42.803  29.858  28.572  1.00  0.00     0.074 A 
ATOM     40  C   UNL A   1      41.907  27.586  28.187  1.00  0.00     0.049 A 
ATOM     41  N   UNL A   1      44.047  29.707  28.192  1.00  0.00    -0.248 NA
ATOM     42  C   UNL A   1      42.472  31.228  28.998  1.00  0.00     0.031 C 
ATOM     43  C   UNL A   1      40.896  26.528  28.106  1.00  0.00     0.029 A 
ATOM     44  N   UNL A   1      43.059  26.973  27.761  1.00  0.00    -0.354 N 
ATOM     45  C   UNL A   1      44.633  30.962  28.310  1.00  0.00     0.074 A 
ATOM     46  C   UNL A   1      43.592  31.876  28.722  1.00  0.00     0.031 C 
ATOM     47  C   UNL A   1      41.482  25.388  27.709  1.00  0.00     0.029 A 
ATOM     48  C   UNL A   1      42.898  25.641  27.458  1.00  0.00     0.049 A 
ATOM     49  H   UNL A   1      43.921  27.443  27.681  1.00  0.00     0.167 HD
ATOM     50  C   UNL A   1      45.928  31.319  28.126  1.00  0.00     0.037 A 
ATOM     51  C   UNL A   1      43.790  24.726  27.032  1.00  0.00     0.037 A 
ATOM     52  C   UNL A   1      46.964  30.398  27.742  1.00  0.00     0.049 A 
ATOM     53  C   UNL A   1      45.220  25.140  26.826  1.00  0.00     0.074 A 
ATOM     54  C   UNL A   1      48.318  30.638  27.587  1.00  0.00     0.029 A 
ATOM     55  N   UNL A   1      46.760  29.056  27.449  1.00  0.00    -0.354 N 
ATOM     56  N   UNL A   1      45.772  26.317  27.003  1.00  0.00    -0.248 NA
ATOM     57  C   UNL A   1      46.150  24.101  26.363  1.00  0.00     0.031 C 
ATOM     58  C   UNL A   1      48.925  29.453  27.154  1.00  0.00     0.029 A 
ATOM     59  C   UNL A   1      47.959  28.461  27.090  1.00  0.00     0.049 A 
ATOM     60  H   UNL A   1      45.891  28.596  27.489  1.00  0.00     0.167 HD
ATOM     61  C   UNL A   1      47.120  26.155  26.701  1.00  0.00     0.074 A 
ATOM     62  C   UNL A   1      47.300  24.763  26.339  1.00  0.00     0.031 C 
ATOM     63  C   UNL A   1      48.119  27.072  26.730  1.00  0.00     0.037 A 
BRANCH  50  64
ATOM     64  C   UNL A   1      46.277  32.769  28.338  1.00  0.00     0.058 A 
ATOM     65  C   UNL A   1      46.242  33.700  27.285  1.00  0.00     0.135 A 
ATOM     66  C   UNL A   1      46.683  33.232  29.599  1.00  0.00     0.135 A 
ATOM     67  F   UNL A   1      45.873  33.314  26.053  1.00  0.00    -0.206 F 
ATOM     68  C   UNL A   1      46.660  35.015  27.458  1.00  0.00     0.059 A 
ATOM     69  C   UNL A   1      47.071  34.553  29.805  1.00  0.00     0.059 A 
ATOM     70  F   UNL A   1      46.729  32.392  30.646  1.00  0.00    -0.206 F 
ATOM     71  C   UNL A   1      47.085  35.429  28.721  1.00  0.00     0.060 A 
BRANCH  71  72
ATOM     72  S   UNL A   1      47.677  37.123  28.919  1.00  0.00     0.124 S 
ATOM     73  O   UNL A   1      49.068  36.994  28.495  1.00  0.00    -0.237 OA
ATOM     74  O   UNL A   1      46.806  37.868  28.016  1.00  0.00    -0.237 OA
ATOM     75  O   UNL A   1      47.478  37.388  30.340  1.00  0.00    -0.744 OA
ENDBRANCH  71  72
ENDBRANCH  50  64
BRANCH  51  76
ATOM     76  C   UNL A   1      43.361  23.315  26.839  1.00  0.00     0.058 A 
ATOM     77  C   UNL A   1      43.234  22.781  25.548  1.00  0.00     0.135 A 
ATOM     78  C   UNL A   1      43.119  22.461  27.926  1.00  0.00     0.135 A 
ATOM     79  F   UNL A   1      43.447  23.561  24.476  1.00  0.00    -0.206 F 
ATOM     80  C   UNL A   1      42.886  21.451  25.340  1.00  0.00     0.059 A 
ATOM     81  C   UNL A   1      42.792  21.120  27.743  1.00  0.00     0.059 A 
ATOM     82  F   UNL A   1      43.242  22.920  29.182  1.00  0.00    -0.206 F 
ATOM     83  C   UNL A   1      42.677  20.625  26.444  1.00  0.00     0.060 A 
BRANCH  83  84
ATOM     84  S   UNL A   1      42.311  18.879  26.159  1.00  0.00     0.124 S 
ATOM     85  O   UNL A   1      43.256  18.548  25.101  1.00  0.00    -0.237 OA
ATOM     86  O   UNL A   1      42.586  18.294  27.469  1.00  0.00    -0.237 OA
ATOM     87  O   UNL A   1      40.904  18.891  25.770  1.00  0.00    -0.744 OA
ENDBRANCH  83  84
ENDBRANCH  51  76
BRANCH  63  88
ATOM     88  C   UNL A   1      49.503  26.596  26.387  1.00  0.00     0.058 A 
ATOM     89  C   UNL A   1      50.345  26.014  27.346  1.00  0.00     0.135 A 
ATOM     90  C   UNL A   1      49.975  26.682  25.066  1.00  0.00     0.135 A 
ATOM     91  F   UNL A   1      49.946  25.915  28.624  1.00  0.00    -0.206 F 
ATOM     92  C   UNL A   1      51.616  25.555  27.015  1.00  0.00     0.059 A 
ATOM     93  C   UNL A   1      51.230  26.203  24.706  1.00  0.00     0.059 A 
ATOM     94  F   UNL A   1      49.206  27.220  24.106  1.00  0.00    -0.206 F 
ATOM     95  C   UNL A   1      52.049  25.652  25.692  1.00  0.00     0.060 A 
BRANCH  95  96
ATOM     96  S   UNL A   1      53.688  25.024  25.269  1.00  0.00     0.124 S 
ATOM     97  O   UNL A   1      53.867  25.555  23.922  1.00  0.00    -0.237 OA
ATOM     98  O   UNL A   1      54.528  25.620  26.303  1.00  0.00    -0.237 OA
ATOM     99  O   UNL A   1      53.530  23.575  25.356  1.00  0.00    -0.744 OA
ENDBRANCH  95  96
ENDBRANCH  63  88
ENDBRANCH  37  38
ENDBRANCH  29  32
ENDBRANCH  27  28
ENDBRANCH   1  27
TORSDOF 16
ENDMDL
MODEL 2
REMARK VINA RESULT:     -12.5      6.839     12.230
REMARK SMILES [NH3+]Cc1c(-c2ccccc2)c(C(=O)NCCCNC(=O)c2ccc(-c3c4nc(c(-c5c(F)cc(S(=O)(=O)[O-])cc5F)c5ccc([nH]5)c(-c5c(F)cc(S(=O)(=O)[O-])cc5F)c5nc(c(-c6c(F)cc(S(=O)(=O)[O-])cc6F)c6ccc3[nH]6)C=C5)C=C4)cc2)c2ccccn12
REMARK SMILES IDX 16 1 15 2 14 3 12 4 13 5 11 7 3 8 4 9 92 10 87 11 91 12
REMARK SMILES IDX 88 13 90 14 89 15 2 16 1 17 5 21 6 22 10 23 7 24 9 25 8 26
REMARK SMILES IDX 17 27 18 28 19 29 20 31 21 32 22 33 86 34 23 35 85 36 24 37
REMARK SMILES IDX 25 38 26 39 79 40 27 41 84 42 78 43 80 44 28 45 83 46 77 47
REMARK SMILES IDX 76 48 29 50 63 51 42 52 62 53 43 54 46 55 61 56 81 57 44 58
REMARK SMILES IDX 45 59 60 61 82 62 47 63 30 64 31 65 40 66 32 67 33 68 39 69
REMARK SMILES IDX 41 70 34 71 35 72 36 73 37 74 38 75 64 76 65 77 74 78 66 79
REMARK SMILES IDX 67 80 73 81 75 82 68 83 69 84 70 85 71 86 72 87 48 88 49 89
REMARK SMILES IDX 58 90 50 91 51 92 57 93 59 94 52 95 53 96 54 97 55 98 56 99
REMARK H PARENT 14 6 1 18 1 19 1 20 18 30 80 49 46 60
REMARK Flexibility Score: inf
ROOT
ATOM      1  C   UNL A   1      37.416  23.387  25.336  1.00  0.00     0.042 C 
ENDROOT
BRANCH   1   2
ATOM      2  C   UNL A   1      36.594  22.139  25.601  1.00  0.00     0.118 C 
BRANCH   2   3
ATOM      3  N   UNL A   1      35.735  22.185  26.766  1.00  0.00    -0.352 N 
ATOM      4  C   UNL A   1      34.373  22.025  26.898  1.00  0.00     0.254 C 
ATOM      5  O   UNL A   1      33.947  21.998  28.051  1.00  0.00    -0.269 OA
ATOM      6  H   UNL A   1      36.208  22.359  27.611  1.00  0.00     0.163 HD
BRANCH   4   7
ATOM      7  C   UNL A   1      33.472  21.977  25.738  1.00  0.00     0.073 A 
ATOM      8  C   UNL A   1      32.133  22.715  24.012  1.00  0.00     0.086 A 
ATOM      9  C   UNL A   1      32.838  23.130  25.138  1.00  0.00     0.022 A 
ATOM     10  N   UNL A   1      32.381  21.364  23.865  1.00  0.00    -0.314 N 
ATOM     11  C   UNL A   1      32.952  20.888  25.046  1.00  0.00     0.059 A 
ATOM     12  C   UNL A   1      32.110  20.529  22.774  1.00  0.00     0.092 A 
ATOM     13  C   UNL A   1      32.944  19.468  25.217  1.00  0.00     0.027 A 
ATOM     14  C   UNL A   1      32.298  19.204  22.882  1.00  0.00     0.018 A 
ATOM     15  C   UNL A   1      32.673  18.663  24.173  1.00  0.00     0.004 A 
BRANCH   8  16
ATOM     16  C   UNL A   1      31.279  23.486  23.061  1.00  0.00     0.315 C 
BRANCH  16  17
ATOM     17  N   UNL A   1      32.094  24.394  22.257  1.00  0.00    -0.353 N 
ATOM     18  H   UNL A   1      32.543  25.078  22.866  1.00  0.00     0.344 HD
ATOM     19  H   UNL A   1      31.499  24.876  21.583  1.00  0.00     0.344 HD
ATOM     20  H   UNL A   1      32.808  23.861  21.761  1.00  0.00     0.344 HD
ENDBRANCH  16  17
ENDBRANCH   8  16
BRANCH   9  21
ATOM     21  C   UNL A   1      32.870  24.517  25.581  1.00  0.00    -0.016 A 
ATOM     22  C   UNL A   1      31.766  25.087  26.224  1.00  0.00     0.009 A 
ATOM     23  C   UNL A   1      34.001  25.304  25.327  1.00  0.00     0.009 A 
ATOM     24  C   UNL A   1      31.794  26.431  26.605  1.00  0.00     0.001 A 
ATOM     25  C   UNL A   1      34.029  26.646  25.713  1.00  0.00     0.001 A 
ATOM     26  C   UNL A   1      32.924  27.209  26.349  1.00  0.00     0.000 A 
ENDBRANCH   9  21
ENDBRANCH   4   7
ENDBRANCH   2   3
ENDBRANCH   1   2
BRANCH   1  27
ATOM     27  C   UNL A   1      38.316  23.841  26.472  1.00  0.00     0.118 C 
BRANCH  27  28
ATOM     28  N   UNL A   1      39.735  23.861  26.137  1.00  0.00    -0.352 N 
ATOM     29  C   UNL A   1      40.757  24.705  26.516  1.00  0.00     0.251 C 
ATOM     30  H   UNL A   1      40.015  23.139  25.529  1.00  0.00     0.163 HD
ATOM     31  O   UNL A   1      41.859  24.574  25.994  1.00  0.00    -0.269 OA
BRANCH  29  32
ATOM     32  C   UNL A   1      40.536  25.786  27.505  1.00  0.00     0.039 A 
ATOM     33  C   UNL A   1      39.583  25.603  28.515  1.00  0.00     0.014 A 
ATOM     34  C   UNL A   1      41.247  26.982  27.450  1.00  0.00     0.014 A 
ATOM     35  C   UNL A   1      39.425  26.572  29.512  1.00  0.00     0.010 A 
ATOM     36  C   UNL A   1      41.187  27.879  28.511  1.00  0.00     0.010 A 
ATOM     37  C   UNL A   1      40.267  27.695  29.550  1.00  0.00    -0.014 A 
BRANCH  37  38
ATOM     38  C   UNL A   1      40.195  28.701  30.643  1.00  0.00     0.031 A 
ATOM     39  C   UNL A   1      41.103  28.580  31.841  1.00  0.00     0.074 A 
ATOM     40  C   UNL A   1      39.263  29.672  30.602  1.00  0.00     0.049 A 
ATOM     41  N   UNL A   1      41.136  29.302  32.933  1.00  0.00    -0.248 NA
ATOM     42  C   UNL A   1      42.075  27.475  31.828  1.00  0.00     0.031 C 
ATOM     43  C   UNL A   1      38.288  29.867  29.526  1.00  0.00     0.029 A 
ATOM     44  N   UNL A   1      38.977  30.679  31.490  1.00  0.00    -0.354 N 
ATOM     45  C   UNL A   1      42.109  28.723  33.739  1.00  0.00     0.074 A 
ATOM     46  C   UNL A   1      42.586  27.548  33.046  1.00  0.00     0.031 C 
ATOM     47  C   UNL A   1      37.548  30.954  29.793  1.00  0.00     0.029 A 
ATOM     48  C   UNL A   1      37.959  31.507  31.079  1.00  0.00     0.049 A 
ATOM     49  H   UNL A   1      39.456  30.797  32.343  1.00  0.00     0.167 HD
ATOM     50  C   UNL A   1      42.589  29.147  34.935  1.00  0.00     0.037 A 
ATOM     51  C   UNL A   1      37.421  32.592  31.669  1.00  0.00     0.037 A 
ATOM     52  C   UNL A   1      42.126  30.332  35.607  1.00  0.00     0.049 A 
ATOM     53  C   UNL A   1      37.959  33.045  32.998  1.00  0.00     0.074 A 
ATOM     54  C   UNL A   1      42.584  30.888  36.788  1.00  0.00     0.029 A 
ATOM     55  N   UNL A   1      41.096  31.147  35.155  1.00  0.00    -0.354 N 
ATOM     56  N   UNL A   1      38.923  32.522  33.719  1.00  0.00    -0.248 NA
ATOM     57  C   UNL A   1      37.337  34.235  33.594  1.00  0.00     0.031 C 
ATOM     58  C   UNL A   1      41.798  32.011  37.075  1.00  0.00     0.029 A 
ATOM     59  C   UNL A   1      40.887  32.186  36.046  1.00  0.00     0.049 A 
ATOM     60  H   UNL A   1      40.590  31.005  34.323  1.00  0.00     0.167 HD
ATOM     61  C   UNL A   1      39.044  33.337  34.839  1.00  0.00     0.074 A 
ATOM     62  C   UNL A   1      38.059  34.390  34.696  1.00  0.00     0.031 C 
ATOM     63  C   UNL A   1      39.898  33.227  35.888  1.00  0.00     0.037 A 
BRANCH  50  64
ATOM     64  C   UNL A   1      43.663  28.311  35.579  1.00  0.00     0.058 A 
ATOM     65  C   UNL A   1      43.359  27.315  36.523  1.00  0.00     0.135 A 
ATOM     66  C   UNL A   1      45.017  28.526  35.275  1.00  0.00     0.135 A 
ATOM     67  F   UNL A   1      42.083  27.072  36.863  1.00  0.00    -0.206 F 
ATOM     68  C   UNL A   1      44.357  26.612  37.191  1.00  0.00     0.059 A 
ATOM     69  C   UNL A   1      46.031  27.809  35.905  1.00  0.00     0.059 A 
ATOM     70  F   UNL A   1      45.369  29.457  34.376  1.00  0.00    -0.206 F 
ATOM     71  C   UNL A   1      45.692  26.875  36.883  1.00  0.00     0.060 A 
BRANCH  71  72
ATOM     72  S   UNL A   1      46.977  25.997  37.796  1.00  0.00     0.124 S 
ATOM     73  O   UNL A   1      46.525  26.172  39.173  1.00  0.00    -0.237 OA
ATOM     74  O   UNL A   1      46.873  24.643  37.262  1.00  0.00    -0.237 OA
ATOM     75  O   UNL A   1      48.197  26.715  37.441  1.00  0.00    -0.744 OA
ENDBRANCH  71  72
ENDBRANCH  50  64
BRANCH  51  76
ATOM     76  C   UNL A   1      36.356  33.358  30.969  1.00  0.00     0.058 A 
ATOM     77  C   UNL A   1      35.034  33.328  31.437  1.00  0.00     0.135 A 
ATOM     78  C   UNL A   1      36.637  34.169  29.858  1.00  0.00     0.135 A 
ATOM     79  F   UNL A   1      34.713  32.561  32.491  1.00  0.00    -0.206 F 
ATOM     80  C   UNL A   1      34.028  34.076  30.833  1.00  0.00     0.059 A 
ATOM     81  C   UNL A   1      35.653  34.944  29.252  1.00  0.00     0.059 A 
ATOM     82  F   UNL A   1      37.890  34.244  29.381  1.00  0.00    -0.206 F 
ATOM     83  C   UNL A   1      34.350  34.890  29.747  1.00  0.00     0.060 A 
BRANCH  83  84
ATOM     84  S   UNL A   1      33.054  35.921  29.027  1.00  0.00     0.124 S 
ATOM     85  O   UNL A   1      32.313  34.951  28.230  1.00  0.00    -0.237 OA
ATOM     86  O   UNL A   1      32.373  36.426  30.216  1.00  0.00    -0.237 OA
ATOM     87  O   UNL A   1      33.802  36.922  28.271  1.00  0.00    -0.744 OA
ENDBRANCH  83  84
ENDBRANCH  51  76
BRANCH  63  88
ATOM     88  C   UNL A   1      39.827  34.288  36.951  1.00  0.00     0.058 A 
ATOM     89  C   UNL A   1      40.594  35.460  36.879  1.00  0.00     0.135 A 
ATOM     90  C   UNL A   1      38.942  34.148  38.033  1.00  0.00     0.135 A 
ATOM     91  F   UNL A   1      41.461  35.639  35.870  1.00  0.00    -0.206 F 
ATOM     92  C   UNL A   1      40.505  36.447  37.855  1.00  0.00     0.059 A 
ATOM     93  C   UNL A   1      38.814  35.136  39.004  1.00  0.00     0.059 A 
ATOM     94  F   UNL A   1      38.176  33.051  38.144  1.00  0.00    -0.206 F 
ATOM     95  C   UNL A   1      39.611  36.277  38.913  1.00  0.00     0.060 A 
BRANCH  95  96
ATOM     96  S   UNL A   1      39.481  37.580  40.156  1.00  0.00     0.124 S 
ATOM     97  O   UNL A   1      38.962  36.842  41.302  1.00  0.00    -0.237 OA
ATOM     98  O   UNL A   1      40.861  38.041  40.270  1.00  0.00    -0.237 OA
ATOM     99  O   UNL A   1      38.555  38.535  39.553  1.00  0.00    -0.744 OA
ENDBRANCH  95  96
ENDBRANCH  63  88
ENDBRANCH  37  38
ENDBRANCH  29  32
ENDBRANCH  27  28
ENDBRANCH   1  27
TORSDOF 16
ENDMDL
MODEL 3
REMARK VINA RESULT:     -12.4      0.497      8.301
REMARK SMILES [NH3+]Cc1c(-c2ccccc2)c(C(=O)NCCCNC(=O)c2ccc(-c3c4nc(c(-c5c(F)cc(S(=O)(=O)[O-])cc5F)c5ccc([nH]5)c(-c5c(F)cc(S(=O)(=O)[O-])cc5F)c5nc(c(-c6c(F)cc(S(=O)(=O)[O-])cc6F)c6ccc3[nH]6)C=C5)C=C4)cc2)c2ccccn12
REMARK SMILES IDX 16 1 15 2 14 3 12 4 13 5 11 7 3 8 4 9 92 10 87 11 91 12
REMARK SMILES IDX 88 13 90 14 89 15 2 16 1 17 5 21 6 22 10 23 7 24 9 25 8 26
REMARK SMILES IDX 17 27 18 28 19 29 20 31 21 32 22 33 86 34 23 35 85 36 24 37
REMARK SMILES IDX 25 38 26 39 79 40 27 41 84 42 78 43 80 44 28 45 83 46 77 47
REMARK SMILES IDX 76 48 29 50 63 51 42 52 62 53 43 54 46 55 61 56 81 57 44 58
REMARK SMILES IDX 45 59 60 61 82 62 47 63 30 64 31 65 40 66 32 67 33 68 39 69
REMARK SMILES IDX 41 70 34 71 35 72 36 73 37 74 38 75 64 76 65 77 74 78 66 79
REMARK SMILES IDX 67 80 73 81 75 82 68 83 69 84 70 85 71 86 72 87 48 88 49 89
REMARK SMILES IDX 58 90 50 91 51 92 57 93 59 94 52 95 53 96 54 97 55 98 56 99
REMARK H PARENT 14 6 1 18 1 19 1 20 18 30 80 49 46 60
REMARK Flexibility Score: inf
ROOT
ATOM      1  C   UNL A   1      34.143  28.681  26.997  1.00  0.00     0.042 C 
ENDROOT
BRANCH   1   2
ATOM      2  C   UNL A   1      33.413  29.306  25.823  1.00  0.00     0.118 C 
BRANCH   2   3
ATOM      3  N   UNL A   1      34.021  29.108  24.524  1.00  0.00    -0.352 N 
ATOM      4  C   UNL A   1      33.551  28.495  23.383  1.00  0.00     0.254 C 
ATOM      5  O   UNL A   1      34.265  28.596  22.388  1.00  0.00    -0.269 OA
ATOM      6  H   UNL A   1      34.930  29.479  24.441  1.00  0.00     0.163 HD
BRANCH   4   7
ATOM      7  C   UNL A   1      32.318  27.695  23.374  1.00  0.00     0.073 A 
ATOM      8  C   UNL A   1      30.911  25.892  23.670  1.00  0.00     0.086 A 
ATOM      9  C   UNL A   1      32.245  26.288  23.697  1.00  0.00     0.022 A 
ATOM     10  N   UNL A   1      30.166  27.028  23.417  1.00  0.00    -0.314 N 
ATOM     11  C   UNL A   1      31.028  28.033  22.975  1.00  0.00     0.059 A 
ATOM     12  C   UNL A   1      28.784  27.221  23.525  1.00  0.00     0.092 A 
ATOM     13  C   UNL A   1      30.410  29.149  22.329  1.00  0.00     0.027 A 
ATOM     14  C   UNL A   1      28.232  28.366  23.093  1.00  0.00     0.018 A 
ATOM     15  C   UNL A   1      29.079  29.331  22.420  1.00  0.00     0.004 A 
BRANCH   8  16
ATOM     16  C   UNL A   1      30.290  24.553  23.889  1.00  0.00     0.315 C 
BRANCH  16  17
ATOM     17  N   UNL A   1      30.279  24.215  25.310  1.00  0.00    -0.353 N 
ATOM     18  H   UNL A   1      30.074  23.223  25.422  1.00  0.00     0.344 HD
ATOM     19  H   UNL A   1      29.565  24.767  25.784  1.00  0.00     0.344 HD
ATOM     20  H   UNL A   1      31.193  24.421  25.715  1.00  0.00     0.344 HD
ENDBRANCH  16  17
ENDBRANCH   8  16
BRANCH   9  21
ATOM     21  C   UNL A   1      33.333  25.367  23.998  1.00  0.00    -0.016 A 
ATOM     22  C   UNL A   1      33.867  25.290  25.289  1.00  0.00     0.009 A 
ATOM     23  C   UNL A   1      33.880  24.577  22.979  1.00  0.00     0.009 A 
ATOM     24  C   UNL A   1      34.940  24.434  25.553  1.00  0.00     0.001 A 
ATOM     25  C   UNL A   1      34.949  23.719  23.246  1.00  0.00     0.001 A 
ATOM     26  C   UNL A   1      35.479  23.650  24.533  1.00  0.00     0.000 A 
ENDBRANCH   9  21
ENDBRANCH   4   7
ENDBRANCH   2   3
ENDBRANCH   1   2
BRANCH   1  27
ATOM     27  C   UNL A   1      35.332  29.461  27.529  1.00  0.00     0.118 C 
BRANCH  27  28
ATOM     28  N   UNL A   1      35.308  29.675  28.971  1.00  0.00    -0.352 N 
ATOM     29  C   UNL A   1      36.313  29.701  29.913  1.00  0.00     0.251 C 
ATOM     30  H   UNL A   1      34.408  29.829  29.340  1.00  0.00     0.163 HD
ATOM     31  O   UNL A   1      36.014  29.786  31.100  1.00  0.00    -0.269 OA
BRANCH  29  32
ATOM     32  C   UNL A   1      37.739  29.587  29.522  1.00  0.00     0.039 A 
ATOM     33  C   UNL A   1      38.686  29.233  30.490  1.00  0.00     0.014 A 
ATOM     34  C   UNL A   1      38.159  29.830  28.217  1.00  0.00     0.014 A 
ATOM     35  C   UNL A   1      40.021  29.029  30.123  1.00  0.00     0.010 A 
ATOM     36  C   UNL A   1      39.451  29.498  27.826  1.00  0.00     0.010 A 
ATOM     37  C   UNL A   1      40.404  29.105  28.775  1.00  0.00    -0.014 A 
BRANCH  37  38
ATOM     38  C   UNL A   1      41.791  28.805  28.329  1.00  0.00     0.031 A 
ATOM     39  C   UNL A   1      42.164  27.407  27.908  1.00  0.00     0.074 A 
ATOM     40  C   UNL A   1      42.735  29.766  28.379  1.00  0.00     0.049 A 
ATOM     41  N   UNL A   1      43.334  26.926  27.570  1.00  0.00    -0.248 NA
ATOM     42  C   UNL A   1      41.085  26.405  27.909  1.00  0.00     0.031 C 
ATOM     43  C   UNL A   1      42.518  31.147  28.819  1.00  0.00     0.029 A 
ATOM     44  N   UNL A   1      44.070  29.728  28.062  1.00  0.00    -0.354 N 
ATOM     45  C   UNL A   1      43.133  25.569  27.345  1.00  0.00     0.074 A 
ATOM     46  C   UNL A   1      41.750  25.289  27.658  1.00  0.00     0.031 C 
ATOM     47  C   UNL A   1      43.664  31.834  28.696  1.00  0.00     0.029 A 
ATOM     48  C   UNL A   1      44.710  30.936  28.216  1.00  0.00     0.049 A 
ATOM     49  H   UNL A   1      44.528  28.912  27.754  1.00  0.00     0.167 HD
ATOM     50  C   UNL A   1      44.010  24.642  26.885  1.00  0.00     0.037 A 
ATOM     51  C   UNL A   1      45.993  31.282  27.991  1.00  0.00     0.037 A 
ATOM     52  C   UNL A   1      45.379  24.934  26.550  1.00  0.00     0.049 A 
ATOM     53  C   UNL A   1      46.954  30.241  27.490  1.00  0.00     0.074 A 
ATOM     54  C   UNL A   1      46.336  24.088  26.019  1.00  0.00     0.029 A 
ATOM     55  N   UNL A   1      45.987  26.171  26.716  1.00  0.00    -0.354 N 
ATOM     56  N   UNL A   1      46.734  28.976  27.220  1.00  0.00    -0.248 NA
ATOM     57  C   UNL A   1      48.338  30.674  27.259  1.00  0.00     0.031 C 
ATOM     58  C   UNL A   1      47.536  24.801  25.909  1.00  0.00     0.029 A 
ATOM     59  C   UNL A   1      47.314  26.105  26.322  1.00  0.00     0.049 A 
ATOM     60  H   UNL A   1      45.541  26.976  27.064  1.00  0.00     0.167 HD
ATOM     61  C   UNL A   1      47.944  28.468  26.761  1.00  0.00     0.074 A 
ATOM     62  C   UNL A   1      48.890  29.566  26.781  1.00  0.00     0.031 C 
ATOM     63  C   UNL A   1      48.243  27.210  26.352  1.00  0.00     0.037 A 
BRANCH  50  64
ATOM     64  C   UNL A   1      43.501  23.234  26.728  1.00  0.00     0.058 A 
ATOM     65  C   UNL A   1      43.286  22.397  27.838  1.00  0.00     0.135 A 
ATOM     66  C   UNL A   1      43.255  22.698  25.454  1.00  0.00     0.135 A 
ATOM     67  F   UNL A   1      43.515  22.850  29.081  1.00  0.00    -0.206 F 
ATOM     68  C   UNL A   1      42.912  21.066  27.687  1.00  0.00     0.059 A 
ATOM     69  C   UNL A   1      42.845  21.379  25.281  1.00  0.00     0.059 A 
ATOM     70  F   UNL A   1      43.435  23.450  24.357  1.00  0.00    -0.206 F 
ATOM     71  C   UNL A   1      42.705  20.562  26.402  1.00  0.00     0.060 A 
BRANCH  71  72
ATOM     72  S   UNL A   1      42.275  18.819  26.218  1.00  0.00     0.124 S 
ATOM     73  O   UNL A   1      42.461  18.329  27.581  1.00  0.00    -0.237 OA
ATOM     74  O   UNL A   1      40.894  18.884  25.752  1.00  0.00    -0.237 OA
ATOM     75  O   UNL A   1      43.242  18.332  25.240  1.00  0.00    -0.744 OA
ENDBRANCH  71  72
ENDBRANCH  50  64
BRANCH  51  76
ATOM     76  C   UNL A   1      46.417  32.695  28.179  1.00  0.00     0.058 A 
ATOM     77  C   UNL A   1      46.981  33.112  29.393  1.00  0.00     0.135 A 
ATOM     78  C   UNL A   1      46.316  33.640  27.146  1.00  0.00     0.135 A 
ATOM     79  F   UNL A   1      47.092  32.248  30.414  1.00  0.00    -0.206 F 
ATOM     80  C   UNL A   1      47.435  34.415  29.578  1.00  0.00     0.059 A 
ATOM     81  C   UNL A   1      46.783  34.942  27.300  1.00  0.00     0.059 A 
ATOM     82  F   UNL A   1      45.796  33.286  25.960  1.00  0.00    -0.206 F 
ATOM     83  C   UNL A   1      47.341  35.320  28.521  1.00  0.00     0.060 A 
BRANCH  83  84
ATOM     84  S   UNL A   1      48.012  36.982  28.746  1.00  0.00     0.124 S 
ATOM     85  O   UNL A   1      48.540  36.906  30.102  1.00  0.00    -0.237 OA
ATOM     86  O   UNL A   1      49.005  37.055  27.677  1.00  0.00    -0.237 OA
ATOM     87  O   UNL A   1      46.846  37.842  28.567  1.00  0.00    -0.744 OA
ENDBRANCH  83  84
ENDBRANCH  51  76
BRANCH  63  88
ATOM     88  C   UNL A   1      49.643  26.956  25.865  1.00  0.00     0.058 A 
ATOM     89  C   UNL A   1      50.636  26.432  26.706  1.00  0.00     0.135 A 
ATOM     90  C   UNL A   1      49.980  27.198  24.522  1.00  0.00     0.135 A 
ATOM     91  F   UNL A   1      50.367  26.190  27.999  1.00  0.00    -0.206 F 
ATOM     92  C   UNL A   1      51.922  26.179  26.241  1.00  0.00     0.059 A 
ATOM     93  C   UNL A   1      51.252  26.924  24.029  1.00  0.00     0.059 A 
ATOM     94  F   UNL A   1      49.065  27.689  23.672  1.00  0.00    -0.206 F 
ATOM     95  C   UNL A   1      52.220  26.427  24.900  1.00  0.00     0.060 A 
BRANCH  95  96
ATOM     96  S   UNL A   1      53.884  26.063  24.302  1.00  0.00     0.124 S 
ATOM     97  O   UNL A   1      54.031  24.661  24.676  1.00  0.00    -0.237 OA
ATOM     98  O   UNL A   1      53.767  26.329  22.872  1.00  0.00    -0.237 OA
ATOM     99  O   UNL A   1      54.725  27.001  25.041  1.00  0.00    -0.744 OA
ENDBRANCH  95  96
ENDBRANCH  63  88
ENDBRANCH  37  38
ENDBRANCH  29  32
ENDBRANCH  27  28
ENDBRANCH   1  27
TORSDOF 16
ENDMDL
