MODEL 1
REMARK VINA RESULT:     -11.9      0.000      0.000
REMARK SMILES CC[C@@H](C)[C@H](NC(=O)[C@H]1CCCN(S(=O)(=O)c2ccccc2)C1)C(=O)NCCCNC(=O)c1ccc(-c2c3nc(c(-c4c(F)cc(S(=O)(=O)[O-])cc4F)c4ccc([nH]4)c(-c4c(F)cc(S(=O)(=O)[O-])cc4F)c4nc(c(-c5c(F)cc(S(=O)(=O)[O-])cc5F)c5ccc2[nH]5)C=C4)C=C3)cc1
REMARK SMILES IDX 27 1 26 2 24 3 25 4 5 6 3 7 4 8 2 9 1 10 6 11 7 12 8 14 9 15
REMARK SMILES IDX 10 16 23 17 11 18 13 19 12 20 14 21 15 22 16 23 17 24 18 25
REMARK SMILES IDX 22 26 19 27 21 28 20 29 28 30 29 31 30 32 31 33 32 35 33 36
REMARK SMILES IDX 34 37 98 38 35 39 97 40 36 41 37 42 38 43 91 44 39 45 96 46
REMARK SMILES IDX 90 47 92 48 40 49 95 50 89 51 88 52 41 54 75 55 54 56 74 57
REMARK SMILES IDX 55 58 58 59 73 60 93 61 56 62 57 63 72 65 94 66 59 67 42 68
REMARK SMILES IDX 43 69 52 70 44 71 45 72 51 73 53 74 46 75 47 76 48 77 49 78
REMARK SMILES IDX 50 79 76 80 77 81 86 82 78 83 79 84 85 85 87 86 80 87 81 88
REMARK SMILES IDX 82 89 83 90 84 91 60 92 61 93 70 94 62 95 63 96 69 97 71 98
REMARK SMILES IDX 64 99 65 100 66 101 67 102 68 103
REMARK H PARENT 26 5 6 13 30 34 92 53 58 64
REMARK Flexibility Score: inf
ROOT
ATOM      1  C   UNL A   1      36.238  23.936  25.441  1.00  0.00     0.117 C 
ENDROOT
BRANCH   1   2
ATOM      2  N   UNL A   1      35.857  23.616  24.080  1.00  0.00    -0.354 N 
ATOM      3  C   UNL A   1      34.728  23.070  23.557  1.00  0.00     0.242 C 
ATOM      4  O   UNL A   1      34.609  23.117  22.326  1.00  0.00    -0.273 OA
ATOM      5  H   UNL A   1      36.543  23.837  23.409  1.00  0.00     0.163 HD
BRANCH   3   6
ATOM      6  C   UNL A   1      33.556  22.538  24.423  1.00  0.00     0.174 C 
BRANCH   6   7
ATOM      7  C   UNL A   1      33.521  20.978  24.458  1.00  0.00     0.018 C 
ATOM      8  C   UNL A   1      32.387  20.331  23.659  1.00  0.00     0.010 C 
BRANCH   7   9
ATOM      9  C   UNL A   1      33.527  20.484  25.920  1.00  0.00     0.002 C 
ATOM     10  C   UNL A   1      33.846  21.563  26.947  1.00  0.00     0.004 C 
ENDBRANCH   7   9
ENDBRANCH   6   7
BRANCH   6  11
ATOM     11  N   UNL A   1      32.278  23.182  24.101  1.00  0.00    -0.344 N 
ATOM     12  C   UNL A   1      31.893  24.343  23.532  1.00  0.00     0.225 C 
ATOM     13  H   UNL A   1      31.509  22.629  24.368  1.00  0.00     0.164 HD
ATOM     14  O   UNL A   1      30.718  24.329  23.137  1.00  0.00    -0.275 OA
BRANCH  12  15
ATOM     15  C   UNL A   1      32.690  25.651  23.472  1.00  0.00     0.094 C 
ATOM     16  C   UNL A   1      32.755  26.385  22.144  1.00  0.00     0.016 C 
ATOM     17  C   UNL A   1      32.116  26.574  24.573  1.00  0.00     0.116 C 
ATOM     18  C   UNL A   1      33.486  27.709  22.284  1.00  0.00     0.018 C 
ATOM     19  N   UNL A   1      32.758  27.944  24.628  1.00  0.00    -0.197 NA
ATOM     20  C   UNL A   1      32.790  28.599  23.295  1.00  0.00     0.102 C 
BRANCH  19  21
ATOM     21  S   UNL A   1      31.964  28.902  25.848  1.00  0.00     0.243 S 
ATOM     22  O   UNL A   1      31.233  29.948  25.163  1.00  0.00    -0.207 OA
ATOM     23  O   UNL A   1      31.292  27.989  26.748  1.00  0.00    -0.207 OA
BRANCH  21  24
ATOM     24  C   UNL A   1      33.277  29.685  26.759  1.00  0.00     0.082 A 
ATOM     25  C   UNL A   1      33.119  30.994  27.225  1.00  0.00     0.022 A 
ATOM     26  C   UNL A   1      34.513  29.037  26.881  1.00  0.00     0.022 A 
ATOM     27  C   UNL A   1      34.190  31.634  27.853  1.00  0.00     0.001 A 
ATOM     28  C   UNL A   1      35.568  29.670  27.537  1.00  0.00     0.001 A 
ATOM     29  C   UNL A   1      35.406  30.968  28.021  1.00  0.00     0.000 A 
ENDBRANCH  21  24
ENDBRANCH  19  21
ENDBRANCH  12  15
ENDBRANCH   6  11
ENDBRANCH   3   6
ENDBRANCH   1   2
BRANCH   1  30
ATOM     30  C   UNL A   1      37.612  23.412  25.807  1.00  0.00     0.042 C 
BRANCH  30  31
ATOM     31  C   UNL A   1      38.452  24.431  26.557  1.00  0.00     0.118 C 
BRANCH  31  32
ATOM     32  N   UNL A   1      39.765  24.623  25.945  1.00  0.00    -0.352 N 
ATOM     33  C   UNL A   1      40.737  25.562  26.185  1.00  0.00     0.251 C 
ATOM     34  H   UNL A   1      39.989  23.969  25.243  1.00  0.00     0.163 HD
ATOM     35  O   UNL A   1      41.650  25.696  25.375  1.00  0.00    -0.269 OA
BRANCH  33  36
ATOM     36  C   UNL A   1      40.688  26.400  27.400  1.00  0.00     0.039 A 
ATOM     37  C   UNL A   1      39.939  25.974  28.501  1.00  0.00     0.014 A 
ATOM     38  C   UNL A   1      41.337  27.635  27.440  1.00  0.00     0.014 A 
ATOM     39  C   UNL A   1      39.881  26.768  29.648  1.00  0.00     0.010 A 
ATOM     40  C   UNL A   1      41.387  28.358  28.621  1.00  0.00     0.010 A 
ATOM     41  C   UNL A   1      40.623  27.958  29.724  1.00  0.00    -0.014 A 
BRANCH  41  42
ATOM     42  C   UNL A   1      40.551  28.853  30.905  1.00  0.00     0.031 A 
ATOM     43  C   UNL A   1      39.506  29.939  30.947  1.00  0.00     0.074 A 
ATOM     44  C   UNL A   1      41.458  28.739  31.892  1.00  0.00     0.049 A 
ATOM     45  N   UNL A   1      39.333  30.889  31.828  1.00  0.00    -0.248 NA
ATOM     46  C   UNL A   1      38.558  29.994  29.819  1.00  0.00     0.031 C 
ATOM     47  C   UNL A   1      42.561  27.775  31.924  1.00  0.00     0.029 A 
ATOM     48  N   UNL A   1      41.601  29.447  33.057  1.00  0.00    -0.354 N 
ATOM     49  C   UNL A   1      38.284  31.666  31.345  1.00  0.00     0.074 A 
ATOM     50  C   UNL A   1      37.911  31.123  30.059  1.00  0.00     0.031 C 
ATOM     51  C   UNL A   1      43.251  27.936  33.065  1.00  0.00     0.029 A 
ATOM     52  C   UNL A   1      42.658  29.028  33.830  1.00  0.00     0.049 A 
ATOM     53  H   UNL A   1      41.004  30.185  33.315  1.00  0.00     0.167 HD
ATOM     54  C   UNL A   1      37.660  32.712  31.935  1.00  0.00     0.037 A 
ATOM     55  C   UNL A   1      43.091  29.474  35.023  1.00  0.00     0.037 A 
ATOM     56  C   UNL A   1      38.003  33.209  33.241  1.00  0.00     0.049 A 
ATOM     57  C   UNL A   1      42.336  30.585  35.700  1.00  0.00     0.074 A 
ATOM     58  C   UNL A   1      37.410  34.228  33.962  1.00  0.00     0.029 A 
ATOM     59  N   UNL A   1      39.026  32.700  34.030  1.00  0.00    -0.354 N 
ATOM     60  N   UNL A   1      41.315  31.279  35.252  1.00  0.00    -0.248 NA
ATOM     61  C   UNL A   1      42.774  30.959  37.050  1.00  0.00     0.031 C 
ATOM     62  C   UNL A   1      38.086  34.349  35.182  1.00  0.00     0.029 A 
ATOM     63  C   UNL A   1      39.076  33.380  35.234  1.00  0.00     0.049 A 
ATOM     64  H   UNL A   1      39.627  31.966  33.770  1.00  0.00     0.167 HD
ATOM     65  C   UNL A   1      40.971  32.153  36.276  1.00  0.00     0.074 A 
ATOM     66  C   UNL A   1      41.886  31.891  37.370  1.00  0.00     0.031 C 
ATOM     67  C   UNL A   1      39.989  33.088  36.312  1.00  0.00     0.037 A 
BRANCH  54  68
ATOM     68  C   UNL A   1      36.534  33.360  31.177  1.00  0.00     0.058 A 
ATOM     69  C   UNL A   1      36.773  34.153  30.041  1.00  0.00     0.135 A 
ATOM     70  C   UNL A   1      35.203  33.205  31.594  1.00  0.00     0.135 A 
ATOM     71  F   UNL A   1      38.028  34.352  29.608  1.00  0.00    -0.206 F 
ATOM     72  C   UNL A   1      35.741  34.807  29.377  1.00  0.00     0.059 A 
ATOM     73  C   UNL A   1      34.150  33.824  30.925  1.00  0.00     0.059 A 
ATOM     74  F   UNL A   1      34.914  32.458  32.672  1.00  0.00    -0.206 F 
ATOM     75  C   UNL A   1      34.432  34.642  29.832  1.00  0.00     0.060 A 
BRANCH  75  76
ATOM     76  S   UNL A   1      33.104  35.513  28.973  1.00  0.00     0.124 S 
ATOM     77  O   UNL A   1      33.861  36.431  28.126  1.00  0.00    -0.237 OA
ATOM     78  O   UNL A   1      32.416  34.432  28.277  1.00  0.00    -0.237 OA
ATOM     79  O   UNL A   1      32.351  36.136  30.057  1.00  0.00    -0.744 OA
ENDBRANCH  75  76
ENDBRANCH  54  68
BRANCH  55  80
ATOM     80  C   UNL A   1      44.260  28.825  35.673  1.00  0.00     0.058 A 
ATOM     81  C   UNL A   1      44.091  27.715  36.513  1.00  0.00     0.135 A 
ATOM     82  C   UNL A   1      45.568  29.272  35.434  1.00  0.00     0.135 A 
ATOM     83  F   UNL A   1      42.858  27.251  36.771  1.00  0.00    -0.206 F 
ATOM     84  C   UNL A   1      45.176  27.077  37.105  1.00  0.00     0.059 A 
ATOM     85  C   UNL A   1      46.671  28.637  35.997  1.00  0.00     0.059 A 
ATOM     86  F   UNL A   1      45.783  30.316  34.619  1.00  0.00    -0.206 F 
ATOM     87  C   UNL A   1      46.463  27.545  36.838  1.00  0.00     0.060 A 
BRANCH  87  88
ATOM     88  S   UNL A   1      47.869  26.670  37.563  1.00  0.00     0.124 S 
ATOM     89  O   UNL A   1      48.397  25.955  36.407  1.00  0.00    -0.237 OA
ATOM     90  O   UNL A   1      48.690  27.768  38.065  1.00  0.00    -0.237 OA
ATOM     91  O   UNL A   1      47.251  25.839  38.593  1.00  0.00    -0.744 OA
ENDBRANCH  87  88
ENDBRANCH  55  80
BRANCH  67  92
ATOM     92  C   UNL A   1      39.826  33.862  37.588  1.00  0.00     0.058 A 
ATOM     93  C   UNL A   1      39.003  33.405  38.628  1.00  0.00     0.135 A 
ATOM     94  C   UNL A   1      40.536  35.057  37.784  1.00  0.00     0.135 A 
ATOM     95  F   UNL A   1      38.302  32.268  38.487  1.00  0.00    -0.206 F 
ATOM     96  C   UNL A   1      38.864  34.124  39.810  1.00  0.00     0.059 A 
ATOM     97  C   UNL A   1      40.431  35.779  38.968  1.00  0.00     0.059 A 
ATOM     98  F   UNL A   1      41.346  35.529  36.824  1.00  0.00    -0.206 F 
ATOM     99  C   UNL A   1      39.581  35.313  39.969  1.00  0.00     0.060 A 
BRANCH  99 100
ATOM    100  S   UNL A   1      39.407  36.231  41.513  1.00  0.00     0.124 S 
ATOM    101  O   UNL A   1      40.688  35.964  42.158  1.00  0.00    -0.237 OA
ATOM    102  O   UNL A   1      39.204  37.598  41.046  1.00  0.00    -0.237 OA
ATOM    103  O   UNL A   1      38.244  35.613  42.144  1.00  0.00    -0.744 OA
ENDBRANCH  99 100
ENDBRANCH  67  92
ENDBRANCH  41  42
ENDBRANCH  33  36
ENDBRANCH  31  32
ENDBRANCH  30  31
ENDBRANCH   1  30
TORSDOF 19
ENDMDL
MODEL 2
REMARK VINA RESULT:     -11.5      3.371      8.368
REMARK SMILES CC[C@@H](C)[C@H](NC(=O)[C@H]1CCCN(S(=O)(=O)c2ccccc2)C1)C(=O)NCCCNC(=O)c1ccc(-c2c3nc(c(-c4c(F)cc(S(=O)(=O)[O-])cc4F)c4ccc([nH]4)c(-c4c(F)cc(S(=O)(=O)[O-])cc4F)c4nc(c(-c5c(F)cc(S(=O)(=O)[O-])cc5F)c5ccc2[nH]5)C=C4)C=C3)cc1
REMARK SMILES IDX 27 1 26 2 24 3 25 4 5 6 3 7 4 8 2 9 1 10 6 11 7 12 8 14 9 15
REMARK SMILES IDX 10 16 23 17 11 18 13 19 12 20 14 21 15 22 16 23 17 24 18 25
REMARK SMILES IDX 22 26 19 27 21 28 20 29 28 30 29 31 30 32 31 33 32 35 33 36
REMARK SMILES IDX 34 37 98 38 35 39 97 40 36 41 37 42 38 43 91 44 39 45 96 46
REMARK SMILES IDX 90 47 92 48 40 49 95 50 89 51 88 52 41 54 75 55 54 56 74 57
REMARK SMILES IDX 55 58 58 59 73 60 93 61 56 62 57 63 72 65 94 66 59 67 42 68
REMARK SMILES IDX 43 69 52 70 44 71 45 72 51 73 53 74 46 75 47 76 48 77 49 78
REMARK SMILES IDX 50 79 76 80 77 81 86 82 78 83 79 84 85 85 87 86 80 87 81 88
REMARK SMILES IDX 82 89 83 90 84 91 60 92 61 93 70 94 62 95 63 96 69 97 71 98
REMARK SMILES IDX 64 99 65 100 66 101 67 102 68 103
REMARK H PARENT 26 5 6 13 30 34 92 53 58 64
REMARK Flexibility Score: inf
ROOT
ATOM      1  C   UNL A   1      33.802  26.248  26.190  1.00  0.00     0.117 C 
ENDROOT
BRANCH   1   2
ATOM      2  N   UNL A   1      34.293  25.857  24.884  1.00  0.00    -0.354 N 
ATOM      3  C   UNL A   1      34.537  24.639  24.332  1.00  0.00     0.242 C 
ATOM      4  O   UNL A   1      34.752  24.617  23.114  1.00  0.00    -0.273 OA
ATOM      5  H   UNL A   1      34.485  26.615  24.285  1.00  0.00     0.163 HD
BRANCH   3   6
ATOM      6  C   UNL A   1      34.418  23.307  25.117  1.00  0.00     0.174 C 
BRANCH   6   7
ATOM      7  C   UNL A   1      35.818  22.711  25.467  1.00  0.00     0.018 C 
ATOM      8  C   UNL A   1      36.921  23.740  25.724  1.00  0.00     0.010 C 
BRANCH   7   9
ATOM      9  C   UNL A   1      36.242  21.694  24.387  1.00  0.00     0.002 C 
ATOM     10  C   UNL A   1      37.210  20.625  24.877  1.00  0.00     0.004 C 
ENDBRANCH   7   9
ENDBRANCH   6   7
BRANCH   6  11
ATOM     11  N   UNL A   1      33.480  22.366  24.493  1.00  0.00    -0.344 N 
ATOM     12  C   UNL A   1      32.239  22.437  23.969  1.00  0.00     0.225 C 
ATOM     13  H   UNL A   1      33.849  21.455  24.446  1.00  0.00     0.164 HD
ATOM     14  O   UNL A   1      31.962  21.479  23.234  1.00  0.00    -0.275 OA
BRANCH  12  15
ATOM     15  C   UNL A   1      31.152  23.464  24.307  1.00  0.00     0.094 C 
ATOM     16  C   UNL A   1      30.990  23.878  25.758  1.00  0.00     0.016 C 
ATOM     17  C   UNL A   1      31.416  24.702  23.417  1.00  0.00     0.116 C 
ATOM     18  C   UNL A   1      29.952  24.977  25.903  1.00  0.00     0.018 C 
ATOM     19  N   UNL A   1      30.457  25.850  23.654  1.00  0.00    -0.197 NA
ATOM     20  C   UNL A   1      30.346  26.196  25.094  1.00  0.00     0.102 C 
BRANCH  19  21
ATOM     21  S   UNL A   1      30.918  27.199  22.654  1.00  0.00     0.243 S 
ATOM     22  O   UNL A   1      32.097  27.793  23.251  1.00  0.00    -0.207 OA
ATOM     23  O   UNL A   1      30.929  26.740  21.281  1.00  0.00    -0.207 OA
BRANCH  21  24
ATOM     24  C   UNL A   1      29.595  28.379  22.815  1.00  0.00     0.082 A 
ATOM     25  C   UNL A   1      29.881  29.745  22.870  1.00  0.00     0.022 A 
ATOM     26  C   UNL A   1      28.288  27.922  23.027  1.00  0.00     0.022 A 
ATOM     27  C   UNL A   1      28.846  30.657  23.094  1.00  0.00     0.001 A 
ATOM     28  C   UNL A   1      27.254  28.838  23.219  1.00  0.00     0.001 A 
ATOM     29  C   UNL A   1      27.534  30.204  23.254  1.00  0.00     0.000 A 
ENDBRANCH  21  24
ENDBRANCH  19  21
ENDBRANCH  12  15
ENDBRANCH   6  11
ENDBRANCH   3   6
ENDBRANCH   1   2
BRANCH   1  30
ATOM     30  C   UNL A   1      33.252  27.660  26.216  1.00  0.00     0.042 C 
BRANCH  30  31
ATOM     31  C   UNL A   1      34.263  28.695  25.757  1.00  0.00     0.118 C 
BRANCH  31  32
ATOM     32  N   UNL A   1      33.948  30.033  26.253  1.00  0.00    -0.352 N 
ATOM     33  C   UNL A   1      34.458  30.736  27.316  1.00  0.00     0.251 C 
ATOM     34  H   UNL A   1      33.255  30.508  25.739  1.00  0.00     0.163 HD
ATOM     35  O   UNL A   1      33.864  31.738  27.709  1.00  0.00    -0.269 OA
BRANCH  33  36
ATOM     36  C   UNL A   1      35.703  30.299  27.980  1.00  0.00     0.039 A 
ATOM     37  C   UNL A   1      35.637  29.711  29.247  1.00  0.00     0.014 A 
ATOM     38  C   UNL A   1      36.944  30.514  27.380  1.00  0.00     0.014 A 
ATOM     39  C   UNL A   1      36.812  29.306  29.883  1.00  0.00     0.010 A 
ATOM     40  C   UNL A   1      38.095  29.994  27.951  1.00  0.00     0.010 A 
ATOM     41  C   UNL A   1      38.049  29.426  29.230  1.00  0.00    -0.014 A 
BRANCH  41  42
ATOM     42  C   UNL A   1      39.324  29.052  29.890  1.00  0.00     0.031 A 
ATOM     43  C   UNL A   1      39.775  29.812  31.111  1.00  0.00     0.074 A 
ATOM     44  C   UNL A   1      40.101  28.090  29.357  1.00  0.00     0.049 A 
ATOM     45  N   UNL A   1      40.896  29.719  31.777  1.00  0.00    -0.248 NA
ATOM     46  C   UNL A   1      38.865  30.852  31.621  1.00  0.00     0.031 C 
ATOM     47  C   UNL A   1      39.803  27.338  28.136  1.00  0.00     0.029 A 
ATOM     48  N   UNL A   1      41.307  27.588  29.771  1.00  0.00    -0.354 N 
ATOM     49  C   UNL A   1      40.835  30.705  32.758  1.00  0.00     0.074 A 
ATOM     50  C   UNL A   1      39.604  31.433  32.552  1.00  0.00     0.031 C 
ATOM     51  C   UNL A   1      40.788  26.452  27.915  1.00  0.00     0.029 A 
ATOM     52  C   UNL A   1      41.796  26.591  28.961  1.00  0.00     0.049 A 
ATOM     53  H   UNL A   1      41.778  27.910  30.573  1.00  0.00     0.167 HD
ATOM     54  C   UNL A   1      41.705  30.957  33.764  1.00  0.00     0.037 A 
ATOM     55  C   UNL A   1      42.927  25.869  29.060  1.00  0.00     0.037 A 
ATOM     56  C   UNL A   1      42.900  30.190  33.993  1.00  0.00     0.049 A 
ATOM     57  C   UNL A   1      43.842  26.110  30.229  1.00  0.00     0.074 A 
ATOM     58  C   UNL A   1      43.830  30.319  35.008  1.00  0.00     0.029 A 
ATOM     59  N   UNL A   1      43.316  29.131  33.199  1.00  0.00    -0.354 N 
ATOM     60  N   UNL A   1      43.747  27.014  31.177  1.00  0.00    -0.248 NA
ATOM     61  C   UNL A   1      45.003  25.221  30.357  1.00  0.00     0.031 C 
ATOM     62  C   UNL A   1      44.820  29.348  34.817  1.00  0.00     0.029 A 
ATOM     63  C   UNL A   1      44.486  28.592  33.705  1.00  0.00     0.049 A 
ATOM     64  H   UNL A   1      42.849  28.811  32.393  1.00  0.00     0.167 HD
ATOM     65  C   UNL A   1      44.820  26.785  32.029  1.00  0.00     0.074 A 
ATOM     66  C   UNL A   1      45.543  25.650  31.490  1.00  0.00     0.031 C 
ATOM     67  C   UNL A   1      45.178  27.452  33.156  1.00  0.00     0.037 A 
BRANCH  54  68
ATOM     68  C   UNL A   1      41.372  32.091  34.696  1.00  0.00     0.058 A 
ATOM     69  C   UNL A   1      40.477  31.923  35.767  1.00  0.00     0.135 A 
ATOM     70  C   UNL A   1      41.935  33.363  34.511  1.00  0.00     0.135 A 
ATOM     71  F   UNL A   1      39.893  30.732  35.980  1.00  0.00    -0.206 F 
ATOM     72  C   UNL A   1      40.116  32.984  36.589  1.00  0.00     0.059 A 
ATOM     73  C   UNL A   1      41.613  34.433  35.342  1.00  0.00     0.059 A 
ATOM     74  F   UNL A   1      42.797  33.582  33.505  1.00  0.00    -0.206 F 
ATOM     75  C   UNL A   1      40.684  34.239  36.364  1.00  0.00     0.060 A 
BRANCH  75  76
ATOM     76  S   UNL A   1      40.190  35.613  37.425  1.00  0.00     0.124 S 
ATOM     77  O   UNL A   1      39.147  34.990  38.237  1.00  0.00    -0.237 OA
ATOM     78  O   UNL A   1      41.429  35.932  38.125  1.00  0.00    -0.237 OA
ATOM     79  O   UNL A   1      39.729  36.624  36.479  1.00  0.00    -0.744 OA
ENDBRANCH  75  76
ENDBRANCH  54  68
BRANCH  55  80
ATOM     80  C   UNL A   1      43.219  24.815  28.053  1.00  0.00     0.058 A 
ATOM     81  C   UNL A   1      44.035  25.085  26.945  1.00  0.00     0.135 A 
ATOM     82  C   UNL A   1      42.724  23.510  28.198  1.00  0.00     0.135 A 
ATOM     83  F   UNL A   1      44.532  26.319  26.763  1.00  0.00    -0.206 F 
ATOM     84  C   UNL A   1      44.342  24.103  26.009  1.00  0.00     0.059 A 
ATOM     85  C   UNL A   1      43.035  22.505  27.287  1.00  0.00     0.059 A 
ATOM     86  F   UNL A   1      41.957  23.197  29.254  1.00  0.00    -0.206 F 
ATOM     87  C   UNL A   1      43.839  22.815  26.191  1.00  0.00     0.060 A 
BRANCH  87  88
ATOM     88  S   UNL A   1      44.295  21.532  25.003  1.00  0.00     0.124 S 
ATOM     89  O   UNL A   1      43.334  20.483  25.320  1.00  0.00    -0.237 OA
ATOM     90  O   UNL A   1      44.100  22.212  23.725  1.00  0.00    -0.237 OA
ATOM     91  O   UNL A   1      45.685  21.241  25.341  1.00  0.00    -0.744 OA
ENDBRANCH  87  88
ENDBRANCH  55  80
BRANCH  67  92
ATOM     92  C   UNL A   1      46.376  26.941  33.902  1.00  0.00     0.058 A 
ATOM     93  C   UNL A   1      47.668  27.423  33.642  1.00  0.00     0.135 A 
ATOM     94  C   UNL A   1      46.220  25.986  34.919  1.00  0.00     0.135 A 
ATOM     95  F   UNL A   1      47.867  28.336  32.678  1.00  0.00    -0.206 F 
ATOM     96  C   UNL A   1      48.771  26.951  34.343  1.00  0.00     0.059 A 
ATOM     97  C   UNL A   1      47.306  25.518  35.650  1.00  0.00     0.059 A 
ATOM     98  F   UNL A   1      45.002  25.504  35.214  1.00  0.00    -0.206 F 
ATOM     99  C   UNL A   1      48.580  25.995  35.344  1.00  0.00     0.060 A 
BRANCH  99 100
ATOM    100  S   UNL A   1      50.017  25.399  36.261  1.00  0.00     0.124 S 
ATOM    101  O   UNL A   1      51.108  25.772  35.367  1.00  0.00    -0.237 OA
ATOM    102  O   UNL A   1      49.931  26.155  37.507  1.00  0.00    -0.237 OA
ATOM    103  O   UNL A   1      49.767  23.966  36.387  1.00  0.00    -0.744 OA
ENDBRANCH  99 100
ENDBRANCH  67  92
ENDBRANCH  41  42
ENDBRANCH  33  36
ENDBRANCH  31  32
ENDBRANCH  30  31
ENDBRANCH   1  30
TORSDOF 19
ENDMDL
MODEL 3
REMARK VINA RESULT:     -11.5      1.352      8.211
REMARK SMILES CC[C@@H](C)[C@H](NC(=O)[C@H]1CCCN(S(=O)(=O)c2ccccc2)C1)C(=O)NCCCNC(=O)c1ccc(-c2c3nc(c(-c4c(F)cc(S(=O)(=O)[O-])cc4F)c4ccc([nH]4)c(-c4c(F)cc(S(=O)(=O)[O-])cc4F)c4nc(c(-c5c(F)cc(S(=O)(=O)[O-])cc5F)c5ccc2[nH]5)C=C4)C=C3)cc1
REMARK SMILES IDX 27 1 26 2 24 3 25 4 5 6 3 7 4 8 2 9 1 10 6 11 7 12 8 14 9 15
REMARK SMILES IDX 10 16 23 17 11 18 13 19 12 20 14 21 15 22 16 23 17 24 18 25
REMARK SMILES IDX 22 26 19 27 21 28 20 29 28 30 29 31 30 32 31 33 32 35 33 36
REMARK SMILES IDX 34 37 98 38 35 39 97 40 36 41 37 42 38 43 91 44 39 45 96 46
REMARK SMILES IDX 90 47 92 48 40 49 95 50 89 51 88 52 41 54 75 55 54 56 74 57
REMARK SMILES IDX 55 58 58 59 73 60 93 61 56 62 57 63 72 65 94 66 59 67 42 68
REMARK SMILES IDX 43 69 52 70 44 71 45 72 51 73 53 74 46 75 47 76 48 77 49 78
REMARK SMILES IDX 50 79 76 80 77 81 86 82 78 83 79 84 85 85 87 86 80 87 81 88
REMARK SMILES IDX 82 89 83 90 84 91 60 92 61 93 70 94 62 95 63 96 69 97 71 98
REMARK SMILES IDX 64 99 65 100 66 101 67 102 68 103
REMARK H PARENT 26 5 6 13 30 34 92 53 58 64
REMARK Flexibility Score: inf
ROOT
ATOM      1  C   UNL A   1      38.547  22.053  25.581  1.00  0.00     0.117 C 
ENDROOT
BRANCH   1   2
ATOM      2  N   UNL A   1      37.815  20.819  25.379  1.00  0.00    -0.354 N 
ATOM      3  C   UNL A   1      36.493  20.567  25.191  1.00  0.00     0.242 C 
ATOM      4  O   UNL A   1      36.193  19.422  24.830  1.00  0.00    -0.273 OA
ATOM      5  H   UNL A   1      38.381  20.013  25.376  1.00  0.00     0.163 HD
BRANCH   3   6
ATOM      6  C   UNL A   1      35.396  21.661  25.268  1.00  0.00     0.174 C 
BRANCH   6   7
ATOM      7  C   UNL A   1      35.186  22.172  26.728  1.00  0.00     0.018 C 
ATOM      8  C   UNL A   1      34.040  21.507  27.495  1.00  0.00     0.010 C 
BRANCH   7   9
ATOM      9  C   UNL A   1      35.046  23.708  26.733  1.00  0.00     0.002 C 
ATOM     10  C   UNL A   1      35.829  24.414  25.633  1.00  0.00     0.004 C 
ENDBRANCH   7   9
ENDBRANCH   6   7
BRANCH   6  11
ATOM     11  N   UNL A   1      34.169  21.281  24.559  1.00  0.00    -0.344 N 
ATOM     12  C   UNL A   1      33.407  21.815  23.582  1.00  0.00     0.225 C 
ATOM     13  H   UNL A   1      33.811  20.421  24.877  1.00  0.00     0.164 HD
ATOM     14  O   UNL A   1      32.654  20.992  23.043  1.00  0.00    -0.275 OA
BRANCH  12  15
ATOM     15  C   UNL A   1      33.292  23.297  23.208  1.00  0.00     0.094 C 
ATOM     16  C   UNL A   1      32.683  23.646  21.862  1.00  0.00     0.016 C 
ATOM     17  C   UNL A   1      32.510  23.986  24.351  1.00  0.00     0.116 C 
ATOM     18  C   UNL A   1      32.542  25.149  21.696  1.00  0.00     0.018 C 
ATOM     19  N   UNL A   1      32.257  25.462  24.124  1.00  0.00    -0.197 NA
ATOM     20  C   UNL A   1      31.665  25.728  22.788  1.00  0.00     0.102 C 
BRANCH  19  21
ATOM     21  S   UNL A   1      31.300  26.089  25.438  1.00  0.00     0.243 S 
ATOM     22  O   UNL A   1      30.073  26.605  24.868  1.00  0.00    -0.207 OA
ATOM     23  O   UNL A   1      31.274  25.080  26.477  1.00  0.00    -0.207 OA
BRANCH  21  24
ATOM     24  C   UNL A   1      32.216  27.481  26.065  1.00  0.00     0.082 A 
ATOM     25  C   UNL A   1      33.613  27.476  26.016  1.00  0.00     0.022 A 
ATOM     26  C   UNL A   1      31.537  28.509  26.731  1.00  0.00     0.022 A 
ATOM     27  C   UNL A   1      34.325  28.528  26.597  1.00  0.00     0.001 A 
ATOM     28  C   UNL A   1      32.252  29.571  27.282  1.00  0.00     0.001 A 
ATOM     29  C   UNL A   1      33.645  29.579  27.216  1.00  0.00     0.000 A 
ENDBRANCH  21  24
ENDBRANCH  19  21
ENDBRANCH  12  15
ENDBRANCH   6  11
ENDBRANCH   3   6
ENDBRANCH   1   2
BRANCH   1  30
ATOM     30  C   UNL A   1      39.632  21.930  26.632  1.00  0.00     0.042 C 
BRANCH  30  31
ATOM     31  C   UNL A   1      40.105  23.276  27.153  1.00  0.00     0.118 C 
BRANCH  31  32
ATOM     32  N   UNL A   1      40.912  23.996  26.171  1.00  0.00    -0.352 N 
ATOM     33  C   UNL A   1      41.266  25.320  26.101  1.00  0.00     0.251 C 
ATOM     34  H   UNL A   1      41.259  23.438  25.438  1.00  0.00     0.163 HD
ATOM     35  O   UNL A   1      41.729  25.760  25.051  1.00  0.00    -0.269 OA
BRANCH  33  36
ATOM     36  C   UNL A   1      41.095  26.207  27.270  1.00  0.00     0.039 A 
ATOM     37  C   UNL A   1      39.937  26.104  28.048  1.00  0.00     0.014 A 
ATOM     38  C   UNL A   1      42.049  27.178  27.574  1.00  0.00     0.014 A 
ATOM     39  C   UNL A   1      39.766  26.948  29.147  1.00  0.00     0.010 A 
ATOM     40  C   UNL A   1      41.941  27.923  28.737  1.00  0.00     0.010 A 
ATOM     41  C   UNL A   1      40.778  27.850  29.513  1.00  0.00    -0.014 A 
BRANCH  41  42
ATOM     42  C   UNL A   1      40.614  28.796  30.644  1.00  0.00     0.031 A 
ATOM     43  C   UNL A   1      41.475  28.637  31.871  1.00  0.00     0.074 A 
ATOM     44  C   UNL A   1      39.654  29.739  30.599  1.00  0.00     0.049 A 
ATOM     45  N   UNL A   1      41.427  29.284  33.006  1.00  0.00    -0.248 NA
ATOM     46  C   UNL A   1      42.494  27.574  31.835  1.00  0.00     0.031 C 
ATOM     47  C   UNL A   1      38.712  29.939  29.496  1.00  0.00     0.029 A 
ATOM     48  N   UNL A   1      39.308  30.701  31.511  1.00  0.00    -0.354 N 
ATOM     49  C   UNL A   1      42.382  28.685  33.822  1.00  0.00     0.074 A 
ATOM     50  C   UNL A   1      42.940  27.578  33.081  1.00  0.00     0.031 C 
ATOM     51  C   UNL A   1      37.911  30.978  29.785  1.00  0.00     0.029 A 
ATOM     52  C   UNL A   1      38.266  31.499  31.102  1.00  0.00     0.049 A 
ATOM     53  H   UNL A   1      39.762  30.811  32.377  1.00  0.00     0.167 HD
ATOM     54  C   UNL A   1      42.788  29.048  35.062  1.00  0.00     0.037 A 
ATOM     55  C   UNL A   1      37.672  32.536  31.720  1.00  0.00     0.037 A 
ATOM     56  C   UNL A   1      42.266  30.187  35.768  1.00  0.00     0.049 A 
ATOM     57  C   UNL A   1      38.189  32.974  33.062  1.00  0.00     0.074 A 
ATOM     58  C   UNL A   1      42.634  30.682  37.005  1.00  0.00     0.029 A 
ATOM     59  N   UNL A   1      41.269  31.022  35.282  1.00  0.00    -0.354 N 
ATOM     60  N   UNL A   1      39.127  32.428  33.801  1.00  0.00    -0.248 NA
ATOM     61  C   UNL A   1      37.588  34.180  33.645  1.00  0.00     0.031 C 
ATOM     62  C   UNL A   1      41.847  31.808  37.276  1.00  0.00     0.029 A 
ATOM     63  C   UNL A   1      41.015  32.034  36.191  1.00  0.00     0.049 A 
ATOM     64  H   UNL A   1      40.810  30.910  34.419  1.00  0.00     0.167 HD
ATOM     65  C   UNL A   1      39.247  33.238  34.923  1.00  0.00     0.074 A 
ATOM     66  C   UNL A   1      38.294  34.318  34.759  1.00  0.00     0.031 C 
ATOM     67  C   UNL A   1      40.070  33.105  35.994  1.00  0.00     0.037 A 
BRANCH  54  68
ATOM     68  C   UNL A   1      43.863  28.216  35.707  1.00  0.00     0.058 A 
ATOM     69  C   UNL A   1      45.226  28.463  35.469  1.00  0.00     0.135 A 
ATOM     70  C   UNL A   1      43.534  27.149  36.557  1.00  0.00     0.135 A 
ATOM     71  F   UNL A   1      45.600  29.459  34.648  1.00  0.00    -0.206 F 
ATOM     72  C   UNL A   1      46.220  27.655  36.010  1.00  0.00     0.059 A 
ATOM     73  C   UNL A   1      44.513  26.346  37.136  1.00  0.00     0.059 A 
ATOM     74  F   UNL A   1      42.248  26.866  36.822  1.00  0.00    -0.206 F 
ATOM     75  C   UNL A   1      45.853  26.593  36.837  1.00  0.00     0.060 A 
BRANCH  75  76
ATOM     76  S   UNL A   1      47.152  25.539  37.516  1.00  0.00     0.124 S 
ATOM     77  O   UNL A   1      47.014  25.795  38.946  1.00  0.00    -0.237 OA
ATOM     78  O   UNL A   1      46.746  24.211  37.070  1.00  0.00    -0.237 OA
ATOM     79  O   UNL A   1      48.367  26.059  36.899  1.00  0.00    -0.744 OA
ENDBRANCH  75  76
ENDBRANCH  54  68
BRANCH  55  80
ATOM     80  C   UNL A   1      36.564  33.260  31.043  1.00  0.00     0.058 A 
ATOM     81  C   UNL A   1      36.814  34.081  29.934  1.00  0.00     0.135 A 
ATOM     82  C   UNL A   1      35.233  33.114  31.462  1.00  0.00     0.135 A 
ATOM     83  F   UNL A   1      38.071  34.253  29.497  1.00  0.00    -0.206 F 
ATOM     84  C   UNL A   1      35.786  34.744  29.271  1.00  0.00     0.059 A 
ATOM     85  C   UNL A   1      34.185  33.748  30.801  1.00  0.00     0.059 A 
ATOM     86  F   UNL A   1      34.940  32.321  32.504  1.00  0.00    -0.206 F 
ATOM     87  C   UNL A   1      34.474  34.568  29.711  1.00  0.00     0.060 A 
BRANCH  87  88
ATOM     88  S   UNL A   1      33.141  35.383  28.803  1.00  0.00     0.124 S 
ATOM     89  O   UNL A   1      33.877  36.373  28.027  1.00  0.00    -0.237 OA
ATOM     90  O   UNL A   1      32.564  34.277  28.044  1.00  0.00    -0.237 OA
ATOM     91  O   UNL A   1      32.289  35.915  29.863  1.00  0.00    -0.744 OA
ENDBRANCH  87  88
ENDBRANCH  55  80
BRANCH  67  92
ATOM     92  C   UNL A   1      40.005  34.175  37.045  1.00  0.00     0.058 A 
ATOM     93  C   UNL A   1      40.684  35.394  36.899  1.00  0.00     0.135 A 
ATOM     94  C   UNL A   1      39.220  33.991  38.194  1.00  0.00     0.135 A 
ATOM     95  F   UNL A   1      41.450  35.617  35.819  1.00  0.00    -0.206 F 
ATOM     96  C   UNL A   1      40.613  36.383  37.873  1.00  0.00     0.059 A 
ATOM     97  C   UNL A   1      39.114  34.976  39.169  1.00  0.00     0.059 A 
ATOM     98  F   UNL A   1      38.541  32.847  38.372  1.00  0.00    -0.206 F 
ATOM     99  C   UNL A   1      39.826  36.163  39.007  1.00  0.00     0.060 A 
BRANCH  99 100
ATOM    100  S   UNL A   1      39.727  37.460  40.259  1.00  0.00     0.124 S 
ATOM    101  O   UNL A   1      41.107  37.519  40.729  1.00  0.00    -0.237 OA
ATOM    102  O   UNL A   1      39.269  38.610  39.486  1.00  0.00    -0.237 OA
ATOM    103  O   UNL A   1      38.758  36.931  41.216  1.00  0.00    -0.744 OA
ENDBRANCH  99 100
ENDBRANCH  67  92
ENDBRANCH  41  42
ENDBRANCH  33  36
ENDBRANCH  31  32
ENDBRANCH  30  31
ENDBRANCH   1  30
TORSDOF 19
ENDMDL
