MODEL 1
REMARK VINA RESULT:     -11.0      0.000      0.000
REMARK SMILES O=C(CCS[C@H]1CC(=O)c2ccccc2C1=O)NCCCNC(=O)c1ccc(-c2c3nc(c(-c4c(F)cc(S(=O)(=O)[O-])cc4F)c4ccc([nH]4)c(-c4c(F)cc(S(=O)(=O)[O-])cc4F)c4nc(c(-c5c(F)cc(S(=O)(=O)[O-])cc5F)c5ccc2[nH]5)C=C4)C=C3)cc1
REMARK SMILES IDX 20 1 19 2 18 3 1 4 2 5 3 7 4 8 5 9 6 10 7 11 16 12 8 13
REMARK SMILES IDX 15 14 17 15 9 16 10 17 14 18 11 19 13 20 12 21 21 22 22 23
REMARK SMILES IDX 23 24 24 26 25 27 26 28 90 29 27 30 89 31 28 32 29 33 30 34
REMARK SMILES IDX 83 35 31 36 88 37 82 38 84 39 32 40 87 41 81 42 80 43 33 45
REMARK SMILES IDX 67 46 46 47 66 48 47 49 50 50 65 51 85 52 48 53 49 54 64 56
REMARK SMILES IDX 86 57 51 58 34 59 35 60 44 61 36 62 37 63 43 64 45 65 38 66
REMARK SMILES IDX 39 67 40 68 41 69 42 70 68 71 69 72 78 73 70 74 71 75 77 76
REMARK SMILES IDX 79 77 72 78 73 79 74 80 75 81 76 82 52 83 53 84 62 85 54 86
REMARK SMILES IDX 55 87 61 88 63 89 56 90 57 91 58 92 59 93 60 94
REMARK H PARENT 18 6 22 25 84 44 50 55
REMARK Flexibility Score: inf
ROOT
ATOM      1  C   UNL A   1      33.862  28.523  25.795  1.00  0.00     0.042 C 
ENDROOT
BRANCH   1   2
ATOM      2  C   UNL A   1      32.664  28.069  24.971  1.00  0.00     0.117 C 
BRANCH   2   3
ATOM      3  N   UNL A   1      32.949  26.876  24.201  1.00  0.00    -0.356 N 
ATOM      4  O   UNL A   1      33.247  27.898  22.164  1.00  0.00    -0.275 OA
ATOM      5  C   UNL A   1      33.222  26.886  22.856  1.00  0.00     0.220 C 
ATOM      6  H   UNL A   1      32.946  26.009  24.670  1.00  0.00     0.163 HD
BRANCH   5   7
ATOM      7  C   UNL A   1      33.510  25.515  22.279  1.00  0.00     0.111 C 
BRANCH   7   8
ATOM      8  C   UNL A   1      32.477  24.479  22.702  1.00  0.00     0.080 C 
BRANCH   8   9
ATOM      9  S   UNL A   1      33.141  22.798  22.983  1.00  0.00    -0.149 SA
BRANCH   9  10
ATOM     10  C   UNL A   1      32.979  22.654  24.815  1.00  0.00     0.126 C 
ATOM     11  C   UNL A   1      33.143  21.213  25.264  1.00  0.00     0.104 C 
ATOM     12  C   UNL A   1      34.045  23.526  25.448  1.00  0.00     0.176 C 
ATOM     13  C   UNL A   1      34.537  20.691  25.011  1.00  0.00     0.165 C 
ATOM     14  C   UNL A   1      35.411  22.958  25.562  1.00  0.00     0.030 A 
ATOM     15  O   UNL A   1      33.830  24.700  25.739  1.00  0.00    -0.293 OA
ATOM     16  O   UNL A   1      34.747  19.515  24.730  1.00  0.00    -0.294 OA
ATOM     17  C   UNL A   1      35.663  21.628  25.230  1.00  0.00     0.028 A 
ATOM     18  C   UNL A   1      36.472  23.798  25.907  1.00  0.00     0.012 A 
ATOM     19  C   UNL A   1      36.982  21.169  25.140  1.00  0.00     0.012 A 
ATOM     20  C   UNL A   1      37.786  23.339  25.830  1.00  0.00     0.001 A 
ATOM     21  C   UNL A   1      38.042  22.033  25.420  1.00  0.00     0.001 A 
ENDBRANCH   9  10
ENDBRANCH   8   9
ENDBRANCH   7   8
ENDBRANCH   5   7
ENDBRANCH   2   3
ENDBRANCH   1   2
BRANCH   1  22
ATOM     22  C   UNL A   1      33.610  28.624  27.296  1.00  0.00     0.118 C 
BRANCH  22  23
ATOM     23  N   UNL A   1      33.628  29.985  27.815  1.00  0.00    -0.352 N 
ATOM     24  C   UNL A   1      34.648  30.686  28.422  1.00  0.00     0.251 C 
ATOM     25  H   UNL A   1      32.784  30.481  27.716  1.00  0.00     0.163 HD
ATOM     26  O   UNL A   1      34.428  31.818  28.848  1.00  0.00    -0.269 OA
BRANCH  24  27
ATOM     27  C   UNL A   1      35.997  30.091  28.589  1.00  0.00     0.039 A 
ATOM     28  C   UNL A   1      36.416  29.546  29.804  1.00  0.00     0.014 A 
ATOM     29  C   UNL A   1      36.869  30.077  27.492  1.00  0.00     0.014 A 
ATOM     30  C   UNL A   1      37.729  29.128  29.973  1.00  0.00     0.010 A 
ATOM     31  C   UNL A   1      38.181  29.619  27.646  1.00  0.00     0.010 A 
ATOM     32  C   UNL A   1      38.631  29.197  28.905  1.00  0.00    -0.014 A 
BRANCH  32  33
ATOM     33  C   UNL A   1      40.064  28.957  29.189  1.00  0.00     0.031 A 
ATOM     34  C   UNL A   1      40.666  27.629  28.819  1.00  0.00     0.074 A 
ATOM     35  C   UNL A   1      40.837  29.967  29.628  1.00  0.00     0.049 A 
ATOM     36  N   UNL A   1      41.906  27.229  28.915  1.00  0.00    -0.248 NA
ATOM     37  C   UNL A   1      39.753  26.622  28.250  1.00  0.00     0.031 C 
ATOM     38  C   UNL A   1      40.362  31.317  29.937  1.00  0.00     0.029 A 
ATOM     39  N   UNL A   1      42.187  30.028  29.852  1.00  0.00    -0.354 N 
ATOM     40  C   UNL A   1      41.923  25.929  28.426  1.00  0.00     0.074 A 
ATOM     41  C   UNL A   1      40.565  25.593  28.060  1.00  0.00     0.031 C 
ATOM     42  C   UNL A   1      41.413  32.084  30.272  1.00  0.00     0.029 A 
ATOM     43  C   UNL A   1      42.625  31.270  30.247  1.00  0.00     0.049 A 
ATOM     44  H   UNL A   1      42.788  29.256  29.740  1.00  0.00     0.167 HD
ATOM     45  C   UNL A   1      42.979  25.094  28.284  1.00  0.00     0.037 A 
ATOM     46  C   UNL A   1      43.863  31.696  30.564  1.00  0.00     0.037 A 
ATOM     47  C   UNL A   1      44.327  25.444  28.645  1.00  0.00     0.049 A 
ATOM     48  C   UNL A   1      45.006  30.723  30.480  1.00  0.00     0.074 A 
ATOM     49  C   UNL A   1      45.466  24.664  28.577  1.00  0.00     0.029 A 
ATOM     50  N   UNL A   1      44.715  26.683  29.135  1.00  0.00    -0.354 N 
ATOM     51  N   UNL A   1      44.999  29.479  30.062  1.00  0.00    -0.248 NA
ATOM     52  C   UNL A   1      46.322  31.202  30.925  1.00  0.00     0.031 C 
ATOM     53  C   UNL A   1      46.540  25.419  29.062  1.00  0.00     0.029 A 
ATOM     54  C   UNL A   1      46.075  26.683  29.391  1.00  0.00     0.049 A 
ATOM     55  H   UNL A   1      44.113  27.448  29.279  1.00  0.00     0.167 HD
ATOM     56  C   UNL A   1      46.308  29.029  30.186  1.00  0.00     0.074 A 
ATOM     57  C   UNL A   1      47.084  30.139  30.699  1.00  0.00     0.031 C 
ATOM     58  C   UNL A   1      46.822  27.804  29.907  1.00  0.00     0.037 A 
BRANCH  45  59
ATOM     59  C   UNL A   1      42.711  23.719  27.745  1.00  0.00     0.058 A 
ATOM     60  C   UNL A   1      42.519  22.616  28.594  1.00  0.00     0.135 A 
ATOM     61  C   UNL A   1      42.624  23.502  26.361  1.00  0.00     0.135 A 
ATOM     62  F   UNL A   1      42.617  22.764  29.924  1.00  0.00    -0.206 F 
ATOM     63  C   UNL A   1      42.268  21.345  28.088  1.00  0.00     0.059 A 
ATOM     64  C   UNL A   1      42.352  22.242  25.833  1.00  0.00     0.059 A 
ATOM     65  F   UNL A   1      42.808  24.520  25.505  1.00  0.00    -0.206 F 
ATOM     66  C   UNL A   1      42.187  21.168  26.706  1.00  0.00     0.060 A 
BRANCH  66  67
ATOM     67  S   UNL A   1      41.860  19.512  26.066  1.00  0.00     0.124 S 
ATOM     68  O   UNL A   1      42.717  19.481  24.885  1.00  0.00    -0.237 OA
ATOM     69  O   UNL A   1      42.281  18.662  27.176  1.00  0.00    -0.237 OA
ATOM     70  O   UNL A   1      40.426  19.525  25.800  1.00  0.00    -0.744 OA
ENDBRANCH  66  67
ENDBRANCH  45  59
BRANCH  46  71
ATOM     71  C   UNL A   1      44.075  33.101  31.003  1.00  0.00     0.058 A 
ATOM     72  C   UNL A   1      44.226  34.139  30.072  1.00  0.00     0.135 A 
ATOM     73  C   UNL A   1      44.106  33.438  32.366  1.00  0.00     0.135 A 
ATOM     74  F   UNL A   1      44.214  33.868  28.758  1.00  0.00    -0.206 F 
ATOM     75  C   UNL A   1      44.399  35.460  30.474  1.00  0.00     0.059 A 
ATOM     76  C   UNL A   1      44.254  34.753  32.793  1.00  0.00     0.059 A 
ATOM     77  F   UNL A   1      43.958  32.485  33.298  1.00  0.00    -0.206 F 
ATOM     78  C   UNL A   1      44.405  35.758  31.838  1.00  0.00     0.060 A 
BRANCH  78  79
ATOM     79  S   UNL A   1      44.565  37.484  32.349  1.00  0.00     0.124 S 
ATOM     80  O   UNL A   1      43.346  37.675  33.126  1.00  0.00    -0.237 OA
ATOM     81  O   UNL A   1      45.810  37.461  33.111  1.00  0.00    -0.237 OA
ATOM     82  O   UNL A   1      44.627  38.205  31.082  1.00  0.00    -0.744 OA
ENDBRANCH  78  79
ENDBRANCH  46  71
BRANCH  58  83
ATOM     83  C   UNL A   1      48.290  27.602  30.149  1.00  0.00     0.058 A 
ATOM     84  C   UNL A   1      48.763  27.065  31.356  1.00  0.00     0.135 A 
ATOM     85  C   UNL A   1      49.224  27.875  29.136  1.00  0.00     0.135 A 
ATOM     86  F   UNL A   1      47.909  26.792  32.355  1.00  0.00    -0.206 F 
ATOM     87  C   UNL A   1      50.116  26.816  31.556  1.00  0.00     0.059 A 
ATOM     88  C   UNL A   1      50.578  27.613  29.307  1.00  0.00     0.059 A 
ATOM     89  F   UNL A   1      48.818  28.380  27.961  1.00  0.00    -0.206 F 
ATOM     90  C   UNL A   1      51.016  27.090  30.524  1.00  0.00     0.060 A 
BRANCH  90  91
ATOM     91  S   UNL A   1      52.764  26.718  30.782  1.00  0.00     0.124 S 
ATOM     92  O   UNL A   1      53.218  26.477  29.417  1.00  0.00    -0.237 OA
ATOM     93  O   UNL A   1      53.253  27.945  31.405  1.00  0.00    -0.237 OA
ATOM     94  O   UNL A   1      52.736  25.547  31.652  1.00  0.00    -0.744 OA
ENDBRANCH  90  91
ENDBRANCH  58  83
ENDBRANCH  32  33
ENDBRANCH  24  27
ENDBRANCH  22  23
ENDBRANCH   1  22
TORSDOF 16
ENDMDL
MODEL 2
REMARK VINA RESULT:     -10.9      1.149      8.477
REMARK SMILES O=C(CCS[C@H]1CC(=O)c2ccccc2C1=O)NCCCNC(=O)c1ccc(-c2c3nc(c(-c4c(F)cc(S(=O)(=O)[O-])cc4F)c4ccc([nH]4)c(-c4c(F)cc(S(=O)(=O)[O-])cc4F)c4nc(c(-c5c(F)cc(S(=O)(=O)[O-])cc5F)c5ccc2[nH]5)C=C4)C=C3)cc1
REMARK SMILES IDX 20 1 19 2 18 3 1 4 2 5 3 7 4 8 5 9 6 10 7 11 16 12 8 13
REMARK SMILES IDX 15 14 17 15 9 16 10 17 14 18 11 19 13 20 12 21 21 22 22 23
REMARK SMILES IDX 23 24 24 26 25 27 26 28 90 29 27 30 89 31 28 32 29 33 30 34
REMARK SMILES IDX 83 35 31 36 88 37 82 38 84 39 32 40 87 41 81 42 80 43 33 45
REMARK SMILES IDX 67 46 46 47 66 48 47 49 50 50 65 51 85 52 48 53 49 54 64 56
REMARK SMILES IDX 86 57 51 58 34 59 35 60 44 61 36 62 37 63 43 64 45 65 38 66
REMARK SMILES IDX 39 67 40 68 41 69 42 70 68 71 69 72 78 73 70 74 71 75 77 76
REMARK SMILES IDX 79 77 72 78 73 79 74 80 75 81 76 82 52 83 53 84 62 85 54 86
REMARK SMILES IDX 55 87 61 88 63 89 56 90 57 91 58 92 59 93 60 94
REMARK H PARENT 18 6 22 25 84 44 50 55
REMARK Flexibility Score: inf
ROOT
ATOM      1  C   UNL A   1      32.107  28.206  27.665  1.00  0.00     0.042 C 
ENDROOT
BRANCH   1   2
ATOM      2  C   UNL A   1      31.382  27.625  26.457  1.00  0.00     0.117 C 
BRANCH   2   3
ATOM      3  N   UNL A   1      31.226  26.188  26.551  1.00  0.00    -0.356 N 
ATOM      4  O   UNL A   1      29.464  25.983  25.090  1.00  0.00    -0.275 OA
ATOM      5  C   UNL A   1      30.279  25.479  25.855  1.00  0.00     0.220 C 
ATOM      6  H   UNL A   1      31.834  25.692  27.148  1.00  0.00     0.163 HD
BRANCH   5   7
ATOM      7  C   UNL A   1      30.326  23.985  26.103  1.00  0.00     0.111 C 
BRANCH   7   8
ATOM      8  C   UNL A   1      31.140  23.248  25.048  1.00  0.00     0.080 C 
BRANCH   8   9
ATOM      9  S   UNL A   1      32.279  21.976  25.702  1.00  0.00    -0.149 SA
BRANCH   9  10
ATOM     10  C   UNL A   1      33.045  21.350  24.146  1.00  0.00     0.126 C 
ATOM     11  C   UNL A   1      33.304  22.485  23.171  1.00  0.00     0.104 C 
ATOM     12  C   UNL A   1      34.346  20.662  24.509  1.00  0.00     0.176 C 
ATOM     13  C   UNL A   1      34.341  23.454  23.685  1.00  0.00     0.165 C 
ATOM     14  C   UNL A   1      35.540  21.523  24.705  1.00  0.00     0.030 A 
ATOM     15  O   UNL A   1      34.395  19.461  24.760  1.00  0.00    -0.293 OA
ATOM     16  O   UNL A   1      34.293  24.652  23.423  1.00  0.00    -0.294 OA
ATOM     17  C   UNL A   1      35.492  22.887  24.426  1.00  0.00     0.028 A 
ATOM     18  C   UNL A   1      36.690  20.973  25.274  1.00  0.00     0.012 A 
ATOM     19  C   UNL A   1      36.550  23.717  24.813  1.00  0.00     0.012 A 
ATOM     20  C   UNL A   1      37.751  21.796  25.650  1.00  0.00     0.001 A 
ATOM     21  C   UNL A   1      37.669  23.171  25.444  1.00  0.00     0.001 A 
ENDBRANCH   9  10
ENDBRANCH   8   9
ENDBRANCH   7   8
ENDBRANCH   5   7
ENDBRANCH   2   3
ENDBRANCH   1   2
BRANCH   1  22
ATOM     22  C   UNL A   1      33.420  28.916  27.348  1.00  0.00     0.118 C 
BRANCH  22  23
ATOM     23  N   UNL A   1      33.535  30.246  27.931  1.00  0.00    -0.352 N 
ATOM     24  C   UNL A   1      34.624  30.870  28.500  1.00  0.00     0.251 C 
ATOM     25  H   UNL A   1      32.710  30.782  27.916  1.00  0.00     0.163 HD
ATOM     26  O   UNL A   1      34.486  31.986  28.997  1.00  0.00    -0.269 OA
BRANCH  24  27
ATOM     27  C   UNL A   1      35.953  30.210  28.543  1.00  0.00     0.039 A 
ATOM     28  C   UNL A   1      36.431  29.593  29.700  1.00  0.00     0.014 A 
ATOM     29  C   UNL A   1      36.743  30.208  27.386  1.00  0.00     0.014 A 
ATOM     30  C   UNL A   1      37.732  29.111  29.755  1.00  0.00     0.010 A 
ATOM     31  C   UNL A   1      38.040  29.687  27.425  1.00  0.00     0.010 A 
ATOM     32  C   UNL A   1      38.558  29.189  28.629  1.00  0.00    -0.014 A 
BRANCH  32  33
ATOM     33  C   UNL A   1      39.995  28.875  28.797  1.00  0.00     0.031 A 
ATOM     34  C   UNL A   1      40.877  29.865  29.507  1.00  0.00     0.074 A 
ATOM     35  C   UNL A   1      40.459  27.659  28.453  1.00  0.00     0.049 A 
ATOM     36  N   UNL A   1      42.142  29.767  29.821  1.00  0.00    -0.248 NA
ATOM     37  C   UNL A   1      40.249  31.127  29.934  1.00  0.00     0.031 C 
ATOM     38  C   UNL A   1      39.661  26.598  27.833  1.00  0.00     0.029 A 
ATOM     39  N   UNL A   1      41.698  27.097  28.611  1.00  0.00    -0.354 N 
ATOM     40  C   UNL A   1      42.461  30.950  30.476  1.00  0.00     0.074 A 
ATOM     41  C   UNL A   1      41.267  31.766  30.490  1.00  0.00     0.031 C 
ATOM     42  C   UNL A   1      40.423  25.500  27.702  1.00  0.00     0.029 A 
ATOM     43  C   UNL A   1      41.771  25.793  28.181  1.00  0.00     0.049 A 
ATOM     44  H   UNL A   1      42.465  27.580  28.997  1.00  0.00     0.167 HD
ATOM     45  C   UNL A   1      43.642  31.318  31.026  1.00  0.00     0.037 A 
ATOM     46  C   UNL A   1      42.812  24.938  28.168  1.00  0.00     0.037 A 
ATOM     47  C   UNL A   1      44.820  30.493  31.013  1.00  0.00     0.049 A 
ATOM     48  C   UNL A   1      44.136  25.403  28.708  1.00  0.00     0.074 A 
ATOM     49  C   UNL A   1      46.078  30.781  31.509  1.00  0.00     0.029 A 
ATOM     50  N   UNL A   1      44.880  29.213  30.480  1.00  0.00    -0.354 N 
ATOM     51  N   UNL A   1      44.437  26.544  29.280  1.00  0.00    -0.248 NA
ATOM     52  C   UNL A   1      45.267  24.473  28.587  1.00  0.00     0.031 C 
ATOM     53  C   UNL A   1      46.911  29.689  31.242  1.00  0.00     0.029 A 
ATOM     54  C   UNL A   1      46.159  28.704  30.619  1.00  0.00     0.049 A 
ATOM     55  H   UNL A   1      44.125  28.738  30.065  1.00  0.00     0.167 HD
ATOM     56  C   UNL A   1      45.788  26.468  29.595  1.00  0.00     0.074 A 
ATOM     57  C   UNL A   1      46.242  25.161  29.168  1.00  0.00     0.031 C 
ATOM     58  C   UNL A   1      46.584  27.399  30.179  1.00  0.00     0.037 A 
BRANCH  45  59
ATOM     59  C   UNL A   1      43.720  32.678  31.659  1.00  0.00     0.058 A 
ATOM     60  C   UNL A   1      43.351  32.892  32.997  1.00  0.00     0.135 A 
ATOM     61  C   UNL A   1      44.188  33.778  30.924  1.00  0.00     0.135 A 
ATOM     62  F   UNL A   1      42.872  31.879  33.736  1.00  0.00    -0.206 F 
ATOM     63  C   UNL A   1      43.428  34.154  33.578  1.00  0.00     0.059 A 
ATOM     64  C   UNL A   1      44.294  35.045  31.493  1.00  0.00     0.059 A 
ATOM     65  F   UNL A   1      44.545  33.630  29.639  1.00  0.00    -0.206 F 
ATOM     66  C   UNL A   1      43.900  35.224  32.818  1.00  0.00     0.060 A 
BRANCH  66  67
ATOM     67  S   UNL A   1      43.994  36.854  33.588  1.00  0.00     0.124 S 
ATOM     68  O   UNL A   1      43.085  36.695  34.719  1.00  0.00    -0.237 OA
ATOM     69  O   UNL A   1      45.410  36.958  33.924  1.00  0.00    -0.237 OA
ATOM     70  O   UNL A   1      43.534  37.756  32.536  1.00  0.00    -0.744 OA
ENDBRANCH  66  67
ENDBRANCH  45  59
BRANCH  46  71
ATOM     71  C   UNL A   1      42.641  23.570  27.611  1.00  0.00     0.058 A 
ATOM     72  C   UNL A   1      42.786  23.319  26.239  1.00  0.00     0.135 A 
ATOM     73  C   UNL A   1      42.351  22.478  28.446  1.00  0.00     0.135 A 
ATOM     74  F   UNL A   1      43.053  24.330  25.397  1.00  0.00    -0.206 F 
ATOM     75  C   UNL A   1      42.653  22.037  25.713  1.00  0.00     0.059 A 
ATOM     76  C   UNL A   1      42.237  21.185  27.949  1.00  0.00     0.059 A 
ATOM     77  F   UNL A   1      42.210  22.661  29.768  1.00  0.00    -0.206 F 
ATOM     78  C   UNL A   1      42.384  20.974  26.579  1.00  0.00     0.060 A 
BRANCH  78  79
ATOM     79  S   UNL A   1      42.278  19.305  25.896  1.00  0.00     0.124 S 
ATOM     80  O   UNL A   1      43.101  19.424  24.699  1.00  0.00    -0.237 OA
ATOM     81  O   UNL A   1      42.836  18.499  26.978  1.00  0.00    -0.237 OA
ATOM     82  O   UNL A   1      40.848  19.127  25.666  1.00  0.00    -0.744 OA
ENDBRANCH  78  79
ENDBRANCH  46  71
BRANCH  58  83
ATOM     83  C   UNL A   1      48.027  27.036  30.391  1.00  0.00     0.058 A 
ATOM     84  C   UNL A   1      49.020  27.435  29.485  1.00  0.00     0.135 A 
ATOM     85  C   UNL A   1      48.426  26.350  31.549  1.00  0.00     0.135 A 
ATOM     86  F   UNL A   1      48.686  28.089  28.361  1.00  0.00    -0.206 F 
ATOM     87  C   UNL A   1      50.363  27.156  29.713  1.00  0.00     0.059 A 
ATOM     88  C   UNL A   1      49.765  26.080  31.809  1.00  0.00     0.059 A 
ATOM     89  F   UNL A   1      47.513  25.956  32.451  1.00  0.00    -0.206 F 
ATOM     90  C   UNL A   1      50.726  26.481  30.881  1.00  0.00     0.060 A 
BRANCH  90  91
ATOM     91  S   UNL A   1      52.477  26.168  31.185  1.00  0.00     0.124 S 
ATOM     92  O   UNL A   1      52.429  24.887  31.883  1.00  0.00    -0.237 OA
ATOM     93  O   UNL A   1      53.026  26.132  29.833  1.00  0.00    -0.237 OA
ATOM     94  O   UNL A   1      52.891  27.310  31.994  1.00  0.00    -0.744 OA
ENDBRANCH  90  91
ENDBRANCH  58  83
ENDBRANCH  32  33
ENDBRANCH  24  27
ENDBRANCH  22  23
ENDBRANCH   1  22
TORSDOF 16
ENDMDL
MODEL 3
REMARK VINA RESULT:     -10.9      5.104     10.096
REMARK SMILES O=C(CCS[C@H]1CC(=O)c2ccccc2C1=O)NCCCNC(=O)c1ccc(-c2c3nc(c(-c4c(F)cc(S(=O)(=O)[O-])cc4F)c4ccc([nH]4)c(-c4c(F)cc(S(=O)(=O)[O-])cc4F)c4nc(c(-c5c(F)cc(S(=O)(=O)[O-])cc5F)c5ccc2[nH]5)C=C4)C=C3)cc1
REMARK SMILES IDX 20 1 19 2 18 3 1 4 2 5 3 7 4 8 5 9 6 10 7 11 16 12 8 13
REMARK SMILES IDX 15 14 17 15 9 16 10 17 14 18 11 19 13 20 12 21 21 22 22 23
REMARK SMILES IDX 23 24 24 26 25 27 26 28 90 29 27 30 89 31 28 32 29 33 30 34
REMARK SMILES IDX 83 35 31 36 88 37 82 38 84 39 32 40 87 41 81 42 80 43 33 45
REMARK SMILES IDX 67 46 46 47 66 48 47 49 50 50 65 51 85 52 48 53 49 54 64 56
REMARK SMILES IDX 86 57 51 58 34 59 35 60 44 61 36 62 37 63 43 64 45 65 38 66
REMARK SMILES IDX 39 67 40 68 41 69 42 70 68 71 69 72 78 73 70 74 71 75 77 76
REMARK SMILES IDX 79 77 72 78 73 79 74 80 75 81 76 82 52 83 53 84 62 85 54 86
REMARK SMILES IDX 55 87 61 88 63 89 56 90 57 91 58 92 59 93 60 94
REMARK H PARENT 18 6 22 25 84 44 50 55
REMARK Flexibility Score: inf
ROOT
ATOM      1  C   UNL A   1      41.915  21.933  26.676  1.00  0.00     0.042 C 
ENDROOT
BRANCH   1   2
ATOM      2  C   UNL A   1      40.629  21.722  27.465  1.00  0.00     0.117 C 
BRANCH   2   3
ATOM      3  N   UNL A   1      39.543  22.544  26.971  1.00  0.00    -0.356 N 
ATOM      4  O   UNL A   1      38.699  21.042  25.449  1.00  0.00    -0.275 OA
ATOM      5  C   UNL A   1      38.660  22.136  26.003  1.00  0.00     0.220 C 
ATOM      6  H   UNL A   1      39.432  23.446  27.353  1.00  0.00     0.163 HD
BRANCH   5   7
ATOM      7  C   UNL A   1      37.598  23.163  25.669  1.00  0.00     0.111 C 
BRANCH   7   8
ATOM      8  C   UNL A   1      36.190  22.650  25.940  1.00  0.00     0.080 C 
BRANCH   8   9
ATOM      9  S   UNL A   1      35.174  22.362  24.446  1.00  0.00    -0.149 SA
BRANCH   9  10
ATOM     10  C   UNL A   1      33.473  22.424  25.156  1.00  0.00     0.126 C 
ATOM     11  C   UNL A   1      32.431  22.574  24.061  1.00  0.00     0.104 C 
ATOM     12  C   UNL A   1      33.243  21.141  25.929  1.00  0.00     0.176 C 
ATOM     13  C   UNL A   1      32.372  21.363  23.160  1.00  0.00     0.165 C 
ATOM     14  C   UNL A   1      32.835  19.943  25.154  1.00  0.00     0.030 A 
ATOM     15  O   UNL A   1      33.504  21.052  27.126  1.00  0.00    -0.293 OA
ATOM     16  O   UNL A   1      32.100  21.458  21.967  1.00  0.00    -0.294 OA
ATOM     17  C   UNL A   1      32.539  20.036  23.796  1.00  0.00     0.028 A 
ATOM     18  C   UNL A   1      32.848  18.692  25.775  1.00  0.00     0.012 A 
ATOM     19  C   UNL A   1      32.364  18.872  23.038  1.00  0.00     0.012 A 
ATOM     20  C   UNL A   1      32.662  17.532  25.025  1.00  0.00     0.001 A 
ATOM     21  C   UNL A   1      32.447  17.621  23.652  1.00  0.00     0.001 A 
ENDBRANCH   9  10
ENDBRANCH   8   9
ENDBRANCH   7   8
ENDBRANCH   5   7
ENDBRANCH   2   3
ENDBRANCH   1   2
BRANCH   1  22
ATOM     22  C   UNL A   1      42.562  23.303  26.853  1.00  0.00     0.118 C 
BRANCH  22  23
ATOM     23  N   UNL A   1      42.181  24.279  25.840  1.00  0.00    -0.352 N 
ATOM     24  C   UNL A   1      41.727  25.571  25.984  1.00  0.00     0.251 C 
ATOM     25  H   UNL A   1      42.262  23.968  24.909  1.00  0.00     0.163 HD
ATOM     26  O   UNL A   1      41.397  26.208  24.986  1.00  0.00    -0.269 OA
BRANCH  24  27
ATOM     27  C   UNL A   1      41.608  26.200  27.324  1.00  0.00     0.039 A 
ATOM     28  C   UNL A   1      40.532  25.930  28.170  1.00  0.00     0.014 A 
ATOM     29  C   UNL A   1      42.609  27.084  27.745  1.00  0.00     0.014 A 
ATOM     30  C   UNL A   1      40.371  26.638  29.353  1.00  0.00     0.010 A 
ATOM     31  C   UNL A   1      42.472  27.771  28.956  1.00  0.00     0.010 A 
ATOM     32  C   UNL A   1      41.322  27.591  29.736  1.00  0.00    -0.014 A 
BRANCH  32  33
ATOM     33  C   UNL A   1      40.999  28.477  30.878  1.00  0.00     0.031 A 
ATOM     34  C   UNL A   1      41.901  28.469  32.082  1.00  0.00     0.074 A 
ATOM     35  C   UNL A   1      40.004  29.376  30.767  1.00  0.00     0.049 A 
ATOM     36  N   UNL A   1      41.846  29.205  33.160  1.00  0.00    -0.248 NA
ATOM     37  C   UNL A   1      43.024  27.515  32.063  1.00  0.00     0.031 C 
ATOM     38  C   UNL A   1      39.125  29.519  29.604  1.00  0.00     0.029 A 
ATOM     39  N   UNL A   1      39.591  30.364  31.621  1.00  0.00    -0.354 N 
ATOM     40  C   UNL A   1      42.918  28.803  33.947  1.00  0.00     0.074 A 
ATOM     41  C   UNL A   1      43.592  27.738  33.238  1.00  0.00     0.031 C 
ATOM     42  C   UNL A   1      38.303  30.563  29.804  1.00  0.00     0.029 A 
ATOM     43  C   UNL A   1      38.564  31.130  31.124  1.00  0.00     0.049 A 
ATOM     44  H   UNL A   1      39.993  30.512  32.508  1.00  0.00     0.167 HD
ATOM     45  C   UNL A   1      43.311  29.288  35.148  1.00  0.00     0.037 A 
ATOM     46  C   UNL A   1      37.903  32.165  31.677  1.00  0.00     0.037 A 
ATOM     47  C   UNL A   1      42.637  30.355  35.837  1.00  0.00     0.049 A 
ATOM     48  C   UNL A   1      38.306  32.629  33.050  1.00  0.00     0.074 A 
ATOM     49  C   UNL A   1      42.928  30.901  37.074  1.00  0.00     0.029 A 
ATOM     50  N   UNL A   1      41.538  31.042  35.343  1.00  0.00    -0.354 N 
ATOM     51  N   UNL A   1      39.292  32.206  33.805  1.00  0.00    -0.248 NA
ATOM     52  C   UNL A   1      37.499  33.697  33.655  1.00  0.00     0.031 C 
ATOM     53  C   UNL A   1      41.981  31.893  37.345  1.00  0.00     0.029 A 
ATOM     54  C   UNL A   1      41.127  31.996  36.258  1.00  0.00     0.049 A 
ATOM     55  H   UNL A   1      41.113  30.877  34.471  1.00  0.00     0.167 HD
ATOM     56  C   UNL A   1      39.230  32.961  34.970  1.00  0.00     0.074 A 
ATOM     57  C   UNL A   1      38.122  33.880  34.813  1.00  0.00     0.031 C 
ATOM     58  C   UNL A   1      40.015  32.895  36.075  1.00  0.00     0.037 A 
BRANCH  45  59
ATOM     59  C   UNL A   1      44.505  28.650  35.798  1.00  0.00     0.058 A 
ATOM     60  C   UNL A   1      45.809  29.119  35.570  1.00  0.00     0.135 A 
ATOM     61  C   UNL A   1      44.342  27.567  36.676  1.00  0.00     0.135 A 
ATOM     62  F   UNL A   1      46.023  30.134  34.719  1.00  0.00    -0.206 F 
ATOM     63  C   UNL A   1      46.911  28.523  36.177  1.00  0.00     0.059 A 
ATOM     64  C   UNL A   1      45.428  26.971  37.311  1.00  0.00     0.059 A 
ATOM     65  F   UNL A   1      43.118  27.074  36.921  1.00  0.00    -0.206 F 
ATOM     66  C   UNL A   1      46.710  27.450  37.046  1.00  0.00     0.060 A 
BRANCH  66  67
ATOM     67  S   UNL A   1      48.150  26.690  37.826  1.00  0.00     0.124 S 
ATOM     68  O   UNL A   1      49.235  27.515  37.302  1.00  0.00    -0.237 OA
ATOM     69  O   UNL A   1      47.858  26.856  39.246  1.00  0.00    -0.237 OA
ATOM     70  O   UNL A   1      48.118  25.315  37.338  1.00  0.00    -0.744 OA
ENDBRANCH  66  67
ENDBRANCH  45  59
BRANCH  46  71
ATOM     71  C   UNL A   1      36.789  32.815  30.938  1.00  0.00     0.058 A 
ATOM     72  C   UNL A   1      35.452  32.488  31.202  1.00  0.00     0.135 A 
ATOM     73  C   UNL A   1      37.041  33.797  29.966  1.00  0.00     0.135 A 
ATOM     74  F   UNL A   1      35.159  31.548  32.114  1.00  0.00    -0.206 F 
ATOM     75  C   UNL A   1      34.402  33.110  30.532  1.00  0.00     0.059 A 
ATOM     76  C   UNL A   1      36.009  34.451  29.299  1.00  0.00     0.059 A 
ATOM     77  F   UNL A   1      38.302  34.154  29.680  1.00  0.00    -0.206 F 
ATOM     78  C   UNL A   1      34.692  34.096  29.586  1.00  0.00     0.060 A 
BRANCH  78  79
ATOM     79  S   UNL A   1      33.322  34.944  28.769  1.00  0.00     0.124 S 
ATOM     80  O   UNL A   1      34.002  36.074  28.150  1.00  0.00    -0.237 OA
ATOM     81  O   UNL A   1      32.830  33.916  27.855  1.00  0.00    -0.237 OA
ATOM     82  O   UNL A   1      32.424  35.272  29.872  1.00  0.00    -0.744 OA
ENDBRANCH  78  79
ENDBRANCH  46  71
BRANCH  58  83
ATOM     83  C   UNL A   1      39.704  33.843  37.199  1.00  0.00     0.058 A 
ATOM     84  C   UNL A   1      38.848  33.475  38.248  1.00  0.00     0.135 A 
ATOM     85  C   UNL A   1      40.327  35.100  37.264  1.00  0.00     0.135 A 
ATOM     86  F   UNL A   1      38.226  32.285  38.226  1.00  0.00    -0.206 F 
ATOM     87  C   UNL A   1      38.610  34.326  39.321  1.00  0.00     0.059 A 
ATOM     88  C   UNL A   1      40.121  35.958  38.338  1.00  0.00     0.059 A 
ATOM     89  F   UNL A   1      41.161  35.492  36.290  1.00  0.00    -0.206 F 
ATOM     90  C   UNL A   1      39.255  35.564  39.359  1.00  0.00     0.060 A 
BRANCH  90  91
ATOM     91  S   UNL A   1      38.972  36.639  40.782  1.00  0.00     0.124 S 
ATOM     92  O   UNL A   1      38.359  37.804  40.153  1.00  0.00    -0.237 OA
ATOM     93  O   UNL A   1      38.088  35.828  41.613  1.00  0.00    -0.237 OA
ATOM     94  O   UNL A   1      40.312  36.848  41.321  1.00  0.00    -0.744 OA
ENDBRANCH  90  91
ENDBRANCH  58  83
ENDBRANCH  32  33
ENDBRANCH  24  27
ENDBRANCH  22  23
ENDBRANCH   1  22
TORSDOF 16
ENDMDL
