MODEL 1
REMARK VINA RESULT:     -12.9      0.000      0.000
REMARK SMILES O=C(NCCCNC(=O)c1ccc(S(=O)(=O)N[C@@H]2CC[N@H+]3CCC[C@H]23)cc1)c1ccc(-c2c3nc(c(-c4c(F)cc(S(=O)(=O)[O-])cc4F)c4ccc([nH]4)c(-c4c(F)cc(S(=O)(=O)[O-])cc4F)c4nc(c(-c5c(F)cc(S(=O)(=O)[O-])cc5F)c5ccc2[nH]5)C=C4)C=C3)cc1
REMARK SMILES IDX 5 1 4 2 3 3 1 4 2 5 28 7 29 8 93 9 30 10 92 11 31 12 32 13
REMARK SMILES IDX 33 14 86 15 34 16 91 17 85 18 87 19 35 20 90 21 84 22 83 23
REMARK SMILES IDX 36 25 70 26 49 27 69 28 50 29 53 30 68 31 88 32 51 33 52 34
REMARK SMILES IDX 67 36 89 37 54 38 37 39 38 40 47 41 39 42 40 43 46 44 48 45
REMARK SMILES IDX 41 46 42 47 43 48 44 49 45 50 71 51 72 52 81 53 73 54 74 55
REMARK SMILES IDX 80 56 82 57 75 58 76 59 77 60 78 61 79 62 55 63 56 64 65 65
REMARK SMILES IDX 57 66 58 67 64 68 66 69 59 70 60 71 61 72 62 73 63 74 6 75
REMARK SMILES IDX 7 76 8 77 9 79 10 80 11 81 27 82 12 83 26 84 13 85 14 86
REMARK SMILES IDX 15 87 16 88 17 89 18 91 19 92 25 93 20 94 21 95 24 96 22 97
REMARK SMILES IDX 23 99
REMARK H PARENT 3 6 87 24 53 35 7 78 17 90 21 98
REMARK Flexibility Score: inf
ROOT
ATOM      1  C   UNL A   1      39.163  22.170  26.358  1.00  0.00     0.042 C 
ENDROOT
BRANCH   1   2
ATOM      2  C   UNL A   1      40.052  23.186  27.053  1.00  0.00     0.118 C 
BRANCH   2   3
ATOM      3  N   UNL A   1      40.816  23.992  26.106  1.00  0.00    -0.352 N 
ATOM      4  O   UNL A   1      41.567  25.847  25.081  1.00  0.00    -0.269 OA
ATOM      5  C   UNL A   1      41.104  25.338  26.099  1.00  0.00     0.251 C 
ATOM      6  H   UNL A   1      41.187  23.490  25.345  1.00  0.00     0.163 HD
BRANCH   5   7
ATOM      7  C   UNL A   1      40.845  26.170  27.294  1.00  0.00     0.039 A 
ATOM      8  C   UNL A   1      41.591  27.323  27.528  1.00  0.00     0.014 A 
ATOM      9  C   UNL A   1      39.819  25.822  28.180  1.00  0.00     0.014 A 
ATOM     10  C   UNL A   1      41.460  28.001  28.728  1.00  0.00     0.010 A 
ATOM     11  C   UNL A   1      39.592  26.593  29.328  1.00  0.00     0.010 A 
ATOM     12  C   UNL A   1      40.437  27.670  29.630  1.00  0.00    -0.014 A 
BRANCH  12  13
ATOM     13  C   UNL A   1      40.254  28.537  30.824  1.00  0.00     0.031 A 
ATOM     14  C   UNL A   1      41.181  28.461  32.005  1.00  0.00     0.074 A 
ATOM     15  C   UNL A   1      39.287  29.477  30.776  1.00  0.00     0.049 A 
ATOM     16  N   UNL A   1      41.215  29.226  33.067  1.00  0.00    -0.248 NA
ATOM     17  C   UNL A   1      42.187  27.388  32.009  1.00  0.00     0.031 C 
ATOM     18  C   UNL A   1      38.306  29.619  29.693  1.00  0.00     0.029 A 
ATOM     19  N   UNL A   1      38.999  30.519  31.618  1.00  0.00    -0.354 N 
ATOM     20  C   UNL A   1      42.226  28.719  33.874  1.00  0.00     0.074 A 
ATOM     21  C   UNL A   1      42.770  27.566  33.188  1.00  0.00     0.031 C 
ATOM     22  C   UNL A   1      37.592  30.736  29.888  1.00  0.00     0.029 A 
ATOM     23  C   UNL A   1      38.014  31.351  31.139  1.00  0.00     0.049 A 
ATOM     24  H   UNL A   1      39.453  30.658  32.480  1.00  0.00     0.167 HD
ATOM     25  C   UNL A   1      42.661  29.178  35.072  1.00  0.00     0.037 A 
ATOM     26  C   UNL A   1      37.504  32.487  31.648  1.00  0.00     0.037 A 
ATOM     27  C   UNL A   1      42.128  30.341  35.735  1.00  0.00     0.049 A 
ATOM     28  C   UNL A   1      38.045  33.005  32.945  1.00  0.00     0.074 A 
ATOM     29  C   UNL A   1      42.495  30.884  36.955  1.00  0.00     0.029 A 
ATOM     30  N   UNL A   1      41.122  31.151  35.227  1.00  0.00    -0.354 N 
ATOM     31  N   UNL A   1      38.995  32.500  33.696  1.00  0.00    -0.248 NA
ATOM     32  C   UNL A   1      37.443  34.236  33.471  1.00  0.00     0.031 C 
ATOM     33  C   UNL A   1      41.698  32.011  37.193  1.00  0.00     0.029 A 
ATOM     34  C   UNL A   1      40.856  32.188  36.108  1.00  0.00     0.049 A 
ATOM     35  H   UNL A   1      40.665  31.011  34.366  1.00  0.00     0.167 HD
ATOM     36  C   UNL A   1      39.093  33.342  34.794  1.00  0.00     0.074 A 
ATOM     37  C   UNL A   1      38.137  34.413  34.587  1.00  0.00     0.031 C 
ATOM     38  C   UNL A   1      39.888  33.230  35.887  1.00  0.00     0.037 A 
BRANCH  25  39
ATOM     39  C   UNL A   1      43.766  28.418  35.751  1.00  0.00     0.058 A 
ATOM     40  C   UNL A   1      45.116  28.726  35.524  1.00  0.00     0.135 A 
ATOM     41  C   UNL A   1      43.472  27.404  36.676  1.00  0.00     0.135 A 
ATOM     42  F   UNL A   1      45.454  29.675  34.637  1.00  0.00    -0.206 F 
ATOM     43  C   UNL A   1      46.138  28.045  36.180  1.00  0.00     0.059 A 
ATOM     44  C   UNL A   1      44.476  26.721  37.357  1.00  0.00     0.059 A 
ATOM     45  F   UNL A   1      42.196  27.069  36.928  1.00  0.00    -0.206 F 
ATOM     46  C   UNL A   1      45.808  27.042  37.095  1.00  0.00     0.060 A 
BRANCH  46  47
ATOM     47  S   UNL A   1      47.141  26.175  37.950  1.00  0.00     0.124 S 
ATOM     48  O   UNL A   1      47.536  27.163  38.950  1.00  0.00    -0.237 OA
ATOM     49  O   UNL A   1      46.466  24.988  38.464  1.00  0.00    -0.237 OA
ATOM     50  O   UNL A   1      48.117  25.928  36.893  1.00  0.00    -0.744 OA
ENDBRANCH  46  47
ENDBRANCH  25  39
BRANCH  26  51
ATOM     51  C   UNL A   1      36.417  33.194  30.923  1.00  0.00     0.058 A 
ATOM     52  C   UNL A   1      35.091  33.147  31.374  1.00  0.00     0.135 A 
ATOM     53  C   UNL A   1      36.696  33.966  29.784  1.00  0.00     0.135 A 
ATOM     54  F   UNL A   1      34.776  32.421  32.458  1.00  0.00    -0.206 F 
ATOM     55  C   UNL A   1      34.075  33.833  30.716  1.00  0.00     0.059 A 
ATOM     56  C   UNL A   1      35.704  34.681  29.126  1.00  0.00     0.059 A 
ATOM     57  F   UNL A   1      37.955  34.060  29.328  1.00  0.00    -0.206 F 
ATOM     58  C   UNL A   1      34.392  34.600  29.593  1.00  0.00     0.060 A 
BRANCH  58  59
ATOM     59  S   UNL A   1      33.089  35.545  28.774  1.00  0.00     0.124 S 
ATOM     60  O   UNL A   1      32.419  34.506  28.001  1.00  0.00    -0.237 OA
ATOM     61  O   UNL A   1      32.337  36.086  29.903  1.00  0.00    -0.237 OA
ATOM     62  O   UNL A   1      33.835  36.533  28.000  1.00  0.00    -0.744 OA
ENDBRANCH  58  59
ENDBRANCH  26  51
BRANCH  38  63
ATOM     63  C   UNL A   1      39.733  34.290  36.936  1.00  0.00     0.058 A 
ATOM     64  C   UNL A   1      40.389  35.526  36.822  1.00  0.00     0.135 A 
ATOM     65  C   UNL A   1      38.930  34.069  38.065  1.00  0.00     0.135 A 
ATOM     66  F   UNL A   1      41.175  35.778  35.763  1.00  0.00    -0.206 F 
ATOM     67  C   UNL A   1      40.282  36.497  37.810  1.00  0.00     0.059 A 
ATOM     68  C   UNL A   1      38.792  35.035  39.057  1.00  0.00     0.059 A 
ATOM     69  F   UNL A   1      38.278  32.906  38.215  1.00  0.00    -0.206 F 
ATOM     70  C   UNL A   1      39.488  36.238  38.930  1.00  0.00     0.060 A 
BRANCH  70  71
ATOM     71  S   UNL A   1      39.356  37.501  40.213  1.00  0.00     0.124 S 
ATOM     72  O   UNL A   1      38.927  36.706  41.359  1.00  0.00    -0.237 OA
ATOM     73  O   UNL A   1      40.714  38.030  40.280  1.00  0.00    -0.237 OA
ATOM     74  O   UNL A   1      38.358  38.422  39.676  1.00  0.00    -0.744 OA
ENDBRANCH  70  71
ENDBRANCH  38  63
ENDBRANCH  12  13
ENDBRANCH   5   7
ENDBRANCH   2   3
ENDBRANCH   1   2
BRANCH   1  75
ATOM     75  C   UNL A   1      37.899  22.794  25.798  1.00  0.00     0.118 C 
BRANCH  75  76
ATOM     76  N   UNL A   1      36.706  22.017  26.124  1.00  0.00    -0.352 N 
ATOM     77  C   UNL A   1      35.372  22.239  25.880  1.00  0.00     0.251 C 
ATOM     78  H   UNL A   1      36.891  21.181  26.611  1.00  0.00     0.163 HD
ATOM     79  O   UNL A   1      34.534  21.551  26.460  1.00  0.00    -0.269 OA
BRANCH  77  80
ATOM     80  C   UNL A   1      34.921  23.269  24.917  1.00  0.00     0.039 A 
ATOM     81  C   UNL A   1      34.805  24.608  25.321  1.00  0.00     0.015 A 
ATOM     82  C   UNL A   1      34.525  22.911  23.633  1.00  0.00     0.015 A 
ATOM     83  C   UNL A   1      34.302  25.574  24.436  1.00  0.00     0.022 A 
ATOM     84  C   UNL A   1      34.164  23.884  22.718  1.00  0.00     0.022 A 
ATOM     85  C   UNL A   1      33.975  25.196  23.132  1.00  0.00     0.082 A 
BRANCH  85  86
ATOM     86  S   UNL A   1      33.202  26.353  22.030  1.00  0.00     0.241 S 
ATOM     87  O   UNL A   1      33.708  27.674  22.324  1.00  0.00    -0.207 OA
ATOM     88  O   UNL A   1      33.278  25.778  20.706  1.00  0.00    -0.207 OA
BRANCH  86  89
ATOM     89  N   UNL A   1      31.579  26.307  22.442  1.00  0.00    -0.202 NA
ATOM     90  H   UNL A   1      31.310  25.324  22.383  1.00  0.00     0.141 HD
BRANCH  89  91
ATOM     91  C   UNL A   1      31.017  26.796  23.724  1.00  0.00     0.133 C 
ATOM     92  C   UNL A   1      29.873  25.947  24.340  1.00  0.00     0.087 C 
ATOM     93  C   UNL A   1      30.289  28.135  23.537  1.00  0.00     0.202 C 
ATOM     94  C   UNL A   1      28.550  26.703  24.070  1.00  0.00     0.264 C 
ATOM     95  N   UNL A   1      28.965  27.690  23.102  1.00  0.00    -0.331 N 
ATOM     96  C   UNL A   1      30.599  29.144  22.453  1.00  0.00     0.072 C 
ATOM     97  C   UNL A   1      28.185  28.878  22.855  1.00  0.00     0.262 C 
ATOM     98  H   UNL A   1      28.880  27.195  22.214  1.00  0.00     0.348 HD
ATOM     99  C   UNL A   1      29.222  29.775  22.162  1.00  0.00     0.068 C 
ENDBRANCH  89  91
ENDBRANCH  86  89
ENDBRANCH  85  86
ENDBRANCH  77  80
ENDBRANCH  75  76
ENDBRANCH   1  75
TORSDOF 16
ENDMDL
MODEL 2
REMARK VINA RESULT:     -12.8      6.629     12.202
REMARK SMILES O=C(NCCCNC(=O)c1ccc(S(=O)(=O)N[C@@H]2CC[N@H+]3CCC[C@H]23)cc1)c1ccc(-c2c3nc(c(-c4c(F)cc(S(=O)(=O)[O-])cc4F)c4ccc([nH]4)c(-c4c(F)cc(S(=O)(=O)[O-])cc4F)c4nc(c(-c5c(F)cc(S(=O)(=O)[O-])cc5F)c5ccc2[nH]5)C=C4)C=C3)cc1
REMARK SMILES IDX 5 1 4 2 3 3 1 4 2 5 28 7 29 8 93 9 30 10 92 11 31 12 32 13
REMARK SMILES IDX 33 14 86 15 34 16 91 17 85 18 87 19 35 20 90 21 84 22 83 23
REMARK SMILES IDX 36 25 70 26 49 27 69 28 50 29 53 30 68 31 88 32 51 33 52 34
REMARK SMILES IDX 67 36 89 37 54 38 37 39 38 40 47 41 39 42 40 43 46 44 48 45
REMARK SMILES IDX 41 46 42 47 43 48 44 49 45 50 71 51 72 52 81 53 73 54 74 55
REMARK SMILES IDX 80 56 82 57 75 58 76 59 77 60 78 61 79 62 55 63 56 64 65 65
REMARK SMILES IDX 57 66 58 67 64 68 66 69 59 70 60 71 61 72 62 73 63 74 6 75
REMARK SMILES IDX 7 76 8 77 9 79 10 80 11 81 27 82 12 83 26 84 13 85 14 86
REMARK SMILES IDX 15 87 16 88 17 89 18 91 19 92 25 93 20 94 21 95 24 96 22 97
REMARK SMILES IDX 23 99
REMARK H PARENT 3 6 87 24 53 35 7 78 17 90 21 98
REMARK Flexibility Score: inf
ROOT
ATOM      1  C   UNL A   1      34.814  29.779  27.632  1.00  0.00     0.042 C 
ENDROOT
BRANCH   1   2
ATOM      2  C   UNL A   1      35.481  30.958  28.318  1.00  0.00     0.118 C 
BRANCH   2   3
ATOM      3  N   UNL A   1      35.488  30.822  29.771  1.00  0.00    -0.352 N 
ATOM      4  O   UNL A   1      36.136  30.076  31.790  1.00  0.00    -0.269 OA
ATOM      5  C   UNL A   1      36.438  30.305  30.621  1.00  0.00     0.251 C 
ATOM      6  H   UNL A   1      34.678  31.157  30.218  1.00  0.00     0.163 HD
BRANCH   5   7
ATOM      7  C   UNL A   1      37.803  30.007  30.135  1.00  0.00     0.039 A 
ATOM      8  C   UNL A   1      38.164  30.296  28.821  1.00  0.00     0.014 A 
ATOM      9  C   UNL A   1      38.753  29.465  31.007  1.00  0.00     0.014 A 
ATOM     10  C   UNL A   1      39.382  29.862  28.326  1.00  0.00     0.010 A 
ATOM     11  C   UNL A   1      40.037  29.155  30.540  1.00  0.00     0.010 A 
ATOM     12  C   UNL A   1      40.352  29.318  29.184  1.00  0.00    -0.014 A 
BRANCH  12  13
ATOM     13  C   UNL A   1      41.692  29.018  28.617  1.00  0.00     0.031 A 
ATOM     14  C   UNL A   1      42.808  30.025  28.651  1.00  0.00     0.074 A 
ATOM     15  C   UNL A   1      41.916  27.768  28.160  1.00  0.00     0.049 A 
ATOM     16  N   UNL A   1      44.059  29.870  28.298  1.00  0.00    -0.248 NA
ATOM     17  C   UNL A   1      42.485  31.379  29.126  1.00  0.00     0.031 C 
ATOM     18  C   UNL A   1      40.896  26.719  28.047  1.00  0.00     0.029 A 
ATOM     19  N   UNL A   1      43.070  27.148  27.758  1.00  0.00    -0.354 N 
ATOM     20  C   UNL A   1      44.668  31.105  28.485  1.00  0.00     0.074 A 
ATOM     21  C   UNL A   1      43.643  32.008  28.967  1.00  0.00     0.031 C 
ATOM     22  C   UNL A   1      41.484  25.567  27.700  1.00  0.00     0.029 A 
ATOM     23  C   UNL A   1      42.907  25.807  27.498  1.00  0.00     0.049 A 
ATOM     24  H   UNL A   1      43.932  27.616  27.666  1.00  0.00     0.167 HD
ATOM     25  C   UNL A   1      45.961  31.449  28.280  1.00  0.00     0.037 A 
ATOM     26  C   UNL A   1      43.802  24.869  27.139  1.00  0.00     0.037 A 
ATOM     27  C   UNL A   1      46.979  30.537  27.823  1.00  0.00     0.049 A 
ATOM     28  C   UNL A   1      45.237  25.265  26.976  1.00  0.00     0.074 A 
ATOM     29  C   UNL A   1      48.318  30.790  27.576  1.00  0.00     0.029 A 
ATOM     30  N   UNL A   1      46.774  29.191  27.558  1.00  0.00    -0.354 N 
ATOM     31  N   UNL A   1      45.786  26.444  27.149  1.00  0.00    -0.248 NA
ATOM     32  C   UNL A   1      46.173  24.213  26.563  1.00  0.00     0.031 C 
ATOM     33  C   UNL A   1      48.918  29.601  27.143  1.00  0.00     0.029 A 
ATOM     34  C   UNL A   1      47.960  28.601  27.150  1.00  0.00     0.049 A 
ATOM     35  H   UNL A   1      45.913  28.722  27.646  1.00  0.00     0.167 HD
ATOM     36  C   UNL A   1      47.131  26.280  26.846  1.00  0.00     0.074 A 
ATOM     37  C   UNL A   1      47.319  24.879  26.524  1.00  0.00     0.031 C 
ATOM     38  C   UNL A   1      48.118  27.208  26.818  1.00  0.00     0.037 A 
BRANCH  25  39
ATOM     39  C   UNL A   1      46.354  32.877  28.540  1.00  0.00     0.058 A 
ATOM     40  C   UNL A   1      46.831  33.291  29.794  1.00  0.00     0.135 A 
ATOM     41  C   UNL A   1      46.298  33.832  27.514  1.00  0.00     0.135 A 
ATOM     42  F   UNL A   1      46.889  32.422  30.816  1.00  0.00    -0.206 F 
ATOM     43  C   UNL A   1      47.227  34.605  30.024  1.00  0.00     0.059 A 
ATOM     44  C   UNL A   1      46.705  35.148  27.715  1.00  0.00     0.059 A 
ATOM     45  F   UNL A   1      45.846  33.489  26.296  1.00  0.00    -0.206 F 
ATOM     46  C   UNL A   1      47.159  35.528  28.978  1.00  0.00     0.060 A 
BRANCH  46  47
ATOM     47  S   UNL A   1      47.687  37.227  29.285  1.00  0.00     0.124 S 
ATOM     48  O   UNL A   1      46.622  37.984  28.634  1.00  0.00    -0.237 OA
ATOM     49  O   UNL A   1      47.710  37.293  30.742  1.00  0.00    -0.237 OA
ATOM     50  O   UNL A   1      48.994  37.299  28.638  1.00  0.00    -0.744 OA
ENDBRANCH  46  47
ENDBRANCH  25  39
BRANCH  26  51
ATOM     51  C   UNL A   1      43.350  23.474  26.903  1.00  0.00     0.058 A 
ATOM     52  C   UNL A   1      43.209  22.964  25.605  1.00  0.00     0.135 A 
ATOM     53  C   UNL A   1      43.091  22.611  27.979  1.00  0.00     0.135 A 
ATOM     54  F   UNL A   1      43.445  23.752  24.545  1.00  0.00    -0.206 F 
ATOM     55  C   UNL A   1      42.816  21.649  25.380  1.00  0.00     0.059 A 
ATOM     56  C   UNL A   1      42.723  21.286  27.780  1.00  0.00     0.059 A 
ATOM     57  F   UNL A   1      43.234  23.047  29.240  1.00  0.00    -0.206 F 
ATOM     58  C   UNL A   1      42.577  20.816  26.475  1.00  0.00     0.060 A 
BRANCH  58  59
ATOM     59  S   UNL A   1      42.131  19.090  26.188  1.00  0.00     0.124 S 
ATOM     60  O   UNL A   1      42.405  18.499  27.493  1.00  0.00    -0.237 OA
ATOM     61  O   UNL A   1      40.724  19.187  25.813  1.00  0.00    -0.237 OA
ATOM     62  O   UNL A   1      43.031  18.692  25.109  1.00  0.00    -0.744 OA
ENDBRANCH  58  59
ENDBRANCH  26  51
BRANCH  38  63
ATOM     63  C   UNL A   1      49.477  26.726  26.408  1.00  0.00     0.058 A 
ATOM     64  C   UNL A   1      49.940  26.889  25.093  1.00  0.00     0.135 A 
ATOM     65  C   UNL A   1      50.321  26.092  27.333  1.00  0.00     0.135 A 
ATOM     66  F   UNL A   1      49.163  27.482  24.173  1.00  0.00    -0.206 F 
ATOM     67  C   UNL A   1      51.182  26.409  24.698  1.00  0.00     0.059 A 
ATOM     68  C   UNL A   1      51.577  25.622  26.964  1.00  0.00     0.059 A 
ATOM     69  F   UNL A   1      49.926  25.920  28.604  1.00  0.00    -0.206 F 
ATOM     70  C   UNL A   1      51.991  25.768  25.639  1.00  0.00     0.060 A 
BRANCH  70  71
ATOM     71  S   UNL A   1      53.602  25.142  25.119  1.00  0.00     0.124 S 
ATOM     72  O   UNL A   1      54.495  25.839  26.039  1.00  0.00    -0.237 OA
ATOM     73  O   UNL A   1      53.469  23.704  25.332  1.00  0.00    -0.237 OA
ATOM     74  O   UNL A   1      53.688  25.556  23.722  1.00  0.00    -0.744 OA
ENDBRANCH  70  71
ENDBRANCH  38  63
ENDBRANCH  12  13
ENDBRANCH   5   7
ENDBRANCH   2   3
ENDBRANCH   1   2
BRANCH   1  75
ATOM     75  C   UNL A   1      33.405  30.099  27.170  1.00  0.00     0.118 C 
BRANCH  75  76
ATOM     76  N   UNL A   1      33.282  30.086  25.715  1.00  0.00    -0.352 N 
ATOM     77  C   UNL A   1      33.150  29.057  24.814  1.00  0.00     0.251 C 
ATOM     78  H   UNL A   1      33.297  30.980  25.303  1.00  0.00     0.163 HD
ATOM     79  O   UNL A   1      33.299  29.286  23.616  1.00  0.00    -0.269 OA
BRANCH  77  80
ATOM     80  C   UNL A   1      32.810  27.684  25.251  1.00  0.00     0.039 A 
ATOM     81  C   UNL A   1      33.812  26.705  25.345  1.00  0.00     0.015 A 
ATOM     82  C   UNL A   1      31.487  27.325  25.486  1.00  0.00     0.015 A 
ATOM     83  C   UNL A   1      33.482  25.384  25.681  1.00  0.00     0.022 A 
ATOM     84  C   UNL A   1      31.181  26.059  25.955  1.00  0.00     0.022 A 
ATOM     85  C   UNL A   1      32.154  25.068  25.977  1.00  0.00     0.082 A 
BRANCH  85  86
ATOM     86  S   UNL A   1      31.675  23.384  26.263  1.00  0.00     0.241 S 
ATOM     87  O   UNL A   1      31.346  23.232  27.662  1.00  0.00    -0.207 OA
ATOM     88  O   UNL A   1      30.745  23.034  25.213  1.00  0.00    -0.207 OA
BRANCH  86  89
ATOM     89  N   UNL A   1      33.058  22.493  25.947  1.00  0.00    -0.202 NA
ATOM     90  H   UNL A   1      33.078  21.760  26.657  1.00  0.00     0.141 HD
BRANCH  89  91
ATOM     91  C   UNL A   1      33.349  21.811  24.663  1.00  0.00     0.133 C 
ATOM     92  C   UNL A   1      32.963  20.310  24.580  1.00  0.00     0.087 C 
ATOM     93  C   UNL A   1      34.862  21.714  24.417  1.00  0.00     0.202 C 
ATOM     94  C   UNL A   1      34.273  19.496  24.713  1.00  0.00     0.264 C 
ATOM     95  N   UNL A   1      35.203  20.504  25.162  1.00  0.00    -0.331 N 
ATOM     96  C   UNL A   1      35.893  22.670  24.976  1.00  0.00     0.072 C 
ATOM     97  C   UNL A   1      36.629  20.322  25.035  1.00  0.00     0.262 C 
ATOM     98  H   UNL A   1      35.081  20.499  26.175  1.00  0.00     0.348 HD
ATOM     99  C   UNL A   1      37.126  21.768  25.184  1.00  0.00     0.068 C 
ENDBRANCH  89  91
ENDBRANCH  86  89
ENDBRANCH  85  86
ENDBRANCH  77  80
ENDBRANCH  75  76
ENDBRANCH   1  75
TORSDOF 16
ENDMDL
MODEL 3
REMARK VINA RESULT:     -12.7      1.562      2.267
REMARK SMILES O=C(NCCCNC(=O)c1ccc(S(=O)(=O)N[C@@H]2CC[N@H+]3CCC[C@H]23)cc1)c1ccc(-c2c3nc(c(-c4c(F)cc(S(=O)(=O)[O-])cc4F)c4ccc([nH]4)c(-c4c(F)cc(S(=O)(=O)[O-])cc4F)c4nc(c(-c5c(F)cc(S(=O)(=O)[O-])cc5F)c5ccc2[nH]5)C=C4)C=C3)cc1
REMARK SMILES IDX 5 1 4 2 3 3 1 4 2 5 28 7 29 8 93 9 30 10 92 11 31 12 32 13
REMARK SMILES IDX 33 14 86 15 34 16 91 17 85 18 87 19 35 20 90 21 84 22 83 23
REMARK SMILES IDX 36 25 70 26 49 27 69 28 50 29 53 30 68 31 88 32 51 33 52 34
REMARK SMILES IDX 67 36 89 37 54 38 37 39 38 40 47 41 39 42 40 43 46 44 48 45
REMARK SMILES IDX 41 46 42 47 43 48 44 49 45 50 71 51 72 52 81 53 73 54 74 55
REMARK SMILES IDX 80 56 82 57 75 58 76 59 77 60 78 61 79 62 55 63 56 64 65 65
REMARK SMILES IDX 57 66 58 67 64 68 66 69 59 70 60 71 61 72 62 73 63 74 6 75
REMARK SMILES IDX 7 76 8 77 9 79 10 80 11 81 27 82 12 83 26 84 13 85 14 86
REMARK SMILES IDX 15 87 16 88 17 89 18 91 19 92 25 93 20 94 21 95 24 96 22 97
REMARK SMILES IDX 23 99
REMARK H PARENT 3 6 87 24 53 35 7 78 17 90 21 98
REMARK Flexibility Score: inf
ROOT
ATOM      1  C   UNL A   1      39.369  22.006  26.331  1.00  0.00     0.042 C 
ENDROOT
BRANCH   1   2
ATOM      2  C   UNL A   1      39.907  23.303  26.908  1.00  0.00     0.118 C 
BRANCH   2   3
ATOM      3  N   UNL A   1      40.869  23.948  26.021  1.00  0.00    -0.352 N 
ATOM      4  O   UNL A   1      42.040  25.622  25.083  1.00  0.00    -0.269 OA
ATOM      5  C   UNL A   1      41.430  25.204  26.064  1.00  0.00     0.251 C 
ATOM      6  H   UNL A   1      41.166  23.393  25.265  1.00  0.00     0.163 HD
BRANCH   5   7
ATOM      7  C   UNL A   1      41.288  26.052  27.268  1.00  0.00     0.039 A 
ATOM      8  C   UNL A   1      40.362  25.728  28.256  1.00  0.00     0.014 A 
ATOM      9  C   UNL A   1      42.115  27.169  27.437  1.00  0.00     0.014 A 
ATOM     10  C   UNL A   1      40.116  26.614  29.292  1.00  0.00     0.010 A 
ATOM     11  C   UNL A   1      41.962  27.990  28.562  1.00  0.00     0.010 A 
ATOM     12  C   UNL A   1      40.934  27.739  29.482  1.00  0.00    -0.014 A 
BRANCH  12  13
ATOM     13  C   UNL A   1      40.715  28.560  30.701  1.00  0.00     0.031 A 
ATOM     14  C   UNL A   1      41.644  28.489  31.880  1.00  0.00     0.074 A 
ATOM     15  C   UNL A   1      39.707  29.458  30.681  1.00  0.00     0.049 A 
ATOM     16  N   UNL A   1      41.645  29.221  32.965  1.00  0.00    -0.248 NA
ATOM     17  C   UNL A   1      42.696  27.461  31.853  1.00  0.00     0.031 C 
ATOM     18  C   UNL A   1      38.721  29.590  29.602  1.00  0.00     0.029 A 
ATOM     19  N   UNL A   1      39.375  30.460  31.554  1.00  0.00    -0.354 N 
ATOM     20  C   UNL A   1      42.678  28.735  33.758  1.00  0.00     0.074 A 
ATOM     21  C   UNL A   1      43.272  27.628  33.038  1.00  0.00     0.031 C 
ATOM     22  C   UNL A   1      37.960  30.668  29.830  1.00  0.00     0.029 A 
ATOM     23  C   UNL A   1      38.354  31.263  31.101  1.00  0.00     0.049 A 
ATOM     24  H   UNL A   1      39.823  30.593  32.421  1.00  0.00     0.167 HD
ATOM     25  C   UNL A   1      43.093  29.176  34.969  1.00  0.00     0.037 A 
ATOM     26  C   UNL A   1      37.795  32.360  31.643  1.00  0.00     0.037 A 
ATOM     27  C   UNL A   1      42.510  30.293  35.667  1.00  0.00     0.049 A 
ATOM     28  C   UNL A   1      38.314  32.860  32.956  1.00  0.00     0.074 A 
ATOM     29  C   UNL A   1      42.853  30.814  36.903  1.00  0.00     0.029 A 
ATOM     30  N   UNL A   1      41.470  31.074  35.183  1.00  0.00    -0.354 N 
ATOM     31  N   UNL A   1      39.285  32.375  33.692  1.00  0.00    -0.248 NA
ATOM     32  C   UNL A   1      37.659  34.048  33.519  1.00  0.00     0.031 C 
ATOM     33  C   UNL A   1      42.008  31.897  37.175  1.00  0.00     0.029 A 
ATOM     34  C   UNL A   1      41.159  32.070  36.095  1.00  0.00     0.049 A 
ATOM     35  H   UNL A   1      41.018  30.940  34.318  1.00  0.00     0.167 HD
ATOM     36  C   UNL A   1      39.347  33.187  34.816  1.00  0.00     0.074 A 
ATOM     37  C   UNL A   1      38.345  34.220  34.640  1.00  0.00     0.031 C 
ATOM     38  C   UNL A   1      40.146  33.076  35.905  1.00  0.00     0.037 A 
BRANCH  25  39
ATOM     39  C   UNL A   1      44.230  28.444  35.627  1.00  0.00     0.058 A 
ATOM     40  C   UNL A   1      45.566  28.809  35.401  1.00  0.00     0.135 A 
ATOM     41  C   UNL A   1      43.981  27.399  36.529  1.00  0.00     0.135 A 
ATOM     42  F   UNL A   1      45.862  29.791  34.534  1.00  0.00    -0.206 F 
ATOM     43  C   UNL A   1      46.617  28.154  36.036  1.00  0.00     0.059 A 
ATOM     44  C   UNL A   1      45.014  26.740  37.190  1.00  0.00     0.059 A 
ATOM     45  F   UNL A   1      42.720  27.008  36.778  1.00  0.00    -0.206 F 
ATOM     46  C   UNL A   1      46.331  27.119  36.929  1.00  0.00     0.060 A 
BRANCH  46  47
ATOM     47  S   UNL A   1      47.701  26.284  37.758  1.00  0.00     0.124 S 
ATOM     48  O   UNL A   1      47.504  26.707  39.141  1.00  0.00    -0.237 OA
ATOM     49  O   UNL A   1      47.429  24.878  37.481  1.00  0.00    -0.237 OA
ATOM     50  O   UNL A   1      48.882  26.833  37.097  1.00  0.00    -0.744 OA
ENDBRANCH  46  47
ENDBRANCH  25  39
BRANCH  26  51
ATOM     51  C   UNL A   1      36.678  33.041  30.939  1.00  0.00     0.058 A 
ATOM     52  C   UNL A   1      35.349  32.875  31.351  1.00  0.00     0.135 A 
ATOM     53  C   UNL A   1      36.929  33.906  29.862  1.00  0.00     0.135 A 
ATOM     54  F   UNL A   1      35.061  32.057  32.375  1.00  0.00    -0.206 F 
ATOM     55  C   UNL A   1      34.303  33.535  30.714  1.00  0.00     0.059 A 
ATOM     56  C   UNL A   1      35.904  34.596  29.227  1.00  0.00     0.059 A 
ATOM     57  F   UNL A   1      38.188  34.114  29.446  1.00  0.00    -0.206 F 
ATOM     58  C   UNL A   1      34.592  34.396  29.654  1.00  0.00     0.060 A 
BRANCH  58  59
ATOM     59  S   UNL A   1      33.244  35.306  28.867  1.00  0.00     0.124 S 
ATOM     60  O   UNL A   1      32.610  34.258  28.075  1.00  0.00    -0.237 OA
ATOM     61  O   UNL A   1      32.481  35.791  30.013  1.00  0.00    -0.237 OA
ATOM     62  O   UNL A   1      33.944  36.340  28.109  1.00  0.00    -0.744 OA
ENDBRANCH  58  59
ENDBRANCH  26  51
BRANCH  38  63
ATOM     63  C   UNL A   1      39.946  34.096  36.987  1.00  0.00     0.058 A 
ATOM     64  C   UNL A   1      39.131  33.826  38.097  1.00  0.00     0.135 A 
ATOM     65  C   UNL A   1      40.568  35.351  36.912  1.00  0.00     0.135 A 
ATOM     66  F   UNL A   1      38.509  32.641  38.206  1.00  0.00    -0.206 F 
ATOM     67  C   UNL A   1      38.910  34.780  39.082  1.00  0.00     0.059 A 
ATOM     68  C   UNL A   1      40.377  36.314  37.897  1.00  0.00     0.059 A 
ATOM     69  F   UNL A   1      41.362  35.653  35.873  1.00  0.00    -0.206 F 
ATOM     70  C   UNL A   1      39.531  36.026  38.969  1.00  0.00     0.060 A 
BRANCH  70  71
ATOM     71  S   UNL A   1      39.237  37.264  40.249  1.00  0.00     0.124 S 
ATOM     72  O   UNL A   1      40.601  37.656  40.592  1.00  0.00    -0.237 OA
ATOM     73  O   UNL A   1      38.447  38.269  39.545  1.00  0.00    -0.237 OA
ATOM     74  O   UNL A   1      38.518  36.519  41.278  1.00  0.00    -0.744 OA
ENDBRANCH  70  71
ENDBRANCH  38  63
ENDBRANCH  12  13
ENDBRANCH   5   7
ENDBRANCH   2   3
ENDBRANCH   1   2
BRANCH   1  75
ATOM     75  C   UNL A   1      37.920  22.121  25.897  1.00  0.00     0.118 C 
BRANCH  75  76
ATOM     76  N   UNL A   1      37.789  22.568  24.513  1.00  0.00    -0.352 N 
ATOM     77  C   UNL A   1      36.690  22.896  23.755  1.00  0.00     0.251 C 
ATOM     78  H   UNL A   1      38.645  22.647  24.033  1.00  0.00     0.163 HD
ATOM     79  O   UNL A   1      36.817  23.020  22.539  1.00  0.00    -0.269 OA
BRANCH  77  80
ATOM     80  C   UNL A   1      35.364  23.126  24.372  1.00  0.00     0.039 A 
ATOM     81  C   UNL A   1      35.189  24.167  25.296  1.00  0.00     0.015 A 
ATOM     82  C   UNL A   1      34.305  22.263  24.112  1.00  0.00     0.015 A 
ATOM     83  C   UNL A   1      33.956  24.339  25.943  1.00  0.00     0.022 A 
ATOM     84  C   UNL A   1      33.052  22.518  24.642  1.00  0.00     0.022 A 
ATOM     85  C   UNL A   1      32.891  23.498  25.613  1.00  0.00     0.082 A 
BRANCH  85  86
ATOM     86  S   UNL A   1      31.364  23.589  26.511  1.00  0.00     0.241 S 
ATOM     87  O   UNL A   1      30.291  23.175  25.636  1.00  0.00    -0.207 OA
ATOM     88  O   UNL A   1      31.598  22.959  27.791  1.00  0.00    -0.207 OA
BRANCH  86  89
ATOM     89  N   UNL A   1      31.169  25.219  26.848  1.00  0.00    -0.202 NA
ATOM     90  H   UNL A   1      32.099  25.559  27.096  1.00  0.00     0.141 HD
BRANCH  89  91
ATOM     91  C   UNL A   1      30.620  26.218  25.900  1.00  0.00     0.133 C 
ATOM     92  C   UNL A   1      31.042  26.061  24.415  1.00  0.00     0.087 C 
ATOM     93  C   UNL A   1      31.173  27.621  26.190  1.00  0.00     0.202 C 
ATOM     94  C   UNL A   1      32.111  27.144  24.129  1.00  0.00     0.264 C 
ATOM     95  N   UNL A   1      32.439  27.594  25.460  1.00  0.00    -0.331 N 
ATOM     96  C   UNL A   1      31.656  28.099  27.542  1.00  0.00     0.072 C 
ATOM     97  C   UNL A   1      33.081  28.866  25.688  1.00  0.00     0.262 C 
ATOM     98  H   UNL A   1      33.163  26.938  25.755  1.00  0.00     0.348 HD
ATOM     99  C   UNL A   1      32.785  29.084  27.179  1.00  0.00     0.068 C 
ENDBRANCH  89  91
ENDBRANCH  86  89
ENDBRANCH  85  86
ENDBRANCH  77  80
ENDBRANCH  75  76
ENDBRANCH   1  75
TORSDOF 16
ENDMDL
