MODEL 1
REMARK VINA RESULT:     -14.7      0.000      0.000
REMARK SMILES C[C@H]1[C@H](C)CC[C@@]2(C(=O)NCCCNC(=O)c3ccc(-c4c5nc(c(-c6c(F)cc(S(=O)(=O)[O-])cc6F)c6ccc([nH]6)c(-c6c(F)cc(S(=O)(=O)[O-])cc6F)c6nc(c(-c7c(F)cc(S(=O)(=O)[O-])cc7F)c7ccc4[nH]7)C=C6)C=C5)cc3)CC[C@@]3(C)C(=CC[C@@H]4[C@@]5(C)CC[C@H](O)C(C)(C)[C@@H]5CC[C@]43C)[C@H]12
REMARK SMILES IDX 13 1 12 2 11 3 10 4 8 5 9 6 7 8 1 9 2 10 3 11 105 12 4 13
REMARK SMILES IDX 5 14 87 15 6 16 83 17 85 18 88 19 84 20 86 21 103 22 89 23
REMARK SMILES IDX 90 24 102 25 104 26 91 27 101 28 92 29 93 30 100 31 94 32
REMARK SMILES IDX 97 33 95 34 98 35 99 36 96 37 14 39 15 40 16 42 17 43 18 44
REMARK SMILES IDX 82 45 19 46 81 47 20 48 21 49 22 50 75 51 23 52 80 53 74 54
REMARK SMILES IDX 76 55 24 56 79 57 73 58 72 59 25 61 59 62 38 63 58 64 39 65
REMARK SMILES IDX 42 66 57 67 77 68 40 69 41 70 56 72 78 73 43 74 26 75 27 76
REMARK SMILES IDX 36 77 28 78 29 79 35 80 37 81 30 82 31 83 32 84 33 85 34 86
REMARK SMILES IDX 60 87 61 88 70 89 62 90 63 91 69 92 71 93 64 94 65 95 66 96
REMARK SMILES IDX 67 97 68 98 44 99 45 100 54 101 46 102 47 103 53 104 55 105
REMARK SMILES IDX 48 106 49 107 50 108 51 109 52 110
REMARK H PARENT 10 7 96 38 14 41 76 60 42 71
REMARK Flexibility Score: inf
ROOT
ATOM      1  C   UNL A   1      35.302  31.010  28.025  1.00  0.00     0.118 C 
ENDROOT
BRANCH   1   2
ATOM      2  C   UNL A   1      34.066  30.229  27.576  1.00  0.00     0.042 C 
BRANCH   2   3
ATOM      3  C   UNL A   1      34.405  29.053  26.663  1.00  0.00     0.117 C 
BRANCH   3   4
ATOM      4  N   UNL A   1      34.036  29.259  25.275  1.00  0.00    -0.356 N 
ATOM      5  C   UNL A   1      32.867  29.126  24.591  1.00  0.00     0.226 C 
ATOM      6  O   UNL A   1      33.034  28.951  23.375  1.00  0.00    -0.274 OA
ATOM      7  H   UNL A   1      34.786  29.558  24.712  1.00  0.00     0.163 HD
BRANCH   5   8
ATOM      8  C   UNL A   1      31.417  29.221  25.199  1.00  0.00     0.056 C 
ATOM      9  C   UNL A   1      28.680  28.890  22.358  1.00  0.00     0.008 C 
ATOM     10  C   UNL A   1      29.838  29.531  23.148  1.00  0.00    -0.003 C 
ATOM     11  C   UNL A   1      29.383  30.915  23.711  1.00  0.00    -0.011 C 
ATOM     12  C   UNL A   1      30.307  28.604  24.298  1.00  0.00     0.034 C 
ATOM     13  C   UNL A   1      29.112  31.948  22.602  1.00  0.00     0.008 C 
ATOM     14  C   UNL A   1      30.327  31.570  24.734  1.00  0.00     0.005 C 
ATOM     15  C   UNL A   1      30.784  27.172  23.983  1.00  0.00    -0.063 C 
ATOM     16  C   UNL A   1      31.099  30.654  25.669  1.00  0.00     0.018 C 
ATOM     17  C   UNL A   1      31.396  28.347  26.520  1.00  0.00     0.018 C 
ATOM     18  C   UNL A   1      30.721  26.171  25.169  1.00  0.00    -0.006 C 
ATOM     19  C   UNL A   1      31.459  26.896  22.848  1.00  0.00    -0.027 C 
ATOM     20  C   UNL A   1      31.508  26.818  26.359  1.00  0.00     0.013 C 
ATOM     21  C   UNL A   1      29.248  25.985  25.625  1.00  0.00     0.017 C 
ATOM     22  C   UNL A   1      31.351  24.720  24.762  1.00  0.00    -0.020 C 
ATOM     23  C   UNL A   1      32.370  25.713  22.669  1.00  0.00     0.032 C 
ATOM     24  C   UNL A   1      32.704  25.023  24.016  1.00  0.00     0.006 C 
ATOM     25  C   UNL A   1      31.583  23.813  26.000  1.00  0.00     0.008 C 
ATOM     26  C   UNL A   1      30.360  23.937  23.845  1.00  0.00     0.012 C 
ATOM     27  C   UNL A   1      33.825  23.899  23.952  1.00  0.00    -0.025 C 
ATOM     28  C   UNL A   1      32.481  22.606  25.712  1.00  0.00     0.005 C 
ATOM     29  C   UNL A   1      33.628  23.016  22.704  1.00  0.00     0.012 C 
ATOM     30  C   UNL A   1      35.214  24.610  23.835  1.00  0.00     0.010 C 
ATOM     31  C   UNL A   1      33.875  23.102  25.308  1.00  0.00     0.003 C 
ATOM     32  C   UNL A   1      36.412  23.668  23.941  1.00  0.00     0.033 C 
ATOM     33  C   UNL A   1      35.037  22.047  25.448  1.00  0.00    -0.006 C 
ATOM     34  C   UNL A   1      36.386  22.786  25.192  1.00  0.00     0.120 C 
ATOM     35  C   UNL A   1      34.882  20.798  24.554  1.00  0.00     0.014 C 
ATOM     36  C   UNL A   1      35.087  21.501  26.904  1.00  0.00     0.014 C 
BRANCH  34  37
ATOM     37  O   UNL A   1      37.476  21.863  25.137  1.00  0.00    -0.393 OA
ATOM     38  H   UNL A   1      37.224  21.039  25.584  1.00  0.00     0.210 HD
ENDBRANCH  34  37
ENDBRANCH   5   8
ENDBRANCH   3   4
ENDBRANCH   2   3
ENDBRANCH   1   2
BRANCH   1  39
ATOM     39  N   UNL A   1      35.418  31.194  29.471  1.00  0.00    -0.352 N 
ATOM     40  C   UNL A   1      36.405  30.879  30.377  1.00  0.00     0.251 C 
ATOM     41  H   UNL A   1      34.635  31.631  29.878  1.00  0.00     0.163 HD
ATOM     42  O   UNL A   1      36.210  31.113  31.570  1.00  0.00    -0.269 OA
BRANCH  40  43
ATOM     43  C   UNL A   1      37.659  30.203  29.963  1.00  0.00     0.039 A 
ATOM     44  C   UNL A   1      38.036  30.233  28.614  1.00  0.00     0.014 A 
ATOM     45  C   UNL A   1      38.475  29.544  30.875  1.00  0.00     0.014 A 
ATOM     46  C   UNL A   1      39.275  29.714  28.218  1.00  0.00     0.010 A 
ATOM     47  C   UNL A   1      39.759  29.154  30.508  1.00  0.00     0.010 A 
ATOM     48  C   UNL A   1      40.183  29.237  29.175  1.00  0.00    -0.014 A 
BRANCH  48  49
ATOM     49  C   UNL A   1      41.575  28.824  28.833  1.00  0.00     0.031 A 
ATOM     50  C   UNL A   1      42.681  29.850  28.791  1.00  0.00     0.074 A 
ATOM     51  C   UNL A   1      41.822  27.558  28.431  1.00  0.00     0.049 A 
ATOM     52  N   UNL A   1      43.893  29.746  28.309  1.00  0.00    -0.248 NA
ATOM     53  C   UNL A   1      42.360  31.192  29.304  1.00  0.00     0.031 C 
ATOM     54  C   UNL A   1      40.832  26.480  28.349  1.00  0.00     0.029 A 
ATOM     55  N   UNL A   1      42.984  26.966  27.997  1.00  0.00    -0.354 N 
ATOM     56  C   UNL A   1      44.450  31.018  28.404  1.00  0.00     0.074 A 
ATOM     57  C   UNL A   1      43.426  31.887  28.937  1.00  0.00     0.031 C 
ATOM     58  C   UNL A   1      41.433  25.356  27.931  1.00  0.00     0.029 A 
ATOM     59  C   UNL A   1      42.838  25.639  27.663  1.00  0.00     0.049 A 
ATOM     60  H   UNL A   1      43.840  27.446  27.930  1.00  0.00     0.167 HD
ATOM     61  C   UNL A   1      45.710  31.420  28.107  1.00  0.00     0.037 A 
ATOM     62  C   UNL A   1      43.732  24.750  27.188  1.00  0.00     0.037 A 
ATOM     63  C   UNL A   1      46.751  30.530  27.667  1.00  0.00     0.049 A 
ATOM     64  C   UNL A   1      45.149  25.197  26.949  1.00  0.00     0.074 A 
ATOM     65  C   UNL A   1      48.084  30.813  27.426  1.00  0.00     0.029 A 
ATOM     66  N   UNL A   1      46.582  29.173  27.426  1.00  0.00    -0.354 N 
ATOM     67  N   UNL A   1      45.668  26.394  27.086  1.00  0.00    -0.248 NA
ATOM     68  C   UNL A   1      46.103  24.175  26.499  1.00  0.00     0.031 C 
ATOM     69  C   UNL A   1      48.716  29.632  27.021  1.00  0.00     0.029 A 
ATOM     70  C   UNL A   1      47.785  28.607  27.045  1.00  0.00     0.049 A 
ATOM     71  H   UNL A   1      45.730  28.687  27.514  1.00  0.00     0.167 HD
ATOM     72  C   UNL A   1      47.014  26.263  26.767  1.00  0.00     0.074 A 
ATOM     73  C   UNL A   1      47.232  24.868  26.440  1.00  0.00     0.031 C 
ATOM     74  C   UNL A   1      47.983  27.210  26.745  1.00  0.00     0.037 A 
BRANCH  61  75
ATOM     75  C   UNL A   1      46.037  32.880  28.278  1.00  0.00     0.058 A 
ATOM     76  C   UNL A   1      46.509  33.392  29.498  1.00  0.00     0.135 A 
ATOM     77  C   UNL A   1      45.893  33.778  27.208  1.00  0.00     0.135 A 
ATOM     78  F   UNL A   1      46.656  32.583  30.560  1.00  0.00    -0.206 F 
ATOM     79  C   UNL A   1      46.781  34.746  29.665  1.00  0.00     0.059 A 
ATOM     80  C   UNL A   1      46.191  35.132  27.342  1.00  0.00     0.059 A 
ATOM     81  F   UNL A   1      45.452  33.345  26.016  1.00  0.00    -0.206 F 
ATOM     82  C   UNL A   1      46.614  35.609  28.582  1.00  0.00     0.060 A 
BRANCH  82  83
ATOM     83  S   UNL A   1      46.961  37.366  28.818  1.00  0.00     0.124 S 
ATOM     84  O   UNL A   1      46.333  37.945  27.634  1.00  0.00    -0.237 OA
ATOM     85  O   UNL A   1      46.299  37.648  30.087  1.00  0.00    -0.237 OA
ATOM     86  O   UNL A   1      48.419  37.423  28.848  1.00  0.00    -0.744 OA
ENDBRANCH  82  83
ENDBRANCH  61  75
BRANCH  62  87
ATOM     87  C   UNL A   1      43.328  23.338  26.951  1.00  0.00     0.058 A 
ATOM     88  C   UNL A   1      43.176  22.848  25.645  1.00  0.00     0.135 A 
ATOM     89  C   UNL A   1      43.105  22.446  28.012  1.00  0.00     0.135 A 
ATOM     90  F   UNL A   1      43.374  23.663  24.597  1.00  0.00    -0.206 F 
ATOM     91  C   UNL A   1      42.800  21.532  25.396  1.00  0.00     0.059 A 
ATOM     92  C   UNL A   1      42.752  21.118  27.788  1.00  0.00     0.059 A 
ATOM     93  F   UNL A   1      43.259  22.858  29.280  1.00  0.00    -0.206 F 
ATOM     94  C   UNL A   1      42.592  20.674  26.476  1.00  0.00     0.060 A 
BRANCH  94  95
ATOM     95  S   UNL A   1      42.154  18.953  26.141  1.00  0.00     0.124 S 
ATOM     96  O   UNL A   1      43.061  18.627  25.049  1.00  0.00    -0.237 OA
ATOM     97  O   UNL A   1      42.435  18.309  27.421  1.00  0.00    -0.237 OA
ATOM     98  O   UNL A   1      40.739  19.031  25.788  1.00  0.00    -0.744 OA
ENDBRANCH  94  95
ENDBRANCH  62  87
BRANCH  74  99
ATOM     99  C   UNL A   1      49.375  26.766  26.400  1.00  0.00     0.058 A 
ATOM    100  C   UNL A   1      50.219  26.178  27.353  1.00  0.00     0.135 A 
ATOM    101  C   UNL A   1      49.847  26.878  25.082  1.00  0.00     0.135 A 
ATOM    102  F   UNL A   1      49.817  26.054  28.628  1.00  0.00    -0.206 F 
ATOM    103  C   UNL A   1      51.493  25.733  27.016  1.00  0.00     0.059 A 
ATOM    104  C   UNL A   1      51.107  26.418  24.717  1.00  0.00     0.059 A 
ATOM    105  F   UNL A   1      49.073  27.425  24.131  1.00  0.00    -0.206 F 
ATOM    106  C   UNL A   1      51.927  25.855  25.694  1.00  0.00     0.060 A 
BRANCH 106 107
ATOM    107  S   UNL A   1      53.566  25.236  25.260  1.00  0.00     0.124 S 
ATOM    108  O   UNL A   1      53.382  23.795  25.396  1.00  0.00    -0.237 OA
ATOM    109  O   UNL A   1      53.736  25.726  23.896  1.00  0.00    -0.237 OA
ATOM    110  O   UNL A   1      54.437  25.856  26.256  1.00  0.00    -0.744 OA
ENDBRANCH 106 107
ENDBRANCH  74  99
ENDBRANCH  48  49
ENDBRANCH  40  43
ENDBRANCH   1  39
TORSDOF 14
ENDMDL
MODEL 2
REMARK VINA RESULT:     -14.4      6.031     11.852
REMARK SMILES C[C@H]1[C@H](C)CC[C@@]2(C(=O)NCCCNC(=O)c3ccc(-c4c5nc(c(-c6c(F)cc(S(=O)(=O)[O-])cc6F)c6ccc([nH]6)c(-c6c(F)cc(S(=O)(=O)[O-])cc6F)c6nc(c(-c7c(F)cc(S(=O)(=O)[O-])cc7F)c7ccc4[nH]7)C=C6)C=C5)cc3)CC[C@@]3(C)C(=CC[C@@H]4[C@@]5(C)CC[C@H](O)C(C)(C)[C@@H]5CC[C@]43C)[C@H]12
REMARK SMILES IDX 13 1 12 2 11 3 10 4 8 5 9 6 7 8 1 9 2 10 3 11 105 12 4 13
REMARK SMILES IDX 5 14 87 15 6 16 83 17 85 18 88 19 84 20 86 21 103 22 89 23
REMARK SMILES IDX 90 24 102 25 104 26 91 27 101 28 92 29 93 30 100 31 94 32
REMARK SMILES IDX 97 33 95 34 98 35 99 36 96 37 14 39 15 40 16 42 17 43 18 44
REMARK SMILES IDX 82 45 19 46 81 47 20 48 21 49 22 50 75 51 23 52 80 53 74 54
REMARK SMILES IDX 76 55 24 56 79 57 73 58 72 59 25 61 59 62 38 63 58 64 39 65
REMARK SMILES IDX 42 66 57 67 77 68 40 69 41 70 56 72 78 73 43 74 26 75 27 76
REMARK SMILES IDX 36 77 28 78 29 79 35 80 37 81 30 82 31 83 32 84 33 85 34 86
REMARK SMILES IDX 60 87 61 88 70 89 62 90 63 91 69 92 71 93 64 94 65 95 66 96
REMARK SMILES IDX 67 97 68 98 44 99 45 100 54 101 46 102 47 103 53 104 55 105
REMARK SMILES IDX 48 106 49 107 50 108 51 109 52 110
REMARK H PARENT 10 7 96 38 14 41 76 60 42 71
REMARK Flexibility Score: inf
ROOT
ATOM      1  C   UNL A   1      39.316  23.292  26.780  1.00  0.00     0.118 C 
ENDROOT
BRANCH   1   2
ATOM      2  C   UNL A   1      38.256  24.344  26.450  1.00  0.00     0.042 C 
BRANCH   2   3
ATOM      3  C   UNL A   1      37.087  23.779  25.647  1.00  0.00     0.117 C 
BRANCH   3   4
ATOM      4  N   UNL A   1      36.252  22.855  26.392  1.00  0.00    -0.356 N 
ATOM      5  C   UNL A   1      35.352  21.904  26.022  1.00  0.00     0.226 C 
ATOM      6  O   UNL A   1      34.527  21.646  26.909  1.00  0.00    -0.274 OA
ATOM      7  H   UNL A   1      36.359  22.934  27.368  1.00  0.00     0.163 HD
BRANCH   5   8
ATOM      8  C   UNL A   1      35.327  21.130  24.650  1.00  0.00     0.056 C 
ATOM      9  C   UNL A   1      32.150  18.781  24.421  1.00  0.00     0.008 C 
ATOM     10  C   UNL A   1      33.510  19.284  24.942  1.00  0.00    -0.003 C 
ATOM     11  C   UNL A   1      34.596  18.184  24.716  1.00  0.00    -0.011 C 
ATOM     12  C   UNL A   1      33.920  20.604  24.241  1.00  0.00     0.034 C 
ATOM     13  C   UNL A   1      34.350  16.923  25.564  1.00  0.00     0.008 C 
ATOM     14  C   UNL A   1      36.054  18.619  24.943  1.00  0.00     0.005 C 
ATOM     15  C   UNL A   1      32.988  21.830  24.310  1.00  0.00    -0.063 C 
ATOM     16  C   UNL A   1      36.425  20.051  24.595  1.00  0.00     0.018 C 
ATOM     17  C   UNL A   1      35.717  22.163  23.514  1.00  0.00     0.018 C 
ATOM     18  C   UNL A   1      33.191  22.887  23.188  1.00  0.00    -0.006 C 
ATOM     19  C   UNL A   1      32.257  22.089  25.413  1.00  0.00    -0.027 C 
ATOM     20  C   UNL A   1      34.706  23.282  23.197  1.00  0.00     0.013 C 
ATOM     21  C   UNL A   1      32.878  22.253  21.805  1.00  0.00     0.017 C 
ATOM     22  C   UNL A   1      32.236  24.192  23.416  1.00  0.00    -0.020 C 
ATOM     23  C   UNL A   1      31.727  23.447  25.780  1.00  0.00     0.032 C 
ATOM     24  C   UNL A   1      32.373  24.576  24.937  1.00  0.00     0.006 C 
ATOM     25  C   UNL A   1      32.636  25.379  22.499  1.00  0.00     0.008 C 
ATOM     26  C   UNL A   1      30.758  23.854  23.047  1.00  0.00     0.012 C 
ATOM     27  C   UNL A   1      32.035  26.058  25.399  1.00  0.00    -0.025 C 
ATOM     28  C   UNL A   1      32.011  26.713  22.920  1.00  0.00     0.005 C 
ATOM     29  C   UNL A   1      30.542  26.178  25.764  1.00  0.00     0.012 C 
ATOM     30  C   UNL A   1      32.880  26.368  26.679  1.00  0.00     0.010 C 
ATOM     31  C   UNL A   1      32.522  27.090  24.315  1.00  0.00     0.003 C 
ATOM     32  C   UNL A   1      32.801  27.821  27.146  1.00  0.00     0.033 C 
ATOM     33  C   UNL A   1      32.385  28.612  24.699  1.00  0.00    -0.006 C 
ATOM     34  C   UNL A   1      33.134  28.833  26.048  1.00  0.00     0.120 C 
ATOM     35  C   UNL A   1      30.933  29.134  24.751  1.00  0.00     0.014 C 
ATOM     36  C   UNL A   1      33.097  29.495  23.634  1.00  0.00     0.014 C 
BRANCH  34  37
ATOM     37  O   UNL A   1      32.915  30.155  26.548  1.00  0.00    -0.393 OA
ATOM     38  H   UNL A   1      32.863  30.776  25.804  1.00  0.00     0.210 HD
ENDBRANCH  34  37
ENDBRANCH   5   8
ENDBRANCH   3   4
ENDBRANCH   2   3
ENDBRANCH   1   2
BRANCH   1  39
ATOM     39  N   UNL A   1      40.656  23.595  26.279  1.00  0.00    -0.352 N 
ATOM     40  C   UNL A   1      41.532  24.629  26.522  1.00  0.00     0.251 C 
ATOM     41  H   UNL A   1      41.001  22.928  25.643  1.00  0.00     0.163 HD
ATOM     42  O   UNL A   1      42.601  24.655  25.909  1.00  0.00    -0.269 OA
BRANCH  40  43
ATOM     43  C   UNL A   1      41.193  25.742  27.441  1.00  0.00     0.039 A 
ATOM     44  C   UNL A   1      40.280  25.514  28.479  1.00  0.00     0.014 A 
ATOM     45  C   UNL A   1      41.757  27.005  27.307  1.00  0.00     0.014 A 
ATOM     46  C   UNL A   1      40.039  26.509  29.434  1.00  0.00     0.010 A 
ATOM     47  C   UNL A   1      41.625  27.941  28.327  1.00  0.00     0.010 A 
ATOM     48  C   UNL A   1      40.768  27.707  29.412  1.00  0.00    -0.014 A 
BRANCH  48  49
ATOM     49  C   UNL A   1      40.673  28.733  30.490  1.00  0.00     0.031 A 
ATOM     50  C   UNL A   1      41.556  28.632  31.711  1.00  0.00     0.074 A 
ATOM     51  C   UNL A   1      39.707  29.675  30.441  1.00  0.00     0.049 A 
ATOM     52  N   UNL A   1      41.481  29.278  32.846  1.00  0.00    -0.248 NA
ATOM     53  C   UNL A   1      42.630  27.625  31.671  1.00  0.00     0.031 C 
ATOM     54  C   UNL A   1      38.733  29.843  29.358  1.00  0.00     0.029 A 
ATOM     55  N   UNL A   1      39.371  30.663  31.335  1.00  0.00    -0.354 N 
ATOM     56  C   UNL A   1      42.450  28.713  33.669  1.00  0.00     0.074 A 
ATOM     57  C   UNL A   1      43.061  27.637  32.923  1.00  0.00     0.031 C 
ATOM     58  C   UNL A   1      37.939  30.889  29.632  1.00  0.00     0.029 A 
ATOM     59  C   UNL A   1      38.307  31.437  30.932  1.00  0.00     0.049 A 
ATOM     60  H   UNL A   1      39.847  30.804  32.185  1.00  0.00     0.167 HD
ATOM     61  C   UNL A   1      42.822  29.078  34.920  1.00  0.00     0.037 A 
ATOM     62  C   UNL A   1      37.691  32.469  31.542  1.00  0.00     0.037 A 
ATOM     63  C   UNL A   1      42.275  30.210  35.621  1.00  0.00     0.049 A 
ATOM     64  C   UNL A   1      38.179  32.913  32.894  1.00  0.00     0.074 A 
ATOM     65  C   UNL A   1      42.643  30.723  36.852  1.00  0.00     0.029 A 
ATOM     66  N   UNL A   1      41.258  31.021  35.137  1.00  0.00    -0.354 N 
ATOM     67  N   UNL A   1      39.126  32.394  33.638  1.00  0.00    -0.248 NA
ATOM     68  C   UNL A   1      37.523  34.086  33.487  1.00  0.00     0.031 C 
ATOM     69  C   UNL A   1      41.835  31.834  37.121  1.00  0.00     0.029 A 
ATOM     70  C   UNL A   1      40.989  32.032  36.042  1.00  0.00     0.049 A 
ATOM     71  H   UNL A   1      40.797  30.894  34.276  1.00  0.00     0.167 HD
ATOM     72  C   UNL A   1      39.199  33.193  34.773  1.00  0.00     0.074 A 
ATOM     73  C   UNL A   1      38.206  34.237  34.613  1.00  0.00     0.031 C 
ATOM     74  C   UNL A   1      40.011  33.075  35.851  1.00  0.00     0.037 A 
BRANCH  61  75
ATOM     75  C   UNL A   1      43.892  28.263  35.598  1.00  0.00     0.058 A 
ATOM     76  C   UNL A   1      43.576  27.186  36.442  1.00  0.00     0.135 A 
ATOM     77  C   UNL A   1      45.252  28.550  35.391  1.00  0.00     0.135 A 
ATOM     78  F   UNL A   1      42.294  26.872  36.687  1.00  0.00    -0.206 F 
ATOM     79  C   UNL A   1      44.564  26.454  37.093  1.00  0.00     0.059 A 
ATOM     80  C   UNL A   1      46.259  27.810  36.005  1.00  0.00     0.059 A 
ATOM     81  F   UNL A   1      45.615  29.564  34.589  1.00  0.00    -0.206 F 
ATOM     82  C   UNL A   1      45.903  26.777  36.872  1.00  0.00     0.060 A 
BRANCH  82  83
ATOM     83  S   UNL A   1      47.173  25.824  37.732  1.00  0.00     0.124 S 
ATOM     84  O   UNL A   1      46.483  24.557  37.955  1.00  0.00    -0.237 OA
ATOM     85  O   UNL A   1      48.256  25.791  36.754  1.00  0.00    -0.237 OA
ATOM     86  O   UNL A   1      47.438  26.615  38.930  1.00  0.00    -0.744 OA
ENDBRANCH  82  83
ENDBRANCH  61  75
BRANCH  62  87
ATOM     87  C   UNL A   1      36.577  33.181  30.862  1.00  0.00     0.058 A 
ATOM     88  C   UNL A   1      35.253  33.019  31.298  1.00  0.00     0.135 A 
ATOM     89  C   UNL A   1      36.806  34.049  29.782  1.00  0.00     0.135 A 
ATOM     90  F   UNL A   1      34.982  32.197  32.324  1.00  0.00    -0.206 F 
ATOM     91  C   UNL A   1      34.193  33.675  30.680  1.00  0.00     0.059 A 
ATOM     92  C   UNL A   1      35.764  34.735  29.163  1.00  0.00     0.059 A 
ATOM     93  F   UNL A   1      38.056  34.257  29.340  1.00  0.00    -0.206 F 
ATOM     94  C   UNL A   1      34.460  34.533  29.613  1.00  0.00     0.060 A 
BRANCH  94  95
ATOM     95  S   UNL A   1      33.083  35.419  28.850  1.00  0.00     0.124 S 
ATOM     96  O   UNL A   1      32.356  35.894  30.020  1.00  0.00    -0.237 OA
ATOM     97  O   UNL A   1      33.770  36.440  28.065  1.00  0.00    -0.237 OA
ATOM     98  O   UNL A   1      32.414  34.385  28.065  1.00  0.00    -0.744 OA
ENDBRANCH  94  95
ENDBRANCH  62  87
BRANCH  74  99
ATOM     99  C   UNL A   1      39.897  34.122  36.921  1.00  0.00     0.058 A 
ATOM    100  C   UNL A   1      40.592  35.337  36.842  1.00  0.00     0.135 A 
ATOM    101  C   UNL A   1      39.031  33.927  38.010  1.00  0.00     0.135 A 
ATOM    102  F   UNL A   1      41.437  35.566  35.825  1.00  0.00    -0.206 F 
ATOM    103  C   UNL A   1      40.450  36.318  37.818  1.00  0.00     0.059 A 
ATOM    104  C   UNL A   1      38.854  34.905  38.983  1.00  0.00     0.059 A 
ATOM    105  F   UNL A   1      38.334  32.785  38.126  1.00  0.00    -0.206 F 
ATOM    106  C   UNL A   1      39.576  36.094  38.884  1.00  0.00     0.060 A 
BRANCH 106 107
ATOM    107  S   UNL A   1      39.368  37.391  40.121  1.00  0.00     0.124 S 
ATOM    108  O   UNL A   1      38.819  36.639  41.246  1.00  0.00    -0.237 OA
ATOM    109  O   UNL A   1      40.731  37.882  40.293  1.00  0.00    -0.237 OA
ATOM    110  O   UNL A   1      38.447  38.325  39.480  1.00  0.00    -0.744 OA
ENDBRANCH 106 107
ENDBRANCH  74  99
ENDBRANCH  48  49
ENDBRANCH  40  43
ENDBRANCH   1  39
TORSDOF 14
ENDMDL
MODEL 3
REMARK VINA RESULT:     -14.3      6.212     11.488
REMARK SMILES C[C@H]1[C@H](C)CC[C@@]2(C(=O)NCCCNC(=O)c3ccc(-c4c5nc(c(-c6c(F)cc(S(=O)(=O)[O-])cc6F)c6ccc([nH]6)c(-c6c(F)cc(S(=O)(=O)[O-])cc6F)c6nc(c(-c7c(F)cc(S(=O)(=O)[O-])cc7F)c7ccc4[nH]7)C=C6)C=C5)cc3)CC[C@@]3(C)C(=CC[C@@H]4[C@@]5(C)CC[C@H](O)C(C)(C)[C@@H]5CC[C@]43C)[C@H]12
REMARK SMILES IDX 13 1 12 2 11 3 10 4 8 5 9 6 7 8 1 9 2 10 3 11 105 12 4 13
REMARK SMILES IDX 5 14 87 15 6 16 83 17 85 18 88 19 84 20 86 21 103 22 89 23
REMARK SMILES IDX 90 24 102 25 104 26 91 27 101 28 92 29 93 30 100 31 94 32
REMARK SMILES IDX 97 33 95 34 98 35 99 36 96 37 14 39 15 40 16 42 17 43 18 44
REMARK SMILES IDX 82 45 19 46 81 47 20 48 21 49 22 50 75 51 23 52 80 53 74 54
REMARK SMILES IDX 76 55 24 56 79 57 73 58 72 59 25 61 59 62 38 63 58 64 39 65
REMARK SMILES IDX 42 66 57 67 77 68 40 69 41 70 56 72 78 73 43 74 26 75 27 76
REMARK SMILES IDX 36 77 28 78 29 79 35 80 37 81 30 82 31 83 32 84 33 85 34 86
REMARK SMILES IDX 60 87 61 88 70 89 62 90 63 91 69 92 71 93 64 94 65 95 66 96
REMARK SMILES IDX 67 97 68 98 44 99 45 100 54 101 46 102 47 103 53 104 55 105
REMARK SMILES IDX 48 106 49 107 50 108 51 109 52 110
REMARK H PARENT 10 7 96 38 14 41 76 60 42 71
REMARK Flexibility Score: inf
ROOT
ATOM      1  C   UNL A   1      39.215  23.969  26.619  1.00  0.00     0.118 C 
ENDROOT
BRANCH   1   2
ATOM      2  C   UNL A   1      38.135  23.185  25.872  1.00  0.00     0.042 C 
BRANCH   2   3
ATOM      3  C   UNL A   1      36.727  23.715  26.134  1.00  0.00     0.117 C 
BRANCH   3   4
ATOM      4  N   UNL A   1      35.823  22.731  26.700  1.00  0.00    -0.356 N 
ATOM      5  C   UNL A   1      34.991  21.805  26.152  1.00  0.00     0.226 C 
ATOM      6  O   UNL A   1      34.068  21.473  26.910  1.00  0.00    -0.274 OA
ATOM      7  H   UNL A   1      35.810  22.735  27.684  1.00  0.00     0.163 HD
BRANCH   5   8
ATOM      8  C   UNL A   1      35.146  21.139  24.732  1.00  0.00     0.056 C 
ATOM      9  C   UNL A   1      32.050  18.805  23.933  1.00  0.00     0.008 C 
ATOM     10  C   UNL A   1      33.329  19.271  24.655  1.00  0.00    -0.003 C 
ATOM     11  C   UNL A   1      34.448  18.194  24.483  1.00  0.00    -0.011 C 
ATOM     12  C   UNL A   1      33.807  20.642  24.113  1.00  0.00     0.034 C 
ATOM     13  C   UNL A   1      34.114  16.871  25.196  1.00  0.00     0.008 C 
ATOM     14  C   UNL A   1      35.861  18.614  24.923  1.00  0.00     0.005 C 
ATOM     15  C   UNL A   1      32.858  21.856  24.158  1.00  0.00    -0.063 C 
ATOM     16  C   UNL A   1      36.255  20.069  24.733  1.00  0.00     0.018 C 
ATOM     17  C   UNL A   1      35.661  22.257  23.735  1.00  0.00     0.018 C 
ATOM     18  C   UNL A   1      33.185  22.996  23.154  1.00  0.00    -0.006 C 
ATOM     19  C   UNL A   1      31.993  22.027  25.178  1.00  0.00    -0.027 C 
ATOM     20  C   UNL A   1      34.683  23.394  23.381  1.00  0.00     0.013 C 
ATOM     21  C   UNL A   1      33.054  22.470  21.699  1.00  0.00     0.017 C 
ATOM     22  C   UNL A   1      32.194  24.278  23.360  1.00  0.00    -0.020 C 
ATOM     23  C   UNL A   1      31.405  23.352  25.579  1.00  0.00     0.032 C 
ATOM     24  C   UNL A   1      32.136  24.544  24.911  1.00  0.00     0.006 C 
ATOM     25  C   UNL A   1      32.690  25.533  22.593  1.00  0.00     0.008 C 
ATOM     26  C   UNL A   1      30.776  23.965  22.785  1.00  0.00     0.012 C 
ATOM     27  C   UNL A   1      31.726  25.985  25.438  1.00  0.00    -0.025 C 
ATOM     28  C   UNL A   1      32.001  26.828  23.032  1.00  0.00     0.005 C 
ATOM     29  C   UNL A   1      30.198  26.072  25.623  1.00  0.00     0.012 C 
ATOM     30  C   UNL A   1      32.402  26.198  26.833  1.00  0.00     0.010 C 
ATOM     31  C   UNL A   1      32.330  27.098  24.505  1.00  0.00     0.003 C 
ATOM     32  C   UNL A   1      32.248  27.610  27.396  1.00  0.00     0.033 C 
ATOM     33  C   UNL A   1      32.128  28.587  24.983  1.00  0.00    -0.006 C 
ATOM     34  C   UNL A   1      32.702  28.705  26.428  1.00  0.00     0.120 C 
ATOM     35  C   UNL A   1      30.675  29.099  24.893  1.00  0.00     0.014 C 
ATOM     36  C   UNL A   1      32.956  29.551  24.085  1.00  0.00     0.014 C 
BRANCH  34  37
ATOM     37  O   UNL A   1      32.407  29.984  26.995  1.00  0.00    -0.393 OA
ATOM     38  H   UNL A   1      32.963  30.659  26.575  1.00  0.00     0.210 HD
ENDBRANCH  34  37
ENDBRANCH   5   8
ENDBRANCH   3   4
ENDBRANCH   2   3
ENDBRANCH   1   2
BRANCH   1  39
ATOM     39  N   UNL A   1      40.120  24.735  25.763  1.00  0.00    -0.352 N 
ATOM     40  C   UNL A   1      40.918  25.833  25.993  1.00  0.00     0.251 C 
ATOM     41  H   UNL A   1      40.168  24.399  24.838  1.00  0.00     0.163 HD
ATOM     42  O   UNL A   1      41.554  26.309  25.052  1.00  0.00    -0.269 OA
BRANCH  40  43
ATOM     43  C   UNL A   1      40.974  26.494  27.318  1.00  0.00     0.039 A 
ATOM     44  C   UNL A   1      41.799  27.614  27.488  1.00  0.00     0.014 A 
ATOM     45  C   UNL A   1      40.228  26.039  28.400  1.00  0.00     0.014 A 
ATOM     46  C   UNL A   1      41.774  28.331  28.690  1.00  0.00     0.010 A 
ATOM     47  C   UNL A   1      40.099  26.825  29.540  1.00  0.00     0.010 A 
ATOM     48  C   UNL A   1      40.865  27.988  29.702  1.00  0.00    -0.014 A 
BRANCH  48  49
ATOM     49  C   UNL A   1      40.679  28.809  30.934  1.00  0.00     0.031 A 
ATOM     50  C   UNL A   1      39.596  29.860  30.987  1.00  0.00     0.074 A 
ATOM     51  C   UNL A   1      41.560  28.706  31.951  1.00  0.00     0.049 A 
ATOM     52  N   UNL A   1      39.410  30.817  31.859  1.00  0.00    -0.248 NA
ATOM     53  C   UNL A   1      38.630  29.873  29.875  1.00  0.00     0.031 C 
ATOM     54  C   UNL A   1      42.701  27.787  32.003  1.00  0.00     0.029 A 
ATOM     55  N   UNL A   1      41.647  29.397  33.137  1.00  0.00    -0.354 N 
ATOM     56  C   UNL A   1      38.352  31.577  31.369  1.00  0.00     0.074 A 
ATOM     57  C   UNL A   1      37.976  31.003  30.097  1.00  0.00     0.031 C 
ATOM     58  C   UNL A   1      43.347  27.944  33.169  1.00  0.00     0.029 A 
ATOM     59  C   UNL A   1      42.703  29.008  33.928  1.00  0.00     0.049 A 
ATOM     60  H   UNL A   1      41.013  30.104  33.395  1.00  0.00     0.167 HD
ATOM     61  C   UNL A   1      37.728  32.636  31.940  1.00  0.00     0.037 A 
ATOM     62  C   UNL A   1      43.113  29.463  35.129  1.00  0.00     0.037 A 
ATOM     63  C   UNL A   1      38.047  33.142  33.249  1.00  0.00     0.049 A 
ATOM     64  C   UNL A   1      42.351  30.581  35.785  1.00  0.00     0.074 A 
ATOM     65  C   UNL A   1      37.419  34.149  33.961  1.00  0.00     0.029 A 
ATOM     66  N   UNL A   1      39.068  32.661  34.055  1.00  0.00    -0.354 N 
ATOM     67  N   UNL A   1      41.326  31.259  35.325  1.00  0.00    -0.248 NA
ATOM     68  C   UNL A   1      42.793  30.993  37.124  1.00  0.00     0.031 C 
ATOM     69  C   UNL A   1      38.073  34.289  35.190  1.00  0.00     0.029 A 
ATOM     70  C   UNL A   1      39.085  33.345  35.257  1.00  0.00     0.049 A 
ATOM     71  H   UNL A   1      39.689  31.938  33.807  1.00  0.00     0.167 HD
ATOM     72  C   UNL A   1      40.983  32.157  36.329  1.00  0.00     0.074 A 
ATOM     73  C   UNL A   1      41.903  31.929  37.426  1.00  0.00     0.031 C 
ATOM     74  C   UNL A   1      39.997  33.087  36.343  1.00  0.00     0.037 A 
BRANCH  61  75
ATOM     75  C   UNL A   1      36.618  33.296  31.164  1.00  0.00     0.058 A 
ATOM     76  C   UNL A   1      36.880  34.114  30.053  1.00  0.00     0.135 A 
ATOM     77  C   UNL A   1      35.275  33.098  31.525  1.00  0.00     0.135 A 
ATOM     78  F   UNL A   1      38.145  34.349  29.669  1.00  0.00    -0.206 F 
ATOM     79  C   UNL A   1      35.857  34.749  29.358  1.00  0.00     0.059 A 
ATOM     80  C   UNL A   1      34.232  33.697  30.823  1.00  0.00     0.059 A 
ATOM     81  F   UNL A   1      34.964  32.321  32.575  1.00  0.00    -0.206 F 
ATOM     82  C   UNL A   1      34.536  34.538  29.753  1.00  0.00     0.060 A 
BRANCH  82  83
ATOM     83  S   UNL A   1      33.219  35.378  28.846  1.00  0.00     0.124 S 
ATOM     84  O   UNL A   1      32.590  34.260  28.150  1.00  0.00    -0.237 OA
ATOM     85  O   UNL A   1      32.433  35.978  29.919  1.00  0.00    -0.237 OA
ATOM     86  O   UNL A   1      33.940  36.322  27.997  1.00  0.00    -0.744 OA
ENDBRANCH  82  83
ENDBRANCH  61  75
BRANCH  62  87
ATOM     87  C   UNL A   1      44.275  28.830  35.809  1.00  0.00     0.058 A 
ATOM     88  C   UNL A   1      44.090  27.748  36.683  1.00  0.00     0.135 A 
ATOM     89  C   UNL A   1      45.589  29.273  35.589  1.00  0.00     0.135 A 
ATOM     90  F   UNL A   1      42.852  27.290  36.928  1.00  0.00    -0.206 F 
ATOM     91  C   UNL A   1      45.159  27.138  37.330  1.00  0.00     0.059 A 
ATOM     92  C   UNL A   1      46.679  28.663  36.207  1.00  0.00     0.059 A 
ATOM     93  F   UNL A   1      45.824  30.290  34.746  1.00  0.00    -0.206 F 
ATOM     94  C   UNL A   1      46.451  27.603  37.083  1.00  0.00     0.060 A 
BRANCH  94  95
ATOM     95  S   UNL A   1      47.838  26.771  37.889  1.00  0.00     0.124 S 
ATOM     96  O   UNL A   1      48.872  27.796  37.828  1.00  0.00    -0.237 OA
ATOM     97  O   UNL A   1      47.298  26.486  39.215  1.00  0.00    -0.237 OA
ATOM     98  O   UNL A   1      48.059  25.598  37.049  1.00  0.00    -0.744 OA
ENDBRANCH  94  95
ENDBRANCH  62  87
BRANCH  74  99
ATOM     99  C   UNL A   1      39.830  33.897  37.597  1.00  0.00     0.058 A 
ATOM    100  C   UNL A   1      40.500  35.115  37.782  1.00  0.00     0.135 A 
ATOM    101  C   UNL A   1      38.940  33.475  38.598  1.00  0.00     0.135 A 
ATOM    102  F   UNL A   1      41.366  35.557  36.857  1.00  0.00    -0.206 F 
ATOM    103  C   UNL A   1      40.310  35.879  38.929  1.00  0.00     0.059 A 
ATOM    104  C   UNL A   1      38.716  34.235  39.740  1.00  0.00     0.059 A 
ATOM    105  F   UNL A   1      38.267  32.321  38.462  1.00  0.00    -0.206 F 
ATOM    106  C   UNL A   1      39.413  35.431  39.901  1.00  0.00     0.060 A 
BRANCH 106 107
ATOM    107  S   UNL A   1      39.143  36.452  41.365  1.00  0.00     0.124 S 
ATOM    108  O   UNL A   1      40.443  36.372  42.023  1.00  0.00    -0.237 OA
ATOM    109  O   UNL A   1      38.805  37.748  40.787  1.00  0.00    -0.237 OA
ATOM    110  O   UNL A   1      38.048  35.774  42.053  1.00  0.00    -0.744 OA
ENDBRANCH 106 107
ENDBRANCH  74  99
ENDBRANCH  48  49
ENDBRANCH  40  43
ENDBRANCH   1  39
TORSDOF 14
ENDMDL
