MODEL 1
REMARK VINA RESULT:     -12.7      0.000      0.000
REMARK SMILES O=C(NCCCNC(=O)[C@H]1CCCN(C(=O)c2ccc(NC(=O)c3ccccc3)cc2)C1)c1ccc(-c2c3nc(c(-c4c(F)cc(S(=O)(=O)[O-])cc4F)c4ccc([nH]4)c(-c4c(F)cc(S(=O)(=O)[O-])cc4F)c4nc(c(-c5c(F)cc(S(=O)(=O)[O-])cc5F)c5ccc2[nH]5)C=C4)C=C3)cc1
REMARK SMILES IDX 5 1 4 2 3 3 1 4 2 5 33 7 34 8 98 9 35 10 97 11 36 12 37 13
REMARK SMILES IDX 38 14 91 15 39 16 96 17 90 18 92 19 40 20 95 21 89 22 88 23
REMARK SMILES IDX 41 25 75 26 54 27 74 28 55 29 58 30 73 31 93 32 56 33 57 34
REMARK SMILES IDX 72 36 94 37 59 38 42 39 43 40 52 41 44 42 45 43 51 44 53 45
REMARK SMILES IDX 46 46 47 47 48 48 49 49 50 50 76 51 77 52 86 53 78 54 79 55
REMARK SMILES IDX 85 56 87 57 80 58 81 59 82 60 83 61 84 62 60 63 61 64 70 65
REMARK SMILES IDX 62 66 63 67 69 68 71 69 64 70 65 71 66 72 67 73 68 74 6 75
REMARK SMILES IDX 7 76 8 77 9 79 10 80 11 81 32 82 12 83 14 84 13 85 15 86
REMARK SMILES IDX 16 87 17 88 18 89 31 90 19 91 30 92 20 93 21 94 22 95 23 97
REMARK SMILES IDX 24 98 25 99 29 100 26 101 28 102 27 103
REMARK H PARENT 3 6 92 24 58 35 7 78 21 96
REMARK Flexibility Score: inf
ROOT
ATOM      1  C   UNL A   1      33.798  28.847  27.258  1.00  0.00     0.042 C 
ENDROOT
BRANCH   1   2
ATOM      2  C   UNL A   1      35.194  29.372  27.574  1.00  0.00     0.118 C 
BRANCH   2   3
ATOM      3  N   UNL A   1      35.222  30.190  28.782  1.00  0.00    -0.352 N 
ATOM      4  O   UNL A   1      35.963  30.923  30.773  1.00  0.00    -0.269 OA
ATOM      5  C   UNL A   1      36.218  30.362  29.707  1.00  0.00     0.251 C 
ATOM      6  H   UNL A   1      34.397  30.696  28.960  1.00  0.00     0.163 HD
BRANCH   5   7
ATOM      7  C   UNL A   1      37.588  29.881  29.431  1.00  0.00     0.039 A 
ATOM      8  C   UNL A   1      38.083  29.870  28.126  1.00  0.00     0.014 A 
ATOM      9  C   UNL A   1      38.409  29.491  30.495  1.00  0.00     0.014 A 
ATOM     10  C   UNL A   1      39.348  29.356  27.867  1.00  0.00     0.010 A 
ATOM     11  C   UNL A   1      39.716  29.063  30.243  1.00  0.00     0.010 A 
ATOM     12  C   UNL A   1      40.192  28.985  28.925  1.00  0.00    -0.014 A 
BRANCH  12  13
ATOM     13  C   UNL A   1      41.609  28.660  28.633  1.00  0.00     0.031 A 
ATOM     14  C   UNL A   1      42.677  29.714  28.651  1.00  0.00     0.074 A 
ATOM     15  C   UNL A   1      41.914  27.376  28.348  1.00  0.00     0.049 A 
ATOM     16  N   UNL A   1      43.955  29.587  28.400  1.00  0.00    -0.248 NA
ATOM     17  C   UNL A   1      42.266  31.088  28.985  1.00  0.00     0.031 C 
ATOM     18  C   UNL A   1      40.944  26.277  28.282  1.00  0.00     0.029 A 
ATOM     19  N   UNL A   1      43.112  26.774  28.064  1.00  0.00    -0.354 N 
ATOM     20  C   UNL A   1      44.499  30.859  28.524  1.00  0.00     0.074 A 
ATOM     21  C   UNL A   1      43.411  31.751  28.863  1.00  0.00     0.031 C 
ATOM     22  C   UNL A   1      41.587  25.135  28.003  1.00  0.00     0.029 A 
ATOM     23  C   UNL A   1      42.999  25.429  27.799  1.00  0.00     0.049 A 
ATOM     24  H   UNL A   1      43.969  27.257  28.051  1.00  0.00     0.167 HD
ATOM     25  C   UNL A   1      45.790  31.237  28.366  1.00  0.00     0.037 A 
ATOM     26  C   UNL A   1      43.921  24.535  27.394  1.00  0.00     0.037 A 
ATOM     27  C   UNL A   1      46.864  30.328  28.053  1.00  0.00     0.049 A 
ATOM     28  C   UNL A   1      45.336  24.997  27.202  1.00  0.00     0.074 A 
ATOM     29  C   UNL A   1      48.218  30.602  27.953  1.00  0.00     0.029 A 
ATOM     30  N   UNL A   1      46.710  28.977  27.772  1.00  0.00    -0.354 N 
ATOM     31  N   UNL A   1      45.847  26.189  27.402  1.00  0.00    -0.248 NA
ATOM     32  C   UNL A   1      46.301  24.000  26.721  1.00  0.00     0.031 C 
ATOM     33  C   UNL A   1      48.872  29.435  27.550  1.00  0.00     0.029 A 
ATOM     34  C   UNL A   1      47.936  28.418  27.453  1.00  0.00     0.049 A 
ATOM     35  H   UNL A   1      45.855  28.490  27.796  1.00  0.00     0.167 HD
ATOM     36  C   UNL A   1      47.192  26.082  27.077  1.00  0.00     0.074 A 
ATOM     37  C   UNL A   1      47.424  24.703  26.701  1.00  0.00     0.031 C 
ATOM     38  C   UNL A   1      48.148  27.042  27.078  1.00  0.00     0.037 A 
BRANCH  25  39
ATOM     39  C   UNL A   1      46.139  32.693  28.511  1.00  0.00     0.058 A 
ATOM     40  C   UNL A   1      46.599  33.230  29.722  1.00  0.00     0.135 A 
ATOM     41  C   UNL A   1      46.130  33.534  27.384  1.00  0.00     0.135 A 
ATOM     42  F   UNL A   1      46.616  32.476  30.833  1.00  0.00    -0.206 F 
ATOM     43  C   UNL A   1      47.044  34.546  29.811  1.00  0.00     0.059 A 
ATOM     44  C   UNL A   1      46.590  34.846  27.445  1.00  0.00     0.059 A 
ATOM     45  F   UNL A   1      45.696  33.071  26.201  1.00  0.00    -0.206 F 
ATOM     46  C   UNL A   1      47.046  35.343  28.664  1.00  0.00     0.060 A 
BRANCH  46  47
ATOM     47  S   UNL A   1      47.686  37.028  28.786  1.00  0.00     0.124 S 
ATOM     48  O   UNL A   1      48.303  37.012  30.108  1.00  0.00    -0.237 OA
ATOM     49  O   UNL A   1      48.608  37.092  27.657  1.00  0.00    -0.237 OA
ATOM     50  O   UNL A   1      46.491  37.857  28.663  1.00  0.00    -0.744 OA
ENDBRANCH  46  47
ENDBRANCH  25  39
BRANCH  26  51
ATOM     51  C   UNL A   1      43.520  23.135  27.088  1.00  0.00     0.058 A 
ATOM     52  C   UNL A   1      43.417  22.678  25.768  1.00  0.00     0.135 A 
ATOM     53  C   UNL A   1      43.215  22.231  28.120  1.00  0.00     0.135 A 
ATOM     54  F   UNL A   1      43.695  23.503  24.747  1.00  0.00    -0.206 F 
ATOM     55  C   UNL A   1      42.990  21.386  25.478  1.00  0.00     0.059 A 
ATOM     56  C   UNL A   1      42.821  20.925  27.856  1.00  0.00     0.059 A 
ATOM     57  F   UNL A   1      43.319  22.613  29.403  1.00  0.00    -0.206 F 
ATOM     58  C   UNL A   1      42.690  20.518  26.530  1.00  0.00     0.060 A 
BRANCH  58  59
ATOM     59  S   UNL A   1      42.136  18.844  26.145  1.00  0.00     0.124 S 
ATOM     60  O   UNL A   1      42.343  18.170  27.422  1.00  0.00    -0.237 OA
ATOM     61  O   UNL A   1      40.748  19.062  25.754  1.00  0.00    -0.237 OA
ATOM     62  O   UNL A   1      43.029  18.437  25.064  1.00  0.00    -0.744 OA
ENDBRANCH  58  59
ENDBRANCH  26  51
BRANCH  38  63
ATOM     63  C   UNL A   1      49.533  26.632  26.665  1.00  0.00     0.058 A 
ATOM     64  C   UNL A   1      50.432  26.065  27.583  1.00  0.00     0.135 A 
ATOM     65  C   UNL A   1      49.951  26.763  25.331  1.00  0.00     0.135 A 
ATOM     66  F   UNL A   1      50.085  25.930  28.873  1.00  0.00    -0.206 F 
ATOM     67  C   UNL A   1      51.704  25.658  27.196  1.00  0.00     0.059 A 
ATOM     68  C   UNL A   1      51.207  26.335  24.916  1.00  0.00     0.059 A 
ATOM     69  F   UNL A   1      49.127  27.294  24.413  1.00  0.00    -0.206 F 
ATOM     70  C   UNL A   1      52.080  25.791  25.858  1.00  0.00     0.060 A 
BRANCH  70  71
ATOM     71  S   UNL A   1      53.718  25.218  25.363  1.00  0.00     0.124 S 
ATOM     72  O   UNL A   1      54.557  25.773  26.419  1.00  0.00    -0.237 OA
ATOM     73  O   UNL A   1      53.557  23.768  25.376  1.00  0.00    -0.237 OA
ATOM     74  O   UNL A   1      53.900  25.811  24.041  1.00  0.00    -0.744 OA
ENDBRANCH  70  71
ENDBRANCH  38  63
ENDBRANCH  12  13
ENDBRANCH   5   7
ENDBRANCH   2   3
ENDBRANCH   1   2
BRANCH   1  75
ATOM     75  C   UNL A   1      32.995  29.773  26.356  1.00  0.00     0.117 C 
BRANCH  75  76
ATOM     76  N   UNL A   1      33.346  29.627  24.952  1.00  0.00    -0.356 N 
ATOM     77  C   UNL A   1      32.861  28.771  24.009  1.00  0.00     0.224 C 
ATOM     78  H   UNL A   1      34.044  30.245  24.633  1.00  0.00     0.163 HD
ATOM     79  O   UNL A   1      33.294  28.852  22.859  1.00  0.00    -0.275 OA
BRANCH  77  80
ATOM     80  C   UNL A   1      31.830  27.735  24.398  1.00  0.00     0.098 C 
ATOM     81  C   UNL A   1      30.575  27.843  23.525  1.00  0.00     0.017 C 
ATOM     82  C   UNL A   1      32.430  26.342  24.239  1.00  0.00     0.133 C 
ATOM     83  C   UNL A   1      29.563  26.778  23.950  1.00  0.00     0.022 C 
ATOM     84  N   UNL A   1      31.455  25.342  24.686  1.00  0.00    -0.338 N 
ATOM     85  C   UNL A   1      30.171  25.372  23.977  1.00  0.00     0.120 C 
BRANCH  84  86
ATOM     86  C   UNL A   1      31.791  24.579  25.805  1.00  0.00     0.253 C 
ATOM     87  O   UNL A   1      31.302  24.801  26.914  1.00  0.00    -0.269 OA
BRANCH  86  88
ATOM     88  C   UNL A   1      32.717  23.425  25.708  1.00  0.00     0.040 A 
ATOM     89  C   UNL A   1      32.721  22.714  24.506  1.00  0.00     0.016 A 
ATOM     90  C   UNL A   1      33.503  22.966  26.766  1.00  0.00     0.016 A 
ATOM     91  C   UNL A   1      33.573  21.623  24.332  1.00  0.00     0.027 A 
ATOM     92  C   UNL A   1      34.394  21.901  26.567  1.00  0.00     0.027 A 
ATOM     93  C   UNL A   1      34.482  21.261  25.324  1.00  0.00     0.041 A 
BRANCH  93  94
ATOM     94  N   UNL A   1      35.485  20.284  25.166  1.00  0.00    -0.322 N 
ATOM     95  C   UNL A   1      36.862  20.376  25.095  1.00  0.00     0.255 C 
ATOM     96  H   UNL A   1      35.140  19.365  25.091  1.00  0.00     0.170 HD
ATOM     97  O   UNL A   1      37.530  19.378  24.825  1.00  0.00    -0.269 OA
BRANCH  95  98
ATOM     98  C   UNL A   1      37.564  21.639  25.391  1.00  0.00     0.040 A 
ATOM     99  C   UNL A   1      36.984  22.839  24.969  1.00  0.00     0.014 A 
ATOM    100  C   UNL A   1      38.750  21.643  26.138  1.00  0.00     0.014 A 
ATOM    101  C   UNL A   1      37.545  24.050  25.374  1.00  0.00     0.001 A 
ATOM    102  C   UNL A   1      39.298  22.859  26.549  1.00  0.00     0.001 A 
ATOM    103  C   UNL A   1      38.687  24.059  26.180  1.00  0.00     0.000 A 
ENDBRANCH  95  98
ENDBRANCH  93  94
ENDBRANCH  86  88
ENDBRANCH  84  86
ENDBRANCH  77  80
ENDBRANCH  75  76
ENDBRANCH   1  75
TORSDOF 17
ENDMDL
MODEL 2
REMARK VINA RESULT:     -12.5      2.272      8.876
REMARK SMILES O=C(NCCCNC(=O)[C@H]1CCCN(C(=O)c2ccc(NC(=O)c3ccccc3)cc2)C1)c1ccc(-c2c3nc(c(-c4c(F)cc(S(=O)(=O)[O-])cc4F)c4ccc([nH]4)c(-c4c(F)cc(S(=O)(=O)[O-])cc4F)c4nc(c(-c5c(F)cc(S(=O)(=O)[O-])cc5F)c5ccc2[nH]5)C=C4)C=C3)cc1
REMARK SMILES IDX 5 1 4 2 3 3 1 4 2 5 33 7 34 8 98 9 35 10 97 11 36 12 37 13
REMARK SMILES IDX 38 14 91 15 39 16 96 17 90 18 92 19 40 20 95 21 89 22 88 23
REMARK SMILES IDX 41 25 75 26 54 27 74 28 55 29 58 30 73 31 93 32 56 33 57 34
REMARK SMILES IDX 72 36 94 37 59 38 42 39 43 40 52 41 44 42 45 43 51 44 53 45
REMARK SMILES IDX 46 46 47 47 48 48 49 49 50 50 76 51 77 52 86 53 78 54 79 55
REMARK SMILES IDX 85 56 87 57 80 58 81 59 82 60 83 61 84 62 60 63 61 64 70 65
REMARK SMILES IDX 62 66 63 67 69 68 71 69 64 70 65 71 66 72 67 73 68 74 6 75
REMARK SMILES IDX 7 76 8 77 9 79 10 80 11 81 32 82 12 83 14 84 13 85 15 86
REMARK SMILES IDX 16 87 17 88 18 89 31 90 19 91 30 92 20 93 21 94 22 95 23 97
REMARK SMILES IDX 24 98 25 99 29 100 26 101 28 102 27 103
REMARK H PARENT 3 6 92 24 58 35 7 78 21 96
REMARK Flexibility Score: inf
ROOT
ATOM      1  C   UNL A   1      38.284  20.160  25.077  1.00  0.00     0.042 C 
ENDROOT
BRANCH   1   2
ATOM      2  C   UNL A   1      39.373  20.454  26.101  1.00  0.00     0.118 C 
BRANCH   2   3
ATOM      3  N   UNL A   1      40.413  19.431  26.120  1.00  0.00    -0.352 N 
ATOM      4  O   UNL A   1      42.478  18.568  25.910  1.00  0.00    -0.269 OA
ATOM      5  C   UNL A   1      41.778  19.560  26.117  1.00  0.00     0.251 C 
ATOM      6  H   UNL A   1      40.083  18.504  26.136  1.00  0.00     0.163 HD
BRANCH   5   7
ATOM      7  C   UNL A   1      42.406  20.875  26.360  1.00  0.00     0.039 A 
ATOM      8  C   UNL A   1      42.711  21.721  25.292  1.00  0.00     0.014 A 
ATOM      9  C   UNL A   1      42.640  21.294  27.674  1.00  0.00     0.014 A 
ATOM     10  C   UNL A   1      43.360  22.927  25.526  1.00  0.00     0.010 A 
ATOM     11  C   UNL A   1      43.207  22.549  27.913  1.00  0.00     0.010 A 
ATOM     12  C   UNL A   1      43.578  23.372  26.838  1.00  0.00    -0.014 A 
BRANCH  12  13
ATOM     13  C   UNL A   1      44.061  24.757  27.056  1.00  0.00     0.031 A 
ATOM     14  C   UNL A   1      45.503  25.126  26.863  1.00  0.00     0.074 A 
ATOM     15  C   UNL A   1      43.158  25.686  27.436  1.00  0.00     0.049 A 
ATOM     16  N   UNL A   1      46.078  26.290  27.031  1.00  0.00    -0.248 NA
ATOM     17  C   UNL A   1      46.423  24.060  26.434  1.00  0.00     0.031 C 
ATOM     18  C   UNL A   1      41.733  25.424  27.674  1.00  0.00     0.029 A 
ATOM     19  N   UNL A   1      43.291  27.026  27.687  1.00  0.00    -0.354 N 
ATOM     20  C   UNL A   1      47.425  26.097  26.751  1.00  0.00     0.074 A 
ATOM     21  C   UNL A   1      47.587  24.699  26.411  1.00  0.00     0.031 C 
ATOM     22  C   UNL A   1      41.123  26.569  28.010  1.00  0.00     0.029 A 
ATOM     23  C   UNL A   1      42.120  27.629  28.083  1.00  0.00     0.049 A 
ATOM     24  H   UNL A   1      44.143  27.511  27.593  1.00  0.00     0.167 HD
ATOM     25  C   UNL A   1      48.425  27.009  26.779  1.00  0.00     0.037 A 
ATOM     26  C   UNL A   1      41.878  28.885  28.501  1.00  0.00     0.037 A 
ATOM     27  C   UNL A   1      48.238  28.402  27.096  1.00  0.00     0.049 A 
ATOM     28  C   UNL A   1      43.018  29.861  28.547  1.00  0.00     0.074 A 
ATOM     29  C   UNL A   1      49.176  29.421  27.071  1.00  0.00     0.029 A 
ATOM     30  N   UNL A   1      47.043  28.972  27.511  1.00  0.00    -0.354 N 
ATOM     31  N   UNL A   1      44.271  29.679  28.200  1.00  0.00    -0.248 NA
ATOM     32  C   UNL A   1      42.719  31.209  29.046  1.00  0.00     0.031 C 
ATOM     33  C   UNL A   1      48.565  30.590  27.533  1.00  0.00     0.029 A 
ATOM     34  C   UNL A   1      47.231  30.316  27.791  1.00  0.00     0.049 A 
ATOM     35  H   UNL A   1      46.187  28.492  27.595  1.00  0.00     0.167 HD
ATOM     36  C   UNL A   1      44.906  30.891  28.435  1.00  0.00     0.074 A 
ATOM     37  C   UNL A   1      43.895  31.808  28.920  1.00  0.00     0.031 C 
ATOM     38  C   UNL A   1      46.213  31.213  28.276  1.00  0.00     0.037 A 
BRANCH  25  39
ATOM     39  C   UNL A   1      49.827  26.552  26.475  1.00  0.00     0.058 A 
ATOM     40  C   UNL A   1      50.666  26.020  27.465  1.00  0.00     0.135 A 
ATOM     41  C   UNL A   1      50.288  26.533  25.147  1.00  0.00     0.135 A 
ATOM     42  F   UNL A   1      50.281  26.026  28.751  1.00  0.00    -0.206 F 
ATOM     43  C   UNL A   1      51.909  25.479  27.150  1.00  0.00     0.059 A 
ATOM     44  C   UNL A   1      51.517  25.977  24.806  1.00  0.00     0.059 A 
ATOM     45  F   UNL A   1      49.525  27.032  24.161  1.00  0.00    -0.206 F 
ATOM     46  C   UNL A   1      52.321  25.452  25.815  1.00  0.00     0.060 A 
BRANCH  46  47
ATOM     47  S   UNL A   1      53.910  24.690  25.419  1.00  0.00     0.124 S 
ATOM     48  O   UNL A   1      54.375  25.535  24.323  1.00  0.00    -0.237 OA
ATOM     49  O   UNL A   1      54.640  24.823  26.675  1.00  0.00    -0.237 OA
ATOM     50  O   UNL A   1      53.551  23.325  25.048  1.00  0.00    -0.744 OA
ENDBRANCH  46  47
ENDBRANCH  25  39
BRANCH  26  51
ATOM     51  C   UNL A   1      40.518  29.270  28.964  1.00  0.00     0.058 A 
ATOM     52  C   UNL A   1      39.487  29.538  28.054  1.00  0.00     0.135 A 
ATOM     53  C   UNL A   1      40.230  29.395  30.333  1.00  0.00     0.135 A 
ATOM     54  F   UNL A   1      39.711  29.435  26.735  1.00  0.00    -0.206 F 
ATOM     55  C   UNL A   1      38.229  29.951  28.482  1.00  0.00     0.059 A 
ATOM     56  C   UNL A   1      38.972  29.771  30.787  1.00  0.00     0.059 A 
ATOM     57  F   UNL A   1      41.177  29.129  31.248  1.00  0.00    -0.206 F 
ATOM     58  C   UNL A   1      37.983  30.069  29.851  1.00  0.00     0.060 A 
BRANCH  58  59
ATOM     59  S   UNL A   1      36.349  30.606  30.398  1.00  0.00     0.124 S 
ATOM     60  O   UNL A   1      35.594  30.554  29.152  1.00  0.00    -0.237 OA
ATOM     61  O   UNL A   1      36.011  29.595  31.395  1.00  0.00    -0.237 OA
ATOM     62  O   UNL A   1      36.598  31.943  30.930  1.00  0.00    -0.744 OA
ENDBRANCH  58  59
ENDBRANCH  26  51
BRANCH  38  63
ATOM     63  C   UNL A   1      46.621  32.617  28.623  1.00  0.00     0.058 A 
ATOM     64  C   UNL A   1      47.083  32.947  29.907  1.00  0.00     0.135 A 
ATOM     65  C   UNL A   1      46.594  33.632  27.653  1.00  0.00     0.135 A 
ATOM     66  F   UNL A   1      47.115  32.016  30.874  1.00  0.00    -0.206 F 
ATOM     67  C   UNL A   1      47.488  34.239  30.223  1.00  0.00     0.059 A 
ATOM     68  C   UNL A   1      47.023  34.923  27.938  1.00  0.00     0.059 A 
ATOM     69  F   UNL A   1      46.166  33.366  26.408  1.00  0.00    -0.206 F 
ATOM     70  C   UNL A   1      47.460  35.219  29.229  1.00  0.00     0.060 A 
BRANCH  70  71
ATOM     71  S   UNL A   1      48.031  36.881  29.642  1.00  0.00     0.124 S 
ATOM     72  O   UNL A   1      46.931  37.374  30.464  1.00  0.00    -0.237 OA
ATOM     73  O   UNL A   1      49.280  36.615  30.346  1.00  0.00    -0.237 OA
ATOM     74  O   UNL A   1      48.177  37.524  28.339  1.00  0.00    -0.744 OA
ENDBRANCH  70  71
ENDBRANCH  38  63
ENDBRANCH  12  13
ENDBRANCH   5   7
ENDBRANCH   2   3
ENDBRANCH   1   2
BRANCH   1  75
ATOM     75  C   UNL A   1      37.294  21.304  24.903  1.00  0.00     0.117 C 
BRANCH  75  76
ATOM     76  N   UNL A   1      36.366  21.412  26.018  1.00  0.00    -0.356 N 
ATOM     77  C   UNL A   1      35.004  21.388  26.033  1.00  0.00     0.224 C 
ATOM     78  H   UNL A   1      36.790  21.521  26.901  1.00  0.00     0.163 HD
ATOM     79  O   UNL A   1      34.424  21.467  27.116  1.00  0.00    -0.275 OA
BRANCH  77  80
ATOM     80  C   UNL A   1      34.242  21.288  24.730  1.00  0.00     0.098 C 
ATOM     81  C   UNL A   1      33.406  20.005  24.670  1.00  0.00     0.017 C 
ATOM     82  C   UNL A   1      33.317  22.493  24.593  1.00  0.00     0.133 C 
ATOM     83  C   UNL A   1      32.652  19.946  23.341  1.00  0.00     0.022 C 
ATOM     84  N   UNL A   1      32.635  22.433  23.296  1.00  0.00    -0.338 N 
ATOM     85  C   UNL A   1      31.842  21.219  23.073  1.00  0.00     0.120 C 
BRANCH  84  86
ATOM     86  C   UNL A   1      32.917  23.446  22.379  1.00  0.00     0.253 C 
ATOM     87  O   UNL A   1      33.658  23.261  21.413  1.00  0.00    -0.269 OA
BRANCH  86  88
ATOM     88  C   UNL A   1      32.295  24.788  22.491  1.00  0.00     0.040 A 
ATOM     89  C   UNL A   1      31.112  24.881  23.226  1.00  0.00     0.016 A 
ATOM     90  C   UNL A   1      32.774  25.924  21.837  1.00  0.00     0.016 A 
ATOM     91  C   UNL A   1      30.473  26.111  23.388  1.00  0.00     0.027 A 
ATOM     92  C   UNL A   1      32.157  27.166  22.045  1.00  0.00     0.027 A 
ATOM     93  C   UNL A   1      31.036  27.280  22.877  1.00  0.00     0.041 A 
BRANCH  93  94
ATOM     94  N   UNL A   1      30.547  28.576  23.136  1.00  0.00    -0.322 N 
ATOM     95  C   UNL A   1      30.748  29.447  24.189  1.00  0.00     0.255 C 
ATOM     96  H   UNL A   1      29.950  28.926  22.435  1.00  0.00     0.170 HD
ATOM     97  O   UNL A   1      30.103  30.493  24.252  1.00  0.00    -0.269 OA
BRANCH  95  98
ATOM     98  C   UNL A   1      31.765  29.180  25.224  1.00  0.00     0.040 A 
ATOM     99  C   UNL A   1      31.344  28.679  26.460  1.00  0.00     0.014 A 
ATOM    100  C   UNL A   1      33.128  29.356  24.953  1.00  0.00     0.014 A 
ATOM    101  C   UNL A   1      32.296  28.270  27.393  1.00  0.00     0.001 A 
ATOM    102  C   UNL A   1      34.075  28.934  25.888  1.00  0.00     0.001 A 
ATOM    103  C   UNL A   1      33.657  28.377  27.098  1.00  0.00     0.000 A 
ENDBRANCH  95  98
ENDBRANCH  93  94
ENDBRANCH  86  88
ENDBRANCH  84  86
ENDBRANCH  77  80
ENDBRANCH  75  76
ENDBRANCH   1  75
TORSDOF 17
ENDMDL
MODEL 3
REMARK VINA RESULT:     -12.4      4.335     10.554
REMARK SMILES O=C(NCCCNC(=O)[C@H]1CCCN(C(=O)c2ccc(NC(=O)c3ccccc3)cc2)C1)c1ccc(-c2c3nc(c(-c4c(F)cc(S(=O)(=O)[O-])cc4F)c4ccc([nH]4)c(-c4c(F)cc(S(=O)(=O)[O-])cc4F)c4nc(c(-c5c(F)cc(S(=O)(=O)[O-])cc5F)c5ccc2[nH]5)C=C4)C=C3)cc1
REMARK SMILES IDX 5 1 4 2 3 3 1 4 2 5 33 7 34 8 98 9 35 10 97 11 36 12 37 13
REMARK SMILES IDX 38 14 91 15 39 16 96 17 90 18 92 19 40 20 95 21 89 22 88 23
REMARK SMILES IDX 41 25 75 26 54 27 74 28 55 29 58 30 73 31 93 32 56 33 57 34
REMARK SMILES IDX 72 36 94 37 59 38 42 39 43 40 52 41 44 42 45 43 51 44 53 45
REMARK SMILES IDX 46 46 47 47 48 48 49 49 50 50 76 51 77 52 86 53 78 54 79 55
REMARK SMILES IDX 85 56 87 57 80 58 81 59 82 60 83 61 84 62 60 63 61 64 70 65
REMARK SMILES IDX 62 66 63 67 69 68 71 69 64 70 65 71 66 72 67 73 68 74 6 75
REMARK SMILES IDX 7 76 8 77 9 79 10 80 11 81 32 82 12 83 14 84 13 85 15 86
REMARK SMILES IDX 16 87 17 88 18 89 31 90 19 91 30 92 20 93 21 94 22 95 23 97
REMARK SMILES IDX 24 98 25 99 29 100 26 101 28 102 27 103
REMARK H PARENT 3 6 92 24 58 35 7 78 21 96
REMARK Flexibility Score: inf
ROOT
ATOM      1  C   UNL A   1      34.897  32.891  30.069  1.00  0.00     0.042 C 
ENDROOT
BRANCH   1   2
ATOM      2  C   UNL A   1      34.762  32.720  28.561  1.00  0.00     0.118 C 
BRANCH   2   3
ATOM      3  N   UNL A   1      34.006  31.525  28.200  1.00  0.00    -0.352 N 
ATOM      4  O   UNL A   1      33.661  29.450  27.408  1.00  0.00    -0.269 OA
ATOM      5  C   UNL A   1      34.444  30.260  27.903  1.00  0.00     0.251 C 
ATOM      6  H   UNL A   1      33.030  31.646  28.164  1.00  0.00     0.163 HD
BRANCH   5   7
ATOM      7  C   UNL A   1      35.843  29.870  28.175  1.00  0.00     0.039 A 
ATOM      8  C   UNL A   1      36.836  30.086  27.217  1.00  0.00     0.014 A 
ATOM      9  C   UNL A   1      36.179  29.335  29.423  1.00  0.00     0.014 A 
ATOM     10  C   UNL A   1      38.136  29.657  27.456  1.00  0.00     0.010 A 
ATOM     11  C   UNL A   1      37.506  28.991  29.698  1.00  0.00     0.010 A 
ATOM     12  C   UNL A   1      38.493  29.142  28.712  1.00  0.00    -0.014 A 
BRANCH  12  13
ATOM     13  C   UNL A   1      39.927  28.909  29.011  1.00  0.00     0.031 A 
ATOM     14  C   UNL A   1      40.603  27.617  28.657  1.00  0.00     0.074 A 
ATOM     15  C   UNL A   1      40.612  29.902  29.616  1.00  0.00     0.049 A 
ATOM     16  N   UNL A   1      41.844  27.259  28.869  1.00  0.00    -0.248 NA
ATOM     17  C   UNL A   1      39.791  26.589  27.986  1.00  0.00     0.031 C 
ATOM     18  C   UNL A   1      40.041  31.190  30.025  1.00  0.00     0.029 A 
ATOM     19  N   UNL A   1      41.927  29.992  29.993  1.00  0.00    -0.354 N 
ATOM     20  C   UNL A   1      41.960  25.964  28.381  1.00  0.00     0.074 A 
ATOM     21  C   UNL A   1      40.658  25.591  27.868  1.00  0.00     0.031 C 
ATOM     22  C   UNL A   1      41.002  31.948  30.569  1.00  0.00     0.029 A 
ATOM     23  C   UNL A   1      42.238  31.178  30.616  1.00  0.00     0.049 A 
ATOM     24  H   UNL A   1      42.585  29.278  29.833  1.00  0.00     0.167 HD
ATOM     25  C   UNL A   1      43.055  25.169  28.367  1.00  0.00     0.037 A 
ATOM     26  C   UNL A   1      43.379  31.588  31.201  1.00  0.00     0.037 A 
ATOM     27  C   UNL A   1      44.349  25.569  28.860  1.00  0.00     0.049 A 
ATOM     28  C   UNL A   1      44.565  30.668  31.192  1.00  0.00     0.074 A 
ATOM     29  C   UNL A   1      45.540  24.864  28.815  1.00  0.00     0.029 A 
ATOM     30  N   UNL A   1      44.622  26.769  29.502  1.00  0.00    -0.354 N 
ATOM     31  N   UNL A   1      44.677  29.477  30.653  1.00  0.00    -0.248 NA
ATOM     32  C   UNL A   1      45.776  31.138  31.875  1.00  0.00     0.031 C 
ATOM     33  C   UNL A   1      46.515  25.607  29.485  1.00  0.00     0.029 A 
ATOM     34  C   UNL A   1      45.948  26.802  29.899  1.00  0.00     0.049 A 
ATOM     35  H   UNL A   1      43.968  27.490  29.653  1.00  0.00     0.167 HD
ATOM     36  C   UNL A   1      45.971  29.059  30.927  1.00  0.00     0.074 A 
ATOM     37  C   UNL A   1      46.615  30.137  31.650  1.00  0.00     0.031 C 
ATOM     38  C   UNL A   1      46.571  27.884  30.620  1.00  0.00     0.037 A 
BRANCH  25  39
ATOM     39  C   UNL A   1      42.928  23.774  27.817  1.00  0.00     0.058 A 
ATOM     40  C   UNL A   1      42.683  22.669  28.646  1.00  0.00     0.135 A 
ATOM     41  C   UNL A   1      42.926  23.562  26.428  1.00  0.00     0.135 A 
ATOM     42  F   UNL A   1      42.687  22.811  29.981  1.00  0.00    -0.206 F 
ATOM     43  C   UNL A   1      42.435  21.405  28.118  1.00  0.00     0.059 A 
ATOM     44  C   UNL A   1      42.659  22.312  25.877  1.00  0.00     0.059 A 
ATOM     45  F   UNL A   1      43.158  24.585  25.590  1.00  0.00    -0.206 F 
ATOM     46  C   UNL A   1      42.414  21.239  26.731  1.00  0.00     0.060 A 
BRANCH  46  47
ATOM     47  S   UNL A   1      42.029  19.606  26.063  1.00  0.00     0.124 S 
ATOM     48  O   UNL A   1      42.393  18.740  27.180  1.00  0.00    -0.237 OA
ATOM     49  O   UNL A   1      40.601  19.713  25.784  1.00  0.00    -0.237 OA
ATOM     50  O   UNL A   1      42.888  19.505  24.888  1.00  0.00    -0.744 OA
ENDBRANCH  46  47
ENDBRANCH  25  39
BRANCH  26  51
ATOM     51  C   UNL A   1      43.433  32.905  31.893  1.00  0.00     0.058 A 
ATOM     52  C   UNL A   1      43.326  33.002  33.286  1.00  0.00     0.135 A 
ATOM     53  C   UNL A   1      43.575  34.097  31.163  1.00  0.00     0.135 A 
ATOM     54  F   UNL A   1      43.186  31.892  34.028  1.00  0.00    -0.206 F 
ATOM     55  C   UNL A   1      43.321  34.235  33.930  1.00  0.00     0.059 A 
ATOM     56  C   UNL A   1      43.609  35.338  31.786  1.00  0.00     0.059 A 
ATOM     57  F   UNL A   1      43.703  34.058  29.826  1.00  0.00    -0.206 F 
ATOM     58  C   UNL A   1      43.459  35.398  33.171  1.00  0.00     0.060 A 
BRANCH  58  59
ATOM     59  S   UNL A   1      43.451  36.993  34.014  1.00  0.00     0.124 S 
ATOM     60  O   UNL A   1      44.524  36.814  34.984  1.00  0.00    -0.237 OA
ATOM     61  O   UNL A   1      43.725  37.920  32.920  1.00  0.00    -0.237 OA
ATOM     62  O   UNL A   1      42.103  37.071  34.569  1.00  0.00    -0.744 OA
ENDBRANCH  58  59
ENDBRANCH  26  51
BRANCH  38  63
ATOM     63  C   UNL A   1      47.997  27.705  31.060  1.00  0.00     0.058 A 
ATOM     64  C   UNL A   1      48.313  27.144  32.308  1.00  0.00     0.135 A 
ATOM     65  C   UNL A   1      49.058  28.055  30.209  1.00  0.00     0.135 A 
ATOM     66  F   UNL A   1      47.335  26.805  33.163  1.00  0.00    -0.206 F 
ATOM     67  C   UNL A   1      49.631  26.952  32.704  1.00  0.00     0.059 A 
ATOM     68  C   UNL A   1      50.384  27.843  30.572  1.00  0.00     0.059 A 
ATOM     69  F   UNL A   1      48.809  28.590  29.003  1.00  0.00    -0.206 F 
ATOM     70  C   UNL A   1      50.660  27.299  31.827  1.00  0.00     0.060 A 
BRANCH  70  71
ATOM     71  S   UNL A   1      52.365  27.003  32.338  1.00  0.00     0.124 S 
ATOM     72  O   UNL A   1      52.276  27.184  33.782  1.00  0.00    -0.237 OA
ATOM     73  O   UNL A   1      52.594  25.635  31.883  1.00  0.00    -0.237 OA
ATOM     74  O   UNL A   1      53.118  28.029  31.622  1.00  0.00    -0.744 OA
ENDBRANCH  70  71
ENDBRANCH  38  63
ENDBRANCH  12  13
ENDBRANCH   5   7
ENDBRANCH   2   3
ENDBRANCH   1   2
BRANCH   1  75
ATOM     75  C   UNL A   1      35.900  33.964  30.468  1.00  0.00     0.117 C 
BRANCH  75  76
ATOM     76  N   UNL A   1      35.429  34.786  31.571  1.00  0.00    -0.356 N 
ATOM     77  C   UNL A   1      35.855  34.850  32.864  1.00  0.00     0.224 C 
ATOM     78  H   UNL A   1      34.684  35.392  31.349  1.00  0.00     0.163 HD
ATOM     79  O   UNL A   1      35.318  35.657  33.624  1.00  0.00    -0.275 OA
BRANCH  77  80
ATOM     80  C   UNL A   1      36.950  33.922  33.338  1.00  0.00     0.098 C 
ATOM     81  C   UNL A   1      37.724  34.527  34.515  1.00  0.00     0.017 C 
ATOM     82  C   UNL A   1      36.335  32.597  33.775  1.00  0.00     0.133 C 
ATOM     83  C   UNL A   1      38.817  33.556  34.963  1.00  0.00     0.022 C 
ATOM     84  N   UNL A   1      37.405  31.671  34.164  1.00  0.00    -0.338 N 
ATOM     85  C   UNL A   1      38.272  32.151  35.245  1.00  0.00     0.120 C 
BRANCH  84  86
ATOM     86  C   UNL A   1      37.568  30.522  33.390  1.00  0.00     0.253 C 
ATOM     87  O   UNL A   1      36.650  30.061  32.708  1.00  0.00    -0.269 OA
BRANCH  86  88
ATOM     88  C   UNL A   1      38.873  29.822  33.306  1.00  0.00     0.040 A 
ATOM     89  C   UNL A   1      38.874  28.548  32.735  1.00  0.00     0.016 A 
ATOM     90  C   UNL A   1      40.061  30.324  33.839  1.00  0.00     0.016 A 
ATOM     91  C   UNL A   1      40.064  27.830  32.609  1.00  0.00     0.027 A 
ATOM     92  C   UNL A   1      41.261  29.620  33.662  1.00  0.00     0.027 A 
ATOM     93  C   UNL A   1      41.281  28.393  32.987  1.00  0.00     0.041 A 
BRANCH  93  94
ATOM     94  N   UNL A   1      42.539  27.807  32.741  1.00  0.00    -0.322 N 
ATOM     95  C   UNL A   1      43.319  26.946  33.488  1.00  0.00     0.255 C 
ATOM     96  H   UNL A   1      42.935  28.057  31.875  1.00  0.00     0.170 HD
ATOM     97  O   UNL A   1      44.456  26.665  33.111  1.00  0.00    -0.269 OA
BRANCH  95  98
ATOM     98  C   UNL A   1      42.801  26.305  34.712  1.00  0.00     0.040 A 
ATOM     99  C   UNL A   1      42.637  27.089  35.857  1.00  0.00     0.014 A 
ATOM    100  C   UNL A   1      42.417  24.957  34.709  1.00  0.00     0.014 A 
ATOM    101  C   UNL A   1      42.002  26.546  36.974  1.00  0.00     0.001 A 
ATOM    102  C   UNL A   1      41.773  24.425  35.826  1.00  0.00     0.001 A 
ATOM    103  C   UNL A   1      41.553  25.224  36.950  1.00  0.00     0.000 A 
ENDBRANCH  95  98
ENDBRANCH  93  94
ENDBRANCH  86  88
ENDBRANCH  84  86
ENDBRANCH  77  80
ENDBRANCH  75  76
ENDBRANCH   1  75
TORSDOF 17
ENDMDL
