MODEL 1
REMARK VINA RESULT:     -11.8      0.000      0.000
REMARK SMILES C[C@H](c1ccncc1)[N@H+]1[C@@H]2CC[C@H]1C[C@H](CC(=O)NCCCNC(=O)c1ccc(-c3c4nc(c(-c5c(F)cc(S(=O)(=O)[O-])cc5F)c5ccc([nH]5)c(-c5c(F)cc(S(=O)(=O)[O-])cc5F)c5nc(c(-c6c(F)cc(S(=O)(=O)[O-])cc6F)c6ccc3[nH]6)C=C5)C=C4)cc1)C2
REMARK SMILES IDX 21 1 20 2 19 3 17 4 18 5 16 7 15 8 9 9 10 10 13 11 11 13
REMARK SMILES IDX 92 14 12 15 14 16 2 17 1 18 3 19 4 20 8 21 5 22 7 23 6 24
REMARK SMILES IDX 22 25 23 26 24 27 25 29 26 30 27 31 91 32 28 33 90 34 29 35
REMARK SMILES IDX 30 36 31 37 84 38 32 39 89 40 83 41 85 42 33 43 88 44 82 45
REMARK SMILES IDX 81 46 34 48 68 49 47 50 67 51 48 52 51 53 66 54 86 55 49 56
REMARK SMILES IDX 50 57 65 59 87 60 52 61 35 62 36 63 45 64 37 65 38 66 44 67
REMARK SMILES IDX 46 68 39 69 40 70 41 71 42 72 43 73 69 74 70 75 79 76 71 77
REMARK SMILES IDX 72 78 78 79 80 80 73 81 74 82 75 83 76 84 77 85 53 86 54 87
REMARK SMILES IDX 63 88 55 89 56 90 62 91 64 92 57 93 58 94 59 95 60 96 61 97
REMARK H PARENT 19 6 9 12 23 28 85 47 51 58
REMARK Flexibility Score: inf
ROOT
ATOM      1  C   UNL A   1      34.007  28.185  25.480  1.00  0.00     0.042 C 
ENDROOT
BRANCH   1   2
ATOM      2  C   UNL A   1      32.818  28.090  24.521  1.00  0.00     0.117 C 
BRANCH   2   3
ATOM      3  N   UNL A   1      33.198  27.676  23.177  1.00  0.00    -0.356 N 
ATOM      4  C   UNL A   1      33.404  26.450  22.617  1.00  0.00     0.220 C 
ATOM      5  O   UNL A   1      33.686  26.413  21.417  1.00  0.00    -0.275 OA
ATOM      6  H   UNL A   1      33.331  28.425  22.553  1.00  0.00     0.163 HD
BRANCH   4   7
ATOM      7  C   UNL A   1      33.283  25.164  23.414  1.00  0.00     0.104 C 
BRANCH   7   8
ATOM      8  C   UNL A   1      34.620  24.645  23.996  1.00  0.00     0.010 C 
ATOM      9  N   UNL A   1      35.136  22.066  25.365  1.00  0.00    -0.324 N 
ATOM     10  C   UNL A   1      35.794  22.310  24.090  1.00  0.00     0.185 C 
ATOM     11  C   UNL A   1      35.330  23.303  26.110  1.00  0.00     0.185 C 
ATOM     12  H   UNL A   1      35.576  21.236  25.761  1.00  0.00     0.349 HD
ATOM     13  C   UNL A   1      37.149  22.829  24.605  1.00  0.00     0.071 C 
ATOM     14  C   UNL A   1      35.110  23.395  23.228  1.00  0.00     0.069 C 
ATOM     15  C   UNL A   1      36.820  23.563  25.903  1.00  0.00     0.071 C 
ATOM     16  C   UNL A   1      34.484  24.412  25.504  1.00  0.00     0.069 C 
BRANCH   9  17
ATOM     17  C   UNL A   1      33.878  21.337  25.536  1.00  0.00     0.212 C 
ATOM     18  C   UNL A   1      33.651  21.110  27.036  1.00  0.00     0.081 C 
BRANCH  17  19
ATOM     19  C   UNL A   1      33.659  20.044  24.767  1.00  0.00     0.012 A 
ATOM     20  C   UNL A   1      32.547  19.839  23.941  1.00  0.00     0.030 A 
ATOM     21  C   UNL A   1      34.615  19.021  24.820  1.00  0.00     0.030 A 
ATOM     22  C   UNL A   1      32.395  18.617  23.300  1.00  0.00     0.111 A 
ATOM     23  C   UNL A   1      34.386  17.840  24.126  1.00  0.00     0.111 A 
ATOM     24  N   UNL A   1      33.287  17.608  23.380  1.00  0.00    -0.265 NA
ENDBRANCH  17  19
ENDBRANCH   9  17
ENDBRANCH   7   8
ENDBRANCH   4   7
ENDBRANCH   2   3
ENDBRANCH   1   2
BRANCH   1  25
ATOM     25  C   UNL A   1      33.633  28.297  26.949  1.00  0.00     0.118 C 
BRANCH  25  26
ATOM     26  N   UNL A   1      33.515  29.682  27.360  1.00  0.00    -0.352 N 
ATOM     27  C   UNL A   1      34.397  30.462  28.070  1.00  0.00     0.251 C 
ATOM     28  H   UNL A   1      32.680  30.131  27.092  1.00  0.00     0.163 HD
ATOM     29  O   UNL A   1      33.993  31.518  28.552  1.00  0.00    -0.269 OA
BRANCH  27  30
ATOM     30  C   UNL A   1      35.812  30.050  28.270  1.00  0.00     0.039 A 
ATOM     31  C   UNL A   1      36.199  29.567  29.525  1.00  0.00     0.014 A 
ATOM     32  C   UNL A   1      36.775  30.199  27.268  1.00  0.00     0.014 A 
ATOM     33  C   UNL A   1      37.533  29.216  29.764  1.00  0.00     0.010 A 
ATOM     34  C   UNL A   1      38.086  29.767  27.480  1.00  0.00     0.010 A 
ATOM     35  C   UNL A   1      38.489  29.297  28.739  1.00  0.00    -0.014 A 
BRANCH  35  36
ATOM     36  C   UNL A   1      39.917  28.954  28.981  1.00  0.00     0.031 A 
ATOM     37  C   UNL A   1      40.851  29.983  29.571  1.00  0.00     0.074 A 
ATOM     38  C   UNL A   1      40.389  27.738  28.638  1.00  0.00     0.049 A 
ATOM     39  N   UNL A   1      42.136  29.897  29.806  1.00  0.00    -0.248 NA
ATOM     40  C   UNL A   1      40.269  31.291  29.915  1.00  0.00     0.031 C 
ATOM     41  C   UNL A   1      39.603  26.667  28.023  1.00  0.00     0.029 A 
ATOM     42  N   UNL A   1      41.647  27.199  28.753  1.00  0.00    -0.354 N 
ATOM     43  C   UNL A   1      42.518  31.141  30.297  1.00  0.00     0.074 A 
ATOM     44  C   UNL A   1      41.340  31.980  30.283  1.00  0.00     0.031 C 
ATOM     45  C   UNL A   1      40.387  25.592  27.841  1.00  0.00     0.029 A 
ATOM     46  C   UNL A   1      41.741  25.906  28.293  1.00  0.00     0.049 A 
ATOM     47  H   UNL A   1      42.411  27.692  29.130  1.00  0.00     0.167 HD
ATOM     48  C   UNL A   1      43.733  31.544  30.742  1.00  0.00     0.037 A 
ATOM     49  C   UNL A   1      42.795  25.069  28.239  1.00  0.00     0.037 A 
ATOM     50  C   UNL A   1      44.892  30.691  30.804  1.00  0.00     0.049 A 
ATOM     51  C   UNL A   1      44.131  25.534  28.756  1.00  0.00     0.074 A 
ATOM     52  C   UNL A   1      46.146  30.982  31.311  1.00  0.00     0.029 A 
ATOM     53  N   UNL A   1      44.937  29.382  30.349  1.00  0.00    -0.354 N 
ATOM     54  N   UNL A   1      44.455  26.693  29.277  1.00  0.00    -0.248 NA
ATOM     55  C   UNL A   1      45.242  24.574  28.686  1.00  0.00     0.031 C 
ATOM     56  C   UNL A   1      46.962  29.861  31.126  1.00  0.00     0.029 A 
ATOM     57  C   UNL A   1      46.203  28.857  30.546  1.00  0.00     0.049 A 
ATOM     58  H   UNL A   1      44.181  28.898  29.946  1.00  0.00     0.167 HD
ATOM     59  C   UNL A   1      45.797  26.591  29.626  1.00  0.00     0.074 A 
ATOM     60  C   UNL A   1      46.222  25.254  29.264  1.00  0.00     0.031 C 
ATOM     61  C   UNL A   1      46.606  27.519  30.195  1.00  0.00     0.037 A 
BRANCH  48  62
ATOM     62  C   UNL A   1      43.874  32.968  31.207  1.00  0.00     0.058 A 
ATOM     63  C   UNL A   1      43.645  33.338  32.542  1.00  0.00     0.135 A 
ATOM     64  C   UNL A   1      44.288  33.971  30.314  1.00  0.00     0.135 A 
ATOM     65  F   UNL A   1      43.234  32.424  33.435  1.00  0.00    -0.206 F 
ATOM     66  C   UNL A   1      43.795  34.653  32.970  1.00  0.00     0.059 A 
ATOM     67  C   UNL A   1      44.471  35.288  30.726  1.00  0.00     0.059 A 
ATOM     68  F   UNL A   1      44.522  33.674  29.026  1.00  0.00    -0.206 F 
ATOM     69  C   UNL A   1      44.208  35.622  32.054  1.00  0.00     0.060 A 
BRANCH  69  70
ATOM     70  S   UNL A   1      44.409  37.323  32.625  1.00  0.00     0.124 S 
ATOM     71  O   UNL A   1      44.113  38.074  31.408  1.00  0.00    -0.237 OA
ATOM     72  O   UNL A   1      43.404  37.416  33.683  1.00  0.00    -0.237 OA
ATOM     73  O   UNL A   1      45.793  37.372  33.074  1.00  0.00    -0.744 OA
ENDBRANCH  69  70
ENDBRANCH  48  62
BRANCH  49  74
ATOM     74  C   UNL A   1      42.630  23.692  27.701  1.00  0.00     0.058 A 
ATOM     75  C   UNL A   1      42.693  23.446  26.321  1.00  0.00     0.135 A 
ATOM     76  C   UNL A   1      42.402  22.597  28.550  1.00  0.00     0.135 A 
ATOM     77  F   UNL A   1      42.902  24.461  25.469  1.00  0.00    -0.206 F 
ATOM     78  C   UNL A   1      42.514  22.170  25.798  1.00  0.00     0.059 A 
ATOM     79  C   UNL A   1      42.246  21.307  28.052  1.00  0.00     0.059 A 
ATOM     80  F   UNL A   1      42.351  22.775  29.879  1.00  0.00    -0.206 F 
ATOM     81  C   UNL A   1      42.290  21.105  26.672  1.00  0.00     0.060 A 
BRANCH  81  82
ATOM     82  S   UNL A   1      42.095  19.445  25.987  1.00  0.00     0.124 S 
ATOM     83  O   UNL A   1      42.599  18.618  27.076  1.00  0.00    -0.237 OA
ATOM     84  O   UNL A   1      40.656  19.379  25.747  1.00  0.00    -0.237 OA
ATOM     85  O   UNL A   1      42.921  19.481  24.784  1.00  0.00    -0.744 OA
ENDBRANCH  81  82
ENDBRANCH  49  74
BRANCH  61  86
ATOM     86  C   UNL A   1      48.019  27.110  30.506  1.00  0.00     0.058 A 
ATOM     87  C   UNL A   1      49.082  27.410  29.642  1.00  0.00     0.135 A 
ATOM     88  C   UNL A   1      48.317  26.455  31.713  1.00  0.00     0.135 A 
ATOM     89  F   UNL A   1      48.850  28.029  28.475  1.00  0.00    -0.206 F 
ATOM     90  C   UNL A   1      50.391  27.052  29.951  1.00  0.00     0.059 A 
ATOM     91  C   UNL A   1      49.621  26.112  32.055  1.00  0.00     0.059 A 
ATOM     92  F   UNL A   1      47.337  26.156  32.581  1.00  0.00    -0.206 F 
ATOM     93  C   UNL A   1      50.650  26.404  31.160  1.00  0.00     0.060 A 
BRANCH  93  94
ATOM     94  S   UNL A   1      52.356  25.973  31.564  1.00  0.00     0.124 S 
ATOM     95  O   UNL A   1      52.203  24.613  32.069  1.00  0.00    -0.237 OA
ATOM     96  O   UNL A   1      53.027  26.100  30.274  1.00  0.00    -0.237 OA
ATOM     97  O   UNL A   1      52.733  26.973  32.559  1.00  0.00    -0.744 OA
ENDBRANCH  93  94
ENDBRANCH  61  86
ENDBRANCH  35  36
ENDBRANCH  27  30
ENDBRANCH  25  26
ENDBRANCH   1  25
TORSDOF 16
ENDMDL
MODEL 2
REMARK VINA RESULT:     -11.4      4.909     10.266
REMARK SMILES C[C@H](c1ccncc1)[N@H+]1[C@@H]2CC[C@H]1C[C@H](CC(=O)NCCCNC(=O)c1ccc(-c3c4nc(c(-c5c(F)cc(S(=O)(=O)[O-])cc5F)c5ccc([nH]5)c(-c5c(F)cc(S(=O)(=O)[O-])cc5F)c5nc(c(-c6c(F)cc(S(=O)(=O)[O-])cc6F)c6ccc3[nH]6)C=C5)C=C4)cc1)C2
REMARK SMILES IDX 21 1 20 2 19 3 17 4 18 5 16 7 15 8 9 9 10 10 13 11 11 13
REMARK SMILES IDX 92 14 12 15 14 16 2 17 1 18 3 19 4 20 8 21 5 22 7 23 6 24
REMARK SMILES IDX 22 25 23 26 24 27 25 29 26 30 27 31 91 32 28 33 90 34 29 35
REMARK SMILES IDX 30 36 31 37 84 38 32 39 89 40 83 41 85 42 33 43 88 44 82 45
REMARK SMILES IDX 81 46 34 48 68 49 47 50 67 51 48 52 51 53 66 54 86 55 49 56
REMARK SMILES IDX 50 57 65 59 87 60 52 61 35 62 36 63 45 64 37 65 38 66 44 67
REMARK SMILES IDX 46 68 39 69 40 70 41 71 42 72 43 73 69 74 70 75 79 76 71 77
REMARK SMILES IDX 72 78 78 79 80 80 73 81 74 82 75 83 76 84 77 85 53 86 54 87
REMARK SMILES IDX 63 88 55 89 56 90 62 91 64 92 57 93 58 94 59 95 60 96 61 97
REMARK H PARENT 19 6 9 12 23 28 85 47 51 58
REMARK Flexibility Score: inf
ROOT
ATOM      1  C   UNL A   1      40.811  22.112  27.243  1.00  0.00     0.042 C 
ENDROOT
BRANCH   1   2
ATOM      2  C   UNL A   1      39.572  22.720  26.583  1.00  0.00     0.117 C 
BRANCH   2   3
ATOM      3  N   UNL A   1      38.827  21.764  25.773  1.00  0.00    -0.356 N 
ATOM      4  C   UNL A   1      37.696  21.882  25.020  1.00  0.00     0.220 C 
ATOM      5  O   UNL A   1      37.318  20.884  24.402  1.00  0.00    -0.275 OA
ATOM      6  H   UNL A   1      39.216  20.860  25.768  1.00  0.00     0.163 HD
BRANCH   4   7
ATOM      7  C   UNL A   1      36.922  23.184  24.918  1.00  0.00     0.104 C 
BRANCH   7   8
ATOM      8  C   UNL A   1      35.627  23.225  25.764  1.00  0.00     0.010 C 
ATOM      9  N   UNL A   1      33.292  21.402  25.616  1.00  0.00    -0.324 N 
ATOM     10  C   UNL A   1      34.082  21.409  26.838  1.00  0.00     0.185 C 
ATOM     11  C   UNL A   1      33.097  22.813  25.308  1.00  0.00     0.185 C 
ATOM     12  H   UNL A   1      32.447  20.872  25.823  1.00  0.00     0.349 HD
ATOM     13  C   UNL A   1      33.236  22.388  27.675  1.00  0.00     0.071 C 
ATOM     14  C   UNL A   1      35.510  21.970  26.660  1.00  0.00     0.069 C 
ATOM     15  C   UNL A   1      32.656  23.370  26.660  1.00  0.00     0.071 C 
ATOM     16  C   UNL A   1      34.410  23.432  24.855  1.00  0.00     0.069 C 
BRANCH   9  17
ATOM     17  C   UNL A   1      33.469  20.463  24.506  1.00  0.00     0.212 C 
ATOM     18  C   UNL A   1      32.351  20.707  23.485  1.00  0.00     0.081 C 
BRANCH  17  19
ATOM     19  C   UNL A   1      33.597  18.977  24.805  1.00  0.00     0.012 A 
ATOM     20  C   UNL A   1      32.603  18.256  25.476  1.00  0.00     0.030 A 
ATOM     21  C   UNL A   1      34.714  18.261  24.354  1.00  0.00     0.030 A 
ATOM     22  C   UNL A   1      32.808  16.911  25.747  1.00  0.00     0.111 A 
ATOM     23  C   UNL A   1      34.821  16.910  24.654  1.00  0.00     0.111 A 
ATOM     24  N   UNL A   1      33.899  16.222  25.357  1.00  0.00    -0.265 NA
ENDBRANCH  17  19
ENDBRANCH   9  17
ENDBRANCH   7   8
ENDBRANCH   4   7
ENDBRANCH   2   3
ENDBRANCH   1   2
BRANCH   1  25
ATOM     25  C   UNL A   1      41.959  23.085  27.459  1.00  0.00     0.118 C 
BRANCH  25  26
ATOM     26  N   UNL A   1      42.161  23.931  26.299  1.00  0.00    -0.352 N 
ATOM     27  C   UNL A   1      41.948  25.281  26.154  1.00  0.00     0.251 C 
ATOM     28  H   UNL A   1      42.501  23.471  25.496  1.00  0.00     0.163 HD
ATOM     29  O   UNL A   1      41.916  25.754  25.020  1.00  0.00    -0.269 OA
BRANCH  27  30
ATOM     30  C   UNL A   1      41.748  26.167  27.331  1.00  0.00     0.039 A 
ATOM     31  C   UNL A   1      40.589  26.013  28.099  1.00  0.00     0.014 A 
ATOM     32  C   UNL A   1      42.645  27.192  27.648  1.00  0.00     0.014 A 
ATOM     33  C   UNL A   1      40.344  26.861  29.185  1.00  0.00     0.010 A 
ATOM     34  C   UNL A   1      42.443  27.981  28.782  1.00  0.00     0.010 A 
ATOM     35  C   UNL A   1      41.277  27.845  29.548  1.00  0.00    -0.014 A 
BRANCH  35  36
ATOM     36  C   UNL A   1      41.022  28.774  30.683  1.00  0.00     0.031 A 
ATOM     37  C   UNL A   1      41.858  28.682  31.937  1.00  0.00     0.074 A 
ATOM     38  C   UNL A   1      40.020  29.673  30.611  1.00  0.00     0.049 A 
ATOM     39  N   UNL A   1      41.757  29.360  33.051  1.00  0.00    -0.248 NA
ATOM     40  C   UNL A   1      42.931  27.673  31.949  1.00  0.00     0.031 C 
ATOM     41  C   UNL A   1      39.111  29.839  29.475  1.00  0.00     0.029 A 
ATOM     42  N   UNL A   1      39.591  30.614  31.515  1.00  0.00    -0.354 N 
ATOM     43  C   UNL A   1      42.730  28.844  33.902  1.00  0.00     0.074 A 
ATOM     44  C   UNL A   1      43.380  27.764  33.193  1.00  0.00     0.031 C 
ATOM     45  C   UNL A   1      38.254  30.840  29.737  1.00  0.00     0.029 A 
ATOM     46  C   UNL A   1      38.526  31.364  31.073  1.00  0.00     0.049 A 
ATOM     47  H   UNL A   1      40.009  30.741  32.398  1.00  0.00     0.167 HD
ATOM     48  C   UNL A   1      43.069  29.246  35.151  1.00  0.00     0.037 A 
ATOM     49  C   UNL A   1      37.844  32.358  31.675  1.00  0.00     0.037 A 
ATOM     50  C   UNL A   1      42.456  30.355  35.835  1.00  0.00     0.049 A 
ATOM     51  C   UNL A   1      38.251  32.799  33.056  1.00  0.00     0.074 A 
ATOM     52  C   UNL A   1      42.781  30.890  37.069  1.00  0.00     0.029 A 
ATOM     53  N   UNL A   1      41.396  31.101  35.342  1.00  0.00    -0.354 N 
ATOM     54  N   UNL A   1      39.217  32.340  33.816  1.00  0.00    -0.248 NA
ATOM     55  C   UNL A   1      37.482  33.897  33.658  1.00  0.00     0.031 C 
ATOM     56  C   UNL A   1      41.891  31.934  37.341  1.00  0.00     0.029 A 
ATOM     57  C   UNL A   1      41.042  32.080  36.255  1.00  0.00     0.049 A 
ATOM     58  H   UNL A   1      40.960  30.956  34.471  1.00  0.00     0.167 HD
ATOM     59  C   UNL A   1      39.192  33.115  34.971  1.00  0.00     0.074 A 
ATOM     60  C   UNL A   1      38.120  34.077  34.805  1.00  0.00     0.031 C 
ATOM     61  C   UNL A   1      39.984  33.039  36.069  1.00  0.00     0.037 A 
BRANCH  48  62
ATOM     62  C   UNL A   1      44.159  28.490  35.861  1.00  0.00     0.058 A 
ATOM     63  C   UNL A   1      43.879  27.405  36.705  1.00  0.00     0.135 A 
ATOM     64  C   UNL A   1      45.509  28.828  35.658  1.00  0.00     0.135 A 
ATOM     65  F   UNL A   1      42.608  27.046  36.946  1.00  0.00    -0.206 F 
ATOM     66  C   UNL A   1      44.892  26.698  37.345  1.00  0.00     0.059 A 
ATOM     67  C   UNL A   1      46.540  28.118  36.266  1.00  0.00     0.059 A 
ATOM     68  F   UNL A   1      45.835  29.857  34.861  1.00  0.00    -0.206 F 
ATOM     69  C   UNL A   1      46.221  27.062  37.119  1.00  0.00     0.060 A 
BRANCH  69  70
ATOM     70  S   UNL A   1      47.526  26.130  37.947  1.00  0.00     0.124 S 
ATOM     71  O   UNL A   1      47.385  24.817  37.323  1.00  0.00    -0.237 OA
ATOM     72  O   UNL A   1      48.726  26.878  37.577  1.00  0.00    -0.237 OA
ATOM     73  O   UNL A   1      47.158  26.200  39.354  1.00  0.00    -0.744 OA
ENDBRANCH  69  70
ENDBRANCH  48  62
BRANCH  49  74
ATOM     74  C   UNL A   1      36.721  33.030  30.967  1.00  0.00     0.058 A 
ATOM     75  C   UNL A   1      36.970  33.949  29.935  1.00  0.00     0.135 A 
ATOM     76  C   UNL A   1      35.383  32.775  31.306  1.00  0.00     0.135 A 
ATOM     77  F   UNL A   1      38.233  34.231  29.579  1.00  0.00    -0.206 F 
ATOM     78  C   UNL A   1      35.935  34.607  29.279  1.00  0.00     0.059 A 
ATOM     79  C   UNL A   1      34.330  33.403  30.647  1.00  0.00     0.059 A 
ATOM     80  F   UNL A   1      35.091  31.893  32.274  1.00  0.00    -0.206 F 
ATOM     81  C   UNL A   1      34.617  34.328  29.643  1.00  0.00     0.060 A 
BRANCH  81  82
ATOM     82  S   UNL A   1      33.278  35.161  28.762  1.00  0.00     0.124 S 
ATOM     83  O   UNL A   1      32.464  35.655  29.865  1.00  0.00    -0.237 OA
ATOM     84  O   UNL A   1      33.999  36.174  27.995  1.00  0.00    -0.237 OA
ATOM     85  O   UNL A   1      32.685  34.090  27.967  1.00  0.00    -0.744 OA
ENDBRANCH  81  82
ENDBRANCH  49  74
BRANCH  61  86
ATOM     86  C   UNL A   1      39.756  34.049  37.159  1.00  0.00     0.058 A 
ATOM     87  C   UNL A   1      38.968  33.759  38.283  1.00  0.00     0.135 A 
ATOM     88  C   UNL A   1      40.379  35.307  37.101  1.00  0.00     0.135 A 
ATOM     89  F   UNL A   1      38.347  32.574  38.384  1.00  0.00    -0.206 F 
ATOM     90  C   UNL A   1      38.785  34.690  39.300  1.00  0.00     0.059 A 
ATOM     91  C   UNL A   1      40.232  36.243  38.120  1.00  0.00     0.059 A 
ATOM     92  F   UNL A   1      41.153  35.631  36.053  1.00  0.00    -0.206 F 
ATOM     93  C   UNL A   1      39.421  35.928  39.211  1.00  0.00     0.060 A 
BRANCH  93  94
ATOM     94  S   UNL A   1      39.202  37.116  40.552  1.00  0.00     0.124 S 
ATOM     95  O   UNL A   1      38.630  36.275  41.598  1.00  0.00    -0.237 OA
ATOM     96  O   UNL A   1      40.566  37.580  40.787  1.00  0.00    -0.237 OA
ATOM     97  O   UNL A   1      38.299  38.111  39.982  1.00  0.00    -0.744 OA
ENDBRANCH  93  94
ENDBRANCH  61  86
ENDBRANCH  35  36
ENDBRANCH  27  30
ENDBRANCH  25  26
ENDBRANCH   1  25
TORSDOF 16
ENDMDL
MODEL 3
REMARK VINA RESULT:     -11.4      2.767      3.429
REMARK SMILES C[C@H](c1ccncc1)[N@H+]1[C@@H]2CC[C@H]1C[C@H](CC(=O)NCCCNC(=O)c1ccc(-c3c4nc(c(-c5c(F)cc(S(=O)(=O)[O-])cc5F)c5ccc([nH]5)c(-c5c(F)cc(S(=O)(=O)[O-])cc5F)c5nc(c(-c6c(F)cc(S(=O)(=O)[O-])cc6F)c6ccc3[nH]6)C=C5)C=C4)cc1)C2
REMARK SMILES IDX 21 1 20 2 19 3 17 4 18 5 16 7 15 8 9 9 10 10 13 11 11 13
REMARK SMILES IDX 92 14 12 15 14 16 2 17 1 18 3 19 4 20 8 21 5 22 7 23 6 24
REMARK SMILES IDX 22 25 23 26 24 27 25 29 26 30 27 31 91 32 28 33 90 34 29 35
REMARK SMILES IDX 30 36 31 37 84 38 32 39 89 40 83 41 85 42 33 43 88 44 82 45
REMARK SMILES IDX 81 46 34 48 68 49 47 50 67 51 48 52 51 53 66 54 86 55 49 56
REMARK SMILES IDX 50 57 65 59 87 60 52 61 35 62 36 63 45 64 37 65 38 66 44 67
REMARK SMILES IDX 46 68 39 69 40 70 41 71 42 72 43 73 69 74 70 75 79 76 71 77
REMARK SMILES IDX 72 78 78 79 80 80 73 81 74 82 75 83 76 84 77 85 53 86 54 87
REMARK SMILES IDX 63 88 55 89 56 90 62 91 64 92 57 93 58 94 59 95 60 96 61 97
REMARK H PARENT 19 6 9 12 23 28 85 47 51 58
REMARK Flexibility Score: inf
ROOT
ATOM      1  C   UNL A   1      34.064  28.229  24.484  1.00  0.00     0.042 C 
ENDROOT
BRANCH   1   2
ATOM      2  C   UNL A   1      32.773  27.966  23.705  1.00  0.00     0.117 C 
BRANCH   2   3
ATOM      3  N   UNL A   1      33.004  27.353  22.403  1.00  0.00    -0.356 N 
ATOM      4  C   UNL A   1      33.119  26.054  22.006  1.00  0.00     0.220 C 
ATOM      5  O   UNL A   1      33.278  25.839  20.802  1.00  0.00    -0.275 OA
ATOM      6  H   UNL A   1      33.095  28.003  21.669  1.00  0.00     0.163 HD
BRANCH   4   7
ATOM      7  C   UNL A   1      33.043  24.897  22.986  1.00  0.00     0.104 C 
BRANCH   7   8
ATOM      8  C   UNL A   1      34.402  24.495  23.607  1.00  0.00     0.010 C 
ATOM      9  N   UNL A   1      35.046  22.058  25.169  1.00  0.00    -0.324 N 
ATOM     10  C   UNL A   1      35.696  22.239  23.879  1.00  0.00     0.185 C 
ATOM     11  C   UNL A   1      35.171  23.356  25.818  1.00  0.00     0.185 C 
ATOM     12  H   UNL A   1      35.527  21.285  25.627  1.00  0.00     0.349 HD
ATOM     13  C   UNL A   1      37.020  22.867  24.355  1.00  0.00     0.071 C 
ATOM     14  C   UNL A   1      34.961  23.218  22.937  1.00  0.00     0.069 C 
ATOM     15  C   UNL A   1      36.646  23.679  25.593  1.00  0.00     0.071 C 
ATOM     16  C   UNL A   1      34.271  24.370  25.129  1.00  0.00     0.069 C 
BRANCH   9  17
ATOM     17  C   UNL A   1      33.827  21.279  25.393  1.00  0.00     0.212 C 
ATOM     18  C   UNL A   1      33.653  21.078  26.904  1.00  0.00     0.081 C 
BRANCH  17  19
ATOM     19  C   UNL A   1      33.644  19.959  24.660  1.00  0.00     0.012 A 
ATOM     20  C   UNL A   1      34.527  18.885  24.814  1.00  0.00     0.030 A 
ATOM     21  C   UNL A   1      32.528  19.758  23.837  1.00  0.00     0.030 A 
ATOM     22  C   UNL A   1      34.317  17.724  24.082  1.00  0.00     0.111 A 
ATOM     23  C   UNL A   1      32.390  18.553  23.161  1.00  0.00     0.111 A 
ATOM     24  N   UNL A   1      33.271  17.537  23.252  1.00  0.00    -0.265 NA
ENDBRANCH  17  19
ENDBRANCH   9  17
ENDBRANCH   7   8
ENDBRANCH   4   7
ENDBRANCH   2   3
ENDBRANCH   1   2
BRANCH   1  25
ATOM     25  C   UNL A   1      33.877  28.425  25.980  1.00  0.00     0.118 C 
BRANCH  25  26
ATOM     26  N   UNL A   1      33.668  29.822  26.309  1.00  0.00    -0.352 N 
ATOM     27  C   UNL A   1      34.298  30.602  27.249  1.00  0.00     0.251 C 
ATOM     28  H   UNL A   1      32.973  30.279  25.781  1.00  0.00     0.163 HD
ATOM     29  O   UNL A   1      33.788  31.676  27.560  1.00  0.00    -0.269 OA
BRANCH  27  30
ATOM     30  C   UNL A   1      35.565  30.169  27.896  1.00  0.00     0.039 A 
ATOM     31  C   UNL A   1      35.520  29.698  29.212  1.00  0.00     0.014 A 
ATOM     32  C   UNL A   1      36.802  30.287  27.254  1.00  0.00     0.014 A 
ATOM     33  C   UNL A   1      36.700  29.328  29.870  1.00  0.00     0.010 A 
ATOM     34  C   UNL A   1      37.967  29.835  27.879  1.00  0.00     0.010 A 
ATOM     35  C   UNL A   1      37.935  29.378  29.204  1.00  0.00    -0.014 A 
BRANCH  35  36
ATOM     36  C   UNL A   1      39.203  29.014  29.894  1.00  0.00     0.031 A 
ATOM     37  C   UNL A   1      39.619  29.749  31.146  1.00  0.00     0.074 A 
ATOM     38  C   UNL A   1      40.001  28.056  29.383  1.00  0.00     0.049 A 
ATOM     39  N   UNL A   1      40.708  29.619  31.859  1.00  0.00    -0.248 NA
ATOM     40  C   UNL A   1      38.701  30.788  31.644  1.00  0.00     0.031 C 
ATOM     41  C   UNL A   1      39.738  27.297  28.158  1.00  0.00     0.029 A 
ATOM     42  N   UNL A   1      41.203  27.559  29.825  1.00  0.00    -0.354 N 
ATOM     43  C   UNL A   1      40.620  30.573  32.869  1.00  0.00     0.074 A 
ATOM     44  C   UNL A   1      39.393  31.306  32.649  1.00  0.00     0.031 C 
ATOM     45  C   UNL A   1      40.730  26.414  27.964  1.00  0.00     0.029 A 
ATOM     46  C   UNL A   1      41.720  26.564  29.028  1.00  0.00     0.049 A 
ATOM     47  H   UNL A   1      41.652  27.884  30.639  1.00  0.00     0.167 HD
ATOM     48  C   UNL A   1      41.469  30.802  33.899  1.00  0.00     0.037 A 
ATOM     49  C   UNL A   1      42.860  25.856  29.138  1.00  0.00     0.037 A 
ATOM     50  C   UNL A   1      42.663  30.036  34.146  1.00  0.00     0.049 A 
ATOM     51  C   UNL A   1      43.779  26.117  30.302  1.00  0.00     0.074 A 
ATOM     52  C   UNL A   1      43.548  30.140  35.205  1.00  0.00     0.029 A 
ATOM     53  N   UNL A   1      43.138  29.023  33.326  1.00  0.00    -0.354 N 
ATOM     54  N   UNL A   1      43.644  26.979  31.282  1.00  0.00    -0.248 NA
ATOM     55  C   UNL A   1      45.002  25.305  30.380  1.00  0.00     0.031 C 
ATOM     56  C   UNL A   1      44.579  29.217  35.005  1.00  0.00     0.029 A 
ATOM     57  C   UNL A   1      44.312  28.506  33.845  1.00  0.00     0.049 A 
ATOM     58  H   UNL A   1      42.703  28.717  32.497  1.00  0.00     0.167 HD
ATOM     59  C   UNL A   1      44.746  26.790  32.109  1.00  0.00     0.074 A 
ATOM     60  C   UNL A   1      45.533  25.727  31.519  1.00  0.00     0.031 C 
ATOM     61  C   UNL A   1      45.076  27.437  33.254  1.00  0.00     0.037 A 
BRANCH  48  62
ATOM     62  C   UNL A   1      41.137  31.922  34.847  1.00  0.00     0.058 A 
ATOM     63  C   UNL A   1      41.668  33.212  34.685  1.00  0.00     0.135 A 
ATOM     64  C   UNL A   1      40.238  31.716  35.908  1.00  0.00     0.135 A 
ATOM     65  F   UNL A   1      42.543  33.463  33.698  1.00  0.00    -0.206 F 
ATOM     66  C   UNL A   1      41.343  34.248  35.555  1.00  0.00     0.059 A 
ATOM     67  C   UNL A   1      39.877  32.745  36.772  1.00  0.00     0.059 A 
ATOM     68  F   UNL A   1      39.699  30.503  36.110  1.00  0.00    -0.206 F 
ATOM     69  C   UNL A   1      40.447  34.005  36.596  1.00  0.00     0.060 A 
BRANCH  69  70
ATOM     70  S   UNL A   1      40.026  35.362  37.710  1.00  0.00     0.124 S 
ATOM     71  O   UNL A   1      38.904  34.791  38.452  1.00  0.00    -0.237 OA
ATOM     72  O   UNL A   1      41.262  35.535  38.471  1.00  0.00    -0.237 OA
ATOM     73  O   UNL A   1      39.691  36.454  36.808  1.00  0.00    -0.744 OA
ENDBRANCH  69  70
ENDBRANCH  48  62
BRANCH  49  74
ATOM     74  C   UNL A   1      43.189  24.807  28.136  1.00  0.00     0.058 A 
ATOM     75  C   UNL A   1      43.827  25.139  26.931  1.00  0.00     0.135 A 
ATOM     76  C   UNL A   1      42.871  23.458  28.357  1.00  0.00     0.135 A 
ATOM     77  F   UNL A   1      44.145  26.416  26.671  1.00  0.00    -0.206 F 
ATOM     78  C   UNL A   1      44.118  24.176  25.970  1.00  0.00     0.059 A 
ATOM     79  C   UNL A   1      43.175  22.473  27.422  1.00  0.00     0.059 A 
ATOM     80  F   UNL A   1      42.276  23.085  29.501  1.00  0.00    -0.206 F 
ATOM     81  C   UNL A   1      43.787  22.844  26.225  1.00  0.00     0.060 A 
BRANCH  81  82
ATOM     82  S   UNL A   1      44.202  21.595  24.987  1.00  0.00     0.124 S 
ATOM     83  O   UNL A   1      44.145  22.373  23.755  1.00  0.00    -0.237 OA
ATOM     84  O   UNL A   1      45.533  21.170  25.414  1.00  0.00    -0.237 OA
ATOM     85  O   UNL A   1      43.151  20.596  25.155  1.00  0.00    -0.744 OA
ENDBRANCH  81  82
ENDBRANCH  49  74
BRANCH  61  86
ATOM     86  C   UNL A   1      46.317  26.985  33.972  1.00  0.00     0.058 A 
ATOM     87  C   UNL A   1      47.565  27.582  33.738  1.00  0.00     0.135 A 
ATOM     88  C   UNL A   1      46.244  25.975  34.947  1.00  0.00     0.135 A 
ATOM     89  F   UNL A   1      47.689  28.547  32.815  1.00  0.00    -0.206 F 
ATOM     90  C   UNL A   1      48.703  27.176  34.428  1.00  0.00     0.059 A 
ATOM     91  C   UNL A   1      47.364  25.572  35.666  1.00  0.00     0.059 A 
ATOM     92  F   UNL A   1      45.071  25.380  35.217  1.00  0.00    -0.206 F 
ATOM     93  C   UNL A   1      48.593  26.171  35.390  1.00  0.00     0.060 A 
BRANCH  93  94
ATOM     94  S   UNL A   1      50.071  25.675  36.301  1.00  0.00     0.124 S 
ATOM     95  O   UNL A   1      50.626  24.651  35.422  1.00  0.00    -0.237 OA
ATOM     96  O   UNL A   1      50.825  26.922  36.378  1.00  0.00    -0.237 OA
ATOM     97  O   UNL A   1      49.540  25.191  37.572  1.00  0.00    -0.744 OA
ENDBRANCH  93  94
ENDBRANCH  61  86
ENDBRANCH  35  36
ENDBRANCH  27  30
ENDBRANCH  25  26
ENDBRANCH   1  25
TORSDOF 16
ENDMDL
