MODEL 1
REMARK VINA RESULT:     -12.2      0.000      0.000
REMARK SMILES CCCc1c(C(=O)NCCCNC(=O)c2ccc(-c3c4nc(c(-c5c(F)cc(S(=O)(=O)[O-])cc5F)c5ccc([nH]5)c(-c5c(F)cc(S(=O)(=O)[O-])cc5F)c5nc(c(-c6c(F)cc(S(=O)(=O)[O-])cc6F)c6ccc3[nH]6)C=C5)C=C4)cc2)nnn1-c1cccc(C(F)(F)F)c1
REMARK SMILES IDX 10 1 9 2 8 3 6 4 7 5 5 7 4 8 83 9 81 10 82 11 3 12 2 13 1 14
REMARK SMILES IDX 84 15 85 16 93 17 86 18 88 19 87 20 89 21 90 22 91 23 92 24
REMARK SMILES IDX 11 25 12 26 13 27 14 29 15 30 16 31 80 32 17 33 79 34 18 35
REMARK SMILES IDX 19 36 20 37 73 38 21 39 78 40 72 41 74 42 22 43 77 44 71 45
REMARK SMILES IDX 70 46 23 48 57 49 36 50 56 51 37 52 40 53 55 54 75 55 38 56
REMARK SMILES IDX 39 57 54 59 76 60 41 61 24 62 25 63 34 64 26 65 27 66 33 67
REMARK SMILES IDX 35 68 28 69 29 70 30 71 31 72 32 73 58 74 59 75 68 76 60 77
REMARK SMILES IDX 61 78 67 79 69 80 62 81 63 82 64 83 65 84 66 85 42 86 43 87
REMARK SMILES IDX 52 88 44 89 45 90 51 91 53 92 46 93 47 94 48 95 49 96 50 97
REMARK H PARENT 8 6 12 28 74 47 40 58
REMARK Flexibility Score: inf
ROOT
ATOM      1  C   UNL A   1      35.459  23.145  25.372  1.00  0.00     0.042 C 
ENDROOT
BRANCH   1   2
ATOM      2  C   UNL A   1      35.603  23.332  23.853  1.00  0.00     0.118 C 
BRANCH   2   3
ATOM      3  N   UNL A   1      34.334  23.337  23.146  1.00  0.00    -0.351 N 
ATOM      4  C   UNL A   1      33.447  24.327  22.792  1.00  0.00     0.273 C 
ATOM      5  O   UNL A   1      32.631  24.005  21.927  1.00  0.00    -0.267 OA
ATOM      6  H   UNL A   1      34.048  22.439  22.860  1.00  0.00     0.163 HD
BRANCH   4   7
ATOM      7  C   UNL A   1      33.440  25.681  23.357  1.00  0.00     0.174 A 
ATOM      8  C   UNL A   1      33.168  26.202  24.620  1.00  0.00     0.078 A 
ATOM      9  N   UNL A   1      33.292  27.568  24.444  1.00  0.00    -0.217 N 
ATOM     10  N   UNL A   1      33.560  26.751  22.483  1.00  0.00    -0.124 NA
ATOM     11  N   UNL A   1      33.398  27.883  23.149  1.00  0.00    -0.061 NA
BRANCH   8  12
ATOM     12  C   UNL A   1      32.689  25.648  25.912  1.00  0.00     0.059 C 
BRANCH  12  13
ATOM     13  C   UNL A   1      31.169  25.713  26.118  1.00  0.00     0.003 C 
ATOM     14  C   UNL A   1      30.302  25.948  24.887  1.00  0.00     0.004 C 
ENDBRANCH  12  13
ENDBRANCH   8  12
BRANCH   9  15
ATOM     15  C   UNL A   1      33.362  28.551  25.446  1.00  0.00     0.067 A 
ATOM     16  C   UNL A   1      32.235  29.313  25.747  1.00  0.00     0.028 A 
ATOM     17  C   UNL A   1      34.551  28.685  26.175  1.00  0.00     0.041 A 
ATOM     18  C   UNL A   1      32.286  30.185  26.834  1.00  0.00     0.003 A 
ATOM     19  C   UNL A   1      34.619  29.594  27.237  1.00  0.00     0.058 A 
ATOM     20  C   UNL A   1      33.467  30.324  27.572  1.00  0.00     0.013 A 
BRANCH  19  21
ATOM     21  C   UNL A   1      35.902  29.794  28.003  1.00  0.00     0.416 C 
ATOM     22  F   UNL A   1      35.704  29.849  29.348  1.00  0.00    -0.166 F 
ATOM     23  F   UNL A   1      36.797  28.788  27.796  1.00  0.00    -0.166 F 
ATOM     24  F   UNL A   1      36.557  30.944  27.677  1.00  0.00    -0.166 F 
ENDBRANCH  19  21
ENDBRANCH   9  15
ENDBRANCH   4   7
ENDBRANCH   2   3
ENDBRANCH   1   2
BRANCH   1  25
ATOM     25  C   UNL A   1      36.721  23.431  26.146  1.00  0.00     0.118 C 
BRANCH  25  26
ATOM     26  N   UNL A   1      37.687  22.344  26.087  1.00  0.00    -0.352 N 
ATOM     27  C   UNL A   1      39.057  22.431  26.255  1.00  0.00     0.251 C 
ATOM     28  H   UNL A   1      37.325  21.446  25.908  1.00  0.00     0.163 HD
ATOM     29  O   UNL A   1      39.785  21.545  25.825  1.00  0.00    -0.269 OA
BRANCH  27  30
ATOM     30  C   UNL A   1      39.625  23.602  26.962  1.00  0.00     0.039 A 
ATOM     31  C   UNL A   1      40.862  23.545  27.610  1.00  0.00     0.014 A 
ATOM     32  C   UNL A   1      38.875  24.772  27.005  1.00  0.00     0.014 A 
ATOM     33  C   UNL A   1      41.321  24.674  28.287  1.00  0.00     0.010 A 
ATOM     34  C   UNL A   1      39.420  25.933  27.460  1.00  0.00     0.010 A 
ATOM     35  C   UNL A   1      40.577  25.858  28.215  1.00  0.00    -0.014 A 
BRANCH  35  36
ATOM     36  C   UNL A   1      40.974  27.082  28.889  1.00  0.00     0.031 A 
ATOM     37  C   UNL A   1      42.096  27.795  28.240  1.00  0.00     0.074 A 
ATOM     38  C   UNL A   1      40.197  27.635  29.848  1.00  0.00     0.049 A 
ATOM     39  N   UNL A   1      43.289  27.955  28.702  1.00  0.00    -0.248 NA
ATOM     40  C   UNL A   1      41.937  28.229  26.841  1.00  0.00     0.031 C 
ATOM     41  C   UNL A   1      38.898  27.166  30.353  1.00  0.00     0.029 A 
ATOM     42  N   UNL A   1      40.338  28.827  30.482  1.00  0.00    -0.354 N 
ATOM     43  C   UNL A   1      43.952  28.737  27.765  1.00  0.00     0.074 A 
ATOM     44  C   UNL A   1      43.166  28.669  26.561  1.00  0.00     0.031 C 
ATOM     45  C   UNL A   1      38.274  28.171  31.003  1.00  0.00     0.029 A 
ATOM     46  C   UNL A   1      39.183  29.296  31.102  1.00  0.00     0.049 A 
ATOM     47  H   UNL A   1      41.189  29.321  30.501  1.00  0.00     0.167 HD
ATOM     48  C   UNL A   1      44.945  29.591  28.140  1.00  0.00     0.037 A 
ATOM     49  C   UNL A   1      38.987  30.539  31.613  1.00  0.00     0.037 A 
ATOM     50  C   UNL A   1      45.370  29.323  29.494  1.00  0.00     0.049 A 
ATOM     51  C   UNL A   1      40.343  31.113  31.848  1.00  0.00     0.074 A 
ATOM     52  C   UNL A   1      45.867  28.209  30.145  1.00  0.00     0.029 A 
ATOM     53  N   UNL A   1      44.916  30.165  30.485  1.00  0.00    -0.354 N 
ATOM     54  N   UNL A   1      41.181  30.639  32.732  1.00  0.00    -0.248 NA
ATOM     55  C   UNL A   1      40.953  31.880  30.770  1.00  0.00     0.031 C 
ATOM     56  C   UNL A   1      45.244  28.224  31.427  1.00  0.00     0.029 A 
ATOM     57  C   UNL A   1      44.475  29.383  31.523  1.00  0.00     0.049 A 
ATOM     58  H   UNL A   1      44.908  31.149  30.452  1.00  0.00     0.167 HD
ATOM     59  C   UNL A   1      42.419  30.664  32.103  1.00  0.00     0.074 A 
ATOM     60  C   UNL A   1      42.232  31.523  30.935  1.00  0.00     0.031 C 
ATOM     61  C   UNL A   1      43.388  29.749  32.409  1.00  0.00     0.037 A 
BRANCH  48  62
ATOM     62  C   UNL A   1      45.271  30.890  27.445  1.00  0.00     0.058 A 
ATOM     63  C   UNL A   1      46.548  31.055  26.871  1.00  0.00     0.135 A 
ATOM     64  C   UNL A   1      44.495  32.065  27.555  1.00  0.00     0.135 A 
ATOM     65  F   UNL A   1      47.370  30.005  26.720  1.00  0.00    -0.206 F 
ATOM     66  C   UNL A   1      47.049  32.306  26.514  1.00  0.00     0.059 A 
ATOM     67  C   UNL A   1      44.953  33.313  27.150  1.00  0.00     0.059 A 
ATOM     68  F   UNL A   1      43.299  32.084  28.153  1.00  0.00    -0.206 F 
ATOM     69  C   UNL A   1      46.247  33.431  26.674  1.00  0.00     0.060 A 
BRANCH  69  70
ATOM     70  S   UNL A   1      46.930  35.060  26.324  1.00  0.00     0.124 S 
ATOM     71  O   UNL A   1      47.782  34.775  25.177  1.00  0.00    -0.237 OA
ATOM     72  O   UNL A   1      45.727  35.839  26.052  1.00  0.00    -0.237 OA
ATOM     73  O   UNL A   1      47.626  35.404  27.561  1.00  0.00    -0.744 OA
ENDBRANCH  69  70
ENDBRANCH  48  62
BRANCH  49  74
ATOM     74  C   UNL A   1      37.736  31.351  31.603  1.00  0.00     0.058 A 
ATOM     75  C   UNL A   1      36.905  31.420  32.738  1.00  0.00     0.135 A 
ATOM     76  C   UNL A   1      37.463  32.292  30.587  1.00  0.00     0.135 A 
ATOM     77  F   UNL A   1      37.091  30.574  33.763  1.00  0.00    -0.206 F 
ATOM     78  C   UNL A   1      35.914  32.400  32.883  1.00  0.00     0.059 A 
ATOM     79  C   UNL A   1      36.471  33.266  30.703  1.00  0.00     0.059 A 
ATOM     80  F   UNL A   1      38.215  32.360  29.479  1.00  0.00    -0.206 F 
ATOM     81  C   UNL A   1      35.722  33.336  31.868  1.00  0.00     0.060 A 
BRANCH  81  82
ATOM     82  S   UNL A   1      34.601  34.732  32.137  1.00  0.00     0.124 S 
ATOM     83  O   UNL A   1      35.444  35.658  32.886  1.00  0.00    -0.237 OA
ATOM     84  O   UNL A   1      34.272  35.130  30.773  1.00  0.00    -0.237 OA
ATOM     85  O   UNL A   1      33.500  34.140  32.892  1.00  0.00    -0.744 OA
ENDBRANCH  81  82
ENDBRANCH  49  74
BRANCH  61  86
ATOM     86  C   UNL A   1      43.201  28.882  33.632  1.00  0.00     0.058 A 
ATOM     87  C   UNL A   1      43.427  29.308  34.954  1.00  0.00     0.135 A 
ATOM     88  C   UNL A   1      42.603  27.623  33.468  1.00  0.00     0.135 A 
ATOM     89  F   UNL A   1      43.889  30.538  35.212  1.00  0.00    -0.206 F 
ATOM     90  C   UNL A   1      43.118  28.508  36.054  1.00  0.00     0.059 A 
ATOM     91  C   UNL A   1      42.255  26.821  34.551  1.00  0.00     0.059 A 
ATOM     92  F   UNL A   1      42.296  27.181  32.237  1.00  0.00    -0.206 F 
ATOM     93  C   UNL A   1      42.529  27.264  35.843  1.00  0.00     0.060 A 
BRANCH  93  94
ATOM     94  S   UNL A   1      42.062  26.259  37.269  1.00  0.00     0.124 S 
ATOM     95  O   UNL A   1      40.717  26.746  37.558  1.00  0.00    -0.237 OA
ATOM     96  O   UNL A   1      42.144  24.900  36.743  1.00  0.00    -0.237 OA
ATOM     97  O   UNL A   1      43.075  26.594  38.267  1.00  0.00    -0.744 OA
ENDBRANCH  93  94
ENDBRANCH  61  86
ENDBRANCH  35  36
ENDBRANCH  27  30
ENDBRANCH  25  26
ENDBRANCH   1  25
TORSDOF 17
ENDMDL
MODEL 2
REMARK VINA RESULT:     -12.1      1.915      2.482
REMARK SMILES CCCc1c(C(=O)NCCCNC(=O)c2ccc(-c3c4nc(c(-c5c(F)cc(S(=O)(=O)[O-])cc5F)c5ccc([nH]5)c(-c5c(F)cc(S(=O)(=O)[O-])cc5F)c5nc(c(-c6c(F)cc(S(=O)(=O)[O-])cc6F)c6ccc3[nH]6)C=C5)C=C4)cc2)nnn1-c1cccc(C(F)(F)F)c1
REMARK SMILES IDX 10 1 9 2 8 3 6 4 7 5 5 7 4 8 83 9 81 10 82 11 3 12 2 13 1 14
REMARK SMILES IDX 84 15 85 16 93 17 86 18 88 19 87 20 89 21 90 22 91 23 92 24
REMARK SMILES IDX 11 25 12 26 13 27 14 29 15 30 16 31 80 32 17 33 79 34 18 35
REMARK SMILES IDX 19 36 20 37 73 38 21 39 78 40 72 41 74 42 22 43 77 44 71 45
REMARK SMILES IDX 70 46 23 48 57 49 36 50 56 51 37 52 40 53 55 54 75 55 38 56
REMARK SMILES IDX 39 57 54 59 76 60 41 61 24 62 25 63 34 64 26 65 27 66 33 67
REMARK SMILES IDX 35 68 28 69 29 70 30 71 31 72 32 73 58 74 59 75 68 76 60 77
REMARK SMILES IDX 61 78 67 79 69 80 62 81 63 82 64 83 65 84 66 85 42 86 43 87
REMARK SMILES IDX 52 88 44 89 45 90 51 91 53 92 46 93 47 94 48 95 49 96 50 97
REMARK H PARENT 8 6 12 28 74 47 40 58
REMARK Flexibility Score: inf
ROOT
ATOM      1  C   UNL A   1      36.159  21.970  25.178  1.00  0.00     0.042 C 
ENDROOT
BRANCH   1   2
ATOM      2  C   UNL A   1      35.038  22.098  26.221  1.00  0.00     0.118 C 
BRANCH   2   3
ATOM      3  N   UNL A   1      33.778  21.513  25.792  1.00  0.00    -0.351 N 
ATOM      4  C   UNL A   1      32.555  22.040  25.446  1.00  0.00     0.273 C 
ATOM      5  O   UNL A   1      31.814  21.268  24.835  1.00  0.00    -0.267 OA
ATOM      6  H   UNL A   1      33.806  20.531  25.737  1.00  0.00     0.163 HD
BRANCH   4   7
ATOM      7  C   UNL A   1      32.123  23.411  25.744  1.00  0.00     0.174 A 
ATOM      8  C   UNL A   1      32.611  24.673  25.416  1.00  0.00     0.078 A 
ATOM      9  N   UNL A   1      31.753  25.537  26.072  1.00  0.00    -0.217 N 
ATOM     10  N   UNL A   1      31.114  23.585  26.680  1.00  0.00    -0.124 NA
ATOM     11  N   UNL A   1      30.953  24.877  26.916  1.00  0.00    -0.061 NA
BRANCH   8  12
ATOM     12  C   UNL A   1      33.810  25.192  24.709  1.00  0.00     0.059 C 
BRANCH  12  13
ATOM     13  C   UNL A   1      33.757  25.076  23.179  1.00  0.00     0.003 C 
ATOM     14  C   UNL A   1      33.506  26.353  22.385  1.00  0.00     0.004 C 
ENDBRANCH  12  13
ENDBRANCH   8  12
BRANCH   9  15
ATOM     15  C   UNL A   1      31.641  26.925  25.888  1.00  0.00     0.067 A 
ATOM     16  C   UNL A   1      32.218  27.794  26.812  1.00  0.00     0.028 A 
ATOM     17  C   UNL A   1      31.014  27.401  24.730  1.00  0.00     0.041 A 
ATOM     18  C   UNL A   1      32.214  29.161  26.540  1.00  0.00     0.003 A 
ATOM     19  C   UNL A   1      30.966  28.777  24.478  1.00  0.00     0.058 A 
ATOM     20  C   UNL A   1      31.593  29.649  25.384  1.00  0.00     0.013 A 
BRANCH  19  21
ATOM     21  C   UNL A   1      30.252  29.317  23.265  1.00  0.00     0.416 C 
ATOM     22  F   UNL A   1      29.658  30.519  23.500  1.00  0.00    -0.166 F 
ATOM     23  F   UNL A   1      31.088  29.513  22.208  1.00  0.00    -0.166 F 
ATOM     24  F   UNL A   1      29.263  28.498  22.806  1.00  0.00    -0.166 F 
ENDBRANCH  19  21
ENDBRANCH   9  15
ENDBRANCH   4   7
ENDBRANCH   2   3
ENDBRANCH   1   2
BRANCH   1  25
ATOM     25  C   UNL A   1      37.440  22.663  25.570  1.00  0.00     0.118 C 
BRANCH  25  26
ATOM     26  N   UNL A   1      38.526  21.738  25.860  1.00  0.00    -0.352 N 
ATOM     27  C   UNL A   1      39.798  22.053  26.303  1.00  0.00     0.251 C 
ATOM     28  H   UNL A   1      38.333  20.783  25.726  1.00  0.00     0.163 HD
ATOM     29  O   UNL A   1      40.713  21.252  26.156  1.00  0.00    -0.269 OA
BRANCH  27  30
ATOM     30  C   UNL A   1      40.032  23.361  26.957  1.00  0.00     0.039 A 
ATOM     31  C   UNL A   1      39.094  24.396  26.894  1.00  0.00     0.014 A 
ATOM     32  C   UNL A   1      41.239  23.560  27.616  1.00  0.00     0.014 A 
ATOM     33  C   UNL A   1      39.394  25.614  27.503  1.00  0.00     0.010 A 
ATOM     34  C   UNL A   1      41.433  24.655  28.401  1.00  0.00     0.010 A 
ATOM     35  C   UNL A   1      40.579  25.731  28.240  1.00  0.00    -0.014 A 
BRANCH  35  36
ATOM     36  C   UNL A   1      40.976  26.960  28.904  1.00  0.00     0.031 A 
ATOM     37  C   UNL A   1      42.088  27.676  28.241  1.00  0.00     0.074 A 
ATOM     38  C   UNL A   1      40.205  27.514  29.869  1.00  0.00     0.049 A 
ATOM     39  N   UNL A   1      43.284  27.845  28.692  1.00  0.00    -0.248 NA
ATOM     40  C   UNL A   1      41.913  28.102  26.842  1.00  0.00     0.031 C 
ATOM     41  C   UNL A   1      38.913  27.040  30.388  1.00  0.00     0.029 A 
ATOM     42  N   UNL A   1      40.346  28.710  30.495  1.00  0.00    -0.354 N 
ATOM     43  C   UNL A   1      43.934  28.626  27.744  1.00  0.00     0.074 A 
ATOM     44  C   UNL A   1      43.137  28.548  26.549  1.00  0.00     0.031 C 
ATOM     45  C   UNL A   1      38.290  28.045  31.039  1.00  0.00     0.029 A 
ATOM     46  C   UNL A   1      39.194  29.175  31.124  1.00  0.00     0.049 A 
ATOM     47  H   UNL A   1      41.194  29.209  30.504  1.00  0.00     0.167 HD
ATOM     48  C   UNL A   1      44.926  29.487  28.106  1.00  0.00     0.037 A 
ATOM     49  C   UNL A   1      38.996  30.420  31.631  1.00  0.00     0.037 A 
ATOM     50  C   UNL A   1      45.365  29.228  29.457  1.00  0.00     0.049 A 
ATOM     51  C   UNL A   1      40.351  31.002  31.850  1.00  0.00     0.074 A 
ATOM     52  C   UNL A   1      45.875  28.120  30.109  1.00  0.00     0.029 A 
ATOM     53  N   UNL A   1      44.916  30.073  30.448  1.00  0.00    -0.354 N 
ATOM     54  N   UNL A   1      41.200  30.537  32.729  1.00  0.00    -0.248 NA
ATOM     55  C   UNL A   1      40.947  31.767  30.763  1.00  0.00     0.031 C 
ATOM     56  C   UNL A   1      45.264  28.137  31.396  1.00  0.00     0.029 A 
ATOM     57  C   UNL A   1      44.489  29.293  31.494  1.00  0.00     0.049 A 
ATOM     58  H   UNL A   1      44.903  31.056  30.411  1.00  0.00     0.167 HD
ATOM     59  C   UNL A   1      42.432  30.566  32.088  1.00  0.00     0.074 A 
ATOM     60  C   UNL A   1      42.229  31.418  30.917  1.00  0.00     0.031 C 
ATOM     61  C   UNL A   1      43.409  29.657  32.388  1.00  0.00     0.037 A 
BRANCH  48  62
ATOM     62  C   UNL A   1      45.238  30.784  27.402  1.00  0.00     0.058 A 
ATOM     63  C   UNL A   1      46.557  31.023  26.964  1.00  0.00     0.135 A 
ATOM     64  C   UNL A   1      44.377  31.904  27.383  1.00  0.00     0.135 A 
ATOM     65  F   UNL A   1      47.460  30.029  26.941  1.00  0.00    -0.206 F 
ATOM     66  C   UNL A   1      47.009  32.295  26.615  1.00  0.00     0.059 A 
ATOM     67  C   UNL A   1      44.792  33.168  26.983  1.00  0.00     0.059 A 
ATOM     68  F   UNL A   1      43.124  31.856  27.847  1.00  0.00    -0.206 F 
ATOM     69  C   UNL A   1      46.120  33.364  26.646  1.00  0.00     0.060 A 
BRANCH  69  70
ATOM     70  S   UNL A   1      46.726  35.026  26.310  1.00  0.00     0.124 S 
ATOM     71  O   UNL A   1      45.530  35.824  26.557  1.00  0.00    -0.237 OA
ATOM     72  O   UNL A   1      47.799  35.160  27.289  1.00  0.00    -0.237 OA
ATOM     73  O   UNL A   1      47.160  34.950  24.918  1.00  0.00    -0.744 OA
ENDBRANCH  69  70
ENDBRANCH  48  62
BRANCH  49  74
ATOM     74  C   UNL A   1      37.741  31.225  31.629  1.00  0.00     0.058 A 
ATOM     75  C   UNL A   1      37.029  31.464  32.820  1.00  0.00     0.135 A 
ATOM     76  C   UNL A   1      37.354  32.005  30.518  1.00  0.00     0.135 A 
ATOM     77  F   UNL A   1      37.329  30.779  33.934  1.00  0.00    -0.206 F 
ATOM     78  C   UNL A   1      36.046  32.457  32.919  1.00  0.00     0.059 A 
ATOM     79  C   UNL A   1      36.367  32.988  30.590  1.00  0.00     0.059 A 
ATOM     80  F   UNL A   1      37.989  31.906  29.341  1.00  0.00    -0.206 F 
ATOM     81  C   UNL A   1      35.740  33.234  31.803  1.00  0.00     0.060 A 
BRANCH  81  82
ATOM     82  S   UNL A   1      34.635  34.657  31.975  1.00  0.00     0.124 S 
ATOM     83  O   UNL A   1      35.460  35.591  32.734  1.00  0.00    -0.237 OA
ATOM     84  O   UNL A   1      34.377  35.017  30.586  1.00  0.00    -0.237 OA
ATOM     85  O   UNL A   1      33.489  34.109  32.695  1.00  0.00    -0.744 OA
ENDBRANCH  81  82
ENDBRANCH  49  74
BRANCH  61  86
ATOM     86  C   UNL A   1      43.238  28.795  33.617  1.00  0.00     0.058 A 
ATOM     87  C   UNL A   1      43.487  29.225  34.934  1.00  0.00     0.135 A 
ATOM     88  C   UNL A   1      42.633  27.538  33.467  1.00  0.00     0.135 A 
ATOM     89  F   UNL A   1      43.956  30.454  35.181  1.00  0.00    -0.206 F 
ATOM     90  C   UNL A   1      43.192  28.429  36.042  1.00  0.00     0.059 A 
ATOM     91  C   UNL A   1      42.299  26.740  34.559  1.00  0.00     0.059 A 
ATOM     92  F   UNL A   1      42.305  27.093  32.243  1.00  0.00    -0.206 F 
ATOM     93  C   UNL A   1      42.596  27.187  35.844  1.00  0.00     0.060 A 
BRANCH  93  94
ATOM     94  S   UNL A   1      42.147  26.189  37.281  1.00  0.00     0.124 S 
ATOM     95  O   UNL A   1      42.241  24.832  36.753  1.00  0.00    -0.237 OA
ATOM     96  O   UNL A   1      43.166  26.561  38.259  1.00  0.00    -0.237 OA
ATOM     97  O   UNL A   1      40.796  26.643  37.601  1.00  0.00    -0.744 OA
ENDBRANCH  93  94
ENDBRANCH  61  86
ENDBRANCH  35  36
ENDBRANCH  27  30
ENDBRANCH  25  26
ENDBRANCH   1  25
TORSDOF 17
ENDMDL
MODEL 3
REMARK VINA RESULT:     -12.0      3.299      9.375
REMARK SMILES CCCc1c(C(=O)NCCCNC(=O)c2ccc(-c3c4nc(c(-c5c(F)cc(S(=O)(=O)[O-])cc5F)c5ccc([nH]5)c(-c5c(F)cc(S(=O)(=O)[O-])cc5F)c5nc(c(-c6c(F)cc(S(=O)(=O)[O-])cc6F)c6ccc3[nH]6)C=C5)C=C4)cc2)nnn1-c1cccc(C(F)(F)F)c1
REMARK SMILES IDX 10 1 9 2 8 3 6 4 7 5 5 7 4 8 83 9 81 10 82 11 3 12 2 13 1 14
REMARK SMILES IDX 84 15 85 16 93 17 86 18 88 19 87 20 89 21 90 22 91 23 92 24
REMARK SMILES IDX 11 25 12 26 13 27 14 29 15 30 16 31 80 32 17 33 79 34 18 35
REMARK SMILES IDX 19 36 20 37 73 38 21 39 78 40 72 41 74 42 22 43 77 44 71 45
REMARK SMILES IDX 70 46 23 48 57 49 36 50 56 51 37 52 40 53 55 54 75 55 38 56
REMARK SMILES IDX 39 57 54 59 76 60 41 61 24 62 25 63 34 64 26 65 27 66 33 67
REMARK SMILES IDX 35 68 28 69 29 70 30 71 31 72 32 73 58 74 59 75 68 76 60 77
REMARK SMILES IDX 61 78 67 79 69 80 62 81 63 82 64 83 65 84 66 85 42 86 43 87
REMARK SMILES IDX 52 88 44 89 45 90 51 91 53 92 46 93 47 94 48 95 49 96 50 97
REMARK H PARENT 8 6 12 28 74 47 40 58
REMARK Flexibility Score: inf
ROOT
ATOM      1  C   UNL A   1      32.673  29.086  25.695  1.00  0.00     0.042 C 
ENDROOT
BRANCH   1   2
ATOM      2  C   UNL A   1      33.203  29.177  24.256  1.00  0.00     0.118 C 
BRANCH   2   3
ATOM      3  N   UNL A   1      32.239  28.752  23.255  1.00  0.00    -0.351 N 
ATOM      4  C   UNL A   1      31.865  27.525  22.757  1.00  0.00     0.273 C 
ATOM      5  O   UNL A   1      30.796  27.521  22.142  1.00  0.00    -0.267 OA
ATOM      6  H   UNL A   1      31.749  29.502  22.846  1.00  0.00     0.163 HD
BRANCH   4   7
ATOM      7  C   UNL A   1      32.632  26.286  22.928  1.00  0.00     0.174 A 
ATOM      8  C   UNL A   1      32.918  25.466  24.017  1.00  0.00     0.078 A 
ATOM      9  N   UNL A   1      33.743  24.492  23.487  1.00  0.00    -0.217 N 
ATOM     10  N   UNL A   1      33.408  25.849  21.865  1.00  0.00    -0.124 NA
ATOM     11  N   UNL A   1      34.125  24.804  22.244  1.00  0.00    -0.061 NA
BRANCH   8  12
ATOM     12  C   UNL A   1      32.657  25.521  25.479  1.00  0.00     0.059 C 
BRANCH  12  13
ATOM     13  C   UNL A   1      31.332  24.883  25.922  1.00  0.00     0.003 C 
ATOM     14  C   UNL A   1      31.399  23.516  26.592  1.00  0.00     0.004 C 
ENDBRANCH  12  13
ENDBRANCH   8  12
BRANCH   9  15
ATOM     15  C   UNL A   1      34.127  23.283  24.090  1.00  0.00     0.067 A 
ATOM     16  C   UNL A   1      35.189  23.267  24.992  1.00  0.00     0.028 A 
ATOM     17  C   UNL A   1      33.374  22.131  23.826  1.00  0.00     0.041 A 
ATOM     18  C   UNL A   1      35.465  22.087  25.681  1.00  0.00     0.003 A 
ATOM     19  C   UNL A   1      33.680  20.932  24.482  1.00  0.00     0.058 A 
ATOM     20  C   UNL A   1      34.718  20.930  25.429  1.00  0.00     0.013 A 
BRANCH  19  21
ATOM     21  C   UNL A   1      32.919  19.668  24.176  1.00  0.00     0.416 C 
ATOM     22  F   UNL A   1      32.103  19.798  23.093  1.00  0.00    -0.166 F 
ATOM     23  F   UNL A   1      33.739  18.615  23.903  1.00  0.00    -0.166 F 
ATOM     24  F   UNL A   1      32.116  19.256  25.198  1.00  0.00    -0.166 F 
ENDBRANCH  19  21
ENDBRANCH   9  15
ENDBRANCH   4   7
ENDBRANCH   2   3
ENDBRANCH   1   2
BRANCH   1  25
ATOM     25  C   UNL A   1      33.699  29.424  26.747  1.00  0.00     0.118 C 
BRANCH  25  26
ATOM     26  N   UNL A   1      33.664  30.822  27.153  1.00  0.00    -0.352 N 
ATOM     27  C   UNL A   1      34.545  31.470  27.999  1.00  0.00     0.251 C 
ATOM     28  H   UNL A   1      32.931  31.365  26.784  1.00  0.00     0.163 HD
ATOM     29  O   UNL A   1      34.211  32.513  28.548  1.00  0.00    -0.269 OA
BRANCH  27  30
ATOM     30  C   UNL A   1      35.889  30.891  28.223  1.00  0.00     0.039 A 
ATOM     31  C   UNL A   1      36.205  29.586  27.834  1.00  0.00     0.014 A 
ATOM     32  C   UNL A   1      36.840  31.669  28.874  1.00  0.00     0.014 A 
ATOM     33  C   UNL A   1      37.480  29.092  28.107  1.00  0.00     0.010 A 
ATOM     34  C   UNL A   1      38.142  31.276  28.931  1.00  0.00     0.010 A 
ATOM     35  C   UNL A   1      38.433  29.948  28.673  1.00  0.00    -0.014 A 
BRANCH  35  36
ATOM     36  C   UNL A   1      39.784  29.522  28.996  1.00  0.00     0.031 A 
ATOM     37  C   UNL A   1      40.043  29.373  30.444  1.00  0.00     0.074 A 
ATOM     38  C   UNL A   1      40.614  29.045  28.039  1.00  0.00     0.049 A 
ATOM     39  N   UNL A   1      40.824  30.095  31.174  1.00  0.00    -0.248 NA
ATOM     40  C   UNL A   1      39.210  28.433  31.214  1.00  0.00     0.031 C 
ATOM     41  C   UNL A   1      40.342  28.860  26.606  1.00  0.00     0.029 A 
ATOM     42  N   UNL A   1      41.842  28.484  28.174  1.00  0.00    -0.354 N 
ATOM     43  C   UNL A   1      40.778  29.530  32.443  1.00  0.00     0.074 A 
ATOM     44  C   UNL A   1      39.613  28.686  32.461  1.00  0.00     0.031 C 
ATOM     45  C   UNL A   1      41.254  28.017  26.076  1.00  0.00     0.029 A 
ATOM     46  C   UNL A   1      42.259  27.730  27.081  1.00  0.00     0.049 A 
ATOM     47  H   UNL A   1      42.394  28.600  28.981  1.00  0.00     0.167 HD
ATOM     48  C   UNL A   1      41.851  29.596  33.278  1.00  0.00     0.037 A 
ATOM     49  C   UNL A   1      43.331  26.896  27.034  1.00  0.00     0.037 A 
ATOM     50  C   UNL A   1      42.826  30.544  32.792  1.00  0.00     0.049 A 
ATOM     51  C   UNL A   1      44.235  27.317  28.143  1.00  0.00     0.074 A 
ATOM     52  C   UNL A   1      42.788  31.891  32.482  1.00  0.00     0.029 A 
ATOM     53  N   UNL A   1      43.943  30.045  32.160  1.00  0.00    -0.354 N 
ATOM     54  N   UNL A   1      44.851  28.469  28.171  1.00  0.00    -0.248 NA
ATOM     55  C   UNL A   1      44.061  26.681  29.442  1.00  0.00     0.031 C 
ATOM     56  C   UNL A   1      43.580  32.021  31.305  1.00  0.00     0.029 A 
ATOM     57  C   UNL A   1      44.128  30.772  31.010  1.00  0.00     0.049 A 
ATOM     58  H   UNL A   1      44.507  29.302  32.476  1.00  0.00     0.167 HD
ATOM     59  C   UNL A   1      44.746  28.901  29.486  1.00  0.00     0.074 A 
ATOM     60  C   UNL A   1      44.333  27.719  30.240  1.00  0.00     0.031 C 
ATOM     61  C   UNL A   1      44.702  30.233  29.794  1.00  0.00     0.037 A 
BRANCH  48  62
ATOM     62  C   UNL A   1      42.202  28.553  34.312  1.00  0.00     0.058 A 
ATOM     63  C   UNL A   1      42.231  28.924  35.672  1.00  0.00     0.135 A 
ATOM     64  C   UNL A   1      42.770  27.296  34.010  1.00  0.00     0.135 A 
ATOM     65  F   UNL A   1      41.719  30.099  36.071  1.00  0.00    -0.206 F 
ATOM     66  C   UNL A   1      42.854  28.144  36.645  1.00  0.00     0.059 A 
ATOM     67  C   UNL A   1      43.343  26.476  34.974  1.00  0.00     0.059 A 
ATOM     68  F   UNL A   1      42.892  26.843  32.758  1.00  0.00    -0.206 F 
ATOM     69  C   UNL A   1      43.423  26.928  36.280  1.00  0.00     0.060 A 
BRANCH  69  70
ATOM     70  S   UNL A   1      44.329  25.972  37.507  1.00  0.00     0.124 S 
ATOM     71  O   UNL A   1      43.998  24.608  37.113  1.00  0.00    -0.237 OA
ATOM     72  O   UNL A   1      45.704  26.395  37.263  1.00  0.00    -0.237 OA
ATOM     73  O   UNL A   1      43.756  26.423  38.772  1.00  0.00    -0.744 OA
ENDBRANCH  69  70
ENDBRANCH  48  62
BRANCH  49  74
ATOM     74  C   UNL A   1      43.455  25.597  26.315  1.00  0.00     0.058 A 
ATOM     75  C   UNL A   1      44.485  25.379  25.379  1.00  0.00     0.135 A 
ATOM     76  C   UNL A   1      42.743  24.447  26.718  1.00  0.00     0.135 A 
ATOM     77  F   UNL A   1      45.227  26.408  24.941  1.00  0.00    -0.206 F 
ATOM     78  C   UNL A   1      44.828  24.098  24.926  1.00  0.00     0.059 A 
ATOM     79  C   UNL A   1      43.056  23.164  26.268  1.00  0.00     0.059 A 
ATOM     80  F   UNL A   1      41.772  24.515  27.640  1.00  0.00    -0.206 F 
ATOM     81  C   UNL A   1      44.123  22.992  25.397  1.00  0.00     0.060 A 
BRANCH  81  82
ATOM     82  S   UNL A   1      44.696  21.324  24.991  1.00  0.00     0.124 S 
ATOM     83  O   UNL A   1      43.755  20.491  25.733  1.00  0.00    -0.237 OA
ATOM     84  O   UNL A   1      44.563  21.298  23.539  1.00  0.00    -0.237 OA
ATOM     85  O   UNL A   1      46.069  21.308  25.488  1.00  0.00    -0.744 OA
ENDBRANCH  81  82
ENDBRANCH  49  74
BRANCH  61  86
ATOM     86  C   UNL A   1      45.046  31.234  28.716  1.00  0.00     0.058 A 
ATOM     87  C   UNL A   1      44.116  31.791  27.818  1.00  0.00     0.135 A 
ATOM     88  C   UNL A   1      46.338  31.780  28.706  1.00  0.00     0.135 A 
ATOM     89  F   UNL A   1      42.832  31.413  27.833  1.00  0.00    -0.206 F 
ATOM     90  C   UNL A   1      44.464  32.806  26.925  1.00  0.00     0.059 A 
ATOM     91  C   UNL A   1      46.700  32.816  27.848  1.00  0.00     0.059 A 
ATOM     92  F   UNL A   1      47.258  31.344  29.583  1.00  0.00    -0.206 F 
ATOM     93  C   UNL A   1      45.760  33.314  26.949  1.00  0.00     0.060 A 
BRANCH  93  94
ATOM     94  S   UNL A   1      46.189  34.677  25.845  1.00  0.00     0.124 S 
ATOM     95  O   UNL A   1      45.496  34.305  24.616  1.00  0.00    -0.237 OA
ATOM     96  O   UNL A   1      45.652  35.839  26.548  1.00  0.00    -0.237 OA
ATOM     97  O   UNL A   1      47.647  34.618  25.782  1.00  0.00    -0.744 OA
ENDBRANCH  93  94
ENDBRANCH  61  86
ENDBRANCH  35  36
ENDBRANCH  27  30
ENDBRANCH  25  26
ENDBRANCH   1  25
TORSDOF 17
ENDMDL
