MODEL 1
REMARK VINA RESULT:     -11.8      0.000      0.000
REMARK SMILES CC1(C)CCC[C@@]1(CC(=O)NCCCNC(=O)c1ccc(-c2c3nc(c(-c4c(F)cc(S(=O)(=O)[O-])cc4F)c4ccc([nH]4)c(-c4c(F)cc(S(=O)(=O)[O-])cc4F)c4nc(c(-c5c(F)cc(S(=O)(=O)[O-])cc5F)c5ccc2[nH]5)C=C4)C=C3)cc1)[NH+]1CCCCC1
REMARK SMILES IDX 13 1 12 2 11 3 9 4 10 5 8 7 7 8 1 9 2 10 3 11 4 12 5 13 6 14
REMARK SMILES IDX 84 15 85 16 89 17 86 19 88 20 87 21 14 22 15 23 16 24 17 26
REMARK SMILES IDX 18 27 19 28 83 29 20 30 82 31 21 32 22 33 23 34 76 35 24 36
REMARK SMILES IDX 81 37 75 38 77 39 25 40 80 41 74 42 73 43 26 45 60 46 39 47
REMARK SMILES IDX 59 48 40 49 43 50 58 51 78 52 41 53 42 54 57 56 79 57 44 58
REMARK SMILES IDX 27 59 28 60 37 61 29 62 30 63 36 64 38 65 31 66 32 67 33 68
REMARK SMILES IDX 34 69 35 70 61 71 62 72 71 73 63 74 64 75 70 76 72 77 65 78
REMARK SMILES IDX 66 79 67 80 68 81 69 82 45 83 46 84 55 85 47 86 48 87 54 88
REMARK SMILES IDX 56 89 49 90 50 91 51 92 52 93 53 94
REMARK H PARENT 11 6 84 18 15 25 77 44 43 55
REMARK Flexibility Score: inf
ROOT
ATOM      1  C   UNL A   1      34.419  29.527  27.344  1.00  0.00     0.042 C 
ENDROOT
BRANCH   1   2
ATOM      2  C   UNL A   1      33.304  29.955  26.386  1.00  0.00     0.117 C 
BRANCH   2   3
ATOM      3  N   UNL A   1      33.652  29.703  24.994  1.00  0.00    -0.356 N 
ATOM      4  C   UNL A   1      33.103  28.913  24.029  1.00  0.00     0.226 C 
ATOM      5  O   UNL A   1      33.614  29.015  22.910  1.00  0.00    -0.275 OA
ATOM      6  H   UNL A   1      34.444  30.202  24.690  1.00  0.00     0.163 HD
BRANCH   4   7
ATOM      7  C   UNL A   1      31.859  28.050  24.278  1.00  0.00     0.169 C 
BRANCH   7   8
ATOM      8  C   UNL A   1      31.975  26.479  24.512  1.00  0.00     0.112 C 
ATOM      9  C   UNL A   1      29.778  25.776  25.837  1.00  0.00     0.018 C 
ATOM     10  C   UNL A   1      31.277  26.100  25.934  1.00  0.00     0.020 C 
ATOM     11  C   UNL A   1      31.402  27.193  27.037  1.00  0.00     0.018 C 
ATOM     12  C   UNL A   1      32.085  24.892  26.457  1.00  0.00     0.013 C 
ATOM     13  C   UNL A   1      33.511  25.167  26.030  1.00  0.00     0.007 C 
ATOM     14  C   UNL A   1      33.436  26.088  24.818  1.00  0.00     0.070 C 
BRANCH   8  15
ATOM     15  N   UNL A   1      31.374  25.700  23.365  1.00  0.00    -0.329 N 
ATOM     16  C   UNL A   1      31.523  24.240  23.269  1.00  0.00     0.262 C 
ATOM     17  C   UNL A   1      31.531  26.230  22.000  1.00  0.00     0.262 C 
ATOM     18  H   UNL A   1      30.438  25.882  23.727  1.00  0.00     0.348 HD
ATOM     19  C   UNL A   1      32.833  23.736  22.661  1.00  0.00     0.062 C 
ATOM     20  C   UNL A   1      32.903  25.954  21.388  1.00  0.00     0.062 C 
ATOM     21  C   UNL A   1      33.215  24.458  21.371  1.00  0.00     0.012 C 
ENDBRANCH   8  15
ENDBRANCH   7   8
ENDBRANCH   4   7
ENDBRANCH   2   3
ENDBRANCH   1   2
BRANCH   1  22
ATOM     22  C   UNL A   1      35.313  30.671  27.796  1.00  0.00     0.118 C 
BRANCH  22  23
ATOM     23  N   UNL A   1      35.325  30.798  29.240  1.00  0.00    -0.352 N 
ATOM     24  C   UNL A   1      36.242  30.333  30.152  1.00  0.00     0.251 C 
ATOM     25  H   UNL A   1      34.564  31.291  29.625  1.00  0.00     0.163 HD
ATOM     26  O   UNL A   1      35.925  30.287  31.339  1.00  0.00    -0.269 OA
BRANCH  24  27
ATOM     27  C   UNL A   1      37.592  29.878  29.730  1.00  0.00     0.039 A 
ATOM     28  C   UNL A   1      38.481  29.418  30.706  1.00  0.00     0.014 A 
ATOM     29  C   UNL A   1      38.020  29.972  28.403  1.00  0.00     0.014 A 
ATOM     30  C   UNL A   1      39.778  29.029  30.349  1.00  0.00     0.010 A 
ATOM     31  C   UNL A   1      39.279  29.496  28.033  1.00  0.00     0.010 A 
ATOM     32  C   UNL A   1      40.185  29.048  29.004  1.00  0.00    -0.014 A 
BRANCH  32  33
ATOM     33  C   UNL A   1      41.565  28.663  28.605  1.00  0.00     0.031 A 
ATOM     34  C   UNL A   1      42.652  29.708  28.547  1.00  0.00     0.074 A 
ATOM     35  C   UNL A   1      41.838  27.392  28.248  1.00  0.00     0.049 A 
ATOM     36  N   UNL A   1      43.896  29.588  28.156  1.00  0.00    -0.248 NA
ATOM     37  C   UNL A   1      42.285  31.074  28.953  1.00  0.00     0.031 C 
ATOM     38  C   UNL A   1      40.868  26.297  28.214  1.00  0.00     0.029 A 
ATOM     39  N   UNL A   1      43.011  26.810  27.836  1.00  0.00    -0.354 N 
ATOM     40  C   UNL A   1      44.447  30.862  28.243  1.00  0.00     0.074 A 
ATOM     41  C   UNL A   1      43.390  31.750  28.677  1.00  0.00     0.031 C 
ATOM     42  C   UNL A   1      41.489  25.171  27.822  1.00  0.00     0.029 A 
ATOM     43  C   UNL A   1      42.891  25.471  27.546  1.00  0.00     0.049 A 
ATOM     44  H   UNL A   1      43.858  27.304  27.754  1.00  0.00     0.167 HD
ATOM     45  C   UNL A   1      45.722  31.257  28.007  1.00  0.00     0.037 A 
ATOM     46  C   UNL A   1      43.804  24.584  27.102  1.00  0.00     0.037 A 
ATOM     47  C   UNL A   1      46.783  30.365  27.623  1.00  0.00     0.049 A 
ATOM     48  C   UNL A   1      45.222  25.037  26.876  1.00  0.00     0.074 A 
ATOM     49  C   UNL A   1      48.124  30.654  27.433  1.00  0.00     0.029 A 
ATOM     50  N   UNL A   1      46.627  29.010  27.376  1.00  0.00    -0.354 N 
ATOM     51  N   UNL A   1      45.737  26.234  27.023  1.00  0.00    -0.248 NA
ATOM     52  C   UNL A   1      46.183  24.018  26.434  1.00  0.00     0.031 C 
ATOM     53  C   UNL A   1      48.772  29.479  27.036  1.00  0.00     0.029 A 
ATOM     54  C   UNL A   1      47.844  28.451  27.020  1.00  0.00     0.049 A 
ATOM     55  H   UNL A   1      45.778  28.517  27.443  1.00  0.00     0.167 HD
ATOM     56  C   UNL A   1      47.086  26.109  26.711  1.00  0.00     0.074 A 
ATOM     57  C   UNL A   1      47.310  24.716  26.382  1.00  0.00     0.031 C 
ATOM     58  C   UNL A   1      48.052  27.061  26.700  1.00  0.00     0.037 A 
BRANCH  45  59
ATOM     59  C   UNL A   1      46.041  32.719  28.168  1.00  0.00     0.058 A 
ATOM     60  C   UNL A   1      45.918  33.623  27.100  1.00  0.00     0.135 A 
ATOM     61  C   UNL A   1      46.449  33.227  29.411  1.00  0.00     0.135 A 
ATOM     62  F   UNL A   1      45.546  33.189  25.886  1.00  0.00    -0.206 F 
ATOM     63  C   UNL A   1      46.222  34.972  27.250  1.00  0.00     0.059 A 
ATOM     64  C   UNL A   1      46.731  34.579  29.591  1.00  0.00     0.059 A 
ATOM     65  F   UNL A   1      46.581  32.409  30.467  1.00  0.00    -0.206 F 
ATOM     66  C   UNL A   1      46.632  35.440  28.499  1.00  0.00     0.060 A 
BRANCH  66  67
ATOM     67  S   UNL A   1      47.027  37.193  28.680  1.00  0.00     0.124 S 
ATOM     68  O   UNL A   1      48.374  37.129  29.243  1.00  0.00    -0.237 OA
ATOM     69  O   UNL A   1      46.941  37.677  27.304  1.00  0.00    -0.237 OA
ATOM     70  O   UNL A   1      45.993  37.685  29.579  1.00  0.00    -0.744 OA
ENDBRANCH  66  67
ENDBRANCH  45  59
BRANCH  46  71
ATOM     71  C   UNL A   1      43.409  23.171  26.867  1.00  0.00     0.058 A 
ATOM     72  C   UNL A   1      43.300  22.660  25.565  1.00  0.00     0.135 A 
ATOM     73  C   UNL A   1      43.158  22.298  27.936  1.00  0.00     0.135 A 
ATOM     74  F   UNL A   1      43.523  23.459  24.511  1.00  0.00    -0.206 F 
ATOM     75  C   UNL A   1      42.945  21.336  25.329  1.00  0.00     0.059 A 
ATOM     76  C   UNL A   1      42.823  20.963  27.726  1.00  0.00     0.059 A 
ATOM     77  F   UNL A   1      43.265  22.735  29.200  1.00  0.00    -0.206 F 
ATOM     78  C   UNL A   1      42.712  20.493  26.418  1.00  0.00     0.060 A 
BRANCH  78  79
ATOM     79  S   UNL A   1      42.314  18.760  26.103  1.00  0.00     0.124 S 
ATOM     80  O   UNL A   1      42.623  18.150  27.390  1.00  0.00    -0.237 OA
ATOM     81  O   UNL A   1      40.899  18.829  25.752  1.00  0.00    -0.237 OA
ATOM     82  O   UNL A   1      43.207  18.406  25.004  1.00  0.00    -0.744 OA
ENDBRANCH  78  79
ENDBRANCH  46  71
BRANCH  58  83
ATOM     83  C   UNL A   1      49.446  26.627  26.347  1.00  0.00     0.058 A 
ATOM     84  C   UNL A   1      50.285  26.011  27.288  1.00  0.00     0.135 A 
ATOM     85  C   UNL A   1      49.929  26.779  25.037  1.00  0.00     0.135 A 
ATOM     86  F   UNL A   1      49.874  25.847  28.556  1.00  0.00    -0.206 F 
ATOM     87  C   UNL A   1      51.563  25.578  26.948  1.00  0.00     0.059 A 
ATOM     88  C   UNL A   1      51.193  26.332  24.668  1.00  0.00     0.059 A 
ATOM     89  F   UNL A   1      49.161  27.353  24.096  1.00  0.00    -0.206 F 
ATOM     90  C   UNL A   1      52.007  25.742  25.635  1.00  0.00     0.060 A 
BRANCH  90  91
ATOM     91  S   UNL A   1      53.653  25.143  25.195  1.00  0.00     0.124 S 
ATOM     92  O   UNL A   1      53.500  23.704  25.376  1.00  0.00    -0.237 OA
ATOM     93  O   UNL A   1      53.794  25.597  23.814  1.00  0.00    -0.237 OA
ATOM     94  O   UNL A   1      54.525  25.809  26.158  1.00  0.00    -0.744 OA
ENDBRANCH  90  91
ENDBRANCH  58  83
ENDBRANCH  32  33
ENDBRANCH  24  27
ENDBRANCH  22  23
ENDBRANCH   1  22
TORSDOF 15
ENDMDL
MODEL 2
REMARK VINA RESULT:     -11.6      6.738     12.207
REMARK SMILES CC1(C)CCC[C@@]1(CC(=O)NCCCNC(=O)c1ccc(-c2c3nc(c(-c4c(F)cc(S(=O)(=O)[O-])cc4F)c4ccc([nH]4)c(-c4c(F)cc(S(=O)(=O)[O-])cc4F)c4nc(c(-c5c(F)cc(S(=O)(=O)[O-])cc5F)c5ccc2[nH]5)C=C4)C=C3)cc1)[NH+]1CCCCC1
REMARK SMILES IDX 13 1 12 2 11 3 9 4 10 5 8 7 7 8 1 9 2 10 3 11 4 12 5 13 6 14
REMARK SMILES IDX 84 15 85 16 89 17 86 19 88 20 87 21 14 22 15 23 16 24 17 26
REMARK SMILES IDX 18 27 19 28 83 29 20 30 82 31 21 32 22 33 23 34 76 35 24 36
REMARK SMILES IDX 81 37 75 38 77 39 25 40 80 41 74 42 73 43 26 45 60 46 39 47
REMARK SMILES IDX 59 48 40 49 43 50 58 51 78 52 41 53 42 54 57 56 79 57 44 58
REMARK SMILES IDX 27 59 28 60 37 61 29 62 30 63 36 64 38 65 31 66 32 67 33 68
REMARK SMILES IDX 34 69 35 70 61 71 62 72 71 73 63 74 64 75 70 76 72 77 65 78
REMARK SMILES IDX 66 79 67 80 68 81 69 82 45 83 46 84 55 85 47 86 48 87 54 88
REMARK SMILES IDX 56 89 49 90 50 91 51 92 52 93 53 94
REMARK H PARENT 11 6 84 18 15 25 77 44 43 55
REMARK Flexibility Score: inf
ROOT
ATOM      1  C   UNL A   1      38.660  22.146  26.105  1.00  0.00     0.042 C 
ENDROOT
BRANCH   1   2
ATOM      2  C   UNL A   1      37.255  22.344  25.529  1.00  0.00     0.117 C 
BRANCH   2   3
ATOM      3  N   UNL A   1      36.217  22.030  26.502  1.00  0.00    -0.356 N 
ATOM      4  C   UNL A   1      34.876  21.814  26.391  1.00  0.00     0.226 C 
ATOM      5  O   UNL A   1      34.308  21.474  27.433  1.00  0.00    -0.275 OA
ATOM      6  H   UNL A   1      36.551  21.961  27.426  1.00  0.00     0.163 HD
BRANCH   4   7
ATOM      7  C   UNL A   1      34.140  21.865  25.046  1.00  0.00     0.169 C 
BRANCH   7   8
ATOM      8  C   UNL A   1      33.372  23.177  24.572  1.00  0.00     0.112 C 
ATOM      9  C   UNL A   1      33.250  23.031  21.919  1.00  0.00     0.018 C 
ATOM     10  C   UNL A   1      33.964  23.650  23.131  1.00  0.00     0.020 C 
ATOM     11  C   UNL A   1      35.481  23.360  22.919  1.00  0.00     0.018 C 
ATOM     12  C   UNL A   1      33.836  25.189  23.141  1.00  0.00     0.013 C 
ATOM     13  C   UNL A   1      34.118  25.591  24.572  1.00  0.00     0.007 C 
ATOM     14  C   UNL A   1      33.786  24.384  25.440  1.00  0.00     0.070 C 
BRANCH   8  15
ATOM     15  N   UNL A   1      31.878  22.959  24.522  1.00  0.00    -0.329 N 
ATOM     16  C   UNL A   1      30.952  24.059  24.214  1.00  0.00     0.262 C 
ATOM     17  C   UNL A   1      31.249  22.167  25.593  1.00  0.00     0.262 C 
ATOM     18  H   UNL A   1      31.984  22.409  23.670  1.00  0.00     0.348 HD
ATOM     19  C   UNL A   1      30.577  24.970  25.384  1.00  0.00     0.062 C 
ATOM     20  C   UNL A   1      31.030  22.949  26.886  1.00  0.00     0.062 C 
ATOM     21  C   UNL A   1      30.187  24.201  26.645  1.00  0.00     0.012 C 
ENDBRANCH   8  15
ENDBRANCH   7   8
ENDBRANCH   4   7
ENDBRANCH   2   3
ENDBRANCH   1   2
BRANCH   1  22
ATOM     22  C   UNL A   1      39.289  23.422  26.641  1.00  0.00     0.118 C 
BRANCH  22  23
ATOM     23  N   UNL A   1      40.638  23.602  26.142  1.00  0.00    -0.352 N 
ATOM     24  C   UNL A   1      41.510  24.648  26.332  1.00  0.00     0.251 C 
ATOM     25  H   UNL A   1      40.981  22.866  25.585  1.00  0.00     0.163 HD
ATOM     26  O   UNL A   1      42.485  24.747  25.591  1.00  0.00    -0.269 OA
BRANCH  24  27
ATOM     27  C   UNL A   1      41.287  25.656  27.400  1.00  0.00     0.039 A 
ATOM     28  C   UNL A   1      42.179  26.728  27.508  1.00  0.00     0.014 A 
ATOM     29  C   UNL A   1      40.264  25.521  28.342  1.00  0.00     0.014 A 
ATOM     30  C   UNL A   1      42.027  27.669  28.533  1.00  0.00     0.010 A 
ATOM     31  C   UNL A   1      40.057  26.508  29.306  1.00  0.00     0.010 A 
ATOM     32  C   UNL A   1      40.953  27.578  29.433  1.00  0.00    -0.014 A 
BRANCH  32  33
ATOM     33  C   UNL A   1      40.788  28.552  30.546  1.00  0.00     0.031 A 
ATOM     34  C   UNL A   1      41.649  28.442  31.779  1.00  0.00     0.074 A 
ATOM     35  C   UNL A   1      39.835  29.504  30.477  1.00  0.00     0.049 A 
ATOM     36  N   UNL A   1      41.610  29.146  32.882  1.00  0.00    -0.248 NA
ATOM     37  C   UNL A   1      42.670  27.382  31.785  1.00  0.00     0.031 C 
ATOM     38  C   UNL A   1      38.903  29.689  29.363  1.00  0.00     0.029 A 
ATOM     39  N   UNL A   1      39.487  30.489  31.367  1.00  0.00    -0.354 N 
ATOM     40  C   UNL A   1      42.577  28.597  33.718  1.00  0.00     0.074 A 
ATOM     41  C   UNL A   1      43.153  27.472  33.016  1.00  0.00     0.031 C 
ATOM     42  C   UNL A   1      38.104  30.736  29.628  1.00  0.00     0.029 A 
ATOM     43  C   UNL A   1      38.442  31.275  30.942  1.00  0.00     0.049 A 
ATOM     44  H   UNL A   1      39.942  30.620  32.231  1.00  0.00     0.167 HD
ATOM     45  C   UNL A   1      42.968  29.006  34.950  1.00  0.00     0.037 A 
ATOM     46  C   UNL A   1      37.821  32.310  31.543  1.00  0.00     0.037 A 
ATOM     47  C   UNL A   1      42.430  30.155  35.627  1.00  0.00     0.049 A 
ATOM     48  C   UNL A   1      38.293  32.766  32.897  1.00  0.00     0.074 A 
ATOM     49  C   UNL A   1      42.811  30.694  36.844  1.00  0.00     0.029 A 
ATOM     50  N   UNL A   1      41.397  30.945  35.145  1.00  0.00    -0.354 N 
ATOM     51  N   UNL A   1      39.250  32.271  33.645  1.00  0.00    -0.248 NA
ATOM     52  C   UNL A   1      37.608  33.926  33.484  1.00  0.00     0.031 C 
ATOM     53  C   UNL A   1      41.985  31.792  37.114  1.00  0.00     0.029 A 
ATOM     54  C   UNL A   1      41.118  31.960  36.046  1.00  0.00     0.049 A 
ATOM     55  H   UNL A   1      40.932  30.807  34.289  1.00  0.00     0.167 HD
ATOM     56  C   UNL A   1      39.296  33.071  34.782  1.00  0.00     0.074 A 
ATOM     57  C   UNL A   1      38.280  34.091  34.616  1.00  0.00     0.031 C 
ATOM     58  C   UNL A   1      40.107  32.971  35.864  1.00  0.00     0.037 A 
BRANCH  45  59
ATOM     59  C   UNL A   1      44.041  28.207  35.641  1.00  0.00     0.058 A 
ATOM     60  C   UNL A   1      43.729  27.153  36.515  1.00  0.00     0.135 A 
ATOM     61  C   UNL A   1      45.398  28.483  35.407  1.00  0.00     0.135 A 
ATOM     62  F   UNL A   1      42.448  26.856  36.786  1.00  0.00    -0.206 F 
ATOM     63  C   UNL A   1      44.722  26.424  37.159  1.00  0.00     0.059 A 
ATOM     64  C   UNL A   1      46.409  27.747  36.019  1.00  0.00     0.059 A 
ATOM     65  F   UNL A   1      45.754  29.478  34.579  1.00  0.00    -0.206 F 
ATOM     66  C   UNL A   1      46.061  26.730  36.907  1.00  0.00     0.060 A 
BRANCH  66  67
ATOM     67  S   UNL A   1      47.341  25.778  37.752  1.00  0.00     0.124 S 
ATOM     68  O   UNL A   1      47.698  26.680  38.845  1.00  0.00    -0.237 OA
ATOM     69  O   UNL A   1      46.623  24.566  38.144  1.00  0.00    -0.237 OA
ATOM     70  O   UNL A   1      48.361  25.595  36.729  1.00  0.00    -0.744 OA
ENDBRANCH  66  67
ENDBRANCH  45  59
BRANCH  46  71
ATOM     71  C   UNL A   1      36.701  33.001  30.853  1.00  0.00     0.058 A 
ATOM     72  C   UNL A   1      35.372  32.794  31.251  1.00  0.00     0.135 A 
ATOM     73  C   UNL A   1      36.937  33.899  29.801  1.00  0.00     0.135 A 
ATOM     74  F   UNL A   1      35.096  31.939  32.247  1.00  0.00    -0.206 F 
ATOM     75  C   UNL A   1      34.313  33.445  30.625  1.00  0.00     0.059 A 
ATOM     76  C   UNL A   1      35.897  34.579  29.174  1.00  0.00     0.059 A 
ATOM     77  F   UNL A   1      38.192  34.144  29.395  1.00  0.00    -0.206 F 
ATOM     78  C   UNL A   1      34.587  34.340  29.589  1.00  0.00     0.060 A 
BRANCH  78  79
ATOM     79  S   UNL A   1      33.213  35.227  28.824  1.00  0.00     0.124 S 
ATOM     80  O   UNL A   1      32.439  35.632  29.991  1.00  0.00    -0.237 OA
ATOM     81  O   UNL A   1      33.899  36.298  28.108  1.00  0.00    -0.237 OA
ATOM     82  O   UNL A   1      32.593  34.215  27.974  1.00  0.00    -0.744 OA
ENDBRANCH  78  79
ENDBRANCH  46  71
BRANCH  58  83
ATOM     83  C   UNL A   1      39.951  34.004  36.943  1.00  0.00     0.058 A 
ATOM     84  C   UNL A   1      40.579  35.256  36.860  1.00  0.00     0.135 A 
ATOM     85  C   UNL A   1      39.118  33.760  38.047  1.00  0.00     0.135 A 
ATOM     86  F   UNL A   1      41.391  35.537  35.827  1.00  0.00    -0.206 F 
ATOM     87  C   UNL A   1      40.403  36.223  37.843  1.00  0.00     0.059 A 
ATOM     88  C   UNL A   1      38.908  34.722  39.030  1.00  0.00     0.059 A 
ATOM     89  F   UNL A   1      38.485  32.582  38.169  1.00  0.00    -0.206 F 
ATOM     90  C   UNL A   1      39.565  35.947  38.924  1.00  0.00     0.060 A 
BRANCH  90  91
ATOM     91  S   UNL A   1      39.314  37.224  40.177  1.00  0.00     0.124 S 
ATOM     92  O   UNL A   1      40.687  37.621  40.470  1.00  0.00    -0.237 OA
ATOM     93  O   UNL A   1      38.507  38.209  39.463  1.00  0.00    -0.237 OA
ATOM     94  O   UNL A   1      38.622  36.516  41.250  1.00  0.00    -0.744 OA
ENDBRANCH  90  91
ENDBRANCH  58  83
ENDBRANCH  32  33
ENDBRANCH  24  27
ENDBRANCH  22  23
ENDBRANCH   1  22
TORSDOF 15
ENDMDL
MODEL 3
REMARK VINA RESULT:     -11.6      2.980      3.991
REMARK SMILES CC1(C)CCC[C@@]1(CC(=O)NCCCNC(=O)c1ccc(-c2c3nc(c(-c4c(F)cc(S(=O)(=O)[O-])cc4F)c4ccc([nH]4)c(-c4c(F)cc(S(=O)(=O)[O-])cc4F)c4nc(c(-c5c(F)cc(S(=O)(=O)[O-])cc5F)c5ccc2[nH]5)C=C4)C=C3)cc1)[NH+]1CCCCC1
REMARK SMILES IDX 13 1 12 2 11 3 9 4 10 5 8 7 7 8 1 9 2 10 3 11 4 12 5 13 6 14
REMARK SMILES IDX 84 15 85 16 89 17 86 19 88 20 87 21 14 22 15 23 16 24 17 26
REMARK SMILES IDX 18 27 19 28 83 29 20 30 82 31 21 32 22 33 23 34 76 35 24 36
REMARK SMILES IDX 81 37 75 38 77 39 25 40 80 41 74 42 73 43 26 45 60 46 39 47
REMARK SMILES IDX 59 48 40 49 43 50 58 51 78 52 41 53 42 54 57 56 79 57 44 58
REMARK SMILES IDX 27 59 28 60 37 61 29 62 30 63 36 64 38 65 31 66 32 67 33 68
REMARK SMILES IDX 34 69 35 70 61 71 62 72 71 73 63 74 64 75 70 76 72 77 65 78
REMARK SMILES IDX 66 79 67 80 68 81 69 82 45 83 46 84 55 85 47 86 48 87 54 88
REMARK SMILES IDX 56 89 49 90 50 91 51 92 52 93 53 94
REMARK H PARENT 11 6 84 18 15 25 77 44 43 55
REMARK Flexibility Score: inf
ROOT
ATOM      1  C   UNL A   1      32.913  28.106  25.647  1.00  0.00     0.042 C 
ENDROOT
BRANCH   1   2
ATOM      2  C   UNL A   1      33.745  28.141  24.361  1.00  0.00     0.117 C 
BRANCH   2   3
ATOM      3  N   UNL A   1      33.501  26.976  23.521  1.00  0.00    -0.356 N 
ATOM      4  C   UNL A   1      33.745  25.646  23.687  1.00  0.00     0.226 C 
ATOM      5  O   UNL A   1      33.315  24.915  22.790  1.00  0.00    -0.275 OA
ATOM      6  H   UNL A   1      33.075  27.194  22.661  1.00  0.00     0.163 HD
BRANCH   4   7
ATOM      7  C   UNL A   1      34.397  25.078  24.954  1.00  0.00     0.169 C 
BRANCH   7   8
ATOM      8  C   UNL A   1      34.167  23.566  25.397  1.00  0.00     0.112 C 
ATOM      9  C   UNL A   1      31.654  22.989  24.745  1.00  0.00     0.018 C 
ATOM     10  C   UNL A   1      32.621  23.380  25.873  1.00  0.00     0.020 C 
ATOM     11  C   UNL A   1      31.991  24.631  26.555  1.00  0.00     0.018 C 
ATOM     12  C   UNL A   1      32.678  22.296  26.972  1.00  0.00     0.013 C 
ATOM     13  C   UNL A   1      33.976  22.558  27.706  1.00  0.00     0.007 C 
ATOM     14  C   UNL A   1      34.894  23.282  26.729  1.00  0.00     0.070 C 
BRANCH   8  15
ATOM     15  N   UNL A   1      34.537  22.601  24.295  1.00  0.00    -0.329 N 
ATOM     16  C   UNL A   1      34.535  21.147  24.517  1.00  0.00     0.262 C 
ATOM     17  C   UNL A   1      35.719  22.899  23.470  1.00  0.00     0.262 C 
ATOM     18  H   UNL A   1      33.674  22.829  23.802  1.00  0.00     0.348 HD
ATOM     19  C   UNL A   1      35.788  20.565  25.173  1.00  0.00     0.062 C 
ATOM     20  C   UNL A   1      37.043  22.542  24.143  1.00  0.00     0.062 C 
ATOM     21  C   UNL A   1      37.086  21.068  24.543  1.00  0.00     0.012 C 
ENDBRANCH   8  15
ENDBRANCH   7   8
ENDBRANCH   4   7
ENDBRANCH   2   3
ENDBRANCH   1   2
BRANCH   1  22
ATOM     22  C   UNL A   1      33.722  28.362  26.908  1.00  0.00     0.118 C 
BRANCH  22  23
ATOM     23  N   UNL A   1      33.598  29.737  27.351  1.00  0.00    -0.352 N 
ATOM     24  C   UNL A   1      34.461  30.494  28.108  1.00  0.00     0.251 C 
ATOM     25  H   UNL A   1      32.776  30.197  27.066  1.00  0.00     0.163 HD
ATOM     26  O   UNL A   1      34.043  31.531  28.620  1.00  0.00    -0.269 OA
BRANCH  24  27
ATOM     27  C   UNL A   1      35.870  30.076  28.327  1.00  0.00     0.039 A 
ATOM     28  C   UNL A   1      36.244  29.613  29.592  1.00  0.00     0.014 A 
ATOM     29  C   UNL A   1      36.841  30.207  27.331  1.00  0.00     0.014 A 
ATOM     30  C   UNL A   1      37.574  29.258  29.846  1.00  0.00     0.010 A 
ATOM     31  C   UNL A   1      38.145  29.766  27.556  1.00  0.00     0.010 A 
ATOM     32  C   UNL A   1      38.536  29.315  28.825  1.00  0.00    -0.014 A 
BRANCH  32  33
ATOM     33  C   UNL A   1      39.960  28.968  29.079  1.00  0.00     0.031 A 
ATOM     34  C   UNL A   1      40.893  29.995  29.670  1.00  0.00     0.074 A 
ATOM     35  C   UNL A   1      40.433  27.752  28.737  1.00  0.00     0.049 A 
ATOM     36  N   UNL A   1      42.179  29.911  29.900  1.00  0.00    -0.248 NA
ATOM     37  C   UNL A   1      40.310  31.300  30.022  1.00  0.00     0.031 C 
ATOM     38  C   UNL A   1      39.649  26.684  28.114  1.00  0.00     0.029 A 
ATOM     39  N   UNL A   1      41.690  27.213  28.857  1.00  0.00    -0.354 N 
ATOM     40  C   UNL A   1      42.560  31.154  30.394  1.00  0.00     0.074 A 
ATOM     41  C   UNL A   1      41.380  31.991  30.386  1.00  0.00     0.031 C 
ATOM     42  C   UNL A   1      40.437  25.612  27.925  1.00  0.00     0.029 A 
ATOM     43  C   UNL A   1      41.787  25.927  28.381  1.00  0.00     0.049 A 
ATOM     44  H   UNL A   1      42.450  27.702  29.247  1.00  0.00     0.167 HD
ATOM     45  C   UNL A   1      43.775  31.558  30.838  1.00  0.00     0.037 A 
ATOM     46  C   UNL A   1      42.846  25.095  28.314  1.00  0.00     0.037 A 
ATOM     47  C   UNL A   1      44.936  30.711  30.892  1.00  0.00     0.049 A 
ATOM     48  C   UNL A   1      44.179  25.553  28.841  1.00  0.00     0.074 A 
ATOM     49  C   UNL A   1      46.193  31.004  31.393  1.00  0.00     0.029 A 
ATOM     50  N   UNL A   1      44.983  29.403  30.433  1.00  0.00    -0.354 N 
ATOM     51  N   UNL A   1      44.504  26.713  29.360  1.00  0.00    -0.248 NA
ATOM     52  C   UNL A   1      45.286  24.589  28.781  1.00  0.00     0.031 C 
ATOM     53  C   UNL A   1      47.010  29.884  31.206  1.00  0.00     0.029 A 
ATOM     54  C   UNL A   1      46.251  28.879  30.627  1.00  0.00     0.049 A 
ATOM     55  H   UNL A   1      44.228  28.918  30.031  1.00  0.00     0.167 HD
ATOM     56  C   UNL A   1      45.846  26.611  29.708  1.00  0.00     0.074 A 
ATOM     57  C   UNL A   1      46.269  25.272  29.353  1.00  0.00     0.031 C 
ATOM     58  C   UNL A   1      46.655  27.542  30.272  1.00  0.00     0.037 A 
BRANCH  45  59
ATOM     59  C   UNL A   1      43.907  32.982  31.311  1.00  0.00     0.058 A 
ATOM     60  C   UNL A   1      43.675  33.339  32.649  1.00  0.00     0.135 A 
ATOM     61  C   UNL A   1      44.294  33.996  30.421  1.00  0.00     0.135 A 
ATOM     62  F   UNL A   1      43.288  32.411  33.539  1.00  0.00    -0.206 F 
ATOM     63  C   UNL A   1      43.788  34.656  33.081  1.00  0.00     0.059 A 
ATOM     64  C   UNL A   1      44.441  35.317  30.838  1.00  0.00     0.059 A 
ATOM     65  F   UNL A   1      44.531  33.711  29.131  1.00  0.00    -0.206 F 
ATOM     66  C   UNL A   1      44.169  35.639  32.166  1.00  0.00     0.060 A 
BRANCH  66  67
ATOM     67  S   UNL A   1      44.309  37.346  32.738  1.00  0.00     0.124 S 
ATOM     68  O   UNL A   1      44.132  38.085  31.490  1.00  0.00    -0.237 OA
ATOM     69  O   UNL A   1      43.207  37.448  33.693  1.00  0.00    -0.237 OA
ATOM     70  O   UNL A   1      45.643  37.403  33.319  1.00  0.00    -0.744 OA
ENDBRANCH  66  67
ENDBRANCH  45  59
BRANCH  46  71
ATOM     71  C   UNL A   1      42.678  23.732  27.746  1.00  0.00     0.058 A 
ATOM     72  C   UNL A   1      42.521  22.616  28.583  1.00  0.00     0.135 A 
ATOM     73  C   UNL A   1      42.646  23.519  26.359  1.00  0.00     0.135 A 
ATOM     74  F   UNL A   1      42.553  22.769  29.915  1.00  0.00    -0.206 F 
ATOM     75  C   UNL A   1      42.349  21.336  28.066  1.00  0.00     0.059 A 
ATOM     76  C   UNL A   1      42.452  22.251  25.819  1.00  0.00     0.059 A 
ATOM     77  F   UNL A   1      42.774  24.556  25.517  1.00  0.00    -0.206 F 
ATOM     78  C   UNL A   1      42.312  21.164  26.681  1.00  0.00     0.060 A 
BRANCH  78  79
ATOM     79  S   UNL A   1      42.024  19.508  26.020  1.00  0.00     0.124 S 
ATOM     80  O   UNL A   1      40.580  19.517  25.823  1.00  0.00    -0.237 OA
ATOM     81  O   UNL A   1      42.836  19.517  24.807  1.00  0.00    -0.237 OA
ATOM     82  O   UNL A   1      42.513  18.635  27.084  1.00  0.00    -0.744 OA
ENDBRANCH  78  79
ENDBRANCH  46  71
BRANCH  58  83
ATOM     83  C   UNL A   1      48.072  27.140  30.568  1.00  0.00     0.058 A 
ATOM     84  C   UNL A   1      49.101  27.331  29.634  1.00  0.00     0.135 A 
ATOM     85  C   UNL A   1      48.413  26.607  31.821  1.00  0.00     0.135 A 
ATOM     86  F   UNL A   1      48.827  27.833  28.418  1.00  0.00    -0.206 F 
ATOM     87  C   UNL A   1      50.418  26.991  29.925  1.00  0.00     0.059 A 
ATOM     88  C   UNL A   1      49.727  26.281  32.143  1.00  0.00     0.059 A 
ATOM     89  F   UNL A   1      47.467  26.413  32.754  1.00  0.00    -0.206 F 
ATOM     90  C   UNL A   1      50.721  26.467  31.183  1.00  0.00     0.060 A 
BRANCH  90  91
ATOM     91  S   UNL A   1      52.439  26.063  31.564  1.00  0.00     0.124 S 
ATOM     92  O   UNL A   1      52.316  24.697  32.063  1.00  0.00    -0.237 OA
ATOM     93  O   UNL A   1      53.091  26.207  30.265  1.00  0.00    -0.237 OA
ATOM     94  O   UNL A   1      52.812  27.064  32.558  1.00  0.00    -0.744 OA
ENDBRANCH  90  91
ENDBRANCH  58  83
ENDBRANCH  32  33
ENDBRANCH  24  27
ENDBRANCH  22  23
ENDBRANCH   1  22
TORSDOF 15
ENDMDL
