MODEL 1
REMARK VINA RESULT:     -12.0      0.000      0.000
REMARK SMILES O=C(CCCC(=O)Nc1ccc(C(=O)N2CCOCC2)cc1)NCCCNC(=O)c1ccc(-c2c3nc(c(-c4c(F)cc(S(=O)(=O)[O-])cc4F)c4ccc([nH]4)c(-c4c(F)cc(S(=O)(=O)[O-])cc4F)c4nc(c(-c5c(F)cc(S(=O)(=O)[O-])cc5F)c5ccc2[nH]5)C=C4)C=C3)cc1
REMARK SMILES IDX 24 1 23 2 1 3 2 4 3 6 4 7 5 8 6 9 7 10 8 11 9 13 10 14 22 15
REMARK SMILES IDX 11 16 21 17 12 18 13 19 14 20 15 21 16 22 20 23 17 24 19 25
REMARK SMILES IDX 18 26 25 27 26 28 27 29 28 30 29 32 30 33 31 34 95 35 32 36
REMARK SMILES IDX 94 37 33 38 34 39 35 40 88 41 36 42 93 43 87 44 89 45 37 46
REMARK SMILES IDX 92 47 86 48 85 49 38 51 72 52 51 53 71 54 52 55 55 56 70 57
REMARK SMILES IDX 90 58 53 59 54 60 69 62 91 63 56 64 39 65 40 66 49 67 41 68
REMARK SMILES IDX 42 69 48 70 50 71 43 72 44 73 45 74 46 75 47 76 73 77 74 78
REMARK SMILES IDX 83 79 75 80 76 81 82 82 84 83 77 84 78 85 79 86 80 87 81 88
REMARK SMILES IDX 57 89 58 90 67 91 59 92 60 93 66 94 68 95 61 96 62 97 63 98
REMARK SMILES IDX 64 99 65 100
REMARK H PARENT 23 5 8 12 27 31 89 50 55 61
REMARK Flexibility Score: inf
ROOT
ATOM      1  C   UNL A   1      39.301  21.391  26.097  1.00  0.00     0.117 C 
ENDROOT
BRANCH   1   2
ATOM      2  N   UNL A   1      38.437  22.556  26.170  1.00  0.00    -0.356 N 
ATOM      3  O   UNL A   1      36.752  21.611  24.951  1.00  0.00    -0.275 OA
ATOM      4  C   UNL A   1      37.179  22.551  25.618  1.00  0.00     0.220 C 
ATOM      5  H   UNL A   1      38.760  23.366  26.625  1.00  0.00     0.163 HD
BRANCH   4   6
ATOM      6  C   UNL A   1      36.364  23.825  25.787  1.00  0.00     0.100 C 
BRANCH   6   7
ATOM      7  C   UNL A   1      34.829  23.778  25.729  1.00  0.00     0.020 C 
BRANCH   7   8
ATOM      8  C   UNL A   1      34.029  22.977  26.757  1.00  0.00     0.101 C 
BRANCH   8   9
ATOM      9  C   UNL A   1      33.097  21.840  26.309  1.00  0.00     0.224 C 
ATOM     10  O   UNL A   1      33.510  20.681  26.243  1.00  0.00    -0.275 OA
ATOM     11  N   UNL A   1      31.746  22.082  26.219  1.00  0.00    -0.326 N 
ATOM     12  H   UNL A   1      31.155  21.417  26.642  1.00  0.00     0.169 HD
BRANCH  11  13
ATOM     13  C   UNL A   1      31.113  23.161  25.598  1.00  0.00     0.041 A 
ATOM     14  C   UNL A   1      30.558  24.184  26.359  1.00  0.00     0.027 A 
ATOM     15  C   UNL A   1      31.036  23.230  24.216  1.00  0.00     0.027 A 
ATOM     16  C   UNL A   1      30.162  25.373  25.725  1.00  0.00     0.016 A 
ATOM     17  C   UNL A   1      30.637  24.413  23.585  1.00  0.00     0.016 A 
ATOM     18  C   UNL A   1      30.279  25.533  24.331  1.00  0.00     0.040 A 
BRANCH  18  19
ATOM     19  C   UNL A   1      30.266  26.938  23.791  1.00  0.00     0.254 C 
ATOM     20  O   UNL A   1      29.224  27.334  23.267  1.00  0.00    -0.269 OA
ATOM     21  N   UNL A   1      31.294  27.825  24.083  1.00  0.00    -0.334 N 
ATOM     22  C   UNL A   1      32.731  27.602  23.917  1.00  0.00     0.148 C 
ATOM     23  C   UNL A   1      30.963  29.238  24.291  1.00  0.00     0.148 C 
ATOM     24  C   UNL A   1      33.478  28.177  25.126  1.00  0.00     0.181 C 
ATOM     25  C   UNL A   1      31.792  29.811  25.453  1.00  0.00     0.181 C 
ATOM     26  O   UNL A   1      33.202  29.581  25.267  1.00  0.00    -0.378 OA
ENDBRANCH  18  19
ENDBRANCH  11  13
ENDBRANCH   8   9
ENDBRANCH   7   8
ENDBRANCH   6   7
ENDBRANCH   4   6
ENDBRANCH   1   2
BRANCH   1  27
ATOM     27  C   UNL A   1      40.756  21.658  26.482  1.00  0.00     0.042 C 
BRANCH  27  28
ATOM     28  C   UNL A   1      41.070  23.071  26.974  1.00  0.00     0.118 C 
BRANCH  28  29
ATOM     29  N   UNL A   1      41.605  23.936  25.938  1.00  0.00    -0.352 N 
ATOM     30  C   UNL A   1      41.819  25.295  25.926  1.00  0.00     0.251 C 
ATOM     31  H   UNL A   1      41.857  23.474  25.107  1.00  0.00     0.163 HD
ATOM     32  O   UNL A   1      42.154  25.833  24.873  1.00  0.00    -0.269 OA
BRANCH  30  33
ATOM     33  C   UNL A   1      41.631  26.128  27.141  1.00  0.00     0.039 A 
ATOM     34  C   UNL A   1      42.551  27.154  27.391  1.00  0.00     0.014 A 
ATOM     35  C   UNL A   1      40.611  25.881  28.065  1.00  0.00     0.014 A 
ATOM     36  C   UNL A   1      42.412  27.967  28.521  1.00  0.00     0.010 A 
ATOM     37  C   UNL A   1      40.441  26.729  29.165  1.00  0.00     0.010 A 
ATOM     38  C   UNL A   1      41.334  27.786  29.403  1.00  0.00    -0.014 A 
BRANCH  38  39
ATOM     39  C   UNL A   1      41.119  28.709  30.553  1.00  0.00     0.031 A 
ATOM     40  C   UNL A   1      41.951  28.595  31.804  1.00  0.00     0.074 A 
ATOM     41  C   UNL A   1      40.132  29.626  30.494  1.00  0.00     0.049 A 
ATOM     42  N   UNL A   1      41.855  29.266  32.924  1.00  0.00    -0.248 NA
ATOM     43  C   UNL A   1      43.016  27.581  31.803  1.00  0.00     0.031 C 
ATOM     44  C   UNL A   1      39.230  29.825  29.357  1.00  0.00     0.029 A 
ATOM     45  N   UNL A   1      39.711  30.555  31.415  1.00  0.00    -0.354 N 
ATOM     46  C   UNL A   1      42.834  28.751  33.765  1.00  0.00     0.074 A 
ATOM     47  C   UNL A   1      43.487  27.682  33.039  1.00  0.00     0.031 C 
ATOM     48  C   UNL A   1      38.375  30.820  29.642  1.00  0.00     0.029 A 
ATOM     49  C   UNL A   1      38.638  31.307  30.992  1.00  0.00     0.049 A 
ATOM     50  H   UNL A   1      40.137  30.673  32.294  1.00  0.00     0.167 HD
ATOM     51  C   UNL A   1      43.171  29.142  35.019  1.00  0.00     0.037 A 
ATOM     52  C   UNL A   1      37.937  32.271  31.621  1.00  0.00     0.037 A 
ATOM     53  C   UNL A   1      42.538  30.222  35.734  1.00  0.00     0.049 A 
ATOM     54  C   UNL A   1      38.324  32.683  33.015  1.00  0.00     0.074 A 
ATOM     55  C   UNL A   1      42.848  30.720  36.989  1.00  0.00     0.029 A 
ATOM     56  N   UNL A   1      41.468  30.969  35.264  1.00  0.00    -0.354 N 
ATOM     57  N   UNL A   1      39.287  32.217  33.773  1.00  0.00    -0.248 NA
ATOM     58  C   UNL A   1      37.535  33.757  33.637  1.00  0.00     0.031 C 
ATOM     59  C   UNL A   1      41.941  31.741  37.293  1.00  0.00     0.029 A 
ATOM     60  C   UNL A   1      41.095  31.911  36.209  1.00  0.00     0.049 A 
ATOM     61  H   UNL A   1      41.037  30.847  34.387  1.00  0.00     0.167 HD
ATOM     62  C   UNL A   1      39.238  32.959  34.948  1.00  0.00     0.074 A 
ATOM     63  C   UNL A   1      38.156  33.909  34.799  1.00  0.00     0.031 C 
ATOM     64  C   UNL A   1      40.024  32.862  36.049  1.00  0.00     0.037 A 
BRANCH  51  65
ATOM     65  C   UNL A   1      44.281  28.396  35.709  1.00  0.00     0.058 A 
ATOM     66  C   UNL A   1      45.615  28.831  35.641  1.00  0.00     0.135 A 
ATOM     67  C   UNL A   1      44.004  27.258  36.486  1.00  0.00     0.135 A 
ATOM     68  F   UNL A   1      45.938  29.905  34.904  1.00  0.00    -0.206 F 
ATOM     69  C   UNL A   1      46.636  28.148  36.293  1.00  0.00     0.059 A 
ATOM     70  C   UNL A   1      45.006  26.576  37.169  1.00  0.00     0.059 A 
ATOM     71  F   UNL A   1      42.745  26.801  36.590  1.00  0.00    -0.206 F 
ATOM     72  C   UNL A   1      46.323  27.020  37.053  1.00  0.00     0.060 A 
BRANCH  72  73
ATOM     73  S   UNL A   1      47.660  26.145  37.892  1.00  0.00     0.124 S 
ATOM     74  O   UNL A   1      47.055  25.865  39.190  1.00  0.00    -0.237 OA
ATOM     75  O   UNL A   1      47.869  24.988  37.028  1.00  0.00    -0.237 OA
ATOM     76  O   UNL A   1      48.749  27.118  37.904  1.00  0.00    -0.744 OA
ENDBRANCH  72  73
ENDBRANCH  51  65
BRANCH  52  77
ATOM     77  C   UNL A   1      36.797  32.927  30.926  1.00  0.00     0.058 A 
ATOM     78  C   UNL A   1      35.472  32.628  31.275  1.00  0.00     0.135 A 
ATOM     79  C   UNL A   1      37.009  33.873  29.911  1.00  0.00     0.135 A 
ATOM     80  F   UNL A   1      35.219  31.724  32.234  1.00  0.00    -0.206 F 
ATOM     81  C   UNL A   1      34.395  33.232  30.634  1.00  0.00     0.059 A 
ATOM     82  C   UNL A   1      35.949  34.508  29.272  1.00  0.00     0.059 A 
ATOM     83  F   UNL A   1      38.259  34.204  29.551  1.00  0.00    -0.206 F 
ATOM     84  C   UNL A   1      34.645  34.174  29.634  1.00  0.00     0.060 A 
BRANCH  84  85
ATOM     85  S   UNL A   1      33.242  34.990  28.842  1.00  0.00     0.124 S 
ATOM     86  O   UNL A   1      32.779  33.953  27.928  1.00  0.00    -0.237 OA
ATOM     87  O   UNL A   1      32.371  35.276  29.978  1.00  0.00    -0.237 OA
ATOM     88  O   UNL A   1      33.846  36.161  28.216  1.00  0.00    -0.744 OA
ENDBRANCH  84  85
ENDBRANCH  52  77
BRANCH  64  89
ATOM     89  C   UNL A   1      39.775  33.834  37.170  1.00  0.00     0.058 A 
ATOM     90  C   UNL A   1      38.979  33.501  38.276  1.00  0.00     0.135 A 
ATOM     91  C   UNL A   1      40.388  35.099  37.161  1.00  0.00     0.135 A 
ATOM     92  F   UNL A   1      38.365  32.308  38.331  1.00  0.00    -0.206 F 
ATOM     93  C   UNL A   1      38.784  34.391  39.327  1.00  0.00     0.059 A 
ATOM     94  C   UNL A   1      40.227  35.996  38.213  1.00  0.00     0.059 A 
ATOM     95  F   UNL A   1      41.166  35.465  36.131  1.00  0.00    -0.206 F 
ATOM     96  C   UNL A   1      39.415  35.637  39.288  1.00  0.00     0.060 A 
BRANCH  96  97
ATOM     97  S   UNL A   1      39.190  36.768  40.677  1.00  0.00     0.124 S 
ATOM     98  O   UNL A   1      40.570  37.025  41.074  1.00  0.00    -0.237 OA
ATOM     99  O   UNL A   1      38.488  37.889  40.058  1.00  0.00    -0.237 OA
ATOM    100  O   UNL A   1      38.399  35.989  41.625  1.00  0.00    -0.744 OA
ENDBRANCH  96  97
ENDBRANCH  64  89
ENDBRANCH  38  39
ENDBRANCH  30  33
ENDBRANCH  28  29
ENDBRANCH  27  28
ENDBRANCH   1  27
TORSDOF 18
ENDMDL
MODEL 2
REMARK VINA RESULT:     -11.9      6.386     11.868
REMARK SMILES O=C(CCCC(=O)Nc1ccc(C(=O)N2CCOCC2)cc1)NCCCNC(=O)c1ccc(-c2c3nc(c(-c4c(F)cc(S(=O)(=O)[O-])cc4F)c4ccc([nH]4)c(-c4c(F)cc(S(=O)(=O)[O-])cc4F)c4nc(c(-c5c(F)cc(S(=O)(=O)[O-])cc5F)c5ccc2[nH]5)C=C4)C=C3)cc1
REMARK SMILES IDX 24 1 23 2 1 3 2 4 3 6 4 7 5 8 6 9 7 10 8 11 9 13 10 14 22 15
REMARK SMILES IDX 11 16 21 17 12 18 13 19 14 20 15 21 16 22 20 23 17 24 19 25
REMARK SMILES IDX 18 26 25 27 26 28 27 29 28 30 29 32 30 33 31 34 95 35 32 36
REMARK SMILES IDX 94 37 33 38 34 39 35 40 88 41 36 42 93 43 87 44 89 45 37 46
REMARK SMILES IDX 92 47 86 48 85 49 38 51 72 52 51 53 71 54 52 55 55 56 70 57
REMARK SMILES IDX 90 58 53 59 54 60 69 62 91 63 56 64 39 65 40 66 49 67 41 68
REMARK SMILES IDX 42 69 48 70 50 71 43 72 44 73 45 74 46 75 47 76 73 77 74 78
REMARK SMILES IDX 83 79 75 80 76 81 82 82 84 83 77 84 78 85 79 86 80 87 81 88
REMARK SMILES IDX 57 89 58 90 67 91 59 92 60 93 66 94 68 95 61 96 62 97 63 98
REMARK SMILES IDX 64 99 65 100
REMARK H PARENT 23 5 8 12 27 31 89 50 55 61
REMARK Flexibility Score: inf
ROOT
ATOM      1  C   UNL A   1      33.814  29.385  26.353  1.00  0.00     0.117 C 
ENDROOT
BRANCH   1   2
ATOM      2  N   UNL A   1      33.711  28.116  25.657  1.00  0.00    -0.356 N 
ATOM      3  O   UNL A   1      33.697  29.051  23.572  1.00  0.00    -0.275 OA
ATOM      4  C   UNL A   1      33.711  28.049  24.284  1.00  0.00     0.220 C 
ATOM      5  H   UNL A   1      33.640  27.285  26.179  1.00  0.00     0.163 HD
BRANCH   4   6
ATOM      6  C   UNL A   1      33.626  26.656  23.677  1.00  0.00     0.100 C 
BRANCH   6   7
ATOM      7  C   UNL A   1      33.304  26.478  22.185  1.00  0.00     0.020 C 
BRANCH   7   8
ATOM      8  C   UNL A   1      31.856  26.429  21.695  1.00  0.00     0.101 C 
BRANCH   8   9
ATOM      9  C   UNL A   1      30.743  27.151  22.471  1.00  0.00     0.224 C 
ATOM     10  O   UNL A   1      30.395  28.289  22.152  1.00  0.00    -0.275 OA
ATOM     11  N   UNL A   1      29.976  26.433  23.359  1.00  0.00    -0.326 N 
ATOM     12  H   UNL A   1      29.000  26.553  23.288  1.00  0.00     0.169 HD
BRANCH  11  13
ATOM     13  C   UNL A   1      30.418  25.554  24.349  1.00  0.00     0.041 A 
ATOM     14  C   UNL A   1      30.629  24.211  24.054  1.00  0.00     0.027 A 
ATOM     15  C   UNL A   1      30.658  26.008  25.636  1.00  0.00     0.027 A 
ATOM     16  C   UNL A   1      31.312  23.405  24.979  1.00  0.00     0.016 A 
ATOM     17  C   UNL A   1      31.335  25.203  26.559  1.00  0.00     0.016 A 
ATOM     18  C   UNL A   1      31.752  23.920  26.214  1.00  0.00     0.040 A 
BRANCH  18  19
ATOM     19  C   UNL A   1      32.834  23.162  26.935  1.00  0.00     0.254 C 
ATOM     20  O   UNL A   1      32.533  22.618  27.999  1.00  0.00    -0.269 OA
ATOM     21  N   UNL A   1      34.047  22.885  26.317  1.00  0.00    -0.334 N 
ATOM     22  C   UNL A   1      34.935  23.832  25.643  1.00  0.00     0.148 C 
ATOM     23  C   UNL A   1      34.697  21.600  26.593  1.00  0.00     0.148 C 
ATOM     24  C   UNL A   1      35.480  23.197  24.359  1.00  0.00     0.181 C 
ATOM     25  C   UNL A   1      35.311  21.028  25.304  1.00  0.00     0.181 C 
ATOM     26  O   UNL A   1      36.182  21.979  24.660  1.00  0.00    -0.378 OA
ENDBRANCH  18  19
ENDBRANCH  11  13
ENDBRANCH   8   9
ENDBRANCH   7   8
ENDBRANCH   6   7
ENDBRANCH   4   6
ENDBRANCH   1   2
BRANCH   1  27
ATOM     27  C   UNL A   1      34.852  29.409  27.475  1.00  0.00     0.042 C 
BRANCH  27  28
ATOM     28  C   UNL A   1      35.296  30.795  27.947  1.00  0.00     0.118 C 
BRANCH  28  29
ATOM     29  N   UNL A   1      35.312  30.934  29.392  1.00  0.00    -0.352 N 
ATOM     30  C   UNL A   1      36.313  30.698  30.305  1.00  0.00     0.251 C 
ATOM     31  H   UNL A   1      34.466  31.249  29.783  1.00  0.00     0.163 HD
ATOM     32  O   UNL A   1      36.047  30.752  31.503  1.00  0.00    -0.269 OA
BRANCH  30  33
ATOM     33  C   UNL A   1      37.694  30.357  29.880  1.00  0.00     0.039 A 
ATOM     34  C   UNL A   1      38.633  30.037  30.869  1.00  0.00     0.014 A 
ATOM     35  C   UNL A   1      38.098  30.407  28.543  1.00  0.00     0.014 A 
ATOM     36  C   UNL A   1      39.945  29.705  30.516  1.00  0.00     0.010 A 
ATOM     37  C   UNL A   1      39.396  30.022  28.186  1.00  0.00     0.010 A 
ATOM     38  C   UNL A   1      40.333  29.659  29.167  1.00  0.00    -0.014 A 
BRANCH  38  39
ATOM     39  C   UNL A   1      41.698  29.209  28.774  1.00  0.00     0.031 A 
ATOM     40  C   UNL A   1      42.843  30.186  28.694  1.00  0.00     0.074 A 
ATOM     41  C   UNL A   1      41.902  27.920  28.436  1.00  0.00     0.049 A 
ATOM     42  N   UNL A   1      44.076  29.983  28.305  1.00  0.00    -0.248 NA
ATOM     43  C   UNL A   1      42.558  31.575  29.083  1.00  0.00     0.031 C 
ATOM     44  C   UNL A   1      40.877  26.874  28.438  1.00  0.00     0.029 A 
ATOM     45  N   UNL A   1      43.036  27.269  28.012  1.00  0.00    -0.354 N 
ATOM     46  C   UNL A   1      44.713  31.216  28.388  1.00  0.00     0.074 A 
ATOM     47  C   UNL A   1      43.716  32.171  28.827  1.00  0.00     0.031 C 
ATOM     48  C   UNL A   1      41.429  25.714  28.049  1.00  0.00     0.029 A 
ATOM     49  C   UNL A   1      42.837  25.936  27.734  1.00  0.00     0.049 A 
ATOM     50  H   UNL A   1      43.908  27.714  27.917  1.00  0.00     0.167 HD
ATOM     51  C   UNL A   1      46.009  31.523  28.139  1.00  0.00     0.037 A 
ATOM     52  C   UNL A   1      43.686  24.998  27.267  1.00  0.00     0.037 A 
ATOM     53  C   UNL A   1      47.008  30.570  27.725  1.00  0.00     0.049 A 
ATOM     54  C   UNL A   1      45.119  25.364  26.991  1.00  0.00     0.074 A 
ATOM     55  C   UNL A   1      48.358  30.783  27.499  1.00  0.00     0.029 A 
ATOM     56  N   UNL A   1      46.770  29.227  27.472  1.00  0.00    -0.354 N 
ATOM     57  N   UNL A   1      45.712  26.526  27.125  1.00  0.00    -0.248 NA
ATOM     58  C   UNL A   1      46.000  24.292  26.507  1.00  0.00     0.031 C 
ATOM     59  C   UNL A   1      48.927  29.578  27.072  1.00  0.00     0.029 A 
ATOM     60  C   UNL A   1      47.943  28.604  27.076  1.00  0.00     0.049 A 
ATOM     61  H   UNL A   1      45.896  28.783  27.561  1.00  0.00     0.167 HD
ATOM     62  C   UNL A   1      47.041  26.317  26.771  1.00  0.00     0.074 A 
ATOM     63  C   UNL A   1      47.166  24.918  26.423  1.00  0.00     0.031 C 
ATOM     64  C   UNL A   1      48.064  27.207  26.742  1.00  0.00     0.037 A 
BRANCH  51  65
ATOM     65  C   UNL A   1      46.432  32.958  28.307  1.00  0.00     0.058 A 
ATOM     66  C   UNL A   1      46.951  33.436  29.521  1.00  0.00     0.135 A 
ATOM     67  C   UNL A   1      46.360  33.856  27.229  1.00  0.00     0.135 A 
ATOM     68  F   UNL A   1      47.032  32.625  30.587  1.00  0.00    -0.206 F 
ATOM     69  C   UNL A   1      47.356  34.759  29.669  1.00  0.00     0.059 A 
ATOM     70  C   UNL A   1      46.786  35.176  27.346  1.00  0.00     0.059 A 
ATOM     71  F   UNL A   1      45.876  33.451  26.043  1.00  0.00    -0.206 F 
ATOM     72  C   UNL A   1      47.268  35.622  28.576  1.00  0.00     0.060 A 
BRANCH  72  73
ATOM     73  S   UNL A   1      47.796  37.336  28.784  1.00  0.00     0.124 S 
ATOM     74  O   UNL A   1      46.645  38.060  28.254  1.00  0.00    -0.237 OA
ATOM     75  O   UNL A   1      47.995  37.430  30.226  1.00  0.00    -0.237 OA
ATOM     76  O   UNL A   1      49.013  37.417  27.980  1.00  0.00    -0.744 OA
ENDBRANCH  72  73
ENDBRANCH  51  65
BRANCH  52  77
ATOM     77  C   UNL A   1      43.202  23.610  27.043  1.00  0.00     0.058 A 
ATOM     78  C   UNL A   1      42.923  23.144  25.750  1.00  0.00     0.135 A 
ATOM     79  C   UNL A   1      43.022  22.719  28.113  1.00  0.00     0.135 A 
ATOM     80  F   UNL A   1      43.073  23.961  24.696  1.00  0.00    -0.206 F 
ATOM     81  C   UNL A   1      42.468  21.849  25.525  1.00  0.00     0.059 A 
ATOM     82  C   UNL A   1      42.591  21.413  27.910  1.00  0.00     0.059 A 
ATOM     83  F   UNL A   1      43.289  23.113  29.368  1.00  0.00    -0.206 F 
ATOM     84  C   UNL A   1      42.308  20.989  26.613  1.00  0.00     0.060 A 
BRANCH  84  85
ATOM     85  S   UNL A   1      41.766  19.294  26.305  1.00  0.00     0.124 S 
ATOM     86  O   UNL A   1      40.326  19.470  26.156  1.00  0.00    -0.237 OA
ATOM     87  O   UNL A   1      42.497  18.953  25.089  1.00  0.00    -0.237 OA
ATOM     88  O   UNL A   1      42.195  18.583  27.505  1.00  0.00    -0.744 OA
ENDBRANCH  84  85
ENDBRANCH  52  77
BRANCH  64  89
ATOM     89  C   UNL A   1      49.423  26.692  26.359  1.00  0.00     0.058 A 
ATOM     90  C   UNL A   1      49.933  26.840  25.060  1.00  0.00     0.135 A 
ATOM     91  C   UNL A   1      50.251  26.090  27.322  1.00  0.00     0.135 A 
ATOM     92  F   UNL A   1      49.180  27.402  24.100  1.00  0.00    -0.206 F 
ATOM     93  C   UNL A   1      51.207  26.394  24.723  1.00  0.00     0.059 A 
ATOM     94  C   UNL A   1      51.538  25.659  27.014  1.00  0.00     0.059 A 
ATOM     95  F   UNL A   1      49.817  25.931  28.582  1.00  0.00    -0.206 F 
ATOM     96  C   UNL A   1      52.004  25.807  25.708  1.00  0.00     0.060 A 
BRANCH  96  97
ATOM     97  S   UNL A   1      53.672  25.272  25.270  1.00  0.00     0.124 S 
ATOM     98  O   UNL A   1      54.481  26.011  26.234  1.00  0.00    -0.237 OA
ATOM     99  O   UNL A   1      53.602  23.828  25.476  1.00  0.00    -0.237 OA
ATOM    100  O   UNL A   1      53.810  25.693  23.879  1.00  0.00    -0.744 OA
ENDBRANCH  96  97
ENDBRANCH  64  89
ENDBRANCH  38  39
ENDBRANCH  30  33
ENDBRANCH  28  29
ENDBRANCH  27  28
ENDBRANCH   1  27
TORSDOF 18
ENDMDL
MODEL 3
REMARK VINA RESULT:     -11.6      1.029      8.174
REMARK SMILES O=C(CCCC(=O)Nc1ccc(C(=O)N2CCOCC2)cc1)NCCCNC(=O)c1ccc(-c2c3nc(c(-c4c(F)cc(S(=O)(=O)[O-])cc4F)c4ccc([nH]4)c(-c4c(F)cc(S(=O)(=O)[O-])cc4F)c4nc(c(-c5c(F)cc(S(=O)(=O)[O-])cc5F)c5ccc2[nH]5)C=C4)C=C3)cc1
REMARK SMILES IDX 24 1 23 2 1 3 2 4 3 6 4 7 5 8 6 9 7 10 8 11 9 13 10 14 22 15
REMARK SMILES IDX 11 16 21 17 12 18 13 19 14 20 15 21 16 22 20 23 17 24 19 25
REMARK SMILES IDX 18 26 25 27 26 28 27 29 28 30 29 32 30 33 31 34 95 35 32 36
REMARK SMILES IDX 94 37 33 38 34 39 35 40 88 41 36 42 93 43 87 44 89 45 37 46
REMARK SMILES IDX 92 47 86 48 85 49 38 51 72 52 51 53 71 54 52 55 55 56 70 57
REMARK SMILES IDX 90 58 53 59 54 60 69 62 91 63 56 64 39 65 40 66 49 67 41 68
REMARK SMILES IDX 42 69 48 70 50 71 43 72 44 73 45 74 46 75 47 76 73 77 74 78
REMARK SMILES IDX 83 79 75 80 76 81 82 82 84 83 77 84 78 85 79 86 80 87 81 88
REMARK SMILES IDX 57 89 58 90 67 91 59 92 60 93 66 94 68 95 61 96 62 97 63 98
REMARK SMILES IDX 64 99 65 100
REMARK H PARENT 23 5 8 12 27 31 89 50 55 61
REMARK Flexibility Score: inf
ROOT
ATOM      1  C   UNL A   1      39.732  21.841  26.158  1.00  0.00     0.117 C 
ENDROOT
BRANCH   1   2
ATOM      2  N   UNL A   1      38.281  21.859  26.144  1.00  0.00    -0.356 N 
ATOM      3  O   UNL A   1      38.130  24.104  25.747  1.00  0.00    -0.275 OA
ATOM      4  C   UNL A   1      37.581  23.012  25.883  1.00  0.00     0.220 C 
ATOM      5  H   UNL A   1      37.788  21.027  26.325  1.00  0.00     0.163 HD
BRANCH   4   6
ATOM      6  C   UNL A   1      36.064  22.892  25.870  1.00  0.00     0.100 C 
BRANCH   6   7
ATOM      7  C   UNL A   1      35.391  21.531  26.104  1.00  0.00     0.020 C 
BRANCH   7   8
ATOM      8  C   UNL A   1      34.917  20.677  24.927  1.00  0.00     0.101 C 
BRANCH   8   9
ATOM      9  C   UNL A   1      33.502  20.077  24.917  1.00  0.00     0.224 C 
ATOM     10  O   UNL A   1      33.308  18.943  24.477  1.00  0.00    -0.275 OA
ATOM     11  N   UNL A   1      32.504  20.711  25.619  1.00  0.00    -0.326 N 
ATOM     12  H   UNL A   1      31.952  20.140  26.202  1.00  0.00     0.169 HD
BRANCH  11  13
ATOM     13  C   UNL A   1      32.181  22.069  25.602  1.00  0.00     0.041 A 
ATOM     14  C   UNL A   1      32.023  22.769  26.793  1.00  0.00     0.027 A 
ATOM     15  C   UNL A   1      32.021  22.739  24.399  1.00  0.00     0.027 A 
ATOM     16  C   UNL A   1      31.956  24.171  26.761  1.00  0.00     0.016 A 
ATOM     17  C   UNL A   1      31.950  24.136  24.368  1.00  0.00     0.016 A 
ATOM     18  C   UNL A   1      32.007  24.879  25.544  1.00  0.00     0.040 A 
BRANCH  18  19
ATOM     19  C   UNL A   1      32.378  26.336  25.605  1.00  0.00     0.254 C 
ATOM     20  O   UNL A   1      33.303  26.655  26.353  1.00  0.00    -0.269 OA
ATOM     21  N   UNL A   1      31.865  27.243  24.685  1.00  0.00    -0.334 N 
ATOM     22  C   UNL A   1      30.461  27.449  24.332  1.00  0.00     0.148 C 
ATOM     23  C   UNL A   1      32.730  28.330  24.217  1.00  0.00     0.148 C 
ATOM     24  C   UNL A   1      30.340  27.642  22.816  1.00  0.00     0.181 C 
ATOM     25  C   UNL A   1      32.523  28.561  22.711  1.00  0.00     0.181 C 
ATOM     26  O   UNL A   1      31.134  28.762  22.388  1.00  0.00    -0.378 OA
ENDBRANCH  18  19
ENDBRANCH  11  13
ENDBRANCH   8   9
ENDBRANCH   7   8
ENDBRANCH   6   7
ENDBRANCH   4   6
ENDBRANCH   1   2
BRANCH   1  27
ATOM     27  C   UNL A   1      40.358  22.291  27.477  1.00  0.00     0.042 C 
BRANCH  27  28
ATOM     28  C   UNL A   1      41.584  23.198  27.362  1.00  0.00     0.118 C 
BRANCH  28  29
ATOM     29  N   UNL A   1      41.516  24.119  26.241  1.00  0.00    -0.352 N 
ATOM     30  C   UNL A   1      41.238  25.465  26.201  1.00  0.00     0.251 C 
ATOM     31  H   UNL A   1      41.699  23.712  25.364  1.00  0.00     0.163 HD
ATOM     32  O   UNL A   1      41.097  26.010  25.108  1.00  0.00    -0.269 OA
BRANCH  30  33
ATOM     33  C   UNL A   1      41.079  26.268  27.440  1.00  0.00     0.039 A 
ATOM     34  C   UNL A   1      42.049  27.236  27.732  1.00  0.00     0.014 A 
ATOM     35  C   UNL A   1      40.037  26.047  28.345  1.00  0.00     0.014 A 
ATOM     36  C   UNL A   1      41.938  28.020  28.886  1.00  0.00     0.010 A 
ATOM     37  C   UNL A   1      39.898  26.868  29.470  1.00  0.00     0.010 A 
ATOM     38  C   UNL A   1      40.842  27.869  29.751  1.00  0.00    -0.014 A 
BRANCH  38  39
ATOM     39  C   UNL A   1      40.662  28.766  30.927  1.00  0.00     0.031 A 
ATOM     40  C   UNL A   1      39.615  29.849  30.922  1.00  0.00     0.074 A 
ATOM     41  C   UNL A   1      41.482  28.641  31.990  1.00  0.00     0.049 A 
ATOM     42  N   UNL A   1      39.366  30.761  31.827  1.00  0.00    -0.248 NA
ATOM     43  C   UNL A   1      38.748  29.928  29.737  1.00  0.00     0.031 C 
ATOM     44  C   UNL A   1      42.561  27.658  32.115  1.00  0.00     0.029 A 
ATOM     45  N   UNL A   1      41.548  29.353  33.164  1.00  0.00    -0.354 N 
ATOM     46  C   UNL A   1      38.325  31.531  31.320  1.00  0.00     0.074 A 
ATOM     47  C   UNL A   1      38.017  31.002  30.008  1.00  0.00     0.031 C 
ATOM     48  C   UNL A   1      43.169  27.818  33.301  1.00  0.00     0.029 A 
ATOM     49  C   UNL A   1      42.554  28.938  34.007  1.00  0.00     0.049 A 
ATOM     50  H   UNL A   1      40.933  30.089  33.382  1.00  0.00     0.167 HD
ATOM     51  C   UNL A   1      37.675  32.571  31.899  1.00  0.00     0.037 A 
ATOM     52  C   UNL A   1      42.946  29.409  35.208  1.00  0.00     0.037 A 
ATOM     53  C   UNL A   1      37.965  33.083  33.214  1.00  0.00     0.049 A 
ATOM     54  C   UNL A   1      42.214  30.568  35.827  1.00  0.00     0.074 A 
ATOM     55  C   UNL A   1      37.323  34.101  33.900  1.00  0.00     0.029 A 
ATOM     56  N   UNL A   1      38.978  32.623  34.042  1.00  0.00    -0.354 N 
ATOM     57  N   UNL A   1      41.199  31.249  35.352  1.00  0.00    -0.248 NA
ATOM     58  C   UNL A   1      42.675  31.019  37.148  1.00  0.00     0.031 C 
ATOM     59  C   UNL A   1      37.973  34.282  35.127  1.00  0.00     0.029 A 
ATOM     60  C   UNL A   1      38.991  33.347  35.224  1.00  0.00     0.049 A 
ATOM     61  H   UNL A   1      39.598  31.890  33.822  1.00  0.00     0.167 HD
ATOM     62  C   UNL A   1      40.882  32.188  36.327  1.00  0.00     0.074 A 
ATOM     63  C   UNL A   1      41.807  31.984  37.421  1.00  0.00     0.031 C 
ATOM     64  C   UNL A   1      39.907  33.131  36.315  1.00  0.00     0.037 A 
BRANCH  51  65
ATOM     65  C   UNL A   1      36.576  33.233  31.111  1.00  0.00     0.058 A 
ATOM     66  C   UNL A   1      35.223  33.048  31.436  1.00  0.00     0.135 A 
ATOM     67  C   UNL A   1      36.881  34.099  30.048  1.00  0.00     0.135 A 
ATOM     68  F   UNL A   1      34.874  32.222  32.434  1.00  0.00    -0.206 F 
ATOM     69  C   UNL A   1      34.210  33.674  30.716  1.00  0.00     0.059 A 
ATOM     70  C   UNL A   1      35.885  34.758  29.332  1.00  0.00     0.059 A 
ATOM     71  F   UNL A   1      38.159  34.316  29.697  1.00  0.00    -0.206 F 
ATOM     72  C   UNL A   1      34.551  34.526  29.664  1.00  0.00     0.060 A 
BRANCH  72  73
ATOM     73  S   UNL A   1      33.225  35.330  28.740  1.00  0.00     0.124 S 
ATOM     74  O   UNL A   1      32.451  35.941  29.815  1.00  0.00    -0.237 OA
ATOM     75  O   UNL A   1      33.957  36.255  27.881  1.00  0.00    -0.237 OA
ATOM     76  O   UNL A   1      32.572  34.221  28.048  1.00  0.00    -0.744 OA
ENDBRANCH  72  73
ENDBRANCH  51  65
BRANCH  52  77
ATOM     77  C   UNL A   1      44.088  28.770  35.914  1.00  0.00     0.058 A 
ATOM     78  C   UNL A   1      43.882  27.699  36.797  1.00  0.00     0.135 A 
ATOM     79  C   UNL A   1      45.407  29.206  35.712  1.00  0.00     0.135 A 
ATOM     80  F   UNL A   1      42.638  27.252  37.029  1.00  0.00    -0.206 F 
ATOM     81  C   UNL A   1      44.939  27.092  37.466  1.00  0.00     0.059 A 
ATOM     82  C   UNL A   1      46.483  28.599  36.351  1.00  0.00     0.059 A 
ATOM     83  F   UNL A   1      45.658  30.217  34.865  1.00  0.00    -0.206 F 
ATOM     84  C   UNL A   1      46.238  27.548  37.234  1.00  0.00     0.060 A 
BRANCH  84  85
ATOM     85  S   UNL A   1      47.609  26.720  38.069  1.00  0.00     0.124 S 
ATOM     86  O   UNL A   1      47.933  27.678  39.119  1.00  0.00    -0.237 OA
ATOM     87  O   UNL A   1      46.992  25.473  38.510  1.00  0.00    -0.237 OA
ATOM     88  O   UNL A   1      48.606  26.578  37.013  1.00  0.00    -0.744 OA
ENDBRANCH  84  85
ENDBRANCH  52  77
BRANCH  64  89
ATOM     89  C   UNL A   1      39.759  33.993  37.538  1.00  0.00     0.058 A 
ATOM     90  C   UNL A   1      38.923  33.630  38.604  1.00  0.00     0.135 A 
ATOM     91  C   UNL A   1      40.509  35.176  37.667  1.00  0.00     0.135 A 
ATOM     92  F   UNL A   1      38.180  32.514  38.529  1.00  0.00    -0.206 F 
ATOM     93  C   UNL A   1      38.821  34.415  39.749  1.00  0.00     0.059 A 
ATOM     94  C   UNL A   1      40.441  35.963  38.813  1.00  0.00     0.059 A 
ATOM     95  F   UNL A   1      41.330  35.566  36.680  1.00  0.00    -0.206 F 
ATOM     96  C   UNL A   1      39.586  35.579  39.845  1.00  0.00     0.060 A 
BRANCH  96  97
ATOM     97  S   UNL A   1      39.478  36.567  41.353  1.00  0.00     0.124 S 
ATOM     98  O   UNL A   1      40.866  36.569  41.803  1.00  0.00    -0.237 OA
ATOM     99  O   UNL A   1      38.971  37.843  40.856  1.00  0.00    -0.237 OA
ATOM    100  O   UNL A   1      38.548  35.813  42.187  1.00  0.00    -0.744 OA
ENDBRANCH  96  97
ENDBRANCH  64  89
ENDBRANCH  38  39
ENDBRANCH  30  33
ENDBRANCH  28  29
ENDBRANCH  27  28
ENDBRANCH   1  27
TORSDOF 18
ENDMDL
