MODEL 1
REMARK VINA RESULT:     -11.7      0.000      0.000
REMARK SMILES COc1cccc(S(=O)(=O)N[C@H](CC(C)C)C(=O)NCCCNC(=O)c2ccc(-c3c4nc(c(-c5c(F)cc(S(=O)(=O)[O-])cc5F)c5ccc([nH]5)c(-c5c(F)cc(S(=O)(=O)[O-])cc5F)c5nc(c(-c6c(F)cc(S(=O)(=O)[O-])cc6F)c6ccc3[nH]6)C=C5)C=C4)cc2)c1
REMARK SMILES IDX 20 1 19 2 17 3 18 4 12 6 11 7 8 9 9 10 10 11 7 12 3 13 4 14
REMARK SMILES IDX 92 15 5 16 6 17 2 18 1 19 13 20 14 21 15 22 16 23 21 24
REMARK SMILES IDX 22 25 23 26 24 27 25 29 26 30 27 31 91 32 28 33 90 34 29 35
REMARK SMILES IDX 30 36 31 37 84 38 32 39 89 40 83 41 85 42 33 43 88 44 82 45
REMARK SMILES IDX 81 46 34 48 68 49 47 50 67 51 48 52 51 53 66 54 86 55 49 56
REMARK SMILES IDX 50 57 65 59 87 60 52 61 35 62 36 63 45 64 37 65 38 66 44 67
REMARK SMILES IDX 46 68 39 69 40 70 41 71 42 72 43 73 69 74 70 75 79 76 71 77
REMARK SMILES IDX 72 78 78 79 80 80 73 81 74 82 75 83 76 84 77 85 53 86 54 87
REMARK SMILES IDX 63 88 55 89 56 90 62 91 64 92 57 93 58 94 59 95 60 96 61 97
REMARK H PARENT 19 5 11 8 23 28 85 47 51 58
REMARK Flexibility Score: inf
ROOT
ATOM      1  C   UNL A   1      38.050  22.143  25.410  1.00  0.00     0.117 C 
ENDROOT
BRANCH   1   2
ATOM      2  N   UNL A   1      36.782  22.253  26.131  1.00  0.00    -0.355 N 
ATOM      3  C   UNL A   1      35.532  21.711  25.968  1.00  0.00     0.238 C 
ATOM      4  O   UNL A   1      34.895  21.617  27.023  1.00  0.00    -0.273 OA
ATOM      5  H   UNL A   1      36.839  22.851  26.911  1.00  0.00     0.163 HD
BRANCH   3   6
ATOM      6  C   UNL A   1      34.919  21.218  24.619  1.00  0.00     0.159 C 
BRANCH   6   7
ATOM      7  N   UNL A   1      34.920  22.342  23.655  1.00  0.00    -0.199 NA
ATOM      8  H   UNL A   1      35.569  23.019  24.054  1.00  0.00     0.142 HD
BRANCH   7   9
ATOM      9  S   UNL A   1      33.627  23.259  23.126  1.00  0.00     0.241 S 
ATOM     10  O   UNL A   1      32.629  22.383  22.571  1.00  0.00    -0.207 OA
ATOM     11  O   UNL A   1      34.273  24.259  22.292  1.00  0.00    -0.207 OA
BRANCH   9  12
ATOM     12  C   UNL A   1      32.917  24.136  24.511  1.00  0.00     0.086 A 
ATOM     13  C   UNL A   1      31.370  24.357  26.379  1.00  0.00     0.120 A 
ATOM     14  C   UNL A   1      31.921  25.601  26.671  1.00  0.00     0.046 A 
ATOM     15  C   UNL A   1      31.860  23.642  25.289  1.00  0.00     0.068 A 
ATOM     16  C   UNL A   1      32.979  26.103  25.912  1.00  0.00     0.005 A 
ATOM     17  C   UNL A   1      33.485  25.369  24.837  1.00  0.00     0.022 A 
BRANCH  13  18
ATOM     18  O   UNL A   1      30.342  23.955  27.185  1.00  0.00    -0.497 OA
ATOM     19  C   UNL A   1      29.767  22.682  26.911  1.00  0.00     0.278 C 
ENDBRANCH  13  18
ENDBRANCH   9  12
ENDBRANCH   7   9
ENDBRANCH   6   7
BRANCH   6  20
ATOM     20  C   UNL A   1      33.537  20.502  24.600  1.00  0.00     0.033 C 
BRANCH  20  21
ATOM     21  C   UNL A   1      33.210  18.995  24.522  1.00  0.00    -0.015 C 
ATOM     22  C   UNL A   1      32.447  18.506  23.302  1.00  0.00     0.007 C 
ATOM     23  C   UNL A   1      34.574  18.256  24.518  1.00  0.00     0.007 C 
ENDBRANCH  20  21
ENDBRANCH   6  20
ENDBRANCH   3   6
ENDBRANCH   1   2
BRANCH   1  24
ATOM     24  C   UNL A   1      39.297  21.785  26.235  1.00  0.00     0.042 C 
BRANCH  24  25
ATOM     25  C   UNL A   1      39.948  22.926  27.035  1.00  0.00     0.118 C 
BRANCH  25  26
ATOM     26  N   UNL A   1      40.571  23.897  26.150  1.00  0.00    -0.352 N 
ATOM     27  C   UNL A   1      40.877  25.227  26.270  1.00  0.00     0.251 C 
ATOM     28  H   UNL A   1      40.825  23.517  25.278  1.00  0.00     0.163 HD
ATOM     29  O   UNL A   1      41.144  25.819  25.221  1.00  0.00    -0.269 OA
BRANCH  27  30
ATOM     30  C   UNL A   1      40.942  25.991  27.552  1.00  0.00     0.039 A 
ATOM     31  C   UNL A   1      39.829  25.888  28.402  1.00  0.00     0.014 A 
ATOM     32  C   UNL A   1      41.926  26.934  27.866  1.00  0.00     0.014 A 
ATOM     33  C   UNL A   1      39.681  26.724  29.516  1.00  0.00     0.010 A 
ATOM     34  C   UNL A   1      41.795  27.752  29.012  1.00  0.00     0.010 A 
ATOM     35  C   UNL A   1      40.657  27.679  29.835  1.00  0.00    -0.014 A 
BRANCH  35  36
ATOM     36  C   UNL A   1      40.426  28.602  30.992  1.00  0.00     0.031 A 
ATOM     37  C   UNL A   1      41.278  28.527  32.240  1.00  0.00     0.074 A 
ATOM     38  C   UNL A   1      39.496  29.577  30.906  1.00  0.00     0.049 A 
ATOM     39  N   UNL A   1      41.284  29.317  33.288  1.00  0.00    -0.248 NA
ATOM     40  C   UNL A   1      42.242  27.421  32.324  1.00  0.00     0.031 C 
ATOM     41  C   UNL A   1      38.585  29.775  29.779  1.00  0.00     0.029 A 
ATOM     42  N   UNL A   1      39.174  30.595  31.774  1.00  0.00    -0.354 N 
ATOM     43  C   UNL A   1      42.257  28.814  34.148  1.00  0.00     0.074 A 
ATOM     44  C   UNL A   1      42.784  27.619  33.519  1.00  0.00     0.031 C 
ATOM     45  C   UNL A   1      37.824  30.857  30.013  1.00  0.00     0.029 A 
ATOM     46  C   UNL A   1      38.181  31.426  31.311  1.00  0.00     0.049 A 
ATOM     47  H   UNL A   1      39.614  30.716  32.647  1.00  0.00     0.167 HD
ATOM     48  C   UNL A   1      42.692  29.305  35.336  1.00  0.00     0.037 A 
ATOM     49  C   UNL A   1      37.622  32.526  31.855  1.00  0.00     0.037 A 
ATOM     50  C   UNL A   1      42.185  30.495  35.975  1.00  0.00     0.049 A 
ATOM     51  C   UNL A   1      38.120  33.052  33.176  1.00  0.00     0.074 A 
ATOM     52  C   UNL A   1      42.580  31.063  37.177  1.00  0.00     0.029 A 
ATOM     53  N   UNL A   1      41.180  31.304  35.470  1.00  0.00    -0.354 N 
ATOM     54  N   UNL A   1      39.069  32.580  33.949  1.00  0.00    -0.248 NA
ATOM     55  C   UNL A   1      37.480  34.273  33.692  1.00  0.00     0.031 C 
ATOM     56  C   UNL A   1      41.796  32.199  37.409  1.00  0.00     0.029 A 
ATOM     57  C   UNL A   1      40.937  32.360  36.336  1.00  0.00     0.049 A 
ATOM     58  H   UNL A   1      40.706  31.151  34.620  1.00  0.00     0.167 HD
ATOM     59  C   UNL A   1      39.152  33.457  35.026  1.00  0.00     0.074 A 
ATOM     60  C   UNL A   1      38.174  34.498  34.799  1.00  0.00     0.031 C 
ATOM     61  C   UNL A   1      39.967  33.399  36.109  1.00  0.00     0.037 A 
BRANCH  48  62
ATOM     62  C   UNL A   1      43.801  28.561  36.033  1.00  0.00     0.058 A 
ATOM     63  C   UNL A   1      43.535  27.438  36.832  1.00  0.00     0.135 A 
ATOM     64  C   UNL A   1      45.143  28.931  35.849  1.00  0.00     0.135 A 
ATOM     65  F   UNL A   1      42.269  27.046  37.047  1.00  0.00    -0.206 F 
ATOM     66  C   UNL A   1      44.558  26.722  37.446  1.00  0.00     0.059 A 
ATOM     67  C   UNL A   1      46.185  28.215  36.436  1.00  0.00     0.059 A 
ATOM     68  F   UNL A   1      45.455  29.991  35.088  1.00  0.00    -0.206 F 
ATOM     69  C   UNL A   1      45.880  27.120  37.243  1.00  0.00     0.060 A 
BRANCH  69  70
ATOM     70  S   UNL A   1      47.198  26.176  38.041  1.00  0.00     0.124 S 
ATOM     71  O   UNL A   1      48.355  27.032  37.798  1.00  0.00    -0.237 OA
ATOM     72  O   UNL A   1      46.742  26.106  39.425  1.00  0.00    -0.237 OA
ATOM     73  O   UNL A   1      47.192  24.908  37.319  1.00  0.00    -0.744 OA
ENDBRANCH  69  70
ENDBRANCH  48  62
BRANCH  49  74
ATOM     74  C   UNL A   1      36.521  33.230  31.144  1.00  0.00     0.058 A 
ATOM     75  C   UNL A   1      36.775  34.030  30.020  1.00  0.00     0.135 A 
ATOM     76  C   UNL A   1      35.196  33.135  31.595  1.00  0.00     0.135 A 
ATOM     77  F   UNL A   1      38.030  34.160  29.560  1.00  0.00    -0.206 F 
ATOM     78  C   UNL A   1      35.759  34.732  29.381  1.00  0.00     0.059 A 
ATOM     79  C   UNL A   1      34.159  33.808  30.958  1.00  0.00     0.059 A 
ATOM     80  F   UNL A   1      34.900  32.373  32.658  1.00  0.00    -0.206 F 
ATOM     81  C   UNL A   1      34.453  34.618  29.861  1.00  0.00     0.060 A 
BRANCH  81  82
ATOM     82  S   UNL A   1      33.131  35.507  29.012  1.00  0.00     0.124 S 
ATOM     83  O   UNL A   1      32.340  35.998  30.135  1.00  0.00    -0.237 OA
ATOM     84  O   UNL A   1      33.868  36.517  28.259  1.00  0.00    -0.237 OA
ATOM     85  O   UNL A   1      32.501  34.469  28.200  1.00  0.00    -0.744 OA
ENDBRANCH  81  82
ENDBRANCH  49  74
BRANCH  61  86
ATOM     86  C   UNL A   1      39.854  34.510  37.118  1.00  0.00     0.058 A 
ATOM     87  C   UNL A   1      38.968  34.431  38.205  1.00  0.00     0.135 A 
ATOM     88  C   UNL A   1      40.648  35.662  37.005  1.00  0.00     0.135 A 
ATOM     89  F   UNL A   1      38.184  33.353  38.359  1.00  0.00    -0.206 F 
ATOM     90  C   UNL A   1      38.846  35.471  39.123  1.00  0.00     0.059 A 
ATOM     91  C   UNL A   1      40.559  36.705  37.924  1.00  0.00     0.059 A 
ATOM     92  F   UNL A   1      41.520  35.786  35.992  1.00  0.00    -0.206 F 
ATOM     93  C   UNL A   1      39.641  36.608  38.969  1.00  0.00     0.060 A 
BRANCH  93  94
ATOM     94  S   UNL A   1      39.477  37.954  40.164  1.00  0.00     0.124 S 
ATOM     95  O   UNL A   1      39.292  37.218  41.410  1.00  0.00    -0.237 OA
ATOM     96  O   UNL A   1      40.749  38.657  40.026  1.00  0.00    -0.237 OA
ATOM     97  O   UNL A   1      38.309  38.689  39.687  1.00  0.00    -0.744 OA
ENDBRANCH  93  94
ENDBRANCH  61  86
ENDBRANCH  35  36
ENDBRANCH  27  30
ENDBRANCH  25  26
ENDBRANCH  24  25
ENDBRANCH   1  24
TORSDOF 19
ENDMDL
MODEL 2
REMARK VINA RESULT:     -11.3      1.238      2.051
REMARK SMILES COc1cccc(S(=O)(=O)N[C@H](CC(C)C)C(=O)NCCCNC(=O)c2ccc(-c3c4nc(c(-c5c(F)cc(S(=O)(=O)[O-])cc5F)c5ccc([nH]5)c(-c5c(F)cc(S(=O)(=O)[O-])cc5F)c5nc(c(-c6c(F)cc(S(=O)(=O)[O-])cc6F)c6ccc3[nH]6)C=C5)C=C4)cc2)c1
REMARK SMILES IDX 20 1 19 2 17 3 18 4 12 6 11 7 8 9 9 10 10 11 7 12 3 13 4 14
REMARK SMILES IDX 92 15 5 16 6 17 2 18 1 19 13 20 14 21 15 22 16 23 21 24
REMARK SMILES IDX 22 25 23 26 24 27 25 29 26 30 27 31 91 32 28 33 90 34 29 35
REMARK SMILES IDX 30 36 31 37 84 38 32 39 89 40 83 41 85 42 33 43 88 44 82 45
REMARK SMILES IDX 81 46 34 48 68 49 47 50 67 51 48 52 51 53 66 54 86 55 49 56
REMARK SMILES IDX 50 57 65 59 87 60 52 61 35 62 36 63 45 64 37 65 38 66 44 67
REMARK SMILES IDX 46 68 39 69 40 70 41 71 42 72 43 73 69 74 70 75 79 76 71 77
REMARK SMILES IDX 72 78 78 79 80 80 73 81 74 82 75 83 76 84 77 85 53 86 54 87
REMARK SMILES IDX 63 88 55 89 56 90 62 91 64 92 57 93 58 94 59 95 60 96 61 97
REMARK H PARENT 19 5 11 8 23 28 85 47 51 58
REMARK Flexibility Score: inf
ROOT
ATOM      1  C   UNL A   1      37.801  22.627  25.742  1.00  0.00     0.117 C 
ENDROOT
BRANCH   1   2
ATOM      2  N   UNL A   1      37.495  22.493  24.318  1.00  0.00    -0.355 N 
ATOM      3  C   UNL A   1      36.394  22.753  23.542  1.00  0.00     0.238 C 
ATOM      4  O   UNL A   1      36.669  23.007  22.365  1.00  0.00    -0.273 OA
ATOM      5  H   UNL A   1      38.250  22.135  23.798  1.00  0.00     0.163 HD
BRANCH   3   6
ATOM      6  C   UNL A   1      34.911  22.769  24.036  1.00  0.00     0.159 C 
BRANCH   6   7
ATOM      7  N   UNL A   1      34.545  24.157  24.401  1.00  0.00    -0.199 NA
ATOM      8  H   UNL A   1      35.323  24.484  24.974  1.00  0.00     0.142 HD
BRANCH   7   9
ATOM      9  S   UNL A   1      33.179  24.696  25.198  1.00  0.00     0.241 S 
ATOM     10  O   UNL A   1      33.270  24.325  26.585  1.00  0.00    -0.207 OA
ATOM     11  O   UNL A   1      32.106  24.177  24.367  1.00  0.00    -0.207 OA
BRANCH   9  12
ATOM     12  C   UNL A   1      33.092  26.477  25.084  1.00  0.00     0.086 A 
ATOM     13  C   UNL A   1      32.569  28.686  25.966  1.00  0.00     0.120 A 
ATOM     14  C   UNL A   1      33.042  29.255  24.788  1.00  0.00     0.046 A 
ATOM     15  C   UNL A   1      32.579  27.300  26.098  1.00  0.00     0.068 A 
ATOM     16  C   UNL A   1      33.563  28.450  23.773  1.00  0.00     0.005 A 
ATOM     17  C   UNL A   1      33.597  27.062  23.921  1.00  0.00     0.022 A 
BRANCH  13  18
ATOM     18  O   UNL A   1      32.084  29.561  26.898  1.00  0.00    -0.497 OA
ATOM     19  C   UNL A   1      32.916  30.663  27.243  1.00  0.00     0.278 C 
ENDBRANCH  13  18
ENDBRANCH   9  12
ENDBRANCH   7   9
ENDBRANCH   6   7
BRANCH   6  20
ATOM     20  C   UNL A   1      34.443  21.785  25.147  1.00  0.00     0.033 C 
BRANCH  20  21
ATOM     21  C   UNL A   1      33.449  20.607  25.063  1.00  0.00    -0.015 C 
ATOM     22  C   UNL A   1      32.306  20.725  24.068  1.00  0.00     0.007 C 
ATOM     23  C   UNL A   1      34.279  19.367  24.640  1.00  0.00     0.007 C 
ENDBRANCH  20  21
ENDBRANCH   6  20
ENDBRANCH   3   6
ENDBRANCH   1   2
BRANCH   1  24
ATOM     24  C   UNL A   1      39.068  21.922  26.255  1.00  0.00     0.042 C 
BRANCH  24  25
ATOM     25  C   UNL A   1      40.098  22.797  26.989  1.00  0.00     0.118 C 
BRANCH  25  26
ATOM     26  N   UNL A   1      40.685  23.778  26.090  1.00  0.00    -0.352 N 
ATOM     27  C   UNL A   1      40.957  25.116  26.198  1.00  0.00     0.251 C 
ATOM     28  H   UNL A   1      40.940  23.399  25.218  1.00  0.00     0.163 HD
ATOM     29  O   UNL A   1      41.197  25.708  25.142  1.00  0.00    -0.269 OA
BRANCH  27  30
ATOM     30  C   UNL A   1      41.017  25.891  27.474  1.00  0.00     0.039 A 
ATOM     31  C   UNL A   1      39.909  25.777  28.330  1.00  0.00     0.014 A 
ATOM     32  C   UNL A   1      41.987  26.851  27.777  1.00  0.00     0.014 A 
ATOM     33  C   UNL A   1      39.753  26.619  29.438  1.00  0.00     0.010 A 
ATOM     34  C   UNL A   1      41.849  27.675  28.918  1.00  0.00     0.010 A 
ATOM     35  C   UNL A   1      40.715  27.591  29.746  1.00  0.00    -0.014 A 
BRANCH  35  36
ATOM     36  C   UNL A   1      40.476  28.520  30.897  1.00  0.00     0.031 A 
ATOM     37  C   UNL A   1      41.320  28.452  32.151  1.00  0.00     0.074 A 
ATOM     38  C   UNL A   1      39.544  29.492  30.801  1.00  0.00     0.049 A 
ATOM     39  N   UNL A   1      41.318  29.247  33.195  1.00  0.00    -0.248 NA
ATOM     40  C   UNL A   1      42.286  27.349  32.245  1.00  0.00     0.031 C 
ATOM     41  C   UNL A   1      38.638  29.682  29.667  1.00  0.00     0.029 A 
ATOM     42  N   UNL A   1      39.214  30.512  31.662  1.00  0.00    -0.354 N 
ATOM     43  C   UNL A   1      42.286  28.750  34.062  1.00  0.00     0.074 A 
ATOM     44  C   UNL A   1      42.820  27.554  33.443  1.00  0.00     0.031 C 
ATOM     45  C   UNL A   1      37.874  30.763  29.891  1.00  0.00     0.029 A 
ATOM     46  C   UNL A   1      38.221  31.339  31.189  1.00  0.00     0.049 A 
ATOM     47  H   UNL A   1      39.648  30.639  32.536  1.00  0.00     0.167 HD
ATOM     48  C   UNL A   1      42.713  29.248  35.252  1.00  0.00     0.037 A 
ATOM     49  C   UNL A   1      37.657  32.440  31.725  1.00  0.00     0.037 A 
ATOM     50  C   UNL A   1      42.199  30.440  35.882  1.00  0.00     0.049 A 
ATOM     51  C   UNL A   1      38.146  32.974  33.046  1.00  0.00     0.074 A 
ATOM     52  C   UNL A   1      42.586  31.015  37.083  1.00  0.00     0.029 A 
ATOM     53  N   UNL A   1      41.195  31.244  35.367  1.00  0.00    -0.354 N 
ATOM     54  N   UNL A   1      39.091  32.508  33.826  1.00  0.00    -0.248 NA
ATOM     55  C   UNL A   1      37.500  34.196  33.552  1.00  0.00     0.031 C 
ATOM     56  C   UNL A   1      41.798  32.150  37.305  1.00  0.00     0.029 A 
ATOM     57  C   UNL A   1      40.945  32.303  36.226  1.00  0.00     0.049 A 
ATOM     58  H   UNL A   1      40.728  31.086  34.514  1.00  0.00     0.167 HD
ATOM     59  C   UNL A   1      39.166  33.390  34.900  1.00  0.00     0.074 A 
ATOM     60  C   UNL A   1      38.186  34.428  34.662  1.00  0.00     0.031 C 
ATOM     61  C   UNL A   1      39.974  33.339  35.988  1.00  0.00     0.037 A 
BRANCH  48  62
ATOM     62  C   UNL A   1      43.820  28.510  35.958  1.00  0.00     0.058 A 
ATOM     63  C   UNL A   1      43.548  27.411  36.787  1.00  0.00     0.135 A 
ATOM     64  C   UNL A   1      45.164  28.862  35.756  1.00  0.00     0.135 A 
ATOM     65  F   UNL A   1      42.280  27.037  37.020  1.00  0.00    -0.206 F 
ATOM     66  C   UNL A   1      44.568  26.699  37.411  1.00  0.00     0.059 A 
ATOM     67  C   UNL A   1      46.203  28.150  36.353  1.00  0.00     0.059 A 
ATOM     68  F   UNL A   1      45.481  29.899  34.967  1.00  0.00    -0.206 F 
ATOM     69  C   UNL A   1      45.893  27.078  37.189  1.00  0.00     0.060 A 
BRANCH  69  70
ATOM     70  S   UNL A   1      47.207  26.141  38.000  1.00  0.00     0.124 S 
ATOM     71  O   UNL A   1      46.464  25.005  38.536  1.00  0.00    -0.237 OA
ATOM     72  O   UNL A   1      48.111  25.843  36.895  1.00  0.00    -0.237 OA
ATOM     73  O   UNL A   1      47.726  27.076  38.994  1.00  0.00    -0.744 OA
ENDBRANCH  69  70
ENDBRANCH  48  62
BRANCH  49  74
ATOM     74  C   UNL A   1      36.558  33.138  31.004  1.00  0.00     0.058 A 
ATOM     75  C   UNL A   1      36.816  33.921  29.868  1.00  0.00     0.135 A 
ATOM     76  C   UNL A   1      35.233  33.056  31.455  1.00  0.00     0.135 A 
ATOM     77  F   UNL A   1      38.070  34.039  29.406  1.00  0.00    -0.206 F 
ATOM     78  C   UNL A   1      35.802  34.618  29.219  1.00  0.00     0.059 A 
ATOM     79  C   UNL A   1      34.199  33.723  30.810  1.00  0.00     0.059 A 
ATOM     80  F   UNL A   1      34.934  32.309  32.530  1.00  0.00    -0.206 F 
ATOM     81  C   UNL A   1      34.496  34.516  29.700  1.00  0.00     0.060 A 
BRANCH  81  82
ATOM     82  S   UNL A   1      33.177  35.398  28.839  1.00  0.00     0.124 S 
ATOM     83  O   UNL A   1      32.399  35.925  29.955  1.00  0.00    -0.237 OA
ATOM     84  O   UNL A   1      33.919  36.381  28.056  1.00  0.00    -0.237 OA
ATOM     85  O   UNL A   1      32.530  34.346  28.058  1.00  0.00    -0.744 OA
ENDBRANCH  81  82
ENDBRANCH  49  74
BRANCH  61  86
ATOM     86  C   UNL A   1      39.853  34.455  36.991  1.00  0.00     0.058 A 
ATOM     87  C   UNL A   1      40.651  35.608  36.911  1.00  0.00     0.135 A 
ATOM     88  C   UNL A   1      38.922  34.377  38.039  1.00  0.00     0.135 A 
ATOM     89  F   UNL A   1      41.559  35.733  35.931  1.00  0.00    -0.206 F 
ATOM     90  C   UNL A   1      40.556  36.627  37.855  1.00  0.00     0.059 A 
ATOM     91  C   UNL A   1      38.795  35.394  38.982  1.00  0.00     0.059 A 
ATOM     92  F   UNL A   1      38.126  33.302  38.158  1.00  0.00    -0.206 F 
ATOM     93  C   UNL A   1      39.629  36.507  38.892  1.00  0.00     0.060 A 
BRANCH  93  94
ATOM     94  S   UNL A   1      39.512  37.833  40.114  1.00  0.00     0.124 S 
ATOM     95  O   UNL A   1      38.258  38.475  39.731  1.00  0.00    -0.237 OA
ATOM     96  O   UNL A   1      39.489  37.100  41.376  1.00  0.00    -0.237 OA
ATOM     97  O   UNL A   1      40.719  38.619  39.877  1.00  0.00    -0.744 OA
ENDBRANCH  93  94
ENDBRANCH  61  86
ENDBRANCH  35  36
ENDBRANCH  27  30
ENDBRANCH  25  26
ENDBRANCH  24  25
ENDBRANCH   1  24
TORSDOF 19
ENDMDL
MODEL 3
REMARK VINA RESULT:     -11.3      6.761     12.334
REMARK SMILES COc1cccc(S(=O)(=O)N[C@H](CC(C)C)C(=O)NCCCNC(=O)c2ccc(-c3c4nc(c(-c5c(F)cc(S(=O)(=O)[O-])cc5F)c5ccc([nH]5)c(-c5c(F)cc(S(=O)(=O)[O-])cc5F)c5nc(c(-c6c(F)cc(S(=O)(=O)[O-])cc6F)c6ccc3[nH]6)C=C5)C=C4)cc2)c1
REMARK SMILES IDX 20 1 19 2 17 3 18 4 12 6 11 7 8 9 9 10 10 11 7 12 3 13 4 14
REMARK SMILES IDX 92 15 5 16 6 17 2 18 1 19 13 20 14 21 15 22 16 23 21 24
REMARK SMILES IDX 22 25 23 26 24 27 25 29 26 30 27 31 91 32 28 33 90 34 29 35
REMARK SMILES IDX 30 36 31 37 84 38 32 39 89 40 83 41 85 42 33 43 88 44 82 45
REMARK SMILES IDX 81 46 34 48 68 49 47 50 67 51 48 52 51 53 66 54 86 55 49 56
REMARK SMILES IDX 50 57 65 59 87 60 52 61 35 62 36 63 45 64 37 65 38 66 44 67
REMARK SMILES IDX 46 68 39 69 40 70 41 71 42 72 43 73 69 74 70 75 79 76 71 77
REMARK SMILES IDX 72 78 78 79 80 80 73 81 74 82 75 83 76 84 77 85 53 86 54 87
REMARK SMILES IDX 63 88 55 89 56 90 62 91 64 92 57 93 58 94 59 95 60 96 61 97
REMARK H PARENT 19 5 11 8 23 28 85 47 51 58
REMARK Flexibility Score: inf
ROOT
ATOM      1  C   UNL A   1      33.203  30.475  26.889  1.00  0.00     0.117 C 
ENDROOT
BRANCH   1   2
ATOM      2  N   UNL A   1      32.154  29.648  27.485  1.00  0.00    -0.355 N 
ATOM      3  C   UNL A   1      31.585  28.441  27.169  1.00  0.00     0.238 C 
ATOM      4  O   UNL A   1      31.129  27.840  28.147  1.00  0.00    -0.273 OA
ATOM      5  H   UNL A   1      31.769  30.049  28.297  1.00  0.00     0.163 HD
BRANCH   3   6
ATOM      6  C   UNL A   1      31.507  27.813  25.740  1.00  0.00     0.159 C 
BRANCH   6   7
ATOM      7  N   UNL A   1      31.689  26.348  25.852  1.00  0.00    -0.199 NA
ATOM      8  H   UNL A   1      32.566  26.161  25.367  1.00  0.00     0.142 HD
BRANCH   7   9
ATOM      9  S   UNL A   1      30.662  25.130  25.346  1.00  0.00     0.241 S 
ATOM     10  O   UNL A   1      29.863  25.618  24.253  1.00  0.00    -0.207 OA
ATOM     11  O   UNL A   1      30.032  24.715  26.588  1.00  0.00    -0.207 OA
BRANCH   9  12
ATOM     12  C   UNL A   1      31.628  23.739  24.777  1.00  0.00     0.086 A 
ATOM     13  C   UNL A   1      33.344  22.032  25.046  1.00  0.00     0.120 A 
ATOM     14  C   UNL A   1      33.042  21.546  23.778  1.00  0.00     0.046 A 
ATOM     15  C   UNL A   1      32.648  23.137  25.529  1.00  0.00     0.068 A 
ATOM     16  C   UNL A   1      32.024  22.129  23.021  1.00  0.00     0.005 A 
ATOM     17  C   UNL A   1      31.309  23.220  23.521  1.00  0.00     0.022 A 
BRANCH  13  18
ATOM     18  O   UNL A   1      34.355  21.389  25.706  1.00  0.00    -0.497 OA
ATOM     19  C   UNL A   1      35.165  20.505  24.940  1.00  0.00     0.278 C 
ENDBRANCH  13  18
ENDBRANCH   9  12
ENDBRANCH   7   9
ENDBRANCH   6   7
BRANCH   6  20
ATOM     20  C   UNL A   1      32.391  28.372  24.588  1.00  0.00     0.033 C 
BRANCH  20  21
ATOM     21  C   UNL A   1      33.503  27.675  23.774  1.00  0.00    -0.015 C 
ATOM     22  C   UNL A   1      33.074  26.663  22.725  1.00  0.00     0.007 C 
ATOM     23  C   UNL A   1      34.260  28.801  23.022  1.00  0.00     0.007 C 
ENDBRANCH  20  21
ENDBRANCH   6  20
ENDBRANCH   3   6
ENDBRANCH   1   2
BRANCH   1  24
ATOM     24  C   UNL A   1      34.650  30.193  27.325  1.00  0.00     0.042 C 
BRANCH  24  25
ATOM     25  C   UNL A   1      35.339  31.273  28.177  1.00  0.00     0.118 C 
BRANCH  25  26
ATOM     26  N   UNL A   1      35.427  30.862  29.569  1.00  0.00    -0.352 N 
ATOM     27  C   UNL A   1      36.404  30.259  30.318  1.00  0.00     0.251 C 
ATOM     28  H   UNL A   1      34.611  31.059  30.083  1.00  0.00     0.163 HD
ATOM     29  O   UNL A   1      36.046  29.793  31.403  1.00  0.00    -0.269 OA
BRANCH  27  30
ATOM     30  C   UNL A   1      37.846  30.154  29.942  1.00  0.00     0.039 A 
ATOM     31  C   UNL A   1      38.135  30.108  28.568  1.00  0.00     0.014 A 
ATOM     32  C   UNL A   1      38.887  29.906  30.843  1.00  0.00     0.014 A 
ATOM     33  C   UNL A   1      39.418  29.791  28.103  1.00  0.00     0.010 A 
ATOM     34  C   UNL A   1      40.190  29.624  30.373  1.00  0.00     0.010 A 
ATOM     35  C   UNL A   1      40.466  29.532  28.997  1.00  0.00    -0.014 A 
BRANCH  35  36
ATOM     36  C   UNL A   1      41.804  29.125  28.459  1.00  0.00     0.031 A 
ATOM     37  C   UNL A   1      42.951  30.108  28.377  1.00  0.00     0.074 A 
ATOM     38  C   UNL A   1      42.030  27.841  28.107  1.00  0.00     0.049 A 
ATOM     39  N   UNL A   1      44.201  29.897  28.039  1.00  0.00    -0.248 NA
ATOM     40  C   UNL A   1      42.654  31.508  28.715  1.00  0.00     0.031 C 
ATOM     41  C   UNL A   1      41.027  26.776  28.113  1.00  0.00     0.029 A 
ATOM     42  N   UNL A   1      43.180  27.211  27.692  1.00  0.00    -0.354 N 
ATOM     43  C   UNL A   1      44.842  31.128  28.134  1.00  0.00     0.074 A 
ATOM     44  C   UNL A   1      43.829  32.093  28.514  1.00  0.00     0.031 C 
ATOM     45  C   UNL A   1      41.608  25.623  27.743  1.00  0.00     0.029 A 
ATOM     46  C   UNL A   1      43.022  25.864  27.460  1.00  0.00     0.049 A 
ATOM     47  H   UNL A   1      44.037  27.679  27.572  1.00  0.00     0.167 HD
ATOM     48  C   UNL A   1      46.152  31.433  27.949  1.00  0.00     0.037 A 
ATOM     49  C   UNL A   1      43.907  24.922  27.074  1.00  0.00     0.037 A 
ATOM     50  C   UNL A   1      47.177  30.487  27.577  1.00  0.00     0.049 A 
ATOM     51  C   UNL A   1      45.355  25.283  26.873  1.00  0.00     0.074 A 
ATOM     52  C   UNL A   1      48.530  30.717  27.378  1.00  0.00     0.029 A 
ATOM     53  N   UNL A   1      46.970  29.136  27.353  1.00  0.00    -0.354 N 
ATOM     54  N   UNL A   1      45.943  26.447  27.010  1.00  0.00    -0.248 NA
ATOM     55  C   UNL A   1      46.266  24.195  26.480  1.00  0.00     0.031 C 
ATOM     56  C   UNL A   1      49.134  29.509  27.009  1.00  0.00     0.029 A 
ATOM     57  C   UNL A   1      48.166  28.521  27.012  1.00  0.00     0.049 A 
ATOM     58  H   UNL A   1      46.101  28.679  27.425  1.00  0.00     0.167 HD
ATOM     59  C   UNL A   1      47.290  26.226  26.741  1.00  0.00     0.074 A 
ATOM     60  C   UNL A   1      47.436  24.816  26.453  1.00  0.00     0.031 C 
ATOM     61  C   UNL A   1      48.313  27.117  26.730  1.00  0.00     0.037 A 
BRANCH  48  62
ATOM     62  C   UNL A   1      46.572  32.863  28.164  1.00  0.00     0.058 A 
ATOM     63  C   UNL A   1      46.452  33.819  27.144  1.00  0.00     0.135 A 
ATOM     64  C   UNL A   1      47.036  33.297  29.417  1.00  0.00     0.135 A 
ATOM     65  F   UNL A   1      46.021  33.456  25.925  1.00  0.00    -0.206 F 
ATOM     66  C   UNL A   1      46.800  35.151  27.348  1.00  0.00     0.059 A 
ATOM     67  C   UNL A   1      47.369  34.630  29.650  1.00  0.00     0.059 A 
ATOM     68  F   UNL A   1      47.162  32.427  30.430  1.00  0.00    -0.206 F 
ATOM     69  C   UNL A   1      47.259  35.546  28.605  1.00  0.00     0.060 A 
BRANCH  69  70
ATOM     70  S   UNL A   1      47.700  37.279  28.857  1.00  0.00     0.124 S 
ATOM     71  O   UNL A   1      49.012  37.340  28.220  1.00  0.00    -0.237 OA
ATOM     72  O   UNL A   1      46.626  37.982  28.164  1.00  0.00    -0.237 OA
ATOM     73  O   UNL A   1      47.701  37.421  30.310  1.00  0.00    -0.744 OA
ENDBRANCH  69  70
ENDBRANCH  48  62
BRANCH  49  74
ATOM     74  C   UNL A   1      43.455  23.521  26.860  1.00  0.00     0.058 A 
ATOM     75  C   UNL A   1      43.232  22.655  27.942  1.00  0.00     0.135 A 
ATOM     76  C   UNL A   1      43.264  23.014  25.566  1.00  0.00     0.135 A 
ATOM     77  F   UNL A   1      43.413  23.092  29.198  1.00  0.00    -0.206 F 
ATOM     78  C   UNL A   1      42.860  21.329  27.749  1.00  0.00     0.059 A 
ATOM     79  C   UNL A   1      42.869  21.700  25.348  1.00  0.00     0.059 A 
ATOM     80  F   UNL A   1      43.453  23.807  24.500  1.00  0.00    -0.206 F 
ATOM     81  C   UNL A   1      42.684  20.859  26.446  1.00  0.00     0.060 A 
BRANCH  81  82
ATOM     82  S   UNL A   1      42.173  19.146  26.197  1.00  0.00     0.124 S 
ATOM     83  O   UNL A   1      42.386  18.581  27.524  1.00  0.00    -0.237 OA
ATOM     84  O   UNL A   1      40.781  19.293  25.782  1.00  0.00    -0.237 OA
ATOM     85  O   UNL A   1      43.082  18.676  25.156  1.00  0.00    -0.744 OA
ENDBRANCH  81  82
ENDBRANCH  49  74
BRANCH  61  86
ATOM     86  C   UNL A   1      49.688  26.586  26.425  1.00  0.00     0.058 A 
ATOM     87  C   UNL A   1      50.250  26.691  25.142  1.00  0.00     0.135 A 
ATOM     88  C   UNL A   1      50.458  25.974  27.427  1.00  0.00     0.135 A 
ATOM     89  F   UNL A   1      49.557  27.265  24.146  1.00  0.00    -0.206 F 
ATOM     90  C   UNL A   1      51.512  26.176  24.854  1.00  0.00     0.059 A 
ATOM     91  C   UNL A   1      51.731  25.471  27.167  1.00  0.00     0.059 A 
ATOM     92  F   UNL A   1      49.974  25.855  28.673  1.00  0.00    -0.206 F 
ATOM     93  C   UNL A   1      52.241  25.560  25.873  1.00  0.00     0.060 A 
BRANCH  93  94
ATOM     94  S   UNL A   1      53.877  24.894  25.492  1.00  0.00     0.124 S 
ATOM     95  O   UNL A   1      53.584  23.474  25.323  1.00  0.00    -0.237 OA
ATOM     96  O   UNL A   1      54.239  25.615  24.276  1.00  0.00    -0.237 OA
ATOM     97  O   UNL A   1      54.665  25.237  26.672  1.00  0.00    -0.744 OA
ENDBRANCH  93  94
ENDBRANCH  61  86
ENDBRANCH  35  36
ENDBRANCH  27  30
ENDBRANCH  25  26
ENDBRANCH  24  25
ENDBRANCH   1  24
TORSDOF 19
ENDMDL
