MODEL 1
REMARK VINA RESULT:     -12.6      0.000      0.000
REMARK SMILES Cc1ccc(F)c(-c2ncccc2C(=O)NCCCNC(=O)c2ccc(-c3c4nc(c(-c5c(F)cc(S(=O)(=O)[O-])cc5F)c5ccc([nH]5)c(-c5c(F)cc(S(=O)(=O)[O-])cc5F)c5nc(c(-c6c(F)cc(S(=O)(=O)[O-])cc6F)c6ccc3[nH]6)C=C5)C=C4)cc2)c1
REMARK SMILES IDX 19 1 18 2 17 3 16 4 14 5 15 6 13 8 8 9 9 10 10 11 12 12
REMARK SMILES IDX 11 13 7 14 1 15 2 16 3 17 89 18 4 19 5 20 6 21 20 22 21 23
REMARK SMILES IDX 22 25 23 26 24 27 88 28 25 29 87 30 26 31 27 32 28 33 81 34
REMARK SMILES IDX 29 35 86 36 80 37 82 38 30 39 85 40 79 41 78 42 31 44 65 45
REMARK SMILES IDX 44 46 64 47 45 48 48 49 63 50 83 51 46 52 47 53 62 55 84 56
REMARK SMILES IDX 49 57 32 58 33 59 42 60 34 61 35 62 41 63 43 64 36 65 37 66
REMARK SMILES IDX 38 67 39 68 40 69 66 70 67 71 76 72 68 73 69 74 75 75 77 76
REMARK SMILES IDX 70 77 71 78 72 79 73 80 74 81 50 82 51 83 60 84 52 85 53 86
REMARK SMILES IDX 59 87 61 88 54 89 55 90 56 91 57 92 58 93
REMARK H PARENT 16 7 20 24 82 43 48 54
REMARK Flexibility Score: inf
ROOT
ATOM      1  C   UNL A   1      35.653  31.484  28.264  1.00  0.00     0.118 C 
ENDROOT
BRANCH   1   2
ATOM      2  C   UNL A   1      34.455  30.918  27.495  1.00  0.00     0.042 C 
BRANCH   2   3
ATOM      3  C   UNL A   1      34.498  29.400  27.325  1.00  0.00     0.118 C 
BRANCH   3   4
ATOM      4  N   UNL A   1      33.281  28.782  27.813  1.00  0.00    -0.352 N 
ATOM      5  C   UNL A   1      32.149  28.247  27.256  1.00  0.00     0.253 C 
ATOM      6  O   UNL A   1      31.364  27.800  28.092  1.00  0.00    -0.269 OA
ATOM      7  H   UNL A   1      33.262  28.736  28.797  1.00  0.00     0.163 HD
BRANCH   5   8
ATOM      8  C   UNL A   1      31.861  28.149  25.786  1.00  0.00     0.066 A 
ATOM      9  C   UNL A   1      32.143  26.967  25.068  1.00  0.00     0.086 A 
ATOM     10  N   UNL A   1      32.007  26.877  23.708  1.00  0.00    -0.255 NA
ATOM     11  C   UNL A   1      31.552  27.949  23.038  1.00  0.00     0.112 A 
ATOM     12  C   UNL A   1      31.304  29.201  25.047  1.00  0.00     0.018 A 
ATOM     13  C   UNL A   1      31.166  29.115  23.662  1.00  0.00     0.021 A 
BRANCH   9  14
ATOM     14  C   UNL A   1      32.499  25.671  25.666  1.00  0.00     0.037 A 
ATOM     15  C   UNL A   1      35.605  23.474  26.066  1.00  0.00     0.044 C 
ATOM     16  C   UNL A   1      34.195  23.973  26.184  1.00  0.00    -0.050 A 
ATOM     17  C   UNL A   1      33.211  23.174  26.772  1.00  0.00     0.006 A 
ATOM     18  C   UNL A   1      33.839  25.228  25.670  1.00  0.00     0.016 A 
ATOM     19  C   UNL A   1      31.889  23.616  26.821  1.00  0.00     0.040 A 
ATOM     20  C   UNL A   1      31.542  24.847  26.265  1.00  0.00     0.132 A 
ATOM     21  F   UNL A   1      30.252  25.217  26.300  1.00  0.00    -0.206 F 
ENDBRANCH   9  14
ENDBRANCH   5   8
ENDBRANCH   3   4
ENDBRANCH   2   3
ENDBRANCH   1   2
BRANCH   1  22
ATOM     22  N   UNL A   1      35.558  31.225  29.694  1.00  0.00    -0.352 N 
ATOM     23  C   UNL A   1      36.398  30.535  30.531  1.00  0.00     0.251 C 
ATOM     24  H   UNL A   1      34.762  31.607  30.131  1.00  0.00     0.163 HD
ATOM     25  O   UNL A   1      36.002  30.221  31.651  1.00  0.00    -0.269 OA
BRANCH  23  26
ATOM     26  C   UNL A   1      37.765  30.170  30.103  1.00  0.00     0.039 A 
ATOM     27  C   UNL A   1      38.749  29.979  31.077  1.00  0.00     0.014 A 
ATOM     28  C   UNL A   1      38.099  30.078  28.748  1.00  0.00     0.014 A 
ATOM     29  C   UNL A   1      40.051  29.644  30.697  1.00  0.00     0.010 A 
ATOM     30  C   UNL A   1      39.381  29.683  28.373  1.00  0.00     0.010 A 
ATOM     31  C   UNL A   1      40.371  29.467  29.342  1.00  0.00    -0.014 A 
BRANCH  31  32
ATOM     32  C   UNL A   1      41.732  29.045  28.921  1.00  0.00     0.031 A 
ATOM     33  C   UNL A   1      42.848  30.049  28.833  1.00  0.00     0.074 A 
ATOM     34  C   UNL A   1      41.940  27.769  28.541  1.00  0.00     0.049 A 
ATOM     35  N   UNL A   1      44.076  29.886  28.410  1.00  0.00    -0.248 NA
ATOM     36  C   UNL A   1      42.534  31.426  29.245  1.00  0.00     0.031 C 
ATOM     37  C   UNL A   1      40.922  26.716  28.528  1.00  0.00     0.029 A 
ATOM     38  N   UNL A   1      43.070  27.145  28.076  1.00  0.00    -0.354 N 
ATOM     39  C   UNL A   1      44.673  31.139  28.483  1.00  0.00     0.074 A 
ATOM     40  C   UNL A   1      43.660  32.061  28.951  1.00  0.00     0.031 C 
ATOM     41  C   UNL A   1      41.475  25.576  28.087  1.00  0.00     0.029 A 
ATOM     42  C   UNL A   1      42.875  25.822  27.755  1.00  0.00     0.049 A 
ATOM     43  H   UNL A   1      43.937  27.601  27.981  1.00  0.00     0.167 HD
ATOM     44  C   UNL A   1      45.952  31.485  28.200  1.00  0.00     0.037 A 
ATOM     45  C   UNL A   1      43.725  24.911  27.241  1.00  0.00     0.037 A 
ATOM     46  C   UNL A   1      46.962  30.555  27.763  1.00  0.00     0.049 A 
ATOM     47  C   UNL A   1      45.148  25.309  26.965  1.00  0.00     0.074 A 
ATOM     48  C   UNL A   1      48.305  30.789  27.530  1.00  0.00     0.029 A 
ATOM     49  N   UNL A   1      46.738  29.213  27.490  1.00  0.00    -0.354 N 
ATOM     50  N   UNL A   1      45.717  26.482  27.112  1.00  0.00    -0.248 NA
ATOM     51  C   UNL A   1      46.046  24.260  26.464  1.00  0.00     0.031 C 
ATOM     52  C   UNL A   1      48.885  29.599  27.076  1.00  0.00     0.029 A 
ATOM     53  C   UNL A   1      47.912  28.611  27.068  1.00  0.00     0.049 A 
ATOM     54  H   UNL A   1      45.870  28.756  27.581  1.00  0.00     0.167 HD
ATOM     55  C   UNL A   1      47.044  26.309  26.737  1.00  0.00     0.074 A 
ATOM     56  C   UNL A   1      47.196  24.916  26.370  1.00  0.00     0.031 C 
ATOM     57  C   UNL A   1      48.045  27.223  26.702  1.00  0.00     0.037 A 
BRANCH  44  58
ATOM     58  C   UNL A   1      46.328  32.935  28.351  1.00  0.00     0.058 A 
ATOM     59  C   UNL A   1      46.220  33.842  27.284  1.00  0.00     0.135 A 
ATOM     60  C   UNL A   1      46.791  33.427  29.582  1.00  0.00     0.135 A 
ATOM     61  F   UNL A   1      45.793  33.424  26.082  1.00  0.00    -0.206 F 
ATOM     62  C   UNL A   1      46.600  35.173  27.419  1.00  0.00     0.059 A 
ATOM     63  C   UNL A   1      47.150  34.761  29.748  1.00  0.00     0.059 A 
ATOM     64  F   UNL A   1      46.910  32.605  30.637  1.00  0.00    -0.206 F 
ATOM     65  C   UNL A   1      47.071  35.622  28.654  1.00  0.00     0.060 A 
BRANCH  65  66
ATOM     66  S   UNL A   1      47.583  37.347  28.810  1.00  0.00     0.124 S 
ATOM     67  O   UNL A   1      49.036  37.224  28.737  1.00  0.00    -0.237 OA
ATOM     68  O   UNL A   1      46.943  37.970  27.655  1.00  0.00    -0.237 OA
ATOM     69  O   UNL A   1      47.049  37.744  30.108  1.00  0.00    -0.744 OA
ENDBRANCH  65  66
ENDBRANCH  44  58
BRANCH  45  70
ATOM     70  C   UNL A   1      43.244  23.530  26.984  1.00  0.00     0.058 A 
ATOM     71  C   UNL A   1      42.954  23.098  25.682  1.00  0.00     0.135 A 
ATOM     72  C   UNL A   1      43.120  22.598  28.027  1.00  0.00     0.135 A 
ATOM     73  F   UNL A   1      43.053  23.955  24.654  1.00  0.00    -0.206 F 
ATOM     74  C   UNL A   1      42.560  21.790  25.419  1.00  0.00     0.059 A 
ATOM     75  C   UNL A   1      42.749  21.279  27.786  1.00  0.00     0.059 A 
ATOM     76  F   UNL A   1      43.403  22.958  29.288  1.00  0.00    -0.206 F 
ATOM     77  C   UNL A   1      42.469  20.885  26.478  1.00  0.00     0.060 A 
BRANCH  77  78
ATOM     78  S   UNL A   1      42.047  19.167  26.115  1.00  0.00     0.124 S 
ATOM     79  O   UNL A   1      42.884  18.897  24.952  1.00  0.00    -0.237 OA
ATOM     80  O   UNL A   1      42.429  18.489  27.350  1.00  0.00    -0.237 OA
ATOM     81  O   UNL A   1      40.610  19.222  25.861  1.00  0.00    -0.744 OA
ENDBRANCH  77  78
ENDBRANCH  45  70
BRANCH  57  82
ATOM     82  C   UNL A   1      49.402  26.742  26.268  1.00  0.00     0.058 A 
ATOM     83  C   UNL A   1      49.867  26.937  24.958  1.00  0.00     0.135 A 
ATOM     84  C   UNL A   1      50.266  26.124  27.186  1.00  0.00     0.135 A 
ATOM     85  F   UNL A   1      49.077  27.516  24.040  1.00  0.00    -0.206 F 
ATOM     86  C   UNL A   1      51.135  26.518  24.568  1.00  0.00     0.059 A 
ATOM     87  C   UNL A   1      51.547  25.720  26.824  1.00  0.00     0.059 A 
ATOM     88  F   UNL A   1      49.872  25.921  28.454  1.00  0.00    -0.206 F 
ATOM     89  C   UNL A   1      51.968  25.911  25.509  1.00  0.00     0.060 A 
BRANCH  89  90
ATOM     90  S   UNL A   1      53.625  25.403  25.001  1.00  0.00     0.124 S 
ATOM     91  O   UNL A   1      54.462  26.202  25.890  1.00  0.00    -0.237 OA
ATOM     92  O   UNL A   1      53.609  23.968  25.266  1.00  0.00    -0.237 OA
ATOM     93  O   UNL A   1      53.675  25.773  23.590  1.00  0.00    -0.744 OA
ENDBRANCH  89  90
ENDBRANCH  57  82
ENDBRANCH  31  32
ENDBRANCH  23  26
ENDBRANCH   1  22
TORSDOF 14
ENDMDL
MODEL 2
REMARK VINA RESULT:     -12.6      6.809     12.253
REMARK SMILES Cc1ccc(F)c(-c2ncccc2C(=O)NCCCNC(=O)c2ccc(-c3c4nc(c(-c5c(F)cc(S(=O)(=O)[O-])cc5F)c5ccc([nH]5)c(-c5c(F)cc(S(=O)(=O)[O-])cc5F)c5nc(c(-c6c(F)cc(S(=O)(=O)[O-])cc6F)c6ccc3[nH]6)C=C5)C=C4)cc2)c1
REMARK SMILES IDX 19 1 18 2 17 3 16 4 14 5 15 6 13 8 8 9 9 10 10 11 12 12
REMARK SMILES IDX 11 13 7 14 1 15 2 16 3 17 89 18 4 19 5 20 6 21 20 22 21 23
REMARK SMILES IDX 22 25 23 26 24 27 88 28 25 29 87 30 26 31 27 32 28 33 81 34
REMARK SMILES IDX 29 35 86 36 80 37 82 38 30 39 85 40 79 41 78 42 31 44 65 45
REMARK SMILES IDX 44 46 64 47 45 48 48 49 63 50 83 51 46 52 47 53 62 55 84 56
REMARK SMILES IDX 49 57 32 58 33 59 42 60 34 61 35 62 41 63 43 64 36 65 37 66
REMARK SMILES IDX 38 67 39 68 40 69 66 70 67 71 76 72 68 73 69 74 75 75 77 76
REMARK SMILES IDX 70 77 71 78 72 79 73 80 74 81 50 82 51 83 60 84 52 85 53 86
REMARK SMILES IDX 59 87 61 88 54 89 55 90 56 91 57 92 58 93
REMARK H PARENT 16 7 20 24 82 43 48 54
REMARK Flexibility Score: inf
ROOT
ATOM      1  C   UNL A   1      38.228  24.102  26.516  1.00  0.00     0.118 C 
ENDROOT
BRANCH   1   2
ATOM      2  C   UNL A   1      37.269  23.674  25.400  1.00  0.00     0.042 C 
BRANCH   2   3
ATOM      3  C   UNL A   1      36.868  22.201  25.470  1.00  0.00     0.118 C 
BRANCH   3   4
ATOM      4  N   UNL A   1      35.854  21.981  26.482  1.00  0.00    -0.352 N 
ATOM      5  C   UNL A   1      34.589  21.457  26.520  1.00  0.00     0.253 C 
ATOM      6  O   UNL A   1      34.100  21.453  27.650  1.00  0.00    -0.269 OA
ATOM      7  H   UNL A   1      36.150  22.288  27.370  1.00  0.00     0.163 HD
BRANCH   5   8
ATOM      8  C   UNL A   1      33.842  20.890  25.348  1.00  0.00     0.066 A 
ATOM      9  C   UNL A   1      33.088  21.725  24.495  1.00  0.00     0.086 A 
ATOM     10  N   UNL A   1      32.299  21.235  23.488  1.00  0.00    -0.255 NA
ATOM     11  C   UNL A   1      32.271  19.907  23.285  1.00  0.00     0.112 A 
ATOM     12  C   UNL A   1      33.846  19.526  25.029  1.00  0.00     0.018 A 
ATOM     13  C   UNL A   1      33.042  19.022  24.007  1.00  0.00     0.021 A 
BRANCH   9  14
ATOM     14  C   UNL A   1      33.129  23.196  24.487  1.00  0.00     0.037 A 
ATOM     15  C   UNL A   1      31.298  26.106  26.164  1.00  0.00     0.044 C 
ATOM     16  C   UNL A   1      32.278  25.342  25.323  1.00  0.00    -0.050 A 
ATOM     17  C   UNL A   1      33.156  26.017  24.471  1.00  0.00     0.006 A 
ATOM     18  C   UNL A   1      32.297  23.940  25.351  1.00  0.00     0.016 A 
ATOM     19  C   UNL A   1      34.021  25.299  23.645  1.00  0.00     0.040 A 
ATOM     20  C   UNL A   1      33.996  23.905  23.651  1.00  0.00     0.132 A 
ATOM     21  F   UNL A   1      34.817  23.253  22.812  1.00  0.00    -0.206 F 
ENDBRANCH   9  14
ENDBRANCH   5   8
ENDBRANCH   3   4
ENDBRANCH   2   3
ENDBRANCH   1   2
BRANCH   1  22
ATOM     22  N   UNL A   1      39.623  23.970  26.121  1.00  0.00    -0.352 N 
ATOM     23  C   UNL A   1      40.715  24.738  26.440  1.00  0.00     0.251 C 
ATOM     24  H   UNL A   1      39.815  23.208  25.529  1.00  0.00     0.163 HD
ATOM     25  O   UNL A   1      41.752  24.600  25.797  1.00  0.00    -0.269 OA
BRANCH  23  26
ATOM     26  C   UNL A   1      40.655  25.720  27.544  1.00  0.00     0.039 A 
ATOM     27  C   UNL A   1      41.633  26.717  27.613  1.00  0.00     0.014 A 
ATOM     28  C   UNL A   1      39.683  25.626  28.545  1.00  0.00     0.014 A 
ATOM     29  C   UNL A   1      41.606  27.650  28.653  1.00  0.00     0.010 A 
ATOM     30  C   UNL A   1      39.620  26.594  29.546  1.00  0.00     0.010 A 
ATOM     31  C   UNL A   1      40.582  27.612  29.613  1.00  0.00    -0.014 A 
BRANCH  31  32
ATOM     32  C   UNL A   1      40.496  28.635  30.687  1.00  0.00     0.031 A 
ATOM     33  C   UNL A   1      41.358  28.526  31.914  1.00  0.00     0.074 A 
ATOM     34  C   UNL A   1      39.580  29.619  30.590  1.00  0.00     0.049 A 
ATOM     35  N   UNL A   1      41.365  29.274  32.988  1.00  0.00    -0.248 NA
ATOM     36  C   UNL A   1      42.316  27.411  31.953  1.00  0.00     0.031 C 
ATOM     37  C   UNL A   1      38.647  29.796  29.474  1.00  0.00     0.029 A 
ATOM     38  N   UNL A   1      39.270  30.643  31.448  1.00  0.00    -0.354 N 
ATOM     39  C   UNL A   1      42.309  28.709  33.838  1.00  0.00     0.074 A 
ATOM     40  C   UNL A   1      42.823  27.532  33.172  1.00  0.00     0.031 C 
ATOM     41  C   UNL A   1      37.877  30.869  29.713  1.00  0.00     0.029 A 
ATOM     42  C   UNL A   1      38.237  31.437  31.008  1.00  0.00     0.049 A 
ATOM     43  H   UNL A   1      39.743  30.796  32.297  1.00  0.00     0.167 HD
ATOM     44  C   UNL A   1      42.719  29.142  35.055  1.00  0.00     0.037 A 
ATOM     45  C   UNL A   1      37.637  32.495  31.587  1.00  0.00     0.037 A 
ATOM     46  C   UNL A   1      42.223  30.332  35.697  1.00  0.00     0.049 A 
ATOM     47  C   UNL A   1      38.129  32.977  32.923  1.00  0.00     0.074 A 
ATOM     48  C   UNL A   1      42.632  30.900  36.890  1.00  0.00     0.029 A 
ATOM     49  N   UNL A   1      41.206  31.134  35.201  1.00  0.00    -0.354 N 
ATOM     50  N   UNL A   1      39.077  32.476  33.680  1.00  0.00    -0.248 NA
ATOM     51  C   UNL A   1      37.482  34.172  33.479  1.00  0.00     0.031 C 
ATOM     52  C   UNL A   1      41.834  32.024  37.137  1.00  0.00     0.029 A 
ATOM     53  C   UNL A   1      40.956  32.180  36.074  1.00  0.00     0.049 A 
ATOM     54  H   UNL A   1      40.729  30.981  34.353  1.00  0.00     0.167 HD
ATOM     55  C   UNL A   1      39.150  33.303  34.794  1.00  0.00     0.074 A 
ATOM     56  C   UNL A   1      38.161  34.345  34.605  1.00  0.00     0.031 C 
ATOM     57  C   UNL A   1      39.964  33.208  35.874  1.00  0.00     0.037 A 
BRANCH  44  58
ATOM     58  C   UNL A   1      43.753  28.316  35.772  1.00  0.00     0.058 A 
ATOM     59  C   UNL A   1      45.128  28.527  35.584  1.00  0.00     0.135 A 
ATOM     60  C   UNL A   1      43.364  27.306  36.668  1.00  0.00     0.135 A 
ATOM     61  F   UNL A   1      45.558  29.471  34.731  1.00  0.00    -0.206 F 
ATOM     62  C   UNL A   1      46.081  27.739  36.223  1.00  0.00     0.059 A 
ATOM     63  C   UNL A   1      44.299  26.525  37.340  1.00  0.00     0.059 A 
ATOM     64  F   UNL A   1      42.062  27.064  36.889  1.00  0.00    -0.206 F 
ATOM     65  C   UNL A   1      45.655  26.735  37.094  1.00  0.00     0.060 A 
BRANCH  65  66
ATOM     66  S   UNL A   1      46.900  25.703  37.899  1.00  0.00     0.124 S 
ATOM     67  O   UNL A   1      46.748  24.447  37.172  1.00  0.00    -0.237 OA
ATOM     68  O   UNL A   1      48.134  26.440  37.639  1.00  0.00    -0.237 OA
ATOM     69  O   UNL A   1      46.471  25.679  39.293  1.00  0.00    -0.744 OA
ENDBRANCH  65  66
ENDBRANCH  44  58
BRANCH  45  70
ATOM     70  C   UNL A   1      36.522  33.177  30.881  1.00  0.00     0.058 A 
ATOM     71  C   UNL A   1      35.204  33.074  31.348  1.00  0.00     0.135 A 
ATOM     72  C   UNL A   1      36.760  33.992  29.763  1.00  0.00     0.135 A 
ATOM     73  F   UNL A   1      34.927  32.302  32.410  1.00  0.00    -0.206 F 
ATOM     74  C   UNL A   1      34.159  33.755  30.733  1.00  0.00     0.059 A 
ATOM     75  C   UNL A   1      35.735  34.699  29.145  1.00  0.00     0.059 A 
ATOM     76  F   UNL A   1      38.008  34.137  29.290  1.00  0.00    -0.206 F 
ATOM     77  C   UNL A   1      34.437  34.574  29.636  1.00  0.00     0.060 A 
BRANCH  77  78
ATOM     78  S   UNL A   1      33.089  35.525  28.902  1.00  0.00     0.124 S 
ATOM     79  O   UNL A   1      32.453  34.527  28.050  1.00  0.00    -0.237 OA
ATOM     80  O   UNL A   1      32.329  35.940  30.077  1.00  0.00    -0.237 OA
ATOM     81  O   UNL A   1      33.782  36.604  28.204  1.00  0.00    -0.744 OA
ENDBRANCH  77  78
ENDBRANCH  45  70
BRANCH  57  82
ATOM     82  C   UNL A   1      39.834  34.269  36.931  1.00  0.00     0.058 A 
ATOM     83  C   UNL A   1      40.449  35.523  36.794  1.00  0.00     0.135 A 
ATOM     84  C   UNL A   1      39.043  34.047  38.070  1.00  0.00     0.135 A 
ATOM     85  F   UNL A   1      41.222  35.783  35.727  1.00  0.00    -0.206 F 
ATOM     86  C   UNL A   1      40.301  36.514  37.759  1.00  0.00     0.059 A 
ATOM     87  C   UNL A   1      38.861  35.031  39.035  1.00  0.00     0.059 A 
ATOM     88  F   UNL A   1      38.425  32.866  38.245  1.00  0.00    -0.206 F 
ATOM     89  C   UNL A   1      39.504  36.258  38.876  1.00  0.00     0.060 A 
BRANCH  89  90
ATOM     90  S   UNL A   1      39.290  37.563  40.106  1.00  0.00     0.124 S 
ATOM     91  O   UNL A   1      38.954  36.791  41.297  1.00  0.00    -0.237 OA
ATOM     92  O   UNL A   1      40.602  38.204  40.115  1.00  0.00    -0.237 OA
ATOM     93  O   UNL A   1      38.208  38.374  39.555  1.00  0.00    -0.744 OA
ENDBRANCH  89  90
ENDBRANCH  57  82
ENDBRANCH  31  32
ENDBRANCH  23  26
ENDBRANCH   1  22
TORSDOF 14
ENDMDL
MODEL 3
REMARK VINA RESULT:     -12.5      6.534     12.102
REMARK SMILES Cc1ccc(F)c(-c2ncccc2C(=O)NCCCNC(=O)c2ccc(-c3c4nc(c(-c5c(F)cc(S(=O)(=O)[O-])cc5F)c5ccc([nH]5)c(-c5c(F)cc(S(=O)(=O)[O-])cc5F)c5nc(c(-c6c(F)cc(S(=O)(=O)[O-])cc6F)c6ccc3[nH]6)C=C5)C=C4)cc2)c1
REMARK SMILES IDX 19 1 18 2 17 3 16 4 14 5 15 6 13 8 8 9 9 10 10 11 12 12
REMARK SMILES IDX 11 13 7 14 1 15 2 16 3 17 89 18 4 19 5 20 6 21 20 22 21 23
REMARK SMILES IDX 22 25 23 26 24 27 88 28 25 29 87 30 26 31 27 32 28 33 81 34
REMARK SMILES IDX 29 35 86 36 80 37 82 38 30 39 85 40 79 41 78 42 31 44 65 45
REMARK SMILES IDX 44 46 64 47 45 48 48 49 63 50 83 51 46 52 47 53 62 55 84 56
REMARK SMILES IDX 49 57 32 58 33 59 42 60 34 61 35 62 41 63 43 64 36 65 37 66
REMARK SMILES IDX 38 67 39 68 40 69 66 70 67 71 76 72 68 73 69 74 75 75 77 76
REMARK SMILES IDX 70 77 71 78 72 79 73 80 74 81 50 82 51 83 60 84 52 85 53 86
REMARK SMILES IDX 59 87 61 88 54 89 55 90 56 91 57 92 58 93
REMARK H PARENT 16 7 20 24 82 43 48 54
REMARK Flexibility Score: inf
ROOT
ATOM      1  C   UNL A   1      40.098  23.037  27.144  1.00  0.00     0.118 C 
ENDROOT
BRANCH   1   2
ATOM      2  C   UNL A   1      38.904  22.450  26.384  1.00  0.00     0.042 C 
BRANCH   2   3
ATOM      3  C   UNL A   1      37.866  23.495  25.975  1.00  0.00     0.118 C 
BRANCH   3   4
ATOM      4  N   UNL A   1      37.524  23.373  24.571  1.00  0.00    -0.352 N 
ATOM      5  C   UNL A   1      36.468  22.886  23.848  1.00  0.00     0.253 C 
ATOM      6  O   UNL A   1      36.610  23.021  22.633  1.00  0.00    -0.269 OA
ATOM      7  H   UNL A   1      38.232  23.733  23.989  1.00  0.00     0.163 HD
BRANCH   5   8
ATOM      8  C   UNL A   1      35.221  22.279  24.422  1.00  0.00     0.066 A 
ATOM      9  C   UNL A   1      34.114  23.084  24.767  1.00  0.00     0.086 A 
ATOM     10  N   UNL A   1      33.006  22.587  25.402  1.00  0.00    -0.255 NA
ATOM     11  C   UNL A   1      32.961  21.272  25.675  1.00  0.00     0.112 A 
ATOM     12  C   UNL A   1      35.077  20.904  24.648  1.00  0.00     0.018 A 
ATOM     13  C   UNL A   1      33.953  20.394  25.297  1.00  0.00     0.021 A 
BRANCH   9  14
ATOM     14  C   UNL A   1      33.942  24.499  24.402  1.00  0.00     0.037 A 
ATOM     15  C   UNL A   1      33.918  27.906  26.142  1.00  0.00     0.044 C 
ATOM     16  C   UNL A   1      33.876  26.863  25.065  1.00  0.00    -0.050 A 
ATOM     17  C   UNL A   1      33.584  27.220  23.745  1.00  0.00     0.006 A 
ATOM     18  C   UNL A   1      34.089  25.512  25.374  1.00  0.00     0.016 A 
ATOM     19  C   UNL A   1      33.483  26.237  22.761  1.00  0.00     0.040 A 
ATOM     20  C   UNL A   1      33.652  24.894  23.093  1.00  0.00     0.132 A 
ATOM     21  F   UNL A   1      33.509  23.978  22.123  1.00  0.00    -0.206 F 
ENDBRANCH   9  14
ENDBRANCH   5   8
ENDBRANCH   3   4
ENDBRANCH   2   3
ENDBRANCH   1   2
BRANCH   1  22
ATOM     22  N   UNL A   1      41.127  23.541  26.245  1.00  0.00    -0.352 N 
ATOM     23  C   UNL A   1      41.693  24.787  26.152  1.00  0.00     0.251 C 
ATOM     24  H   UNL A   1      41.471  22.882  25.600  1.00  0.00     0.163 HD
ATOM     25  O   UNL A   1      42.360  25.069  25.159  1.00  0.00    -0.269 OA
BRANCH  23  26
ATOM     26  C   UNL A   1      41.513  25.786  27.227  1.00  0.00     0.039 A 
ATOM     27  C   UNL A   1      40.446  25.633  28.118  1.00  0.00     0.014 A 
ATOM     28  C   UNL A   1      42.347  26.904  27.323  1.00  0.00     0.014 A 
ATOM     29  C   UNL A   1      40.248  26.571  29.135  1.00  0.00     0.010 A 
ATOM     30  C   UNL A   1      42.186  27.804  28.375  1.00  0.00     0.010 A 
ATOM     31  C   UNL A   1      41.132  27.649  29.288  1.00  0.00    -0.014 A 
BRANCH  31  32
ATOM     32  C   UNL A   1      40.979  28.619  30.403  1.00  0.00     0.031 A 
ATOM     33  C   UNL A   1      41.828  28.499  31.639  1.00  0.00     0.074 A 
ATOM     34  C   UNL A   1      40.018  29.560  30.333  1.00  0.00     0.049 A 
ATOM     35  N   UNL A   1      41.783  29.198  32.744  1.00  0.00    -0.248 NA
ATOM     36  C   UNL A   1      42.840  27.431  31.645  1.00  0.00     0.031 C 
ATOM     37  C   UNL A   1      39.094  29.740  29.211  1.00  0.00     0.029 A 
ATOM     38  N   UNL A   1      39.645  30.529  31.230  1.00  0.00    -0.354 N 
ATOM     39  C   UNL A   1      42.741  28.644  33.585  1.00  0.00     0.074 A 
ATOM     40  C   UNL A   1      43.323  27.523  32.877  1.00  0.00     0.031 C 
ATOM     41  C   UNL A   1      38.268  30.762  29.483  1.00  0.00     0.029 A 
ATOM     42  C   UNL A   1      38.580  31.290  30.807  1.00  0.00     0.049 A 
ATOM     43  H   UNL A   1      40.097  30.667  32.093  1.00  0.00     0.167 HD
ATOM     44  C   UNL A   1      43.111  29.042  34.826  1.00  0.00     0.037 A 
ATOM     45  C   UNL A   1      37.920  32.291  31.421  1.00  0.00     0.037 A 
ATOM     46  C   UNL A   1      42.548  30.177  35.510  1.00  0.00     0.049 A 
ATOM     47  C   UNL A   1      38.368  32.737  32.785  1.00  0.00     0.074 A 
ATOM     48  C   UNL A   1      42.911  30.712  36.733  1.00  0.00     0.029 A 
ATOM     49  N   UNL A   1      41.499  30.949  35.033  1.00  0.00    -0.354 N 
ATOM     50  N   UNL A   1      39.328  32.250  33.535  1.00  0.00    -0.248 NA
ATOM     51  C   UNL A   1      37.654  33.874  33.381  1.00  0.00     0.031 C 
ATOM     52  C   UNL A   1      42.054  31.783  37.015  1.00  0.00     0.029 A 
ATOM     53  C   UNL A   1      41.185  31.943  35.946  1.00  0.00     0.049 A 
ATOM     54  H   UNL A   1      41.043  30.811  34.171  1.00  0.00     0.167 HD
ATOM     55  C   UNL A   1      39.344  33.031  34.685  1.00  0.00     0.074 A 
ATOM     56  C   UNL A   1      38.308  34.030  34.525  1.00  0.00     0.031 C 
ATOM     57  C   UNL A   1      40.146  32.928  35.773  1.00  0.00     0.037 A 
BRANCH  44  58
ATOM     58  C   UNL A   1      44.175  28.237  35.523  1.00  0.00     0.058 A 
ATOM     59  C   UNL A   1      43.855  27.167  36.374  1.00  0.00     0.135 A 
ATOM     60  C   UNL A   1      45.535  28.533  35.330  1.00  0.00     0.135 A 
ATOM     61  F   UNL A   1      42.572  26.846  36.604  1.00  0.00    -0.206 F 
ATOM     62  C   UNL A   1      44.840  26.448  37.043  1.00  0.00     0.059 A 
ATOM     63  C   UNL A   1      46.538  27.810  35.966  1.00  0.00     0.059 A 
ATOM     64  F   UNL A   1      45.899  29.544  34.524  1.00  0.00    -0.206 F 
ATOM     65  C   UNL A   1      46.180  26.782  36.838  1.00  0.00     0.060 A 
BRANCH  65  66
ATOM     66  S   UNL A   1      47.448  25.856  37.730  1.00  0.00     0.124 S 
ATOM     67  O   UNL A   1      48.185  26.933  38.384  1.00  0.00    -0.237 OA
ATOM     68  O   UNL A   1      46.655  25.006  38.612  1.00  0.00    -0.237 OA
ATOM     69  O   UNL A   1      48.167  25.156  36.669  1.00  0.00    -0.744 OA
ENDBRANCH  65  66
ENDBRANCH  44  58
BRANCH  45  70
ATOM     70  C   UNL A   1      36.783  32.948  30.727  1.00  0.00     0.058 A 
ATOM     71  C   UNL A   1      35.459  32.684  31.105  1.00  0.00     0.135 A 
ATOM     72  C   UNL A   1      37.000  33.895  29.714  1.00  0.00     0.135 A 
ATOM     73  F   UNL A   1      35.203  31.782  32.064  1.00  0.00    -0.206 F 
ATOM     74  C   UNL A   1      34.387  33.337  30.504  1.00  0.00     0.059 A 
ATOM     75  C   UNL A   1      35.946  34.576  29.114  1.00  0.00     0.059 A 
ATOM     76  F   UNL A   1      38.250  34.196  29.330  1.00  0.00    -0.206 F 
ATOM     77  C   UNL A   1      34.642  34.288  29.515  1.00  0.00     0.060 A 
BRANCH  77  78
ATOM     78  S   UNL A   1      33.250  35.196  28.807  1.00  0.00     0.124 S 
ATOM     79  O   UNL A   1      32.520  35.597  30.005  1.00  0.00    -0.237 OA
ATOM     80  O   UNL A   1      33.920  36.267  28.078  1.00  0.00    -0.237 OA
ATOM     81  O   UNL A   1      32.591  34.197  27.970  1.00  0.00    -0.744 OA
ENDBRANCH  77  78
ENDBRANCH  45  70
BRANCH  57  82
ATOM     82  C   UNL A   1      39.948  33.934  36.873  1.00  0.00     0.058 A 
ATOM     83  C   UNL A   1      40.550  35.201  36.827  1.00  0.00     0.135 A 
ATOM     84  C   UNL A   1      39.106  33.646  37.958  1.00  0.00     0.135 A 
ATOM     85  F   UNL A   1      41.371  35.523  35.814  1.00  0.00    -0.206 F 
ATOM     86  C   UNL A   1      40.340  36.142  37.831  1.00  0.00     0.059 A 
ATOM     87  C   UNL A   1      38.861  34.580  38.960  1.00  0.00     0.059 A 
ATOM     88  F   UNL A   1      38.498  32.451  38.045  1.00  0.00    -0.206 F 
ATOM     89  C   UNL A   1      39.493  35.821  38.893  1.00  0.00     0.060 A 
BRANCH  89  90
ATOM     90  S   UNL A   1      39.199  37.061  40.172  1.00  0.00     0.124 S 
ATOM     91  O   UNL A   1      38.401  36.308  41.133  1.00  0.00    -0.237 OA
ATOM     92  O   UNL A   1      40.554  37.399  40.600  1.00  0.00    -0.237 OA
ATOM     93  O   UNL A   1      38.491  38.121  39.461  1.00  0.00    -0.744 OA
ENDBRANCH  89  90
ENDBRANCH  57  82
ENDBRANCH  31  32
ENDBRANCH  23  26
ENDBRANCH   1  22
TORSDOF 14
ENDMDL
