MODEL 1
REMARK VINA RESULT:     -10.3      0.000      0.000
REMARK SMILES CCCOc1ccc(N[C@H](C)[C@H](C)C(=O)NCCCNC(=O)c2ccc(-c3c4nc(c(-c5c(F)cc(S(=O)(=O)[O-])cc5F)c5ccc([nH]5)c(-c5c(F)cc(S(=O)(=O)[O-])cc5F)c5nc(c(-c6c(F)cc(S(=O)(=O)[O-])cc6F)c6ccc3[nH]6)C=C5)C=C4)cc2)cc1
REMARK SMILES IDX 14 1 15 2 16 3 12 5 13 6 10 7 11 8 9 9 8 11 5 12 6 13 90 14
REMARK SMILES IDX 7 15 89 16 4 17 3 18 2 19 1 20 17 21 18 22 19 23 20 24 21 25
REMARK SMILES IDX 22 27 23 28 24 29 88 30 25 31 87 32 26 33 27 34 28 35 81 36
REMARK SMILES IDX 29 37 86 38 80 39 82 40 30 41 85 42 79 43 78 44 31 46 65 47
REMARK SMILES IDX 44 48 64 49 45 50 48 51 63 52 83 53 46 54 47 55 62 57 84 58
REMARK SMILES IDX 49 59 32 60 33 61 42 62 34 63 35 64 41 65 43 66 36 67 37 68
REMARK SMILES IDX 38 69 39 70 40 71 66 72 67 73 76 74 68 75 69 76 75 77 77 78
REMARK SMILES IDX 70 79 71 80 72 81 73 82 74 83 50 84 51 85 60 86 52 87 53 88
REMARK SMILES IDX 59 89 61 90 54 91 55 92 56 93 57 94 58 95
REMARK H PARENT 16 4 9 10 20 26 82 45 48 56
REMARK Flexibility Score: inf
ROOT
ATOM      1  C   UNL A   1      32.512  26.770  23.118  1.00  0.00     0.224 C 
ATOM      2  O   UNL A   1      32.677  26.589  21.909  1.00  0.00    -0.275 OA
ATOM      3  N   UNL A   1      33.596  26.664  23.927  1.00  0.00    -0.356 N 
ATOM      4  H   UNL A   1      34.439  26.465  23.459  1.00  0.00     0.163 HD
ENDROOT
BRANCH   1   5
ATOM      5  C   UNL A   1      31.145  27.135  23.662  1.00  0.00     0.097 C 
ATOM      6  C   UNL A   1      30.376  28.029  22.683  1.00  0.00     0.020 C 
BRANCH   5   7
ATOM      7  C   UNL A   1      30.381  25.881  24.139  1.00  0.00     0.088 C 
ATOM      8  C   UNL A   1      28.862  26.059  24.071  1.00  0.00     0.031 C 
BRANCH   7   9
ATOM      9  N   UNL A   1      30.763  24.750  23.309  1.00  0.00    -0.382 N 
ATOM     10  H   UNL A   1      30.688  24.853  22.333  1.00  0.00     0.160 HD
BRANCH   9  11
ATOM     11  C   UNL A   1      31.222  23.543  23.793  1.00  0.00     0.034 A 
ATOM     12  C   UNL A   1      32.213  21.162  24.961  1.00  0.00     0.119 A 
ATOM     13  C   UNL A   1      32.278  21.359  23.583  1.00  0.00     0.048 A 
ATOM     14  C   UNL A   1      31.546  22.103  25.732  1.00  0.00     0.048 A 
ATOM     15  C   UNL A   1      31.768  22.529  23.002  1.00  0.00     0.029 A 
ATOM     16  C   UNL A   1      31.090  23.292  25.159  1.00  0.00     0.029 A 
BRANCH  12  17
ATOM     17  O   UNL A   1      32.863  20.057  25.423  1.00  0.00    -0.494 OA
BRANCH  17  18
ATOM     18  C   UNL A   1      32.638  18.792  24.799  1.00  0.00     0.229 C 
BRANCH  18  19
ATOM     19  C   UNL A   1      33.924  18.107  24.313  1.00  0.00     0.038 C 
ATOM     20  C   UNL A   1      33.760  17.244  23.069  1.00  0.00     0.007 C 
ENDBRANCH  18  19
ENDBRANCH  17  18
ENDBRANCH  12  17
ENDBRANCH   9  11
ENDBRANCH   7   9
ENDBRANCH   5   7
ENDBRANCH   1   5
BRANCH   3  21
ATOM     21  C   UNL A   1      33.722  26.794  25.368  1.00  0.00     0.117 C 
BRANCH  21  22
ATOM     22  C   UNL A   1      33.927  28.234  25.792  1.00  0.00     0.042 C 
BRANCH  22  23
ATOM     23  C   UNL A   1      33.680  28.457  27.272  1.00  0.00     0.118 C 
BRANCH  23  24
ATOM     24  N   UNL A   1      33.626  29.871  27.621  1.00  0.00    -0.352 N 
ATOM     25  C   UNL A   1      34.566  30.654  28.247  1.00  0.00     0.251 C 
ATOM     26  H   UNL A   1      32.794  30.334  27.371  1.00  0.00     0.163 HD
ATOM     27  O   UNL A   1      34.262  31.770  28.650  1.00  0.00    -0.269 OA
BRANCH  25  28
ATOM     28  C   UNL A   1      35.932  30.128  28.447  1.00  0.00     0.039 A 
ATOM     29  C   UNL A   1      36.836  30.154  27.384  1.00  0.00     0.014 A 
ATOM     30  C   UNL A   1      36.325  29.634  29.693  1.00  0.00     0.014 A 
ATOM     31  C   UNL A   1      38.155  29.752  27.596  1.00  0.00     0.010 A 
ATOM     32  C   UNL A   1      37.662  29.344  29.930  1.00  0.00     0.010 A 
ATOM     33  C   UNL A   1      38.590  29.387  28.881  1.00  0.00    -0.014 A 
BRANCH  33  34
ATOM     34  C   UNL A   1      40.005  29.032  29.150  1.00  0.00     0.031 A 
ATOM     35  C   UNL A   1      40.940  30.060  29.728  1.00  0.00     0.074 A 
ATOM     36  C   UNL A   1      40.462  27.810  28.810  1.00  0.00     0.049 A 
ATOM     37  N   UNL A   1      42.224  29.971  29.960  1.00  0.00    -0.248 NA
ATOM     38  C   UNL A   1      40.364  31.376  30.058  1.00  0.00     0.031 C 
ATOM     39  C   UNL A   1      39.664  26.749  28.190  1.00  0.00     0.029 A 
ATOM     40  N   UNL A   1      41.712  27.257  28.927  1.00  0.00    -0.354 N 
ATOM     41  C   UNL A   1      42.607  31.214  30.449  1.00  0.00     0.074 A 
ATOM     42  C   UNL A   1      41.437  32.061  30.419  1.00  0.00     0.031 C 
ATOM     43  C   UNL A   1      40.437  25.667  28.006  1.00  0.00     0.029 A 
ATOM     44  C   UNL A   1      41.793  25.968  28.453  1.00  0.00     0.049 A 
ATOM     45  H   UNL A   1      42.479  27.736  29.315  1.00  0.00     0.167 HD
ATOM     46  C   UNL A   1      43.819  31.604  30.911  1.00  0.00     0.037 A 
ATOM     47  C   UNL A   1      42.844  25.129  28.375  1.00  0.00     0.037 A 
ATOM     48  C   UNL A   1      44.972  30.743  30.961  1.00  0.00     0.049 A 
ATOM     49  C   UNL A   1      44.182  25.586  28.891  1.00  0.00     0.074 A 
ATOM     50  C   UNL A   1      46.230  31.024  31.461  1.00  0.00     0.029 A 
ATOM     51  N   UNL A   1      45.007  29.438  30.493  1.00  0.00    -0.354 N 
ATOM     52  N   UNL A   1      44.512  26.744  29.411  1.00  0.00    -0.248 NA
ATOM     53  C   UNL A   1      45.287  24.622  28.819  1.00  0.00     0.031 C 
ATOM     54  C   UNL A   1      47.043  29.906  31.248  1.00  0.00     0.029 A 
ATOM     55  C   UNL A   1      46.274  28.906  30.672  1.00  0.00     0.049 A 
ATOM     56  H   UNL A   1      44.246  28.960  30.093  1.00  0.00     0.167 HD
ATOM     57  C   UNL A   1      45.855  26.639  29.753  1.00  0.00     0.074 A 
ATOM     58  C   UNL A   1      46.272  25.299  29.394  1.00  0.00     0.031 C 
ATOM     59  C   UNL A   1      46.670  27.567  30.314  1.00  0.00     0.037 A 
BRANCH  46  60
ATOM     60  C   UNL A   1      43.957  33.018  31.407  1.00  0.00     0.058 A 
ATOM     61  C   UNL A   1      44.397  34.056  30.570  1.00  0.00     0.135 A 
ATOM     62  C   UNL A   1      43.603  33.349  32.726  1.00  0.00     0.135 A 
ATOM     63  F   UNL A   1      44.766  33.795  29.305  1.00  0.00    -0.206 F 
ATOM     64  C   UNL A   1      44.504  35.365  31.028  1.00  0.00     0.059 A 
ATOM     65  C   UNL A   1      43.673  34.657  33.195  1.00  0.00     0.059 A 
ATOM     66  F   UNL A   1      43.180  32.395  33.572  1.00  0.00    -0.206 F 
ATOM     67  C   UNL A   1      44.136  35.657  32.342  1.00  0.00     0.060 A 
BRANCH  67  68
ATOM     68  S   UNL A   1      44.262  37.365  32.910  1.00  0.00     0.124 S 
ATOM     69  O   UNL A   1      43.303  37.377  34.011  1.00  0.00    -0.237 OA
ATOM     70  O   UNL A   1      45.666  37.462  33.291  1.00  0.00    -0.237 OA
ATOM     71  O   UNL A   1      43.877  38.143  31.736  1.00  0.00    -0.744 OA
ENDBRANCH  67  68
ENDBRANCH  46  60
BRANCH  47  72
ATOM     72  C   UNL A   1      42.666  23.768  27.801  1.00  0.00     0.058 A 
ATOM     73  C   UNL A   1      42.691  23.557  26.414  1.00  0.00     0.135 A 
ATOM     74  C   UNL A   1      42.484  22.647  28.628  1.00  0.00     0.135 A 
ATOM     75  F   UNL A   1      42.856  24.596  25.581  1.00  0.00    -0.206 F 
ATOM     76  C   UNL A   1      42.525  22.289  25.866  1.00  0.00     0.059 A 
ATOM     77  C   UNL A   1      42.345  21.365  28.103  1.00  0.00     0.059 A 
ATOM     78  F   UNL A   1      42.470  22.790  29.962  1.00  0.00    -0.206 F 
ATOM     79  C   UNL A   1      42.357  21.198  26.720  1.00  0.00     0.060 A 
BRANCH  79  80
ATOM     80  S   UNL A   1      42.191  19.551  25.998  1.00  0.00     0.124 S 
ATOM     81  O   UNL A   1      40.774  19.523  25.652  1.00  0.00    -0.237 OA
ATOM     82  O   UNL A   1      43.122  19.615  24.876  1.00  0.00    -0.237 OA
ATOM     83  O   UNL A   1      42.593  18.666  27.087  1.00  0.00    -0.744 OA
ENDBRANCH  79  80
ENDBRANCH  47  72
BRANCH  59  84
ATOM     84  C   UNL A   1      48.087  27.157  30.613  1.00  0.00     0.058 A 
ATOM     85  C   UNL A   1      49.104  27.258  29.653  1.00  0.00     0.135 A 
ATOM     86  C   UNL A   1      48.439  26.712  31.897  1.00  0.00     0.135 A 
ATOM     87  F   UNL A   1      48.822  27.673  28.407  1.00  0.00    -0.206 F 
ATOM     88  C   UNL A   1      50.418  26.908  29.948  1.00  0.00     0.059 A 
ATOM     89  C   UNL A   1      49.752  26.388  32.224  1.00  0.00     0.059 A 
ATOM     90  F   UNL A   1      47.506  26.607  32.858  1.00  0.00    -0.206 F 
ATOM     91  C   UNL A   1      50.733  26.477  31.238  1.00  0.00     0.060 A 
BRANCH  91  92
ATOM     92  S   UNL A   1      52.447  26.061  31.617  1.00  0.00     0.124 S 
ATOM     93  O   UNL A   1      53.077  26.193  30.308  1.00  0.00    -0.237 OA
ATOM     94  O   UNL A   1      52.805  27.079  32.599  1.00  0.00    -0.237 OA
ATOM     95  O   UNL A   1      52.360  24.699  32.137  1.00  0.00    -0.744 OA
ENDBRANCH  91  92
ENDBRANCH  59  84
ENDBRANCH  33  34
ENDBRANCH  25  28
ENDBRANCH  23  24
ENDBRANCH  22  23
ENDBRANCH  21  22
ENDBRANCH   3  21
TORSDOF 19
ENDMDL
MODEL 2
REMARK VINA RESULT:     -10.3      3.909     10.572
REMARK SMILES CCCOc1ccc(N[C@H](C)[C@H](C)C(=O)NCCCNC(=O)c2ccc(-c3c4nc(c(-c5c(F)cc(S(=O)(=O)[O-])cc5F)c5ccc([nH]5)c(-c5c(F)cc(S(=O)(=O)[O-])cc5F)c5nc(c(-c6c(F)cc(S(=O)(=O)[O-])cc6F)c6ccc3[nH]6)C=C5)C=C4)cc2)cc1
REMARK SMILES IDX 14 1 15 2 16 3 12 5 13 6 10 7 11 8 9 9 8 11 5 12 6 13 90 14
REMARK SMILES IDX 7 15 89 16 4 17 3 18 2 19 1 20 17 21 18 22 19 23 20 24 21 25
REMARK SMILES IDX 22 27 23 28 24 29 88 30 25 31 87 32 26 33 27 34 28 35 81 36
REMARK SMILES IDX 29 37 86 38 80 39 82 40 30 41 85 42 79 43 78 44 31 46 65 47
REMARK SMILES IDX 44 48 64 49 45 50 48 51 63 52 83 53 46 54 47 55 62 57 84 58
REMARK SMILES IDX 49 59 32 60 33 61 42 62 34 63 35 64 41 65 43 66 36 67 37 68
REMARK SMILES IDX 38 69 39 70 40 71 66 72 67 73 76 74 68 75 69 76 75 77 77 78
REMARK SMILES IDX 70 79 71 80 72 81 73 82 74 83 50 84 51 85 60 86 52 87 53 88
REMARK SMILES IDX 59 89 61 90 54 91 55 92 56 93 57 94 58 95
REMARK H PARENT 16 4 9 10 20 26 82 45 48 56
REMARK Flexibility Score: inf
ROOT
ATOM      1  C   UNL A   1      33.566  34.793  31.960  1.00  0.00     0.224 C 
ATOM      2  O   UNL A   1      32.784  34.224  32.725  1.00  0.00    -0.275 OA
ATOM      3  N   UNL A   1      33.447  34.542  30.631  1.00  0.00    -0.356 N 
ATOM      4  H   UNL A   1      32.715  33.926  30.395  1.00  0.00     0.163 HD
ENDROOT
BRANCH   1   5
ATOM      5  C   UNL A   1      34.596  35.767  32.496  1.00  0.00     0.097 C 
ATOM      6  C   UNL A   1      33.935  36.886  33.308  1.00  0.00     0.020 C 
BRANCH   5   7
ATOM      7  C   UNL A   1      35.742  35.027  33.219  1.00  0.00     0.088 C 
ATOM      8  C   UNL A   1      35.337  34.540  34.612  1.00  0.00     0.031 C 
BRANCH   7   9
ATOM      9  N   UNL A   1      36.146  33.883  32.417  1.00  0.00    -0.382 N 
ATOM     10  H   UNL A   1      35.769  33.803  31.511  1.00  0.00     0.160 HD
BRANCH   9  11
ATOM     11  C   UNL A   1      37.021  32.903  32.835  1.00  0.00     0.034 A 
ATOM     12  C   UNL A   1      38.655  30.783  33.761  1.00  0.00     0.119 A 
ATOM     13  C   UNL A   1      39.135  32.091  33.730  1.00  0.00     0.048 A 
ATOM     14  C   UNL A   1      37.405  30.526  33.217  1.00  0.00     0.048 A 
ATOM     15  C   UNL A   1      38.334  33.137  33.252  1.00  0.00     0.029 A 
ATOM     16  C   UNL A   1      36.588  31.577  32.794  1.00  0.00     0.029 A 
BRANCH  12  17
ATOM     17  O   UNL A   1      39.468  29.878  34.373  1.00  0.00    -0.494 OA
BRANCH  17  18
ATOM     18  C   UNL A   1      40.868  29.882  34.092  1.00  0.00     0.229 C 
BRANCH  18  19
ATOM     19  C   UNL A   1      41.345  28.644  33.317  1.00  0.00     0.038 C 
ATOM     20  C   UNL A   1      40.251  27.899  32.565  1.00  0.00     0.007 C 
ENDBRANCH  18  19
ENDBRANCH  17  18
ENDBRANCH  12  17
ENDBRANCH   9  11
ENDBRANCH   7   9
ENDBRANCH   5   7
ENDBRANCH   1   5
BRANCH   3  21
ATOM     21  C   UNL A   1      34.216  35.028  29.500  1.00  0.00     0.117 C 
BRANCH  21  22
ATOM     22  C   UNL A   1      34.515  33.928  28.502  1.00  0.00     0.042 C 
BRANCH  22  23
ATOM     23  C   UNL A   1      34.875  32.610  29.162  1.00  0.00     0.118 C 
BRANCH  23  24
ATOM     24  N   UNL A   1      34.087  31.496  28.648  1.00  0.00    -0.352 N 
ATOM     25  C   UNL A   1      34.504  30.275  28.175  1.00  0.00     0.251 C 
ATOM     26  H   UNL A   1      33.114  31.640  28.638  1.00  0.00     0.163 HD
ATOM     27  O   UNL A   1      33.717  29.547  27.584  1.00  0.00    -0.269 OA
BRANCH  25  28
ATOM     28  C   UNL A   1      35.910  29.864  28.367  1.00  0.00     0.039 A 
ATOM     29  C   UNL A   1      36.817  30.022  27.318  1.00  0.00     0.014 A 
ATOM     30  C   UNL A   1      36.335  29.346  29.593  1.00  0.00     0.014 A 
ATOM     31  C   UNL A   1      38.165  29.729  27.528  1.00  0.00     0.010 A 
ATOM     32  C   UNL A   1      37.690  29.165  29.834  1.00  0.00     0.010 A 
ATOM     33  C   UNL A   1      38.619  29.341  28.800  1.00  0.00    -0.014 A 
BRANCH  33  34
ATOM     34  C   UNL A   1      40.058  29.100  29.071  1.00  0.00     0.031 A 
ATOM     35  C   UNL A   1      40.676  27.774  28.717  1.00  0.00     0.074 A 
ATOM     36  C   UNL A   1      40.786  30.045  29.697  1.00  0.00     0.049 A 
ATOM     37  N   UNL A   1      41.889  27.341  28.944  1.00  0.00    -0.248 NA
ATOM     38  C   UNL A   1      39.807  26.790  28.048  1.00  0.00     0.031 C 
ATOM     39  C   UNL A   1      40.282  31.348  30.142  1.00  0.00     0.029 A 
ATOM     40  N   UNL A   1      42.104  30.054  30.079  1.00  0.00    -0.354 N 
ATOM     41  C   UNL A   1      41.924  26.040  28.459  1.00  0.00     0.074 A 
ATOM     42  C   UNL A   1      40.594  25.727  27.986  1.00  0.00     0.031 C 
ATOM     43  C   UNL A   1      41.284  32.037  30.711  1.00  0.00     0.029 A 
ATOM     44  C   UNL A   1      42.489  31.213  30.713  1.00  0.00     0.049 A 
ATOM     45  H   UNL A   1      42.718  29.303  29.915  1.00  0.00     0.167 HD
ATOM     46  C   UNL A   1      42.977  25.191  28.388  1.00  0.00     0.037 A 
ATOM     47  C   UNL A   1      43.674  31.567  31.246  1.00  0.00     0.037 A 
ATOM     48  C   UNL A   1      44.303  25.522  28.838  1.00  0.00     0.049 A 
ATOM     49  C   UNL A   1      44.829  30.607  31.157  1.00  0.00     0.074 A 
ATOM     50  C   UNL A   1      45.452  24.755  28.760  1.00  0.00     0.029 A 
ATOM     51  N   UNL A   1      44.658  26.714  29.452  1.00  0.00    -0.354 N 
ATOM     52  N   UNL A   1      44.861  29.403  30.637  1.00  0.00    -0.248 NA
ATOM     53  C   UNL A   1      46.110  31.054  31.719  1.00  0.00     0.031 C 
ATOM     54  C   UNL A   1      46.490  25.462  29.374  1.00  0.00     0.029 A 
ATOM     55  C   UNL A   1      46.003  26.696  29.779  1.00  0.00     0.049 A 
ATOM     56  H   UNL A   1      44.044  27.463  29.629  1.00  0.00     0.167 HD
ATOM     57  C   UNL A   1      46.170  28.960  30.783  1.00  0.00     0.074 A 
ATOM     58  C   UNL A   1      46.902  30.030  31.428  1.00  0.00     0.031 C 
ATOM     59  C   UNL A   1      46.718  27.774  30.417  1.00  0.00     0.037 A 
BRANCH  46  60
ATOM     60  C   UNL A   1      42.740  23.830  27.791  1.00  0.00     0.058 A 
ATOM     61  C   UNL A   1      42.867  23.595  26.413  1.00  0.00     0.135 A 
ATOM     62  C   UNL A   1      42.426  22.735  28.614  1.00  0.00     0.135 A 
ATOM     63  F   UNL A   1      43.148  24.607  25.577  1.00  0.00    -0.206 F 
ATOM     64  C   UNL A   1      42.667  22.330  25.868  1.00  0.00     0.059 A 
ATOM     65  C   UNL A   1      42.253  21.456  28.095  1.00  0.00     0.059 A 
ATOM     66  F   UNL A   1      42.288  22.903  29.940  1.00  0.00    -0.206 F 
ATOM     67  C   UNL A   1      42.365  21.266  26.718  1.00  0.00     0.060 A 
BRANCH  67  68
ATOM     68  S   UNL A   1      42.130  19.629  25.994  1.00  0.00     0.124 S 
ATOM     69  O   UNL A   1      43.020  19.692  24.838  1.00  0.00    -0.237 OA
ATOM     70  O   UNL A   1      42.557  18.748  27.076  1.00  0.00    -0.237 OA
ATOM     71  O   UNL A   1      40.704  19.594  25.686  1.00  0.00    -0.744 OA
ENDBRANCH  67  68
ENDBRANCH  46  60
BRANCH  47  72
ATOM     72  C   UNL A   1      43.829  32.897  31.895  1.00  0.00     0.058 A 
ATOM     73  C   UNL A   1      43.696  33.047  33.283  1.00  0.00     0.135 A 
ATOM     74  C   UNL A   1      44.129  34.044  31.141  1.00  0.00     0.135 A 
ATOM     75  F   UNL A   1      43.404  31.983  34.046  1.00  0.00    -0.206 F 
ATOM     76  C   UNL A   1      43.838  34.286  33.900  1.00  0.00     0.059 A 
ATOM     77  C   UNL A   1      44.304  35.288  31.739  1.00  0.00     0.059 A 
ATOM     78  F   UNL A   1      44.285  33.954  29.811  1.00  0.00    -0.206 F 
ATOM     79  C   UNL A   1      44.146  35.401  33.119  1.00  0.00     0.060 A 
BRANCH  79  80
ATOM     80  S   UNL A   1      44.375  36.994  33.937  1.00  0.00     0.124 S 
ATOM     81  O   UNL A   1      44.542  36.589  35.329  1.00  0.00    -0.237 OA
ATOM     82  O   UNL A   1      45.569  37.509  33.273  1.00  0.00    -0.237 OA
ATOM     83  O   UNL A   1      43.140  37.709  33.632  1.00  0.00    -0.744 OA
ENDBRANCH  79  80
ENDBRANCH  47  72
BRANCH  59  84
ATOM     84  C   UNL A   1      48.189  27.581  30.667  1.00  0.00     0.058 A 
ATOM     85  C   UNL A   1      49.159  28.019  29.753  1.00  0.00     0.135 A 
ATOM     86  C   UNL A   1      48.633  27.003  31.868  1.00  0.00     0.135 A 
ATOM     87  F   UNL A   1      48.790  28.573  28.588  1.00  0.00    -0.206 F 
ATOM     88  C   UNL A   1      50.518  27.867  30.009  1.00  0.00     0.059 A 
ATOM     89  C   UNL A   1      49.986  26.871  32.159  1.00  0.00     0.059 A 
ATOM     90  F   UNL A   1      47.747  26.578  32.783  1.00  0.00    -0.206 F 
ATOM     91  C   UNL A   1      50.922  27.295  31.217  1.00  0.00     0.060 A 
BRANCH  91  92
ATOM     92  S   UNL A   1      52.688  27.136  31.551  1.00  0.00     0.124 S 
ATOM     93  O   UNL A   1      52.871  28.100  32.631  1.00  0.00    -0.237 OA
ATOM     94  O   UNL A   1      52.809  25.731  31.927  1.00  0.00    -0.237 OA
ATOM     95  O   UNL A   1      53.309  27.494  30.278  1.00  0.00    -0.744 OA
ENDBRANCH  91  92
ENDBRANCH  59  84
ENDBRANCH  33  34
ENDBRANCH  25  28
ENDBRANCH  23  24
ENDBRANCH  22  23
ENDBRANCH  21  22
ENDBRANCH   3  21
TORSDOF 19
ENDMDL
MODEL 3
REMARK VINA RESULT:     -10.2      4.592     11.382
REMARK SMILES CCCOc1ccc(N[C@H](C)[C@H](C)C(=O)NCCCNC(=O)c2ccc(-c3c4nc(c(-c5c(F)cc(S(=O)(=O)[O-])cc5F)c5ccc([nH]5)c(-c5c(F)cc(S(=O)(=O)[O-])cc5F)c5nc(c(-c6c(F)cc(S(=O)(=O)[O-])cc6F)c6ccc3[nH]6)C=C5)C=C4)cc2)cc1
REMARK SMILES IDX 14 1 15 2 16 3 12 5 13 6 10 7 11 8 9 9 8 11 5 12 6 13 90 14
REMARK SMILES IDX 7 15 89 16 4 17 3 18 2 19 1 20 17 21 18 22 19 23 20 24 21 25
REMARK SMILES IDX 22 27 23 28 24 29 88 30 25 31 87 32 26 33 27 34 28 35 81 36
REMARK SMILES IDX 29 37 86 38 80 39 82 40 30 41 85 42 79 43 78 44 31 46 65 47
REMARK SMILES IDX 44 48 64 49 45 50 48 51 63 52 83 53 46 54 47 55 62 57 84 58
REMARK SMILES IDX 49 59 32 60 33 61 42 62 34 63 35 64 41 65 43 66 36 67 37 68
REMARK SMILES IDX 38 69 39 70 40 71 66 72 67 73 76 74 68 75 69 76 75 77 77 78
REMARK SMILES IDX 70 79 71 80 72 81 73 82 74 83 50 84 51 85 60 86 52 87 53 88
REMARK SMILES IDX 59 89 61 90 54 91 55 92 56 93 57 94 58 95
REMARK H PARENT 16 4 9 10 20 26 82 45 48 56
REMARK Flexibility Score: inf
ROOT
ATOM      1  C   UNL A   1      43.650  22.000  25.156  1.00  0.00     0.224 C 
ATOM      2  O   UNL A   1      43.455  22.718  24.172  1.00  0.00    -0.275 OA
ATOM      3  N   UNL A   1      42.692  21.095  25.479  1.00  0.00    -0.356 N 
ATOM      4  H   UNL A   1      41.918  21.082  24.869  1.00  0.00     0.163 HD
ENDROOT
BRANCH   1   5
ATOM      5  C   UNL A   1      44.938  22.112  25.948  1.00  0.00     0.097 C 
ATOM      6  C   UNL A   1      46.161  21.858  25.060  1.00  0.00     0.020 C 
BRANCH   5   7
ATOM      7  C   UNL A   1      44.983  23.425  26.759  1.00  0.00     0.088 C 
ATOM      8  C   UNL A   1      44.749  23.198  28.254  1.00  0.00     0.031 C 
BRANCH   7   9
ATOM      9  N   UNL A   1      46.282  24.052  26.573  1.00  0.00    -0.382 N 
ATOM     10  H   UNL A   1      47.039  23.699  27.095  1.00  0.00     0.160 HD
BRANCH   9  11
ATOM     11  C   UNL A   1      46.529  25.105  25.718  1.00  0.00     0.034 A 
ATOM     12  C   UNL A   1      47.235  27.256  24.018  1.00  0.00     0.119 A 
ATOM     13  C   UNL A   1      45.964  27.184  24.585  1.00  0.00     0.048 A 
ATOM     14  C   UNL A   1      48.104  26.192  24.208  1.00  0.00     0.048 A 
ATOM     15  C   UNL A   1      45.608  26.109  25.410  1.00  0.00     0.029 A 
ATOM     16  C   UNL A   1      47.767  25.149  25.075  1.00  0.00     0.029 A 
BRANCH  12  17
ATOM     17  O   UNL A   1      47.512  28.412  23.351  1.00  0.00    -0.494 OA
BRANCH  17  18
ATOM     18  C   UNL A   1      47.550  28.413  21.924  1.00  0.00     0.229 C 
BRANCH  18  19
ATOM     19  C   UNL A   1      48.946  28.139  21.345  1.00  0.00     0.038 C 
ATOM     20  C   UNL A   1      49.042  26.899  20.466  1.00  0.00     0.007 C 
ENDBRANCH  18  19
ENDBRANCH  17  18
ENDBRANCH  12  17
ENDBRANCH   9  11
ENDBRANCH   7   9
ENDBRANCH   5   7
ENDBRANCH   1   5
BRANCH   3  21
ATOM     21  C   UNL A   1      42.616  20.142  26.571  1.00  0.00     0.117 C 
BRANCH  21  22
ATOM     22  C   UNL A   1      41.315  20.261  27.339  1.00  0.00     0.042 C 
BRANCH  22  23
ATOM     23  C   UNL A   1      40.782  21.681  27.386  1.00  0.00     0.118 C 
BRANCH  23  24
ATOM     24  N   UNL A   1      39.561  21.844  26.607  1.00  0.00    -0.352 N 
ATOM     25  C   UNL A   1      38.761  22.952  26.457  1.00  0.00     0.251 C 
ATOM     26  H   UNL A   1      39.267  21.044  26.116  1.00  0.00     0.163 HD
ATOM     27  O   UNL A   1      37.659  22.843  25.935  1.00  0.00    -0.269 OA
BRANCH  25  28
ATOM     28  C   UNL A   1      39.235  24.261  26.950  1.00  0.00     0.039 A 
ATOM     29  C   UNL A   1      39.012  24.610  28.283  1.00  0.00     0.014 A 
ATOM     30  C   UNL A   1      39.920  25.132  26.099  1.00  0.00     0.014 A 
ATOM     31  C   UNL A   1      39.545  25.801  28.778  1.00  0.00     0.010 A 
ATOM     32  C   UNL A   1      40.544  26.257  26.621  1.00  0.00     0.010 A 
ATOM     33  C   UNL A   1      40.353  26.611  27.962  1.00  0.00    -0.014 A 
BRANCH  33  34
ATOM     34  C   UNL A   1      40.997  27.842  28.485  1.00  0.00     0.031 A 
ATOM     35  C   UNL A   1      42.497  27.926  28.570  1.00  0.00     0.074 A 
ATOM     36  C   UNL A   1      40.231  28.850  28.948  1.00  0.00     0.049 A 
ATOM     37  N   UNL A   1      43.244  28.876  29.069  1.00  0.00    -0.248 NA
ATOM     38  C   UNL A   1      43.260  26.774  28.057  1.00  0.00     0.031 C 
ATOM     39  C   UNL A   1      38.765  28.860  28.971  1.00  0.00     0.029 A 
ATOM     40  N   UNL A   1      40.577  30.059  29.497  1.00  0.00    -0.354 N 
ATOM     41  C   UNL A   1      44.555  28.435  28.940  1.00  0.00     0.074 A 
ATOM     42  C   UNL A   1      44.501  27.104  28.379  1.00  0.00     0.031 C 
ATOM     43  C   UNL A   1      38.341  30.026  29.482  1.00  0.00     0.029 A 
ATOM     44  C   UNL A   1      39.498  30.829  29.863  1.00  0.00     0.049 A 
ATOM     45  H   UNL A   1      41.510  30.349  29.617  1.00  0.00     0.167 HD
ATOM     46  C   UNL A   1      45.702  29.091  29.235  1.00  0.00     0.037 A 
ATOM     47  C   UNL A   1      39.446  32.041  30.450  1.00  0.00     0.037 A 
ATOM     48  C   UNL A   1      45.745  30.427  29.770  1.00  0.00     0.049 A 
ATOM     49  C   UNL A   1      40.734  32.750  30.772  1.00  0.00     0.074 A 
ATOM     50  C   UNL A   1      46.855  31.203  30.051  1.00  0.00     0.029 A 
ATOM     51  N   UNL A   1      44.631  31.183  30.104  1.00  0.00    -0.354 N 
ATOM     52  N   UNL A   1      41.967  32.344  30.584  1.00  0.00    -0.248 NA
ATOM     53  C   UNL A   1      40.625  34.084  31.377  1.00  0.00     0.031 C 
ATOM     54  C   UNL A   1      46.414  32.409  30.606  1.00  0.00     0.029 A 
ATOM     55  C   UNL A   1      45.027  32.409  30.612  1.00  0.00     0.049 A 
ATOM     56  H   UNL A   1      43.697  30.892  29.997  1.00  0.00     0.167 HD
ATOM     57  C   UNL A   1      42.781  33.383  31.021  1.00  0.00     0.074 A 
ATOM     58  C   UNL A   1      41.900  34.441  31.470  1.00  0.00     0.031 C 
ATOM     59  C   UNL A   1      44.136  33.455  31.049  1.00  0.00     0.037 A 
BRANCH  46  60
ATOM     60  C   UNL A   1      47.003  28.380  28.977  1.00  0.00     0.058 A 
ATOM     61  C   UNL A   1      47.598  27.554  29.944  1.00  0.00     0.135 A 
ATOM     62  C   UNL A   1      47.641  28.490  27.730  1.00  0.00     0.135 A 
ATOM     63  F   UNL A   1      47.042  27.426  31.159  1.00  0.00    -0.206 F 
ATOM     64  C   UNL A   1      48.790  26.882  29.694  1.00  0.00     0.059 A 
ATOM     65  C   UNL A   1      48.817  27.802  27.448  1.00  0.00     0.059 A 
ATOM     66  F   UNL A   1      47.118  29.270  26.769  1.00  0.00    -0.206 F 
ATOM     67  C   UNL A   1      49.391  27.010  28.441  1.00  0.00     0.060 A 
BRANCH  67  68
ATOM     68  S   UNL A   1      50.926  26.113  28.129  1.00  0.00     0.124 S 
ATOM     69  O   UNL A   1      51.525  26.089  29.460  1.00  0.00    -0.237 OA
ATOM     70  O   UNL A   1      50.441  24.832  27.628  1.00  0.00    -0.237 OA
ATOM     71  O   UNL A   1      51.614  26.947  27.148  1.00  0.00    -0.744 OA
ENDBRANCH  67  68
ENDBRANCH  46  60
BRANCH  47  72
ATOM     72  C   UNL A   1      38.130  32.663  30.755  1.00  0.00     0.058 A 
ATOM     73  C   UNL A   1      37.571  32.586  32.039  1.00  0.00     0.135 A 
ATOM     74  C   UNL A   1      37.410  33.362  29.772  1.00  0.00     0.135 A 
ATOM     75  F   UNL A   1      38.216  31.925  33.012  1.00  0.00    -0.206 F 
ATOM     76  C   UNL A   1      36.340  33.163  32.336  1.00  0.00     0.059 A 
ATOM     77  C   UNL A   1      36.191  33.972  30.052  1.00  0.00     0.059 A 
ATOM     78  F   UNL A   1      37.907  33.481  28.531  1.00  0.00    -0.206 F 
ATOM     79  C   UNL A   1      35.659  33.858  31.335  1.00  0.00     0.060 A 
BRANCH  79  80
ATOM     80  S   UNL A   1      34.086  34.644  31.745  1.00  0.00     0.124 S 
ATOM     81  O   UNL A   1      33.529  33.703  32.710  1.00  0.00    -0.237 OA
ATOM     82  O   UNL A   1      34.518  35.931  32.281  1.00  0.00    -0.237 OA
ATOM     83  O   UNL A   1      33.399  34.709  30.458  1.00  0.00    -0.744 OA
ENDBRANCH  79  80
ENDBRANCH  47  72
BRANCH  59  84
ATOM     84  C   UNL A   1      44.752  34.734  31.545  1.00  0.00     0.058 A 
ATOM     85  C   UNL A   1      45.008  35.814  30.687  1.00  0.00     0.135 A 
ATOM     86  C   UNL A   1      45.036  34.900  32.910  1.00  0.00     0.135 A 
ATOM     87  F   UNL A   1      44.760  35.708  29.372  1.00  0.00    -0.206 F 
ATOM     88  C   UNL A   1      45.548  37.006  31.161  1.00  0.00     0.059 A 
ATOM     89  C   UNL A   1      45.546  36.093  33.411  1.00  0.00     0.059 A 
ATOM     90  F   UNL A   1      44.800  33.902  33.778  1.00  0.00    -0.206 F 
ATOM     91  C   UNL A   1      45.810  37.137  32.526  1.00  0.00     0.060 A 
BRANCH  91  92
ATOM     92  S   UNL A   1      46.477  38.700  33.132  1.00  0.00     0.124 S 
ATOM     93  O   UNL A   1      47.769  38.750  32.456  1.00  0.00    -0.237 OA
ATOM     94  O   UNL A   1      45.483  39.663  32.669  1.00  0.00    -0.237 OA
ATOM     95  O   UNL A   1      46.532  38.510  34.579  1.00  0.00    -0.744 OA
ENDBRANCH  91  92
ENDBRANCH  59  84
ENDBRANCH  33  34
ENDBRANCH  25  28
ENDBRANCH  23  24
ENDBRANCH  22  23
ENDBRANCH  21  22
ENDBRANCH   3  21
TORSDOF 19
ENDMDL
