MODEL 1
REMARK VINA RESULT:     -12.1      0.000      0.000
REMARK SMILES O=C(NCCCNC(=O)c1c(F)cccc1Oc1cccc(Cl)c1)c1ccc(-c2c3nc(c(-c4c(F)cc(S(=O)(=O)[O-])cc4F)c4ccc([nH]4)c(-c4c(F)cc(S(=O)(=O)[O-])cc4F)c4nc(c(-c5c(F)cc(S(=O)(=O)[O-])cc5F)c5ccc2[nH]5)C=C4)C=C3)cc1
REMARK SMILES IDX 4 1 3 2 1 3 2 4 25 6 26 7 90 8 27 9 89 10 28 11 29 12 30 13
REMARK SMILES IDX 83 14 31 15 88 16 82 17 84 18 32 19 87 20 81 21 80 22 33 24
REMARK SMILES IDX 67 25 46 26 66 27 47 28 50 29 65 30 85 31 48 32 49 33 64 35
REMARK SMILES IDX 86 36 51 37 34 38 35 39 44 40 36 41 37 42 43 43 45 44 38 45
REMARK SMILES IDX 39 46 40 47 41 48 42 49 68 50 69 51 78 52 70 53 71 54 77 55
REMARK SMILES IDX 79 56 72 57 73 58 74 59 75 60 76 61 52 62 53 63 62 64 54 65
REMARK SMILES IDX 55 66 61 67 63 68 56 69 57 70 58 71 59 72 60 73 5 74 6 75
REMARK SMILES IDX 7 76 8 77 9 79 10 80 11 81 16 82 12 83 13 84 15 85 14 86
REMARK SMILES IDX 17 87 18 88 19 89 24 90 20 91 22 92 21 93 23 94
REMARK H PARENT 3 5 84 23 50 34 7 78
REMARK Flexibility Score: inf
ROOT
ATOM      1  C   UNL A   1      39.022  20.450  25.812  1.00  0.00     0.118 C 
ENDROOT
BRANCH   1   2
ATOM      2  N   UNL A   1      40.044  19.424  25.964  1.00  0.00    -0.352 N 
ATOM      3  O   UNL A   1      42.102  18.526  26.050  1.00  0.00    -0.269 OA
ATOM      4  C   UNL A   1      41.402  19.534  26.142  1.00  0.00     0.251 C 
ATOM      5  H   UNL A   1      39.707  18.500  25.936  1.00  0.00     0.163 HD
BRANCH   4   6
ATOM      6  C   UNL A   1      42.028  20.844  26.424  1.00  0.00     0.039 A 
ATOM      7  C   UNL A   1      42.327  21.735  25.392  1.00  0.00     0.014 A 
ATOM      8  C   UNL A   1      42.264  21.216  27.751  1.00  0.00     0.014 A 
ATOM      9  C   UNL A   1      42.983  22.929  25.668  1.00  0.00     0.010 A 
ATOM     10  C   UNL A   1      42.834  22.461  28.038  1.00  0.00     0.010 A 
ATOM     11  C   UNL A   1      43.210  23.322  26.996  1.00  0.00    -0.014 A 
BRANCH  11  12
ATOM     12  C   UNL A   1      43.720  24.688  27.272  1.00  0.00     0.031 A 
ATOM     13  C   UNL A   1      42.809  25.782  27.753  1.00  0.00     0.074 A 
ATOM     14  C   UNL A   1      45.033  24.929  27.075  1.00  0.00     0.049 A 
ATOM     15  N   UNL A   1      43.097  27.034  28.000  1.00  0.00    -0.248 NA
ATOM     16  C   UNL A   1      41.398  25.435  27.986  1.00  0.00     0.031 C 
ATOM     17  C   UNL A   1      46.004  23.939  26.595  1.00  0.00     0.029 A 
ATOM     18  N   UNL A   1      45.782  26.064  27.250  1.00  0.00    -0.354 N 
ATOM     19  C   UNL A   1      41.907  27.630  28.398  1.00  0.00     0.074 A 
ATOM     20  C   UNL A   1      40.886  26.605  28.350  1.00  0.00     0.031 C 
ATOM     21  C   UNL A   1      47.219  24.501  26.539  1.00  0.00     0.029 A 
ATOM     22  C   UNL A   1      47.104  25.908  26.904  1.00  0.00     0.049 A 
ATOM     23  H   UNL A   1      45.409  26.909  27.590  1.00  0.00     0.167 HD
ATOM     24  C   UNL A   1      41.698  28.914  28.774  1.00  0.00     0.037 A 
ATOM     25  C   UNL A   1      48.109  26.801  26.843  1.00  0.00     0.037 A 
ATOM     26  C   UNL A   1      42.734  29.913  28.840  1.00  0.00     0.049 A 
ATOM     27  C   UNL A   1      47.835  28.228  27.224  1.00  0.00     0.074 A 
ATOM     28  C   UNL A   1      42.630  31.224  29.273  1.00  0.00     0.029 A 
ATOM     29  N   UNL A   1      44.052  29.724  28.454  1.00  0.00    -0.354 N 
ATOM     30  N   UNL A   1      46.715  28.758  27.654  1.00  0.00    -0.248 NA
ATOM     31  C   UNL A   1      48.947  29.179  27.102  1.00  0.00     0.031 C 
ATOM     32  C   UNL A   1      43.869  31.842  29.094  1.00  0.00     0.029 A 
ATOM     33  C   UNL A   1      44.761  30.904  28.600  1.00  0.00     0.049 A 
ATOM     34  H   UNL A   1      44.428  28.875  28.125  1.00  0.00     0.167 HD
ATOM     35  C   UNL A   1      46.988  30.105  27.854  1.00  0.00     0.074 A 
ATOM     36  C   UNL A   1      48.383  30.304  27.524  1.00  0.00     0.031 C 
ATOM     37  C   UNL A   1      46.151  31.087  28.267  1.00  0.00     0.037 A 
BRANCH  24  38
ATOM     38  C   UNL A   1      40.306  29.343  29.149  1.00  0.00     0.058 A 
ATOM     39  C   UNL A   1      39.376  29.673  28.149  1.00  0.00     0.135 A 
ATOM     40  C   UNL A   1      39.942  29.571  30.484  1.00  0.00     0.135 A 
ATOM     41  F   UNL A   1      39.672  29.469  26.856  1.00  0.00    -0.206 F 
ATOM     42  C   UNL A   1      38.149  30.250  28.458  1.00  0.00     0.059 A 
ATOM     43  C   UNL A   1      38.710  30.129  30.818  1.00  0.00     0.059 A 
ATOM     44  F   UNL A   1      40.788  29.257  31.477  1.00  0.00    -0.206 F 
ATOM     45  C   UNL A   1      37.830  30.486  29.796  1.00  0.00     0.060 A 
BRANCH  45  46
ATOM     46  S   UNL A   1      36.246  31.264  30.179  1.00  0.00     0.124 S 
ATOM     47  O   UNL A   1      36.606  32.676  30.222  1.00  0.00    -0.237 OA
ATOM     48  O   UNL A   1      35.422  30.850  29.046  1.00  0.00    -0.237 OA
ATOM     49  O   UNL A   1      35.878  30.668  31.461  1.00  0.00    -0.744 OA
ENDBRANCH  45  46
ENDBRANCH  24  38
BRANCH  25  50
ATOM     50  C   UNL A   1      49.447  26.371  26.358  1.00  0.00     0.058 A 
ATOM     51  C   UNL A   1      50.337  25.692  27.207  1.00  0.00     0.135 A 
ATOM     52  C   UNL A   1      49.879  26.660  25.056  1.00  0.00     0.135 A 
ATOM     53  F   UNL A   1      49.977  25.400  28.467  1.00  0.00    -0.206 F 
ATOM     54  C   UNL A   1      51.616  25.341  26.793  1.00  0.00     0.059 A 
ATOM     55  C   UNL A   1      51.145  26.292  24.609  1.00  0.00     0.059 A 
ATOM     56  F   UNL A   1      49.061  27.299  24.206  1.00  0.00    -0.206 F 
ATOM     57  C   UNL A   1      52.011  25.647  25.491  1.00  0.00     0.060 A 
BRANCH  57  58
ATOM     58  S   UNL A   1      53.674  25.174  24.971  1.00  0.00     0.124 S 
ATOM     59  O   UNL A   1      53.584  23.717  25.002  1.00  0.00    -0.237 OA
ATOM     60  O   UNL A   1      53.763  25.777  23.645  1.00  0.00    -0.237 OA
ATOM     61  O   UNL A   1      54.528  25.774  25.990  1.00  0.00    -0.744 OA
ENDBRANCH  57  58
ENDBRANCH  25  50
BRANCH  37  62
ATOM     62  C   UNL A   1      46.707  32.477  28.384  1.00  0.00     0.058 A 
ATOM     63  C   UNL A   1      46.670  33.354  27.289  1.00  0.00     0.135 A 
ATOM     64  C   UNL A   1      47.381  32.894  29.541  1.00  0.00     0.135 A 
ATOM     65  F   UNL A   1      46.038  33.001  26.159  1.00  0.00    -0.206 F 
ATOM     66  C   UNL A   1      47.320  34.583  27.324  1.00  0.00     0.059 A 
ATOM     67  C   UNL A   1      48.016  34.130  29.607  1.00  0.00     0.059 A 
ATOM     68  F   UNL A   1      47.428  32.096  30.619  1.00  0.00    -0.206 F 
ATOM     69  C   UNL A   1      48.001  34.956  28.483  1.00  0.00     0.060 A 
BRANCH  69  70
ATOM     70  S   UNL A   1      48.873  36.536  28.494  1.00  0.00     0.124 S 
ATOM     71  O   UNL A   1      49.468  36.539  29.827  1.00  0.00    -0.237 OA
ATOM     72  O   UNL A   1      49.806  36.379  27.383  1.00  0.00    -0.237 OA
ATOM     73  O   UNL A   1      47.810  37.513  28.278  1.00  0.00    -0.744 OA
ENDBRANCH  69  70
ENDBRANCH  37  62
ENDBRANCH  11  12
ENDBRANCH   4   6
ENDBRANCH   1   2
BRANCH   1  74
ATOM     74  C   UNL A   1      37.827  19.976  25.000  1.00  0.00     0.042 C 
BRANCH  74  75
ATOM     75  C   UNL A   1      36.774  21.044  24.751  1.00  0.00     0.118 C 
BRANCH  75  76
ATOM     76  N   UNL A   1      36.146  21.539  25.969  1.00  0.00    -0.352 N 
ATOM     77  C   UNL A   1      34.947  22.196  26.117  1.00  0.00     0.258 C 
ATOM     78  H   UNL A   1      36.649  21.383  26.800  1.00  0.00     0.163 HD
ATOM     79  O   UNL A   1      34.461  22.366  27.234  1.00  0.00    -0.269 OA
BRANCH  77  80
ATOM     80  C   UNL A   1      34.226  22.662  24.928  1.00  0.00     0.118 A 
ATOM     81  C   UNL A   1      34.744  23.822  24.334  1.00  0.00     0.139 A 
ATOM     82  C   UNL A   1      33.096  22.045  24.373  1.00  0.00     0.143 A 
ATOM     83  F   UNL A   1      35.831  24.422  24.843  1.00  0.00    -0.206 F 
ATOM     84  C   UNL A   1      34.127  24.419  23.240  1.00  0.00     0.040 A 
ATOM     85  C   UNL A   1      32.491  22.654  23.254  1.00  0.00     0.048 A 
ATOM     86  C   UNL A   1      32.991  23.835  22.700  1.00  0.00     0.007 A 
BRANCH  82  87
ATOM     87  O   UNL A   1      32.417  20.905  24.747  1.00  0.00    -0.456 OA
BRANCH  87  88
ATOM     88  C   UNL A   1      32.728  19.687  24.211  1.00  0.00     0.128 A 
ATOM     89  C   UNL A   1      32.155  19.295  23.000  1.00  0.00     0.047 A 
ATOM     90  C   UNL A   1      33.719  18.912  24.814  1.00  0.00     0.067 A 
ATOM     91  C   UNL A   1      32.508  18.070  22.434  1.00  0.00     0.005 A 
ATOM     92  C   UNL A   1      34.074  17.695  24.237  1.00  0.00     0.044 A 
ATOM     93  C   UNL A   1      33.463  17.264  23.058  1.00  0.00     0.021 A 
ATOM     94  Cl  UNL A   1      35.285  16.719  24.975  1.00  0.00    -0.084 Cl
ENDBRANCH  87  88
ENDBRANCH  82  87
ENDBRANCH  77  80
ENDBRANCH  75  76
ENDBRANCH  74  75
ENDBRANCH   1  74
TORSDOF 15
ENDMDL
MODEL 2
REMARK VINA RESULT:     -12.1      6.180      8.600
REMARK SMILES O=C(NCCCNC(=O)c1c(F)cccc1Oc1cccc(Cl)c1)c1ccc(-c2c3nc(c(-c4c(F)cc(S(=O)(=O)[O-])cc4F)c4ccc([nH]4)c(-c4c(F)cc(S(=O)(=O)[O-])cc4F)c4nc(c(-c5c(F)cc(S(=O)(=O)[O-])cc5F)c5ccc2[nH]5)C=C4)C=C3)cc1
REMARK SMILES IDX 4 1 3 2 1 3 2 4 25 6 26 7 90 8 27 9 89 10 28 11 29 12 30 13
REMARK SMILES IDX 83 14 31 15 88 16 82 17 84 18 32 19 87 20 81 21 80 22 33 24
REMARK SMILES IDX 67 25 46 26 66 27 47 28 50 29 65 30 85 31 48 32 49 33 64 35
REMARK SMILES IDX 86 36 51 37 34 38 35 39 44 40 36 41 37 42 43 43 45 44 38 45
REMARK SMILES IDX 39 46 40 47 41 48 42 49 68 50 69 51 78 52 70 53 71 54 77 55
REMARK SMILES IDX 79 56 72 57 73 58 74 59 75 60 76 61 52 62 53 63 62 64 54 65
REMARK SMILES IDX 55 66 61 67 63 68 56 69 57 70 58 71 59 72 60 73 5 74 6 75
REMARK SMILES IDX 7 76 8 77 9 79 10 80 11 81 16 82 12 83 13 84 15 85 14 86
REMARK SMILES IDX 17 87 18 88 19 89 24 90 20 91 22 92 21 93 23 94
REMARK H PARENT 3 5 84 23 50 34 7 78
REMARK Flexibility Score: inf
ROOT
ATOM      1  C   UNL A   1      39.923  23.289  26.923  1.00  0.00     0.118 C 
ENDROOT
BRANCH   1   2
ATOM      2  N   UNL A   1      40.776  24.005  25.984  1.00  0.00    -0.352 N 
ATOM      3  O   UNL A   1      41.805  25.750  25.014  1.00  0.00    -0.269 OA
ATOM      4  C   UNL A   1      41.259  25.290  26.016  1.00  0.00     0.251 C 
ATOM      5  H   UNL A   1      41.054  23.481  25.198  1.00  0.00     0.163 HD
BRANCH   4   6
ATOM      6  C   UNL A   1      41.115  26.126  27.228  1.00  0.00     0.039 A 
ATOM      7  C   UNL A   1      41.985  27.189  27.475  1.00  0.00     0.014 A 
ATOM      8  C   UNL A   1      40.052  25.881  28.104  1.00  0.00     0.014 A 
ATOM      9  C   UNL A   1      41.880  27.917  28.655  1.00  0.00     0.010 A 
ATOM     10  C   UNL A   1      39.887  26.676  29.242  1.00  0.00     0.010 A 
ATOM     11  C   UNL A   1      40.809  27.693  29.533  1.00  0.00    -0.014 A 
BRANCH  11  12
ATOM     12  C   UNL A   1      40.602  28.618  30.676  1.00  0.00     0.031 A 
ATOM     13  C   UNL A   1      39.534  29.674  30.645  1.00  0.00     0.074 A 
ATOM     14  C   UNL A   1      41.405  28.489  31.752  1.00  0.00     0.049 A 
ATOM     15  N   UNL A   1      39.255  30.579  31.547  1.00  0.00    -0.248 NA
ATOM     16  C   UNL A   1      38.668  29.727  29.456  1.00  0.00     0.031 C 
ATOM     17  C   UNL A   1      42.485  27.503  31.879  1.00  0.00     0.029 A 
ATOM     18  N   UNL A   1      41.447  29.175  32.939  1.00  0.00    -0.354 N 
ATOM     19  C   UNL A   1      38.199  31.322  31.032  1.00  0.00     0.074 A 
ATOM     20  C   UNL A   1      37.891  30.769  29.731  1.00  0.00     0.031 C 
ATOM     21  C   UNL A   1      43.063  27.632  33.081  1.00  0.00     0.029 A 
ATOM     22  C   UNL A   1      42.449  28.754  33.781  1.00  0.00     0.049 A 
ATOM     23  H   UNL A   1      40.820  29.899  33.165  1.00  0.00     0.167 HD
ATOM     24  C   UNL A   1      37.550  32.362  31.605  1.00  0.00     0.037 A 
ATOM     25  C   UNL A   1      42.864  29.239  34.966  1.00  0.00     0.037 A 
ATOM     26  C   UNL A   1      37.856  32.881  32.914  1.00  0.00     0.049 A 
ATOM     27  C   UNL A   1      42.151  30.422  35.555  1.00  0.00     0.074 A 
ATOM     28  C   UNL A   1      37.208  33.891  33.605  1.00  0.00     0.029 A 
ATOM     29  N   UNL A   1      38.896  32.448  33.722  1.00  0.00    -0.354 N 
ATOM     30  N   UNL A   1      41.117  31.073  35.078  1.00  0.00    -0.248 NA
ATOM     31  C   UNL A   1      42.662  30.947  36.827  1.00  0.00     0.031 C 
ATOM     32  C   UNL A   1      37.891  34.107  34.804  1.00  0.00     0.029 A 
ATOM     33  C   UNL A   1      38.933  33.198  34.886  1.00  0.00     0.049 A 
ATOM     34  H   UNL A   1      39.516  31.716  33.501  1.00  0.00     0.167 HD
ATOM     35  C   UNL A   1      40.854  32.084  35.994  1.00  0.00     0.074 A 
ATOM     36  C   UNL A   1      41.819  31.943  37.063  1.00  0.00     0.031 C 
ATOM     37  C   UNL A   1      39.901  33.046  35.944  1.00  0.00     0.037 A 
BRANCH  24  38
ATOM     38  C   UNL A   1      36.439  33.031  30.845  1.00  0.00     0.058 A 
ATOM     39  C   UNL A   1      36.735  33.920  29.798  1.00  0.00     0.135 A 
ATOM     40  C   UNL A   1      35.099  32.912  31.244  1.00  0.00     0.135 A 
ATOM     41  F   UNL A   1      37.999  34.067  29.373  1.00  0.00    -0.206 F 
ATOM     42  C   UNL A   1      35.747  34.696  29.200  1.00  0.00     0.059 A 
ATOM     43  C   UNL A   1      34.091  33.665  30.646  1.00  0.00     0.059 A 
ATOM     44  F   UNL A   1      34.761  32.065  32.228  1.00  0.00    -0.206 F 
ATOM     45  C   UNL A   1      34.429  34.570  29.640  1.00  0.00     0.060 A 
BRANCH  45  46
ATOM     46  S   UNL A   1      33.164  35.607  28.874  1.00  0.00     0.124 S 
ATOM     47  O   UNL A   1      32.438  34.643  28.057  1.00  0.00    -0.237 OA
ATOM     48  O   UNL A   1      32.449  36.124  30.038  1.00  0.00    -0.237 OA
ATOM     49  O   UNL A   1      33.941  36.600  28.136  1.00  0.00    -0.744 OA
ENDBRANCH  45  46
ENDBRANCH  24  38
BRANCH  25  50
ATOM     50  C   UNL A   1      44.040  28.627  35.640  1.00  0.00     0.058 A 
ATOM     51  C   UNL A   1      45.346  29.038  35.323  1.00  0.00     0.135 A 
ATOM     52  C   UNL A   1      43.890  27.597  36.578  1.00  0.00     0.135 A 
ATOM     53  F   UNL A   1      45.546  30.013  34.421  1.00  0.00    -0.206 F 
ATOM     54  C   UNL A   1      46.460  28.432  35.891  1.00  0.00     0.059 A 
ATOM     55  C   UNL A   1      44.989  26.995  37.183  1.00  0.00     0.059 A 
ATOM     56  F   UNL A   1      42.662  27.177  36.919  1.00  0.00    -0.206 F 
ATOM     57  C   UNL A   1      46.270  27.410  36.820  1.00  0.00     0.060 A 
BRANCH  57  58
ATOM     58  S   UNL A   1      47.731  26.642  37.553  1.00  0.00     0.124 S 
ATOM     59  O   UNL A   1      48.739  27.677  37.344  1.00  0.00    -0.237 OA
ATOM     60  O   UNL A   1      47.308  26.437  38.935  1.00  0.00    -0.237 OA
ATOM     61  O   UNL A   1      47.903  25.427  36.764  1.00  0.00    -0.744 OA
ENDBRANCH  57  58
ENDBRANCH  25  50
BRANCH  37  62
ATOM     62  C   UNL A   1      39.846  34.036  37.070  1.00  0.00     0.058 A 
ATOM     63  C   UNL A   1      39.109  33.755  38.231  1.00  0.00     0.135 A 
ATOM     64  C   UNL A   1      40.425  35.308  36.947  1.00  0.00     0.135 A 
ATOM     65  F   UNL A   1      38.536  32.553  38.395  1.00  0.00    -0.206 F 
ATOM     66  C   UNL A   1      38.913  34.719  39.215  1.00  0.00     0.059 A 
ATOM     67  C   UNL A   1      40.263  36.279  37.931  1.00  0.00     0.059 A 
ATOM     68  F   UNL A   1      41.153  35.616  35.863  1.00  0.00    -0.206 F 
ATOM     69  C   UNL A   1      39.483  35.982  39.049  1.00  0.00     0.060 A 
BRANCH  69  70
ATOM     70  S   UNL A   1      39.182  37.231  40.316  1.00  0.00     0.124 S 
ATOM     71  O   UNL A   1      38.485  38.264  39.556  1.00  0.00    -0.237 OA
ATOM     72  O   UNL A   1      38.372  36.498  41.283  1.00  0.00    -0.237 OA
ATOM     73  O   UNL A   1      40.524  37.584  40.771  1.00  0.00    -0.744 OA
ENDBRANCH  69  70
ENDBRANCH  37  62
ENDBRANCH  11  12
ENDBRANCH   4   6
ENDBRANCH   1   2
BRANCH   1  74
ATOM     74  C   UNL A   1      38.739  22.615  26.247  1.00  0.00     0.042 C 
BRANCH  74  75
ATOM     75  C   UNL A   1      37.634  23.568  25.821  1.00  0.00     0.118 C 
BRANCH  75  76
ATOM     76  N   UNL A   1      37.152  23.335  24.466  1.00  0.00    -0.352 N 
ATOM     77  C   UNL A   1      35.859  23.317  24.000  1.00  0.00     0.258 C 
ATOM     78  H   UNL A   1      37.849  23.166  23.791  1.00  0.00     0.163 HD
ATOM     79  O   UNL A   1      35.630  23.311  22.792  1.00  0.00    -0.269 OA
BRANCH  77  80
ATOM     80  C   UNL A   1      34.746  23.347  24.954  1.00  0.00     0.118 A 
ATOM     81  C   UNL A   1      34.209  24.619  25.203  1.00  0.00     0.139 A 
ATOM     82  C   UNL A   1      34.209  22.229  25.607  1.00  0.00     0.143 A 
ATOM     83  F   UNL A   1      34.701  25.701  24.580  1.00  0.00    -0.206 F 
ATOM     84  C   UNL A   1      33.194  24.812  26.133  1.00  0.00     0.040 A 
ATOM     85  C   UNL A   1      33.170  22.439  26.536  1.00  0.00     0.048 A 
ATOM     86  C   UNL A   1      32.674  23.717  26.808  1.00  0.00     0.007 A 
BRANCH  82  87
ATOM     87  O   UNL A   1      34.536  20.892  25.522  1.00  0.00    -0.456 OA
BRANCH  87  88
ATOM     88  C   UNL A   1      33.844  20.043  24.705  1.00  0.00     0.128 A 
ATOM     89  C   UNL A   1      32.844  20.546  23.872  1.00  0.00     0.047 A 
ATOM     90  C   UNL A   1      34.242  18.709  24.616  1.00  0.00     0.067 A 
ATOM     91  C   UNL A   1      32.168  19.685  23.006  1.00  0.00     0.005 A 
ATOM     92  C   UNL A   1      33.569  17.858  23.742  1.00  0.00     0.044 A 
ATOM     93  C   UNL A   1      32.526  18.336  22.948  1.00  0.00     0.021 A 
ATOM     94  Cl  UNL A   1      34.038  16.204  23.630  1.00  0.00    -0.084 Cl
ENDBRANCH  87  88
ENDBRANCH  82  87
ENDBRANCH  77  80
ENDBRANCH  75  76
ENDBRANCH  74  75
ENDBRANCH   1  74
TORSDOF 15
ENDMDL
MODEL 3
REMARK VINA RESULT:     -12.1      4.085      9.080
REMARK SMILES O=C(NCCCNC(=O)c1c(F)cccc1Oc1cccc(Cl)c1)c1ccc(-c2c3nc(c(-c4c(F)cc(S(=O)(=O)[O-])cc4F)c4ccc([nH]4)c(-c4c(F)cc(S(=O)(=O)[O-])cc4F)c4nc(c(-c5c(F)cc(S(=O)(=O)[O-])cc5F)c5ccc2[nH]5)C=C4)C=C3)cc1
REMARK SMILES IDX 4 1 3 2 1 3 2 4 25 6 26 7 90 8 27 9 89 10 28 11 29 12 30 13
REMARK SMILES IDX 83 14 31 15 88 16 82 17 84 18 32 19 87 20 81 21 80 22 33 24
REMARK SMILES IDX 67 25 46 26 66 27 47 28 50 29 65 30 85 31 48 32 49 33 64 35
REMARK SMILES IDX 86 36 51 37 34 38 35 39 44 40 36 41 37 42 43 43 45 44 38 45
REMARK SMILES IDX 39 46 40 47 41 48 42 49 68 50 69 51 78 52 70 53 71 54 77 55
REMARK SMILES IDX 79 56 72 57 73 58 74 59 75 60 76 61 52 62 53 63 62 64 54 65
REMARK SMILES IDX 55 66 61 67 63 68 56 69 57 70 58 71 59 72 60 73 5 74 6 75
REMARK SMILES IDX 7 76 8 77 9 79 10 80 11 81 16 82 12 83 13 84 15 85 14 86
REMARK SMILES IDX 17 87 18 88 19 89 24 90 20 91 22 92 21 93 23 94
REMARK H PARENT 3 5 84 23 50 34 7 78
REMARK Flexibility Score: inf
ROOT
ATOM      1  C   UNL A   1      35.071  29.392  27.360  1.00  0.00     0.118 C 
ENDROOT
BRANCH   1   2
ATOM      2  N   UNL A   1      35.094  30.249  28.538  1.00  0.00    -0.352 N 
ATOM      3  O   UNL A   1      35.834  31.112  30.476  1.00  0.00    -0.269 OA
ATOM      4  C   UNL A   1      36.098  30.501  29.441  1.00  0.00     0.251 C 
ATOM      5  H   UNL A   1      34.252  30.727  28.716  1.00  0.00     0.163 HD
BRANCH   4   6
ATOM      6  C   UNL A   1      37.480  30.036  29.190  1.00  0.00     0.039 A 
ATOM      7  C   UNL A   1      38.007  30.010  27.898  1.00  0.00     0.014 A 
ATOM      8  C   UNL A   1      38.287  29.678  30.276  1.00  0.00     0.014 A 
ATOM      9  C   UNL A   1      39.280  29.500  27.673  1.00  0.00     0.010 A 
ATOM     10  C   UNL A   1      39.603  29.258  30.059  1.00  0.00     0.010 A 
ATOM     11  C   UNL A   1      40.106  29.153  28.754  1.00  0.00    -0.014 A 
BRANCH  11  12
ATOM     12  C   UNL A   1      41.528  28.811  28.500  1.00  0.00     0.031 A 
ATOM     13  C   UNL A   1      42.609  29.851  28.574  1.00  0.00     0.074 A 
ATOM     14  C   UNL A   1      41.829  27.532  28.196  1.00  0.00     0.049 A 
ATOM     15  N   UNL A   1      43.889  29.715  28.342  1.00  0.00    -0.248 NA
ATOM     16  C   UNL A   1      42.211  31.217  28.954  1.00  0.00     0.031 C 
ATOM     17  C   UNL A   1      40.851  26.443  28.084  1.00  0.00     0.029 A 
ATOM     18  N   UNL A   1      43.028  26.923  27.926  1.00  0.00    -0.354 N 
ATOM     19  C   UNL A   1      44.448  30.974  28.526  1.00  0.00     0.074 A 
ATOM     20  C   UNL A   1      43.366  31.868  28.881  1.00  0.00     0.031 C 
ATOM     21  C   UNL A   1      41.490  25.301  27.796  1.00  0.00     0.029 A 
ATOM     22  C   UNL A   1      42.910  25.585  27.627  1.00  0.00     0.049 A 
ATOM     23  H   UNL A   1      43.890  27.398  27.946  1.00  0.00     0.167 HD
ATOM     24  C   UNL A   1      45.747  31.338  28.415  1.00  0.00     0.037 A 
ATOM     25  C   UNL A   1      43.829  24.691  27.220  1.00  0.00     0.037 A 
ATOM     26  C   UNL A   1      46.814  30.426  28.086  1.00  0.00     0.049 A 
ATOM     27  C   UNL A   1      45.255  25.135  27.063  1.00  0.00     0.074 A 
ATOM     28  C   UNL A   1      48.171  30.690  28.016  1.00  0.00     0.029 A 
ATOM     29  N   UNL A   1      46.650  29.088  27.762  1.00  0.00    -0.354 N 
ATOM     30  N   UNL A   1      45.772  26.317  27.299  1.00  0.00    -0.248 NA
ATOM     31  C   UNL A   1      46.217  24.141  26.575  1.00  0.00     0.031 C 
ATOM     32  C   UNL A   1      48.820  29.528  27.593  1.00  0.00     0.029 A 
ATOM     33  C   UNL A   1      47.876  28.525  27.450  1.00  0.00     0.049 A 
ATOM     34  H   UNL A   1      45.789  28.610  27.754  1.00  0.00     0.167 HD
ATOM     35  C   UNL A   1      47.121  26.207  26.989  1.00  0.00     0.074 A 
ATOM     36  C   UNL A   1      47.345  24.838  26.573  1.00  0.00     0.031 C 
ATOM     37  C   UNL A   1      48.083  27.159  27.038  1.00  0.00     0.037 A 
BRANCH  24  38
ATOM     38  C   UNL A   1      46.121  32.776  28.644  1.00  0.00     0.058 A 
ATOM     39  C   UNL A   1      46.234  33.658  27.556  1.00  0.00     0.135 A 
ATOM     40  C   UNL A   1      46.509  33.243  29.909  1.00  0.00     0.135 A 
ATOM     41  F   UNL A   1      45.870  33.264  26.326  1.00  0.00    -0.206 F 
ATOM     42  C   UNL A   1      46.756  34.939  27.708  1.00  0.00     0.059 A 
ATOM     43  C   UNL A   1      47.016  34.528  30.087  1.00  0.00     0.059 A 
ATOM     44  F   UNL A   1      46.405  32.445  30.983  1.00  0.00    -0.206 F 
ATOM     45  C   UNL A   1      47.156  35.360  28.976  1.00  0.00     0.060 A 
BRANCH  45  46
ATOM     46  S   UNL A   1      47.861  37.014  29.151  1.00  0.00     0.124 S 
ATOM     47  O   UNL A   1      46.695  37.862  28.935  1.00  0.00    -0.237 OA
ATOM     48  O   UNL A   1      48.381  36.980  30.514  1.00  0.00    -0.237 OA
ATOM     49  O   UNL A   1      48.877  37.061  28.102  1.00  0.00    -0.744 OA
ENDBRANCH  45  46
ENDBRANCH  24  38
BRANCH  25  50
ATOM     50  C   UNL A   1      43.408  23.303  26.890  1.00  0.00     0.058 A 
ATOM     51  C   UNL A   1      43.113  22.380  27.906  1.00  0.00     0.135 A 
ATOM     52  C   UNL A   1      43.330  22.861  25.562  1.00  0.00     0.135 A 
ATOM     53  F   UNL A   1      43.184  22.749  29.195  1.00  0.00    -0.206 F 
ATOM     54  C   UNL A   1      42.783  21.060  27.620  1.00  0.00     0.059 A 
ATOM     55  C   UNL A   1      42.972  21.552  25.249  1.00  0.00     0.059 A 
ATOM     56  F   UNL A   1      43.593  23.710  24.557  1.00  0.00    -0.206 F 
ATOM     57  C   UNL A   1      42.717  20.656  26.287  1.00  0.00     0.060 A 
BRANCH  57  58
ATOM     58  S   UNL A   1      42.277  18.940  25.937  1.00  0.00     0.124 S 
ATOM     59  O   UNL A   1      40.832  19.042  25.754  1.00  0.00    -0.237 OA
ATOM     60  O   UNL A   1      43.053  18.665  24.732  1.00  0.00    -0.237 OA
ATOM     61  O   UNL A   1      42.711  18.231  27.136  1.00  0.00    -0.744 OA
ENDBRANCH  57  58
ENDBRANCH  25  50
BRANCH  37  62
ATOM     62  C   UNL A   1      49.474  26.771  26.627  1.00  0.00     0.058 A 
ATOM     63  C   UNL A   1      49.916  26.987  25.312  1.00  0.00     0.135 A 
ATOM     64  C   UNL A   1      50.323  26.079  27.503  1.00  0.00     0.135 A 
ATOM     65  F   UNL A   1      49.139  27.644  24.436  1.00  0.00    -0.206 F 
ATOM     66  C   UNL A   1      51.137  26.491  24.869  1.00  0.00     0.059 A 
ATOM     67  C   UNL A   1      51.560  25.597  27.088  1.00  0.00     0.059 A 
ATOM     68  F   UNL A   1      49.951  25.864  28.775  1.00  0.00    -0.206 F 
ATOM     69  C   UNL A   1      51.946  25.787  25.761  1.00  0.00     0.060 A 
BRANCH  69  70
ATOM     70  S   UNL A   1      53.508  25.115  25.155  1.00  0.00     0.124 S 
ATOM     71  O   UNL A   1      53.503  25.556  23.764  1.00  0.00    -0.237 OA
ATOM     72  O   UNL A   1      54.481  25.769  26.025  1.00  0.00    -0.237 OA
ATOM     73  O   UNL A   1      53.362  23.677  25.359  1.00  0.00    -0.744 OA
ENDBRANCH  69  70
ENDBRANCH  37  62
ENDBRANCH  11  12
ENDBRANCH   4   6
ENDBRANCH   1   2
BRANCH   1  74
ATOM     74  C   UNL A   1      33.669  28.935  26.991  1.00  0.00     0.042 C 
BRANCH  74  75
ATOM     75  C   UNL A   1      33.148  29.505  25.681  1.00  0.00     0.118 C 
BRANCH  75  76
ATOM     76  N   UNL A   1      33.756  28.905  24.501  1.00  0.00    -0.352 N 
ATOM     77  C   UNL A   1      33.201  28.038  23.590  1.00  0.00     0.258 C 
ATOM     78  H   UNL A   1      34.693  29.154  24.332  1.00  0.00     0.163 HD
ATOM     79  O   UNL A   1      33.780  27.784  22.535  1.00  0.00    -0.269 OA
BRANCH  77  80
ATOM     80  C   UNL A   1      31.888  27.444  23.864  1.00  0.00     0.118 A 
ATOM     81  C   UNL A   1      31.873  26.473  24.876  1.00  0.00     0.139 A 
ATOM     82  C   UNL A   1      30.697  27.772  23.202  1.00  0.00     0.143 A 
ATOM     83  F   UNL A   1      33.001  26.152  25.529  1.00  0.00    -0.206 F 
ATOM     84  C   UNL A   1      30.715  25.776  25.201  1.00  0.00     0.040 A 
ATOM     85  C   UNL A   1      29.528  27.067  23.553  1.00  0.00     0.048 A 
ATOM     86  C   UNL A   1      29.536  26.070  24.532  1.00  0.00     0.007 A 
BRANCH  82  87
ATOM     87  O   UNL A   1      30.443  28.690  22.204  1.00  0.00    -0.456 OA
BRANCH  87  88
ATOM     88  C   UNL A   1      29.724  29.825  22.452  1.00  0.00     0.128 A 
ATOM     89  C   UNL A   1      29.698  30.361  23.740  1.00  0.00     0.047 A 
ATOM     90  C   UNL A   1      29.141  30.507  21.384  1.00  0.00     0.067 A 
ATOM     91  C   UNL A   1      28.999  31.544  23.982  1.00  0.00     0.005 A 
ATOM     92  C   UNL A   1      28.453  31.693  21.631  1.00  0.00     0.044 A 
ATOM     93  C   UNL A   1      28.368  32.207  22.926  1.00  0.00     0.021 A 
ATOM     94  Cl  UNL A   1      27.714  32.540  20.327  1.00  0.00    -0.084 Cl
ENDBRANCH  87  88
ENDBRANCH  82  87
ENDBRANCH  77  80
ENDBRANCH  75  76
ENDBRANCH  74  75
ENDBRANCH   1  74
TORSDOF 15
ENDMDL
