MODEL 1
REMARK VINA RESULT:     -12.3      0.000      0.000
REMARK SMILES CC(C)=CCc1cccc2c(C(=O)NCCCNC(=O)c3ccc(-c4c5nc(c(-c6c(F)cc(S(=O)(=O)[O-])cc6F)c6ccc([nH]6)c(-c6c(F)cc(S(=O)(=O)[O-])cc6F)c6nc(c(-c7c(F)cc(S(=O)(=O)[O-])cc7F)c7ccc4[nH]7)C=C6)C=C5)cc3)c[nH]c12
REMARK SMILES IDX 16 1 15 2 14 3 12 4 13 5 11 7 6 8 7 9 89 10 8 11 10 12 88 13
REMARK SMILES IDX 9 14 87 15 5 17 4 18 1 19 2 20 3 21 17 22 18 23 19 24 20 26
REMARK SMILES IDX 21 27 22 28 86 29 23 30 85 31 24 32 25 33 26 34 79 35 27 36
REMARK SMILES IDX 84 37 78 38 80 39 28 40 83 41 77 42 76 43 29 45 63 46 42 47
REMARK SMILES IDX 62 48 43 49 46 50 61 51 81 52 44 53 45 54 60 56 82 57 47 58
REMARK SMILES IDX 30 59 31 60 40 61 32 62 33 63 39 64 41 65 34 66 35 67 36 68
REMARK SMILES IDX 37 69 38 70 64 71 65 72 74 73 66 74 67 75 73 76 75 77 68 78
REMARK SMILES IDX 69 79 70 80 71 81 72 82 48 83 49 84 58 85 50 86 51 87 57 88
REMARK SMILES IDX 59 89 52 90 53 91 54 92 55 93 56 94
REMARK H PARENT 14 6 88 16 18 25 80 44 46 55
REMARK Flexibility Score: inf
ROOT
ATOM      1  C   UNL A   1      33.919  28.132  25.939  1.00  0.00     0.042 C 
ENDROOT
BRANCH   1   2
ATOM      2  C   UNL A   1      33.466  26.795  25.404  1.00  0.00     0.118 C 
BRANCH   2   3
ATOM      3  N   UNL A   1      33.865  26.479  24.054  1.00  0.00    -0.352 N 
ATOM      4  C   UNL A   1      33.324  26.911  22.866  1.00  0.00     0.253 C 
ATOM      5  O   UNL A   1      33.868  26.514  21.832  1.00  0.00    -0.269 OA
ATOM      6  H   UNL A   1      34.632  25.867  23.972  1.00  0.00     0.163 HD
BRANCH   4   7
ATOM      7  C   UNL A   1      32.098  27.716  22.818  1.00  0.00     0.065 A 
ATOM      8  C   UNL A   1      28.563  28.674  22.920  1.00  0.00    -0.020 A 
ATOM      9  C   UNL A   1      27.923  27.556  23.485  1.00  0.00     0.006 A 
ATOM     10  C   UNL A   1      29.968  28.584  22.777  1.00  0.00     0.050 A 
ATOM     11  C   UNL A   1      28.649  26.512  24.037  1.00  0.00     0.001 A 
ATOM     12  C   UNL A   1      30.734  27.516  23.260  1.00  0.00     0.012 A 
ATOM     13  N   UNL A   1      30.852  29.467  22.200  1.00  0.00    -0.360 N 
ATOM     14  C   UNL A   1      30.045  26.530  24.004  1.00  0.00     0.011 A 
ATOM     15  C   UNL A   1      32.118  28.973  22.232  1.00  0.00     0.097 A 
ATOM     16  H   UNL A   1      30.600  30.340  21.817  1.00  0.00     0.166 HD
BRANCH   8  17
ATOM     17  C   UNL A   1      27.723  29.854  22.474  1.00  0.00     0.065 C 
BRANCH  17  18
ATOM     18  C   UNL A   1      28.201  31.146  23.089  1.00  0.00    -0.024 C 
ATOM     19  C   UNL A   1      28.033  32.520  21.004  1.00  0.00     0.039 C 
ATOM     20  C   UNL A   1      28.387  32.318  22.450  1.00  0.00    -0.080 C 
ATOM     21  C   UNL A   1      29.028  33.467  23.176  1.00  0.00     0.039 C 
ENDBRANCH  17  18
ENDBRANCH   8  17
ENDBRANCH   4   7
ENDBRANCH   2   3
ENDBRANCH   1   2
BRANCH   1  22
ATOM     22  C   UNL A   1      33.422  28.467  27.330  1.00  0.00     0.118 C 
BRANCH  22  23
ATOM     23  N   UNL A   1      33.477  29.890  27.652  1.00  0.00    -0.352 N 
ATOM     24  C   UNL A   1      34.493  30.673  28.151  1.00  0.00     0.251 C 
ATOM     25  H   UNL A   1      32.638  30.376  27.483  1.00  0.00     0.163 HD
ATOM     26  O   UNL A   1      34.250  31.838  28.466  1.00  0.00    -0.269 OA
BRANCH  24  27
ATOM     27  C   UNL A   1      35.855  30.126  28.347  1.00  0.00     0.039 A 
ATOM     28  C   UNL A   1      36.781  30.194  27.300  1.00  0.00     0.014 A 
ATOM     29  C   UNL A   1      36.232  29.547  29.556  1.00  0.00     0.014 A 
ATOM     30  C   UNL A   1      38.098  29.771  27.508  1.00  0.00     0.010 A 
ATOM     31  C   UNL A   1      37.568  29.269  29.809  1.00  0.00     0.010 A 
ATOM     32  C   UNL A   1      38.517  29.355  28.782  1.00  0.00    -0.014 A 
BRANCH  32  33
ATOM     33  C   UNL A   1      39.924  28.962  29.064  1.00  0.00     0.031 A 
ATOM     34  C   UNL A   1      40.866  29.962  29.691  1.00  0.00     0.074 A 
ATOM     35  C   UNL A   1      40.372  27.745  28.696  1.00  0.00     0.049 A 
ATOM     36  N   UNL A   1      42.149  29.856  29.921  1.00  0.00    -0.248 NA
ATOM     37  C   UNL A   1      40.299  31.267  30.074  1.00  0.00     0.031 C 
ATOM     38  C   UNL A   1      39.575  26.711  28.029  1.00  0.00     0.029 A 
ATOM     39  N   UNL A   1      41.612  27.172  28.821  1.00  0.00    -0.354 N 
ATOM     40  C   UNL A   1      42.538  31.079  30.457  1.00  0.00     0.074 A 
ATOM     41  C   UNL A   1      41.378  31.938  30.444  1.00  0.00     0.031 C 
ATOM     42  C   UNL A   1      40.335  25.620  27.842  1.00  0.00     0.029 A 
ATOM     43  C   UNL A   1      41.683  25.889  28.328  1.00  0.00     0.049 A 
ATOM     44  H   UNL A   1      42.381  27.635  29.227  1.00  0.00     0.167 HD
ATOM     45  C   UNL A   1      43.744  31.443  30.955  1.00  0.00     0.037 A 
ATOM     46  C   UNL A   1      42.721  25.031  28.273  1.00  0.00     0.037 A 
ATOM     47  C   UNL A   1      44.887  30.570  31.002  1.00  0.00     0.049 A 
ATOM     48  C   UNL A   1      44.053  25.461  28.827  1.00  0.00     0.074 A 
ATOM     49  C   UNL A   1      46.142  30.824  31.524  1.00  0.00     0.029 A 
ATOM     50  N   UNL A   1      44.908  29.270  30.518  1.00  0.00    -0.354 N 
ATOM     51  N   UNL A   1      44.388  26.605  29.377  1.00  0.00    -0.248 NA
ATOM     52  C   UNL A   1      45.148  24.484  28.761  1.00  0.00     0.031 C 
ATOM     53  C   UNL A   1      46.936  29.692  31.320  1.00  0.00     0.029 A 
ATOM     54  C   UNL A   1      46.159  28.714  30.719  1.00  0.00     0.049 A 
ATOM     55  H   UNL A   1      44.147  28.813  30.094  1.00  0.00     0.167 HD
ATOM     56  C   UNL A   1      45.719  26.469  29.757  1.00  0.00     0.074 A 
ATOM     57  C   UNL A   1      46.124  25.130  29.383  1.00  0.00     0.031 C 
ATOM     58  C   UNL A   1      46.535  27.369  30.360  1.00  0.00     0.037 A 
BRANCH  45  59
ATOM     59  C   UNL A   1      43.880  32.835  31.513  1.00  0.00     0.058 A 
ATOM     60  C   UNL A   1      43.690  33.098  32.880  1.00  0.00     0.135 A 
ATOM     61  C   UNL A   1      44.245  33.908  30.685  1.00  0.00     0.135 A 
ATOM     62  F   UNL A   1      43.321  32.114  33.714  1.00  0.00    -0.206 F 
ATOM     63  C   UNL A   1      43.833  34.379  33.401  1.00  0.00     0.059 A 
ATOM     64  C   UNL A   1      44.424  35.193  31.191  1.00  0.00     0.059 A 
ATOM     65  F   UNL A   1      44.434  33.715  29.371  1.00  0.00    -0.206 F 
ATOM     66  C   UNL A   1      44.205  35.420  32.549  1.00  0.00     0.060 A 
BRANCH  66  67
ATOM     67  S   UNL A   1      44.410  37.071  33.250  1.00  0.00     0.124 S 
ATOM     68  O   UNL A   1      45.259  36.794  34.404  1.00  0.00    -0.237 OA
ATOM     69  O   UNL A   1      45.046  37.795  32.154  1.00  0.00    -0.237 OA
ATOM     70  O   UNL A   1      43.045  37.482  33.560  1.00  0.00    -0.744 OA
ENDBRANCH  66  67
ENDBRANCH  45  59
BRANCH  46  71
ATOM     71  C   UNL A   1      42.543  23.668  27.698  1.00  0.00     0.058 A 
ATOM     72  C   UNL A   1      42.361  22.552  28.530  1.00  0.00     0.135 A 
ATOM     73  C   UNL A   1      42.572  23.447  26.312  1.00  0.00     0.135 A 
ATOM     74  F   UNL A   1      42.329  22.710  29.863  1.00  0.00    -0.206 F 
ATOM     75  C   UNL A   1      42.250  21.265  28.015  1.00  0.00     0.059 A 
ATOM     76  C   UNL A   1      42.433  22.172  25.770  1.00  0.00     0.059 A 
ATOM     77  F   UNL A   1      42.722  24.480  25.469  1.00  0.00    -0.206 F 
ATOM     78  C   UNL A   1      42.291  21.085  26.632  1.00  0.00     0.060 A 
BRANCH  78  79
ATOM     79  S   UNL A   1      42.134  19.412  25.971  1.00  0.00     0.124 S 
ATOM     80  O   UNL A   1      42.983  19.484  24.787  1.00  0.00    -0.237 OA
ATOM     81  O   UNL A   1      42.640  18.599  27.072  1.00  0.00    -0.237 OA
ATOM     82  O   UNL A   1      40.702  19.286  25.715  1.00  0.00    -0.744 OA
ENDBRANCH  78  79
ENDBRANCH  46  71
BRANCH  58  83
ATOM     83  C   UNL A   1      47.927  26.919  30.706  1.00  0.00     0.058 A 
ATOM     84  C   UNL A   1      49.005  27.104  29.829  1.00  0.00     0.135 A 
ATOM     85  C   UNL A   1      48.190  26.338  31.959  1.00  0.00     0.135 A 
ATOM     86  F   UNL A   1      48.807  27.649  28.619  1.00  0.00    -0.206 F 
ATOM     87  C   UNL A   1      50.293  26.700  30.168  1.00  0.00     0.059 A 
ATOM     88  C   UNL A   1      49.474  25.957  32.331  1.00  0.00     0.059 A 
ATOM     89  F   UNL A   1      47.195  26.152  32.841  1.00  0.00    -0.206 F 
ATOM     90  C   UNL A   1      50.517  26.129  31.422  1.00  0.00     0.060 A 
BRANCH  90  91
ATOM     91  S   UNL A   1      52.197  25.636  31.859  1.00  0.00     0.124 S 
ATOM     92  O   UNL A   1      52.926  25.961  30.638  1.00  0.00    -0.237 OA
ATOM     93  O   UNL A   1      52.481  26.485  33.013  1.00  0.00    -0.237 OA
ATOM     94  O   UNL A   1      52.069  24.212  32.155  1.00  0.00    -0.744 OA
ENDBRANCH  90  91
ENDBRANCH  58  83
ENDBRANCH  32  33
ENDBRANCH  24  27
ENDBRANCH  22  23
ENDBRANCH   1  22
TORSDOF 15
ENDMDL
MODEL 2
REMARK VINA RESULT:     -12.2      3.332      6.846
REMARK SMILES CC(C)=CCc1cccc2c(C(=O)NCCCNC(=O)c3ccc(-c4c5nc(c(-c6c(F)cc(S(=O)(=O)[O-])cc6F)c6ccc([nH]6)c(-c6c(F)cc(S(=O)(=O)[O-])cc6F)c6nc(c(-c7c(F)cc(S(=O)(=O)[O-])cc7F)c7ccc4[nH]7)C=C6)C=C5)cc3)c[nH]c12
REMARK SMILES IDX 16 1 15 2 14 3 12 4 13 5 11 7 6 8 7 9 89 10 8 11 10 12 88 13
REMARK SMILES IDX 9 14 87 15 5 17 4 18 1 19 2 20 3 21 17 22 18 23 19 24 20 26
REMARK SMILES IDX 21 27 22 28 86 29 23 30 85 31 24 32 25 33 26 34 79 35 27 36
REMARK SMILES IDX 84 37 78 38 80 39 28 40 83 41 77 42 76 43 29 45 63 46 42 47
REMARK SMILES IDX 62 48 43 49 46 50 61 51 81 52 44 53 45 54 60 56 82 57 47 58
REMARK SMILES IDX 30 59 31 60 40 61 32 62 33 63 39 64 41 65 34 66 35 67 36 68
REMARK SMILES IDX 37 69 38 70 64 71 65 72 74 73 66 74 67 75 73 76 75 77 68 78
REMARK SMILES IDX 69 79 70 80 71 81 72 82 48 83 49 84 58 85 50 86 51 87 57 88
REMARK SMILES IDX 59 89 52 90 53 91 54 92 55 93 56 94
REMARK H PARENT 14 6 88 16 18 25 80 44 46 55
REMARK Flexibility Score: inf
ROOT
ATOM      1  C   UNL A   1      34.672  32.779  29.817  1.00  0.00     0.042 C 
ENDROOT
BRANCH   1   2
ATOM      2  C   UNL A   1      35.730  33.808  30.135  1.00  0.00     0.118 C 
BRANCH   2   3
ATOM      3  N   UNL A   1      35.540  34.565  31.349  1.00  0.00    -0.352 N 
ATOM      4  C   UNL A   1      36.329  34.614  32.473  1.00  0.00     0.253 C 
ATOM      5  O   UNL A   1      35.960  35.367  33.378  1.00  0.00    -0.269 OA
ATOM      6  H   UNL A   1      34.730  35.125  31.376  1.00  0.00     0.163 HD
BRANCH   4   7
ATOM      7  C   UNL A   1      37.495  33.738  32.642  1.00  0.00     0.065 A 
ATOM      8  C   UNL A   1      39.560  30.803  33.381  1.00  0.00    -0.020 A 
ATOM      9  C   UNL A   1      38.633  29.749  33.473  1.00  0.00     0.006 A 
ATOM     10  C   UNL A   1      39.027  32.079  33.079  1.00  0.00     0.050 A 
ATOM     11  C   UNL A   1      37.307  29.920  33.105  1.00  0.00     0.001 A 
ATOM     12  C   UNL A   1      37.682  32.308  32.766  1.00  0.00     0.012 A 
ATOM     13  N   UNL A   1      39.659  33.299  32.997  1.00  0.00    -0.360 N 
ATOM     14  C   UNL A   1      36.852  31.167  32.672  1.00  0.00     0.011 A 
ATOM     15  C   UNL A   1      38.767  34.287  32.724  1.00  0.00     0.097 A 
ATOM     16  H   UNL A   1      40.627  33.436  33.120  1.00  0.00     0.166 HD
BRANCH   8  17
ATOM     17  C   UNL A   1      41.024  30.519  33.647  1.00  0.00     0.065 C 
BRANCH  17  18
ATOM     18  C   UNL A   1      41.462  29.213  33.032  1.00  0.00    -0.024 C 
ATOM     19  C   UNL A   1      43.837  29.325  33.814  1.00  0.00     0.039 C 
ATOM     20  C   UNL A   1      42.705  28.692  33.056  1.00  0.00    -0.080 C 
ATOM     21  C   UNL A   1      43.011  27.461  32.250  1.00  0.00     0.039 C 
ENDBRANCH  17  18
ENDBRANCH   8  17
ENDBRANCH   4   7
ENDBRANCH   2   3
ENDBRANCH   1   2
BRANCH   1  22
ATOM     22  C   UNL A   1      34.431  32.543  28.341  1.00  0.00     0.118 C 
BRANCH  22  23
ATOM     23  N   UNL A   1      33.896  31.220  28.031  1.00  0.00    -0.352 N 
ATOM     24  C   UNL A   1      34.509  29.994  27.910  1.00  0.00     0.251 C 
ATOM     25  H   UNL A   1      32.924  31.202  27.882  1.00  0.00     0.163 HD
ATOM     26  O   UNL A   1      33.852  29.035  27.506  1.00  0.00    -0.269 OA
BRANCH  24  27
ATOM     27  C   UNL A   1      35.947  29.824  28.220  1.00  0.00     0.039 A 
ATOM     28  C   UNL A   1      36.329  29.377  29.489  1.00  0.00     0.014 A 
ATOM     29  C   UNL A   1      36.927  30.099  27.269  1.00  0.00     0.014 A 
ATOM     30  C   UNL A   1      37.677  29.117  29.759  1.00  0.00     0.010 A 
ATOM     31  C   UNL A   1      38.239  29.701  27.486  1.00  0.00     0.010 A 
ATOM     32  C   UNL A   1      38.638  29.226  28.741  1.00  0.00    -0.014 A 
BRANCH  32  33
ATOM     33  C   UNL A   1      40.070  28.895  28.966  1.00  0.00     0.031 A 
ATOM     34  C   UNL A   1      41.005  29.950  29.506  1.00  0.00     0.074 A 
ATOM     35  C   UNL A   1      40.545  27.681  28.621  1.00  0.00     0.049 A 
ATOM     36  N   UNL A   1      42.300  29.900  29.675  1.00  0.00    -0.248 NA
ATOM     37  C   UNL A   1      40.409  31.249  29.869  1.00  0.00     0.031 C 
ATOM     38  C   UNL A   1      39.755  26.594  28.035  1.00  0.00     0.029 A 
ATOM     39  N   UNL A   1      41.811  27.157  28.704  1.00  0.00    -0.354 N 
ATOM     40  C   UNL A   1      42.670  31.155  30.145  1.00  0.00     0.074 A 
ATOM     41  C   UNL A   1      41.479  31.972  30.159  1.00  0.00     0.031 C 
ATOM     42  C   UNL A   1      40.546  25.524  27.850  1.00  0.00     0.029 A 
ATOM     43  C   UNL A   1      41.905  25.859  28.257  1.00  0.00     0.049 A 
ATOM     44  H   UNL A   1      42.581  27.663  29.053  1.00  0.00     0.167 HD
ATOM     45  C   UNL A   1      43.885  31.581  30.566  1.00  0.00     0.037 A 
ATOM     46  C   UNL A   1      42.970  25.037  28.180  1.00  0.00     0.037 A 
ATOM     47  C   UNL A   1      45.060  30.752  30.588  1.00  0.00     0.049 A 
ATOM     48  C   UNL A   1      44.311  25.536  28.649  1.00  0.00     0.074 A 
ATOM     49  C   UNL A   1      46.329  31.070  31.036  1.00  0.00     0.029 A 
ATOM     50  N   UNL A   1      45.106  29.435  30.152  1.00  0.00    -0.354 N 
ATOM     51  N   UNL A   1      44.630  26.711  29.139  1.00  0.00    -0.248 NA
ATOM     52  C   UNL A   1      45.437  24.596  28.564  1.00  0.00     0.031 C 
ATOM     53  C   UNL A   1      47.154  29.960  30.834  1.00  0.00     0.029 A 
ATOM     54  C   UNL A   1      46.385  28.932  30.310  1.00  0.00     0.049 A 
ATOM     55  H   UNL A   1      44.342  28.935  29.784  1.00  0.00     0.167 HD
ATOM     56  C   UNL A   1      45.982  26.637  29.455  1.00  0.00     0.074 A 
ATOM     57  C   UNL A   1      46.417  25.300  29.112  1.00  0.00     0.031 C 
ATOM     58  C   UNL A   1      46.792  27.588  29.982  1.00  0.00     0.037 A 
BRANCH  45  59
ATOM     59  C   UNL A   1      43.996  32.997  31.065  1.00  0.00     0.058 A 
ATOM     60  C   UNL A   1      44.335  34.054  30.203  1.00  0.00     0.135 A 
ATOM     61  C   UNL A   1      43.722  33.310  32.406  1.00  0.00     0.135 A 
ATOM     62  F   UNL A   1      44.627  33.810  28.916  1.00  0.00    -0.206 F 
ATOM     63  C   UNL A   1      44.421  35.365  30.657  1.00  0.00     0.059 A 
ATOM     64  C   UNL A   1      43.771  34.620  32.875  1.00  0.00     0.059 A 
ATOM     65  F   UNL A   1      43.398  32.339  33.275  1.00  0.00    -0.206 F 
ATOM     66  C   UNL A   1      44.132  35.639  31.995  1.00  0.00     0.060 A 
BRANCH  66  67
ATOM     67  S   UNL A   1      44.224  37.351  32.559  1.00  0.00     0.124 S 
ATOM     68  O   UNL A   1      45.635  37.465  32.915  1.00  0.00    -0.237 OA
ATOM     69  O   UNL A   1      43.807  38.092  31.373  1.00  0.00    -0.237 OA
ATOM     70  O   UNL A   1      43.290  37.391  33.680  1.00  0.00    -0.744 OA
ENDBRANCH  66  67
ENDBRANCH  45  59
BRANCH  46  71
ATOM     71  C   UNL A   1      42.815  23.647  27.666  1.00  0.00     0.058 A 
ATOM     72  C   UNL A   1      42.907  23.373  26.292  1.00  0.00     0.135 A 
ATOM     73  C   UNL A   1      42.551  22.571  28.528  1.00  0.00     0.135 A 
ATOM     74  F   UNL A   1      43.156  24.367  25.426  1.00  0.00    -0.206 F 
ATOM     75  C   UNL A   1      42.710  22.091  25.788  1.00  0.00     0.059 A 
ATOM     76  C   UNL A   1      42.380  21.275  28.050  1.00  0.00     0.059 A 
ATOM     77  F   UNL A   1      42.473  22.773  29.852  1.00  0.00    -0.206 F 
ATOM     78  C   UNL A   1      42.442  21.049  26.676  1.00  0.00     0.060 A 
BRANCH  78  79
ATOM     79  S   UNL A   1      42.199  19.387  26.012  1.00  0.00     0.124 S 
ATOM     80  O   UNL A   1      40.754  19.360  25.812  1.00  0.00    -0.237 OA
ATOM     81  O   UNL A   1      43.012  19.419  24.801  1.00  0.00    -0.237 OA
ATOM     82  O   UNL A   1      42.706  18.524  27.076  1.00  0.00    -0.744 OA
ENDBRANCH  78  79
ENDBRANCH  46  71
BRANCH  58  83
ATOM     83  C   UNL A   1      48.216  27.202  30.273  1.00  0.00     0.058 A 
ATOM     84  C   UNL A   1      49.216  27.263  29.293  1.00  0.00     0.135 A 
ATOM     85  C   UNL A   1      48.590  26.810  31.571  1.00  0.00     0.135 A 
ATOM     86  F   UNL A   1      48.912  27.627  28.038  1.00  0.00    -0.206 F 
ATOM     87  C   UNL A   1      50.534  26.921  29.579  1.00  0.00     0.059 A 
ATOM     88  C   UNL A   1      49.906  26.495  31.887  1.00  0.00     0.059 A 
ATOM     89  F   UNL A   1      47.673  26.747  32.549  1.00  0.00    -0.206 F 
ATOM     90  C   UNL A   1      50.869  26.539  30.880  1.00  0.00     0.060 A 
BRANCH  90  91
ATOM     91  S   UNL A   1      52.588  26.125  31.244  1.00  0.00     0.124 S 
ATOM     92  O   UNL A   1      53.198  26.216  29.922  1.00  0.00    -0.237 OA
ATOM     93  O   UNL A   1      52.967  27.170  32.190  1.00  0.00    -0.237 OA
ATOM     94  O   UNL A   1      52.503  24.781  31.806  1.00  0.00    -0.744 OA
ENDBRANCH  90  91
ENDBRANCH  58  83
ENDBRANCH  32  33
ENDBRANCH  24  27
ENDBRANCH  22  23
ENDBRANCH   1  22
TORSDOF 15
ENDMDL
MODEL 3
REMARK VINA RESULT:     -12.0      2.417      4.239
REMARK SMILES CC(C)=CCc1cccc2c(C(=O)NCCCNC(=O)c3ccc(-c4c5nc(c(-c6c(F)cc(S(=O)(=O)[O-])cc6F)c6ccc([nH]6)c(-c6c(F)cc(S(=O)(=O)[O-])cc6F)c6nc(c(-c7c(F)cc(S(=O)(=O)[O-])cc7F)c7ccc4[nH]7)C=C6)C=C5)cc3)c[nH]c12
REMARK SMILES IDX 16 1 15 2 14 3 12 4 13 5 11 7 6 8 7 9 89 10 8 11 10 12 88 13
REMARK SMILES IDX 9 14 87 15 5 17 4 18 1 19 2 20 3 21 17 22 18 23 19 24 20 26
REMARK SMILES IDX 21 27 22 28 86 29 23 30 85 31 24 32 25 33 26 34 79 35 27 36
REMARK SMILES IDX 84 37 78 38 80 39 28 40 83 41 77 42 76 43 29 45 63 46 42 47
REMARK SMILES IDX 62 48 43 49 46 50 61 51 81 52 44 53 45 54 60 56 82 57 47 58
REMARK SMILES IDX 30 59 31 60 40 61 32 62 33 63 39 64 41 65 34 66 35 67 36 68
REMARK SMILES IDX 37 69 38 70 64 71 65 72 74 73 66 74 67 75 73 76 75 77 68 78
REMARK SMILES IDX 69 79 70 80 71 81 72 82 48 83 49 84 58 85 50 86 51 87 57 88
REMARK SMILES IDX 59 89 52 90 53 91 54 92 55 93 56 94
REMARK H PARENT 14 6 88 16 18 25 80 44 46 55
REMARK Flexibility Score: inf
ROOT
ATOM      1  C   UNL A   1      33.946  28.279  25.667  1.00  0.00     0.042 C 
ENDROOT
BRANCH   1   2
ATOM      2  C   UNL A   1      33.066  27.393  24.817  1.00  0.00     0.118 C 
BRANCH   2   3
ATOM      3  N   UNL A   1      33.402  27.314  23.417  1.00  0.00    -0.352 N 
ATOM      4  C   UNL A   1      33.401  26.220  22.584  1.00  0.00     0.253 C 
ATOM      5  O   UNL A   1      33.706  26.419  21.406  1.00  0.00    -0.269 OA
ATOM      6  H   UNL A   1      33.670  28.165  22.997  1.00  0.00     0.163 HD
BRANCH   4   7
ATOM      7  C   UNL A   1      33.155  24.863  23.086  1.00  0.00     0.065 A 
ATOM      8  C   UNL A   1      33.717  21.479  24.374  1.00  0.00    -0.020 A 
ATOM      9  C   UNL A   1      35.073  21.478  24.749  1.00  0.00     0.006 A 
ATOM     10  C   UNL A   1      33.215  22.694  23.849  1.00  0.00     0.050 A 
ATOM     11  C   UNL A   1      35.815  22.649  24.776  1.00  0.00     0.001 A 
ATOM     12  C   UNL A   1      33.952  23.883  23.795  1.00  0.00     0.012 A 
ATOM     13  N   UNL A   1      31.972  22.982  23.334  1.00  0.00    -0.360 N 
ATOM     14  C   UNL A   1      35.237  23.858  24.385  1.00  0.00     0.011 A 
ATOM     15  C   UNL A   1      31.918  24.267  22.893  1.00  0.00     0.097 A 
ATOM     16  H   UNL A   1      31.223  22.343  23.291  1.00  0.00     0.166 HD
BRANCH   8  17
ATOM     17  C   UNL A   1      32.915  20.201  24.513  1.00  0.00     0.065 C 
BRANCH  17  18
ATOM     18  C   UNL A   1      33.806  18.993  24.657  1.00  0.00    -0.024 C 
ATOM     19  C   UNL A   1      32.816  17.694  22.761  1.00  0.00     0.039 C 
ATOM     20  C   UNL A   1      33.750  17.862  23.927  1.00  0.00    -0.080 C 
ATOM     21  C   UNL A   1      34.602  16.685  24.310  1.00  0.00     0.039 C 
ENDBRANCH  17  18
ENDBRANCH   8  17
ENDBRANCH   4   7
ENDBRANCH   2   3
ENDBRANCH   1   2
BRANCH   1  22
ATOM     22  C   UNL A   1      33.481  28.464  27.095  1.00  0.00     0.118 C 
BRANCH  22  23
ATOM     23  N   UNL A   1      33.492  29.852  27.548  1.00  0.00    -0.352 N 
ATOM     24  C   UNL A   1      34.474  30.609  28.145  1.00  0.00     0.251 C 
ATOM     25  H   UNL A   1      32.646  30.332  27.399  1.00  0.00     0.163 HD
ATOM     26  O   UNL A   1      34.193  31.734  28.558  1.00  0.00    -0.269 OA
BRANCH  24  27
ATOM     27  C   UNL A   1      35.843  30.077  28.330  1.00  0.00     0.039 A 
ATOM     28  C   UNL A   1      36.760  30.156  27.276  1.00  0.00     0.014 A 
ATOM     29  C   UNL A   1      36.236  29.501  29.536  1.00  0.00     0.014 A 
ATOM     30  C   UNL A   1      38.084  29.748  27.474  1.00  0.00     0.010 A 
ATOM     31  C   UNL A   1      37.578  29.238  29.778  1.00  0.00     0.010 A 
ATOM     32  C   UNL A   1      38.517  29.336  28.744  1.00  0.00    -0.014 A 
BRANCH  32  33
ATOM     33  C   UNL A   1      39.930  28.958  29.015  1.00  0.00     0.031 A 
ATOM     34  C   UNL A   1      40.868  29.971  29.627  1.00  0.00     0.074 A 
ATOM     35  C   UNL A   1      40.387  27.744  28.649  1.00  0.00     0.049 A 
ATOM     36  N   UNL A   1      42.154  29.879  29.846  1.00  0.00    -0.248 NA
ATOM     37  C   UNL A   1      40.292  31.272  30.008  1.00  0.00     0.031 C 
ATOM     38  C   UNL A   1      39.594  26.698  27.996  1.00  0.00     0.029 A 
ATOM     39  N   UNL A   1      41.635  27.184  28.766  1.00  0.00    -0.354 N 
ATOM     40  C   UNL A   1      42.537  31.109  30.371  1.00  0.00     0.074 A 
ATOM     41  C   UNL A   1      41.368  31.956  30.365  1.00  0.00     0.031 C 
ATOM     42  C   UNL A   1      40.364  25.613  27.808  1.00  0.00     0.029 A 
ATOM     43  C   UNL A   1      41.713  25.899  28.279  1.00  0.00     0.049 A 
ATOM     44  H   UNL A   1      42.403  27.657  29.161  1.00  0.00     0.167 HD
ATOM     45  C   UNL A   1      43.743  31.488  30.855  1.00  0.00     0.037 A 
ATOM     46  C   UNL A   1      42.759  25.050  28.219  1.00  0.00     0.037 A 
ATOM     47  C   UNL A   1      44.895  30.626  30.896  1.00  0.00     0.049 A 
ATOM     48  C   UNL A   1      44.092  25.498  28.758  1.00  0.00     0.074 A 
ATOM     49  C   UNL A   1      46.153  30.896  31.405  1.00  0.00     0.029 A 
ATOM     50  N   UNL A   1      44.925  29.324  30.419  1.00  0.00    -0.354 N 
ATOM     51  N   UNL A   1      44.421  26.648  29.298  1.00  0.00    -0.248 NA
ATOM     52  C   UNL A   1      45.196  24.531  28.686  1.00  0.00     0.031 C 
ATOM     53  C   UNL A   1      46.956  29.771  31.200  1.00  0.00     0.029 A 
ATOM     54  C   UNL A   1      46.183  28.781  30.612  1.00  0.00     0.049 A 
ATOM     55  H   UNL A   1      44.165  28.857  30.005  1.00  0.00     0.167 HD
ATOM     56  C   UNL A   1      45.757  26.526  29.666  1.00  0.00     0.074 A 
ATOM     57  C   UNL A   1      46.171  25.190  29.296  1.00  0.00     0.031 C 
ATOM     58  C   UNL A   1      46.569  27.438  30.256  1.00  0.00     0.037 A 
BRANCH  45  59
ATOM     59  C   UNL A   1      43.871  32.884  31.405  1.00  0.00     0.058 A 
ATOM     60  C   UNL A   1      44.297  33.953  30.599  1.00  0.00     0.135 A 
ATOM     61  C   UNL A   1      43.524  33.166  32.736  1.00  0.00     0.135 A 
ATOM     62  F   UNL A   1      44.661  33.738  29.325  1.00  0.00    -0.206 F 
ATOM     63  C   UNL A   1      44.399  35.246  31.099  1.00  0.00     0.059 A 
ATOM     64  C   UNL A   1      43.588  34.459  33.248  1.00  0.00     0.059 A 
ATOM     65  F   UNL A   1      43.115  32.182  33.551  1.00  0.00    -0.206 F 
ATOM     66  C   UNL A   1      44.037  35.490  32.424  1.00  0.00     0.060 A 
BRANCH  66  67
ATOM     67  S   UNL A   1      44.150  37.180  33.048  1.00  0.00     0.124 S 
ATOM     68  O   UNL A   1      45.527  37.221  33.531  1.00  0.00    -0.237 OA
ATOM     69  O   UNL A   1      43.874  37.971  31.853  1.00  0.00    -0.237 OA
ATOM     70  O   UNL A   1      43.121  37.233  34.081  1.00  0.00    -0.744 OA
ENDBRANCH  66  67
ENDBRANCH  45  59
BRANCH  46  71
ATOM     71  C   UNL A   1      42.589  23.683  27.653  1.00  0.00     0.058 A 
ATOM     72  C   UNL A   1      42.395  22.575  28.492  1.00  0.00     0.135 A 
ATOM     73  C   UNL A   1      42.639  23.450  26.269  1.00  0.00     0.135 A 
ATOM     74  F   UNL A   1      42.343  22.744  29.823  1.00  0.00    -0.206 F 
ATOM     75  C   UNL A   1      42.292  21.283  27.986  1.00  0.00     0.059 A 
ATOM     76  C   UNL A   1      42.507  22.171  25.737  1.00  0.00     0.059 A 
ATOM     77  F   UNL A   1      42.802  24.476  25.420  1.00  0.00    -0.206 F 
ATOM     78  C   UNL A   1      42.353  21.091  26.605  1.00  0.00     0.060 A 
BRANCH  78  79
ATOM     79  S   UNL A   1      42.205  19.412  25.957  1.00  0.00     0.124 S 
ATOM     80  O   UNL A   1      43.033  19.487  24.758  1.00  0.00    -0.237 OA
ATOM     81  O   UNL A   1      42.740  18.612  27.054  1.00  0.00    -0.237 OA
ATOM     82  O   UNL A   1      40.771  19.267  25.726  1.00  0.00    -0.744 OA
ENDBRANCH  78  79
ENDBRANCH  46  71
BRANCH  58  83
ATOM     83  C   UNL A   1      47.969  27.005  30.591  1.00  0.00     0.058 A 
ATOM     84  C   UNL A   1      49.053  27.279  29.745  1.00  0.00     0.135 A 
ATOM     85  C   UNL A   1      48.232  26.345  31.805  1.00  0.00     0.135 A 
ATOM     86  F   UNL A   1      48.856  27.902  28.574  1.00  0.00    -0.206 F 
ATOM     87  C   UNL A   1      50.347  26.889  30.075  1.00  0.00     0.059 A 
ATOM     88  C   UNL A   1      49.522  25.975  32.169  1.00  0.00     0.059 A 
ATOM     89  F   UNL A   1      47.231  26.070  32.656  1.00  0.00    -0.206 F 
ATOM     90  C   UNL A   1      50.571  26.238  31.290  1.00  0.00     0.060 A 
BRANCH  90  91
ATOM     91  S   UNL A   1      52.259  25.763  31.718  1.00  0.00     0.124 S 
ATOM     92  O   UNL A   1      52.936  25.898  30.433  1.00  0.00    -0.237 OA
ATOM     93  O   UNL A   1      52.615  26.753  32.730  1.00  0.00    -0.237 OA
ATOM     94  O   UNL A   1      52.113  24.397  32.212  1.00  0.00    -0.744 OA
ENDBRANCH  90  91
ENDBRANCH  58  83
ENDBRANCH  32  33
ENDBRANCH  24  27
ENDBRANCH  22  23
ENDBRANCH   1  22
TORSDOF 15
ENDMDL
