MODEL 1
REMARK VINA RESULT:     -12.7      0.000      0.000
REMARK SMILES O=C(NCCCNC(=O)c1ccc2c(=O)[nH]c(N3CC[NH2+]CC3)nc2c1)c1ccc(-c2c3nc(c(-c4c(F)cc(S(=O)(=O)[O-])cc4F)c4ccc([nH]4)c(-c4c(F)cc(S(=O)(=O)[O-])cc4F)c4nc(c(-c5c(F)cc(S(=O)(=O)[O-])cc5F)c5ccc2[nH]5)C=C4)C=C3)cc1
REMARK SMILES IDX 4 1 3 2 1 3 2 4 27 6 28 7 92 8 29 9 91 10 30 11 31 12 32 13
REMARK SMILES IDX 85 14 33 15 90 16 84 17 86 18 34 19 89 20 83 21 82 22 35 24
REMARK SMILES IDX 69 25 48 26 68 27 49 28 52 29 67 30 87 31 50 32 51 33 66 35
REMARK SMILES IDX 88 36 53 37 36 38 37 39 46 40 38 41 39 42 45 43 47 44 40 45
REMARK SMILES IDX 41 46 42 47 43 48 44 49 70 50 71 51 80 52 72 53 73 54 79 55
REMARK SMILES IDX 81 56 74 57 75 58 76 59 77 60 78 61 54 62 55 63 64 64 56 65
REMARK SMILES IDX 57 66 63 67 65 68 58 69 59 70 60 71 61 72 62 73 5 74 6 75
REMARK SMILES IDX 7 76 8 77 9 79 10 80 11 81 26 82 12 83 25 84 13 85 24 86
REMARK SMILES IDX 14 87 17 88 15 89 16 90 18 92 19 93 23 94 20 95 22 96 21 97
REMARK H PARENT 3 5 86 23 52 34 7 78 16 91 21 98 21 99
REMARK Flexibility Score: inf
ROOT
ATOM      1  C   UNL A   1      34.056  28.785  26.368  1.00  0.00     0.118 C 
ENDROOT
BRANCH   1   2
ATOM      2  N   UNL A   1      33.825  30.036  27.079  1.00  0.00    -0.352 N 
ATOM      3  O   UNL A   1      34.150  31.620  28.645  1.00  0.00    -0.269 OA
ATOM      4  C   UNL A   1      34.608  30.673  28.012  1.00  0.00     0.251 C 
ATOM      5  H   UNL A   1      32.981  30.493  26.858  1.00  0.00     0.163 HD
BRANCH   4   6
ATOM      6  C   UNL A   1      35.989  30.206  28.257  1.00  0.00     0.039 A 
ATOM      7  C   UNL A   1      36.965  30.339  27.268  1.00  0.00     0.014 A 
ATOM      8  C   UNL A   1      36.322  29.655  29.498  1.00  0.00     0.014 A 
ATOM      9  C   UNL A   1      38.224  29.787  27.456  1.00  0.00     0.010 A 
ATOM     10  C   UNL A   1      37.625  29.201  29.728  1.00  0.00     0.010 A 
ATOM     11  C   UNL A   1      38.582  29.252  28.703  1.00  0.00    -0.014 A 
BRANCH  11  12
ATOM     12  C   UNL A   1      40.002  28.892  28.941  1.00  0.00     0.031 A 
ATOM     13  C   UNL A   1      40.554  27.554  28.540  1.00  0.00     0.074 A 
ATOM     14  C   UNL A   1      40.792  29.815  29.527  1.00  0.00     0.049 A 
ATOM     15  N   UNL A   1      41.770  27.096  28.689  1.00  0.00    -0.248 NA
ATOM     16  C   UNL A   1      39.632  26.606  27.894  1.00  0.00     0.031 C 
ATOM     17  C   UNL A   1      40.347  31.140  29.976  1.00  0.00     0.029 A 
ATOM     18  N   UNL A   1      42.125  29.796  29.839  1.00  0.00    -0.354 N 
ATOM     19  C   UNL A   1      41.760  25.803  28.181  1.00  0.00     0.074 A 
ATOM     20  C   UNL A   1      40.410  25.542  27.726  1.00  0.00     0.031 C 
ATOM     21  C   UNL A   1      41.392  31.815  30.471  1.00  0.00     0.029 A 
ATOM     22  C   UNL A   1      42.562  30.949  30.450  1.00  0.00     0.049 A 
ATOM     23  H   UNL A   1      42.715  29.032  29.644  1.00  0.00     0.167 HD
ATOM     24  C   UNL A   1      42.787  24.923  28.106  1.00  0.00     0.037 A 
ATOM     25  C   UNL A   1      43.760  31.263  30.974  1.00  0.00     0.037 A 
ATOM     26  C   UNL A   1      44.129  25.211  28.545  1.00  0.00     0.049 A 
ATOM     27  C   UNL A   1      44.867  30.251  30.898  1.00  0.00     0.074 A 
ATOM     28  C   UNL A   1      45.255  24.411  28.443  1.00  0.00     0.029 A 
ATOM     29  N   UNL A   1      44.529  26.379  29.181  1.00  0.00    -0.354 N 
ATOM     30  N   UNL A   1      44.855  29.061  30.348  1.00  0.00    -0.248 NA
ATOM     31  C   UNL A   1      46.145  30.618  31.519  1.00  0.00     0.031 C 
ATOM     32  C   UNL A   1      46.317  25.065  29.072  1.00  0.00     0.029 A 
ATOM     33  C   UNL A   1      45.871  26.300  29.515  1.00  0.00     0.049 A 
ATOM     34  H   UNL A   1      43.944  27.149  29.365  1.00  0.00     0.167 HD
ATOM     35  C   UNL A   1      46.126  28.539  30.551  1.00  0.00     0.074 A 
ATOM     36  C   UNL A   1      46.889  29.558  31.243  1.00  0.00     0.031 C 
ATOM     37  C   UNL A   1      46.615  27.323  30.206  1.00  0.00     0.037 A 
BRANCH  24  38
ATOM     38  C   UNL A   1      42.522  23.553  27.546  1.00  0.00     0.058 A 
ATOM     39  C   UNL A   1      42.592  23.287  26.170  1.00  0.00     0.135 A 
ATOM     40  C   UNL A   1      42.317  22.464  28.412  1.00  0.00     0.135 A 
ATOM     41  F   UNL A   1      42.771  24.290  25.296  1.00  0.00    -0.206 F 
ATOM     42  C   UNL A   1      42.476  21.992  25.673  1.00  0.00     0.059 A 
ATOM     43  C   UNL A   1      42.221  21.160  27.939  1.00  0.00     0.059 A 
ATOM     44  F   UNL A   1      42.239  22.664  29.737  1.00  0.00    -0.206 F 
ATOM     45  C   UNL A   1      42.302  20.933  26.566  1.00  0.00     0.060 A 
BRANCH  45  46
ATOM     46  S   UNL A   1      42.218  19.253  25.907  1.00  0.00     0.124 S 
ATOM     47  O   UNL A   1      42.734  18.474  27.029  1.00  0.00    -0.237 OA
ATOM     48  O   UNL A   1      40.793  19.099  25.631  1.00  0.00    -0.237 OA
ATOM     49  O   UNL A   1      43.080  19.304  24.731  1.00  0.00    -0.744 OA
ENDBRANCH  45  46
ENDBRANCH  24  38
BRANCH  25  50
ATOM     50  C   UNL A   1      43.955  32.565  31.664  1.00  0.00     0.058 A 
ATOM     51  C   UNL A   1      43.755  32.696  33.045  1.00  0.00     0.135 A 
ATOM     52  C   UNL A   1      44.332  33.713  30.947  1.00  0.00     0.135 A 
ATOM     53  F   UNL A   1      43.394  31.630  33.775  1.00  0.00    -0.206 F 
ATOM     54  C   UNL A   1      43.883  33.925  33.685  1.00  0.00     0.059 A 
ATOM     55  C   UNL A   1      44.502  34.944  31.570  1.00  0.00     0.059 A 
ATOM     56  F   UNL A   1      44.558  33.638  29.626  1.00  0.00    -0.206 F 
ATOM     57  C   UNL A   1      44.254  35.044  32.936  1.00  0.00     0.060 A 
BRANCH  57  58
ATOM     58  S   UNL A   1      44.416  36.634  33.773  1.00  0.00     0.124 S 
ATOM     59  O   UNL A   1      44.917  36.225  35.080  1.00  0.00    -0.237 OA
ATOM     60  O   UNL A   1      45.365  37.337  32.916  1.00  0.00    -0.237 OA
ATOM     61  O   UNL A   1      43.056  37.163  33.756  1.00  0.00    -0.744 OA
ENDBRANCH  57  58
ENDBRANCH  25  50
BRANCH  37  62
ATOM     62  C   UNL A   1      48.046  27.035  30.562  1.00  0.00     0.058 A 
ATOM     63  C   UNL A   1      48.386  26.377  31.754  1.00  0.00     0.135 A 
ATOM     64  C   UNL A   1      49.085  27.387  29.686  1.00  0.00     0.135 A 
ATOM     65  F   UNL A   1      47.430  26.032  32.631  1.00  0.00    -0.206 F 
ATOM     66  C   UNL A   1      49.709  26.097  32.076  1.00  0.00     0.059 A 
ATOM     67  C   UNL A   1      50.413  27.088  29.973  1.00  0.00     0.059 A 
ATOM     68  F   UNL A   1      48.813  28.013  28.530  1.00  0.00    -0.206 F 
ATOM     69  C   UNL A   1      50.715  26.453  31.176  1.00  0.00     0.060 A 
BRANCH  69  70
ATOM     70  S   UNL A   1      52.425  26.050  31.590  1.00  0.00     0.124 S 
ATOM     71  O   UNL A   1      53.074  26.145  30.287  1.00  0.00    -0.237 OA
ATOM     72  O   UNL A   1      52.768  27.097  32.548  1.00  0.00    -0.237 OA
ATOM     73  O   UNL A   1      52.332  24.704  32.148  1.00  0.00    -0.744 OA
ENDBRANCH  69  70
ENDBRANCH  37  62
ENDBRANCH  11  12
ENDBRANCH   4   6
ENDBRANCH   1   2
BRANCH   1  74
ATOM     74  C   UNL A   1      33.541  28.821  24.940  1.00  0.00     0.042 C 
BRANCH  74  75
ATOM     75  C   UNL A   1      32.095  29.272  24.824  1.00  0.00     0.118 C 
BRANCH  75  76
ATOM     76  N   UNL A   1      31.491  28.870  23.562  1.00  0.00    -0.352 N 
ATOM     77  C   UNL A   1      31.068  27.637  23.139  1.00  0.00     0.251 C 
ATOM     78  H   UNL A   1      31.368  29.597  22.910  1.00  0.00     0.163 HD
ATOM     79  O   UNL A   1      30.771  27.458  21.962  1.00  0.00    -0.269 OA
BRANCH  77  80
ATOM     80  C   UNL A   1      30.953  26.521  24.100  1.00  0.00     0.041 A 
ATOM     81  C   UNL A   1      29.827  26.408  24.927  1.00  0.00     0.015 A 
ATOM     82  C   UNL A   1      31.949  25.535  24.114  1.00  0.00     0.043 A 
ATOM     83  C   UNL A   1      29.737  25.358  25.831  1.00  0.00     0.017 A 
ATOM     84  C   UNL A   1      31.848  24.454  24.989  1.00  0.00     0.081 A 
ATOM     85  C   UNL A   1      30.744  24.393  25.847  1.00  0.00     0.066 A 
ATOM     86  N   UNL A   1      32.828  23.445  24.952  1.00  0.00    -0.214 NA
ATOM     87  C   UNL A   1      30.646  23.234  26.742  1.00  0.00     0.260 A 
ATOM     88  C   UNL A   1      32.656  22.390  25.685  1.00  0.00     0.206 A 
ATOM     89  O   UNL A   1      29.764  23.127  27.581  1.00  0.00    -0.269 OA
ATOM     90  N   UNL A   1      31.606  22.279  26.555  1.00  0.00    -0.292 N 
ATOM     91  H   UNL A   1      31.537  21.453  27.085  1.00  0.00     0.173 HD
BRANCH  88  92
ATOM     92  N   UNL A   1      33.508  21.323  25.675  1.00  0.00    -0.331 N 
ATOM     93  C   UNL A   1      33.022  19.947  25.572  1.00  0.00     0.181 C 
ATOM     94  C   UNL A   1      34.913  21.439  26.071  1.00  0.00     0.181 C 
ATOM     95  C   UNL A   1      33.943  19.167  24.601  1.00  0.00     0.282 C 
ATOM     96  C   UNL A   1      35.795  20.634  25.098  1.00  0.00     0.282 C 
ATOM     97  N   UNL A   1      35.381  19.223  24.962  1.00  0.00    -0.343 N 
ATOM     98  H   UNL A   1      35.932  18.774  24.231  1.00  0.00     0.346 HD
ATOM     99  H   UNL A   1      35.530  18.735  25.845  1.00  0.00     0.346 HD
ENDBRANCH  88  92
ENDBRANCH  77  80
ENDBRANCH  75  76
ENDBRANCH  74  75
ENDBRANCH   1  74
TORSDOF 14
ENDMDL
MODEL 2
REMARK VINA RESULT:     -12.6      1.133      2.379
REMARK SMILES O=C(NCCCNC(=O)c1ccc2c(=O)[nH]c(N3CC[NH2+]CC3)nc2c1)c1ccc(-c2c3nc(c(-c4c(F)cc(S(=O)(=O)[O-])cc4F)c4ccc([nH]4)c(-c4c(F)cc(S(=O)(=O)[O-])cc4F)c4nc(c(-c5c(F)cc(S(=O)(=O)[O-])cc5F)c5ccc2[nH]5)C=C4)C=C3)cc1
REMARK SMILES IDX 4 1 3 2 1 3 2 4 27 6 28 7 92 8 29 9 91 10 30 11 31 12 32 13
REMARK SMILES IDX 85 14 33 15 90 16 84 17 86 18 34 19 89 20 83 21 82 22 35 24
REMARK SMILES IDX 69 25 48 26 68 27 49 28 52 29 67 30 87 31 50 32 51 33 66 35
REMARK SMILES IDX 88 36 53 37 36 38 37 39 46 40 38 41 39 42 45 43 47 44 40 45
REMARK SMILES IDX 41 46 42 47 43 48 44 49 70 50 71 51 80 52 72 53 73 54 79 55
REMARK SMILES IDX 81 56 74 57 75 58 76 59 77 60 78 61 54 62 55 63 64 64 56 65
REMARK SMILES IDX 57 66 63 67 65 68 58 69 59 70 60 71 61 72 62 73 5 74 6 75
REMARK SMILES IDX 7 76 8 77 9 79 10 80 11 81 26 82 12 83 25 84 13 85 24 86
REMARK SMILES IDX 14 87 17 88 15 89 16 90 18 92 19 93 23 94 20 95 22 96 21 97
REMARK H PARENT 3 5 86 23 52 34 7 78 16 91 21 98 21 99
REMARK Flexibility Score: inf
ROOT
ATOM      1  C   UNL A   1      33.948  28.498  26.888  1.00  0.00     0.118 C 
ENDROOT
BRANCH   1   2
ATOM      2  N   UNL A   1      33.791  29.843  27.426  1.00  0.00    -0.352 N 
ATOM      3  O   UNL A   1      34.263  31.627  28.714  1.00  0.00    -0.269 OA
ATOM      4  C   UNL A   1      34.655  30.589  28.191  1.00  0.00     0.251 C 
ATOM      5  H   UNL A   1      32.938  30.284  27.207  1.00  0.00     0.163 HD
BRANCH   4   6
ATOM      6  C   UNL A   1      36.046  30.128  28.392  1.00  0.00     0.039 A 
ATOM      7  C   UNL A   1      36.991  30.273  27.376  1.00  0.00     0.014 A 
ATOM      8  C   UNL A   1      36.418  29.571  29.619  1.00  0.00     0.014 A 
ATOM      9  C   UNL A   1      38.258  29.727  27.524  1.00  0.00     0.010 A 
ATOM     10  C   UNL A   1      37.729  29.123  29.808  1.00  0.00     0.010 A 
ATOM     11  C   UNL A   1      38.655  29.186  28.756  1.00  0.00    -0.014 A 
BRANCH  11  12
ATOM     12  C   UNL A   1      40.083  28.832  28.950  1.00  0.00     0.031 A 
ATOM     13  C   UNL A   1      40.629  27.497  28.533  1.00  0.00     0.074 A 
ATOM     14  C   UNL A   1      40.887  29.760  29.510  1.00  0.00     0.049 A 
ATOM     15  N   UNL A   1      41.851  27.044  28.646  1.00  0.00    -0.248 NA
ATOM     16  C   UNL A   1      39.692  26.543  27.918  1.00  0.00     0.031 C 
ATOM     17  C   UNL A   1      40.451  31.083  29.971  1.00  0.00     0.029 A 
ATOM     18  N   UNL A   1      42.230  29.747  29.780  1.00  0.00    -0.354 N 
ATOM     19  C   UNL A   1      41.830  25.750  28.140  1.00  0.00     0.074 A 
ATOM     20  C   UNL A   1      40.469  25.483  27.727  1.00  0.00     0.031 C 
ATOM     21  C   UNL A   1      41.508  31.764  30.433  1.00  0.00     0.029 A 
ATOM     22  C   UNL A   1      42.681  30.902  30.376  1.00  0.00     0.049 A 
ATOM     23  H   UNL A   1      42.817  28.986  29.568  1.00  0.00     0.167 HD
ATOM     24  C   UNL A   1      42.858  24.875  28.034  1.00  0.00     0.037 A 
ATOM     25  C   UNL A   1      43.893  31.223  30.862  1.00  0.00     0.037 A 
ATOM     26  C   UNL A   1      44.213  25.169  28.430  1.00  0.00     0.049 A 
ATOM     27  C   UNL A   1      45.001  30.216  30.752  1.00  0.00     0.074 A 
ATOM     28  C   UNL A   1      45.339  24.374  28.294  1.00  0.00     0.029 A 
ATOM     29  N   UNL A   1      44.627  26.340  29.051  1.00  0.00    -0.354 N 
ATOM     30  N   UNL A   1      44.977  29.024  30.205  1.00  0.00    -0.248 NA
ATOM     31  C   UNL A   1      46.297  30.589  31.332  1.00  0.00     0.031 C 
ATOM     32  C   UNL A   1      46.417  25.034  28.889  1.00  0.00     0.029 A 
ATOM     33  C   UNL A   1      45.979  26.267  29.343  1.00  0.00     0.049 A 
ATOM     34  H   UNL A   1      44.045  27.107  29.253  1.00  0.00     0.167 HD
ATOM     35  C   UNL A   1      46.257  28.509  30.368  1.00  0.00     0.074 A 
ATOM     36  C   UNL A   1      47.037  29.532  31.034  1.00  0.00     0.031 C 
ATOM     37  C   UNL A   1      46.740  27.295  30.009  1.00  0.00     0.037 A 
BRANCH  24  38
ATOM     38  C   UNL A   1      42.582  23.502  27.483  1.00  0.00     0.058 A 
ATOM     39  C   UNL A   1      42.697  23.215  26.115  1.00  0.00     0.135 A 
ATOM     40  C   UNL A   1      42.321  22.432  28.357  1.00  0.00     0.135 A 
ATOM     41  F   UNL A   1      42.931  24.200  25.234  1.00  0.00    -0.206 F 
ATOM     42  C   UNL A   1      42.568  21.915  25.633  1.00  0.00     0.059 A 
ATOM     43  C   UNL A   1      42.212  21.123  27.900  1.00  0.00     0.059 A 
ATOM     44  F   UNL A   1      42.200  22.653  29.675  1.00  0.00    -0.206 F 
ATOM     45  C   UNL A   1      42.337  20.874  26.534  1.00  0.00     0.060 A 
BRANCH  45  46
ATOM     46  S   UNL A   1      42.238  19.187  25.897  1.00  0.00     0.124 S 
ATOM     47  O   UNL A   1      42.745  18.417  27.029  1.00  0.00    -0.237 OA
ATOM     48  O   UNL A   1      40.813  19.043  25.620  1.00  0.00    -0.237 OA
ATOM     49  O   UNL A   1      43.102  19.214  24.721  1.00  0.00    -0.744 OA
ENDBRANCH  45  46
ENDBRANCH  24  38
BRANCH  25  50
ATOM     50  C   UNL A   1      44.104  32.527  31.544  1.00  0.00     0.058 A 
ATOM     51  C   UNL A   1      43.880  32.675  32.920  1.00  0.00     0.135 A 
ATOM     52  C   UNL A   1      44.520  33.659  30.824  1.00  0.00     0.135 A 
ATOM     53  F   UNL A   1      43.482  31.624  33.652  1.00  0.00    -0.206 F 
ATOM     54  C   UNL A   1      44.023  33.906  33.551  1.00  0.00     0.059 A 
ATOM     55  C   UNL A   1      44.706  34.891  31.438  1.00  0.00     0.059 A 
ATOM     56  F   UNL A   1      44.770  33.567  29.508  1.00  0.00    -0.206 F 
ATOM     57  C   UNL A   1      44.433  35.010  32.799  1.00  0.00     0.060 A 
BRANCH  57  58
ATOM     58  S   UNL A   1      44.615  36.604  33.625  1.00  0.00     0.124 S 
ATOM     59  O   UNL A   1      45.830  37.117  33.002  1.00  0.00    -0.237 OA
ATOM     60  O   UNL A   1      43.375  37.282  33.262  1.00  0.00    -0.237 OA
ATOM     61  O   UNL A   1      44.732  36.241  35.034  1.00  0.00    -0.744 OA
ENDBRANCH  57  58
ENDBRANCH  25  50
BRANCH  37  62
ATOM     62  C   UNL A   1      48.182  27.013  30.321  1.00  0.00     0.058 A 
ATOM     63  C   UNL A   1      49.212  27.428  29.462  1.00  0.00     0.135 A 
ATOM     64  C   UNL A   1      48.542  26.357  31.510  1.00  0.00     0.135 A 
ATOM     65  F   UNL A   1      48.921  28.048  28.308  1.00  0.00    -0.206 F 
ATOM     66  C   UNL A   1      50.548  27.182  29.760  1.00  0.00     0.059 A 
ATOM     67  C   UNL A   1      49.873  26.128  31.842  1.00  0.00     0.059 A 
ATOM     68  F   UNL A   1      47.595  25.946  32.368  1.00  0.00    -0.206 F 
ATOM     69  C   UNL A   1      50.868  26.535  30.955  1.00  0.00     0.060 A 
BRANCH  69  70
ATOM     70  S   UNL A   1      52.608  26.255  31.345  1.00  0.00     0.124 S 
ATOM     71  O   UNL A   1      52.918  27.424  32.160  1.00  0.00    -0.237 OA
ATOM     72  O   UNL A   1      52.566  24.980  32.054  1.00  0.00    -0.237 OA
ATOM     73  O   UNL A   1      53.249  26.216  30.034  1.00  0.00    -0.744 OA
ENDBRANCH  69  70
ENDBRANCH  37  62
ENDBRANCH  11  12
ENDBRANCH   4   6
ENDBRANCH   1   2
BRANCH   1  74
ATOM     74  C   UNL A   1      33.721  28.438  25.387  1.00  0.00     0.042 C 
BRANCH  74  75
ATOM     75  C   UNL A   1      33.186  27.100  24.904  1.00  0.00     0.118 C 
BRANCH  75  76
ATOM     76  N   UNL A   1      32.211  26.531  25.822  1.00  0.00    -0.352 N 
ATOM     77  C   UNL A   1      32.043  25.236  26.238  1.00  0.00     0.251 C 
ATOM     78  H   UNL A   1      31.572  27.176  26.203  1.00  0.00     0.163 HD
ATOM     79  O   UNL A   1      31.034  24.915  26.860  1.00  0.00    -0.269 OA
BRANCH  77  80
ATOM     80  C   UNL A   1      33.079  24.223  25.954  1.00  0.00     0.041 A 
ATOM     81  C   UNL A   1      34.438  24.537  26.097  1.00  0.00     0.015 A 
ATOM     82  C   UNL A   1      32.680  22.923  25.617  1.00  0.00     0.043 A 
ATOM     83  C   UNL A   1      35.402  23.576  25.819  1.00  0.00     0.017 A 
ATOM     84  C   UNL A   1      33.639  21.939  25.375  1.00  0.00     0.081 A 
ATOM     85  C   UNL A   1      34.991  22.290  25.468  1.00  0.00     0.066 A 
ATOM     86  N   UNL A   1      33.222  20.626  25.093  1.00  0.00    -0.214 NA
ATOM     87  C   UNL A   1      35.982  21.234  25.233  1.00  0.00     0.260 A 
ATOM     88  C   UNL A   1      34.122  19.700  24.990  1.00  0.00     0.206 A 
ATOM     89  O   UNL A   1      37.184  21.456  25.213  1.00  0.00    -0.269 OA
ATOM     90  N   UNL A   1      35.460  19.984  25.053  1.00  0.00    -0.292 N 
ATOM     91  H   UNL A   1      36.091  19.234  24.964  1.00  0.00     0.173 HD
BRANCH  88  92
ATOM     92  N   UNL A   1      33.825  18.383  24.784  1.00  0.00    -0.331 N 
ATOM     93  C   UNL A   1      34.796  17.453  24.208  1.00  0.00     0.181 C 
ATOM     94  C   UNL A   1      32.454  17.873  24.828  1.00  0.00     0.181 C 
ATOM     95  C   UNL A   1      34.721  16.114  24.983  1.00  0.00     0.282 C 
ATOM     96  C   UNL A   1      32.421  16.533  25.586  1.00  0.00     0.282 C 
ATOM     97  N   UNL A   1      33.359  15.530  25.043  1.00  0.00    -0.343 N 
ATOM     98  H   UNL A   1      33.368  14.707  25.647  1.00  0.00     0.346 HD
ATOM     99  H   UNL A   1      33.064  15.257  24.106  1.00  0.00     0.346 HD
ENDBRANCH  88  92
ENDBRANCH  77  80
ENDBRANCH  75  76
ENDBRANCH  74  75
ENDBRANCH   1  74
TORSDOF 14
ENDMDL
MODEL 3
REMARK VINA RESULT:     -12.5      2.889      8.722
REMARK SMILES O=C(NCCCNC(=O)c1ccc2c(=O)[nH]c(N3CC[NH2+]CC3)nc2c1)c1ccc(-c2c3nc(c(-c4c(F)cc(S(=O)(=O)[O-])cc4F)c4ccc([nH]4)c(-c4c(F)cc(S(=O)(=O)[O-])cc4F)c4nc(c(-c5c(F)cc(S(=O)(=O)[O-])cc5F)c5ccc2[nH]5)C=C4)C=C3)cc1
REMARK SMILES IDX 4 1 3 2 1 3 2 4 27 6 28 7 92 8 29 9 91 10 30 11 31 12 32 13
REMARK SMILES IDX 85 14 33 15 90 16 84 17 86 18 34 19 89 20 83 21 82 22 35 24
REMARK SMILES IDX 69 25 48 26 68 27 49 28 52 29 67 30 87 31 50 32 51 33 66 35
REMARK SMILES IDX 88 36 53 37 36 38 37 39 46 40 38 41 39 42 45 43 47 44 40 45
REMARK SMILES IDX 41 46 42 47 43 48 44 49 70 50 71 51 80 52 72 53 73 54 79 55
REMARK SMILES IDX 81 56 74 57 75 58 76 59 77 60 78 61 54 62 55 63 64 64 56 65
REMARK SMILES IDX 57 66 63 67 65 68 58 69 59 70 60 71 61 72 62 73 5 74 6 75
REMARK SMILES IDX 7 76 8 77 9 79 10 80 11 81 26 82 12 83 25 84 13 85 24 86
REMARK SMILES IDX 14 87 17 88 15 89 16 90 18 92 19 93 23 94 20 95 22 96 21 97
REMARK H PARENT 3 5 86 23 52 34 7 78 16 91 21 98 21 99
REMARK Flexibility Score: inf
ROOT
ATOM      1  C   UNL A   1      35.540  30.929  28.010  1.00  0.00     0.118 C 
ENDROOT
BRANCH   1   2
ATOM      2  N   UNL A   1      35.473  31.048  29.461  1.00  0.00    -0.352 N 
ATOM      3  O   UNL A   1      36.055  30.663  31.600  1.00  0.00    -0.269 OA
ATOM      4  C   UNL A   1      36.379  30.656  30.416  1.00  0.00     0.251 C 
ATOM      5  H   UNL A   1      34.655  31.473  29.807  1.00  0.00     0.163 HD
BRANCH   4   6
ATOM      6  C   UNL A   1      37.732  30.216  30.012  1.00  0.00     0.039 A 
ATOM      7  C   UNL A   1      38.139  30.317  28.682  1.00  0.00     0.014 A 
ATOM      8  C   UNL A   1      38.614  29.722  30.978  1.00  0.00     0.014 A 
ATOM      9  C   UNL A   1      39.359  29.788  28.287  1.00  0.00     0.010 A 
ATOM     10  C   UNL A   1      39.890  29.293  30.597  1.00  0.00     0.010 A 
ATOM     11  C   UNL A   1      40.266  29.311  29.246  1.00  0.00    -0.014 A 
BRANCH  11  12
ATOM     12  C   UNL A   1      41.647  28.977  28.815  1.00  0.00     0.031 A 
ATOM     13  C   UNL A   1      42.728  30.018  28.758  1.00  0.00     0.074 A 
ATOM     14  C   UNL A   1      41.906  27.696  28.483  1.00  0.00     0.049 A 
ATOM     15  N   UNL A   1      43.977  29.877  28.397  1.00  0.00    -0.248 NA
ATOM     16  C   UNL A   1      42.370  31.391  29.149  1.00  0.00     0.031 C 
ATOM     17  C   UNL A   1      40.918  26.611  28.483  1.00  0.00     0.029 A 
ATOM     18  N   UNL A   1      43.065  27.082  28.091  1.00  0.00    -0.354 N 
ATOM     19  C   UNL A   1      44.551  31.138  28.492  1.00  0.00     0.074 A 
ATOM     20  C   UNL A   1      43.509  32.040  28.938  1.00  0.00     0.031 C 
ATOM     21  C   UNL A   1      41.519  25.462  28.144  1.00  0.00     0.029 A 
ATOM     22  C   UNL A   1      42.913  25.740  27.826  1.00  0.00     0.049 A 
ATOM     23  H   UNL A   1      43.926  27.553  28.007  1.00  0.00     0.167 HD
ATOM     24  C   UNL A   1      45.830  31.500  28.231  1.00  0.00     0.037 A 
ATOM     25  C   UNL A   1      43.785  24.838  27.341  1.00  0.00     0.037 A 
ATOM     26  C   UNL A   1      46.858  30.582  27.809  1.00  0.00     0.049 A 
ATOM     27  C   UNL A   1      45.185  25.282  27.035  1.00  0.00     0.074 A 
ATOM     28  C   UNL A   1      48.201  30.839  27.590  1.00  0.00     0.029 A 
ATOM     29  N   UNL A   1      46.661  29.236  27.529  1.00  0.00    -0.354 N 
ATOM     30  N   UNL A   1      45.726  26.465  27.201  1.00  0.00    -0.248 NA
ATOM     31  C   UNL A   1      46.092  24.276  26.469  1.00  0.00     0.031 C 
ATOM     32  C   UNL A   1      48.801  29.670  27.117  1.00  0.00     0.029 A 
ATOM     33  C   UNL A   1      47.847  28.665  27.097  1.00  0.00     0.049 A 
ATOM     34  H   UNL A   1      45.805  28.760  27.624  1.00  0.00     0.167 HD
ATOM     35  C   UNL A   1      47.040  26.343  26.767  1.00  0.00     0.074 A 
ATOM     36  C   UNL A   1      47.219  24.963  26.363  1.00  0.00     0.031 C 
ATOM     37  C   UNL A   1      48.007  27.290  26.697  1.00  0.00     0.037 A 
BRANCH  24  38
ATOM     38  C   UNL A   1      46.211  32.949  28.370  1.00  0.00     0.058 A 
ATOM     39  C   UNL A   1      46.762  33.460  29.555  1.00  0.00     0.135 A 
ATOM     40  C   UNL A   1      46.140  33.806  27.259  1.00  0.00     0.135 A 
ATOM     41  F   UNL A   1      46.842  32.690  30.651  1.00  0.00    -0.206 F 
ATOM     42  C   UNL A   1      47.234  34.768  29.631  1.00  0.00     0.059 A 
ATOM     43  C   UNL A   1      46.626  35.109  27.306  1.00  0.00     0.059 A 
ATOM     44  F   UNL A   1      45.619  33.368  26.102  1.00  0.00    -0.206 F 
ATOM     45  C   UNL A   1      47.172  35.582  28.498  1.00  0.00     0.060 A 
BRANCH  45  46
ATOM     46  S   UNL A   1      47.847  37.254  28.599  1.00  0.00     0.124 S 
ATOM     47  O   UNL A   1      46.631  38.052  28.717  1.00  0.00    -0.237 OA
ATOM     48  O   UNL A   1      48.677  37.182  29.796  1.00  0.00    -0.237 OA
ATOM     49  O   UNL A   1      48.575  37.405  27.342  1.00  0.00    -0.744 OA
ENDBRANCH  45  46
ENDBRANCH  24  38
BRANCH  25  50
ATOM     50  C   UNL A   1      43.341  23.446  27.062  1.00  0.00     0.058 A 
ATOM     51  C   UNL A   1      43.151  22.520  28.097  1.00  0.00     0.135 A 
ATOM     52  C   UNL A   1      43.113  23.011  25.746  1.00  0.00     0.135 A 
ATOM     53  F   UNL A   1      43.356  22.886  29.371  1.00  0.00    -0.206 F 
ATOM     54  C   UNL A   1      42.789  21.203  27.836  1.00  0.00     0.059 A 
ATOM     55  C   UNL A   1      42.715  21.710  25.462  1.00  0.00     0.059 A 
ATOM     56  F   UNL A   1      43.258  23.863  24.719  1.00  0.00    -0.206 F 
ATOM     57  C   UNL A   1      42.577  20.807  26.514  1.00  0.00     0.060 A 
BRANCH  57  58
ATOM     58  S   UNL A   1      42.109  19.095  26.183  1.00  0.00     0.124 S 
ATOM     59  O   UNL A   1      42.398  18.462  27.465  1.00  0.00    -0.237 OA
ATOM     60  O   UNL A   1      40.697  19.224  25.837  1.00  0.00    -0.237 OA
ATOM     61  O   UNL A   1      42.985  18.716  25.079  1.00  0.00    -0.744 OA
ENDBRANCH  57  58
ENDBRANCH  25  50
BRANCH  37  62
ATOM     62  C   UNL A   1      49.349  26.859  26.175  1.00  0.00     0.058 A 
ATOM     63  C   UNL A   1      49.710  27.054  24.833  1.00  0.00     0.135 A 
ATOM     64  C   UNL A   1      50.297  26.280  27.034  1.00  0.00     0.135 A 
ATOM     65  F   UNL A   1      48.835  27.591  23.969  1.00  0.00    -0.206 F 
ATOM     66  C   UNL A   1      50.957  26.670  24.354  1.00  0.00     0.059 A 
ATOM     67  C   UNL A   1      51.562  25.917  26.584  1.00  0.00     0.059 A 
ATOM     68  F   UNL A   1      50.004  26.078  28.328  1.00  0.00    -0.206 F 
ATOM     69  C   UNL A   1      51.878  26.106  25.239  1.00  0.00     0.060 A 
BRANCH  69  70
ATOM     70  S   UNL A   1      53.507  25.646  24.612  1.00  0.00     0.124 S 
ATOM     71  O   UNL A   1      53.406  26.043  23.212  1.00  0.00    -0.237 OA
ATOM     72  O   UNL A   1      54.398  26.455  25.438  1.00  0.00    -0.237 OA
ATOM     73  O   UNL A   1      53.571  24.207  24.853  1.00  0.00    -0.744 OA
ENDBRANCH  69  70
ENDBRANCH  37  62
ENDBRANCH  11  12
ENDBRANCH   4   6
ENDBRANCH   1   2
BRANCH   1  74
ATOM     74  C   UNL A   1      34.872  29.666  27.495  1.00  0.00     0.042 C 
BRANCH  74  75
ATOM     75  C   UNL A   1      33.465  29.891  26.967  1.00  0.00     0.118 C 
BRANCH  75  76
ATOM     76  N   UNL A   1      33.404  29.830  25.514  1.00  0.00    -0.352 N 
ATOM     77  C   UNL A   1      33.157  28.766  24.686  1.00  0.00     0.251 C 
ATOM     78  H   UNL A   1      33.566  30.685  25.055  1.00  0.00     0.163 HD
ATOM     79  O   UNL A   1      33.348  28.869  23.478  1.00  0.00    -0.269 OA
BRANCH  77  80
ATOM     80  C   UNL A   1      32.645  27.496  25.240  1.00  0.00     0.041 A 
ATOM     81  C   UNL A   1      31.326  27.403  25.704  1.00  0.00     0.015 A 
ATOM     82  C   UNL A   1      33.474  26.366  25.218  1.00  0.00     0.043 A 
ATOM     83  C   UNL A   1      30.861  26.204  26.229  1.00  0.00     0.017 A 
ATOM     84  C   UNL A   1      33.004  25.147  25.706  1.00  0.00     0.081 A 
ATOM     85  C   UNL A   1      31.703  25.092  26.218  1.00  0.00     0.066 A 
ATOM     86  N   UNL A   1      33.829  24.010  25.626  1.00  0.00    -0.214 NA
ATOM     87  C   UNL A   1      31.221  23.793  26.703  1.00  0.00     0.260 A 
ATOM     88  C   UNL A   1      33.335  22.863  25.972  1.00  0.00     0.206 A 
ATOM     89  O   UNL A   1      30.131  23.657  27.240  1.00  0.00    -0.269 OA
ATOM     90  N   UNL A   1      32.076  22.747  26.496  1.00  0.00    -0.292 N 
ATOM     91  H   UNL A   1      31.764  21.847  26.741  1.00  0.00     0.173 HD
BRANCH  88  92
ATOM     92  N   UNL A   1      34.024  21.688  25.871  1.00  0.00    -0.331 N 
ATOM     93  C   UNL A   1      33.342  20.395  25.811  1.00  0.00     0.181 C 
ATOM     94  C   UNL A   1      35.464  21.600  26.123  1.00  0.00     0.181 C 
ATOM     95  C   UNL A   1      34.044  19.513  24.749  1.00  0.00     0.282 C 
ATOM     96  C   UNL A   1      36.123  20.699  25.062  1.00  0.00     0.282 C 
ATOM     97  N   UNL A   1      35.504  19.362  24.962  1.00  0.00    -0.343 N 
ATOM     98  H   UNL A   1      35.911  18.854  24.177  1.00  0.00     0.346 HD
ATOM     99  H   UNL A   1      35.671  18.842  25.824  1.00  0.00     0.346 HD
ENDBRANCH  88  92
ENDBRANCH  77  80
ENDBRANCH  75  76
ENDBRANCH  74  75
ENDBRANCH   1  74
TORSDOF 14
ENDMDL
