MODEL 1
REMARK VINA RESULT:     -13.6      0.000      0.000
REMARK SMILES C[C@@]12CCC[C@](C)(C(=O)NCCCNC(=O)c3ccc(-c4c5nc(c(-c6c(F)cc(S(=O)(=O)[O-])cc6F)c6ccc([nH]6)c(-c6c(F)cc(S(=O)(=O)[O-])cc6F)c6nc(c(-c7c(F)cc(S(=O)(=O)[O-])cc7F)c7ccc4[nH]7)C=C6)C=C5)cc3)[C@H]1CC[C@@]13C=C(CO)[C@@H](CC[C@@H]12)C3
REMARK SMILES IDX 12 1 11 2 10 3 8 4 9 5 6 7 1 8 2 9 3 10 83 11 94 12 4 13
REMARK SMILES IDX 84 14 86 15 93 16 5 17 7 18 85 19 87 20 95 21 92 22 88 23
REMARK SMILES IDX 91 24 89 25 90 26 13 28 14 29 15 30 16 32 17 33 18 34 82 35
REMARK SMILES IDX 19 36 81 37 20 38 21 39 22 40 75 41 23 42 80 43 74 44 76 45
REMARK SMILES IDX 24 46 79 47 73 48 72 49 25 51 59 52 38 53 58 54 39 55 42 56
REMARK SMILES IDX 57 57 77 58 40 59 41 60 56 62 78 63 43 64 26 65 27 66 36 67
REMARK SMILES IDX 28 68 29 69 35 70 37 71 30 72 31 73 32 74 33 75 34 76 60 77
REMARK SMILES IDX 61 78 70 79 62 80 63 81 69 82 71 83 64 84 65 85 66 86 67 87
REMARK SMILES IDX 68 88 44 89 45 90 54 91 46 92 47 93 53 94 55 95 48 96 49 97
REMARK SMILES IDX 50 98 51 99 52 100
REMARK H PARENT 10 6 90 27 14 31 76 50 42 61
REMARK Flexibility Score: inf
ROOT
ATOM      1  C   UNL A   1      37.751  23.782  26.125  1.00  0.00     0.042 C 
ENDROOT
BRANCH   1   2
ATOM      2  C   UNL A   1      37.333  22.433  25.549  1.00  0.00     0.117 C 
BRANCH   2   3
ATOM      3  N   UNL A   1      36.231  21.823  26.292  1.00  0.00    -0.356 N 
ATOM      4  C   UNL A   1      34.883  21.725  26.080  1.00  0.00     0.226 C 
ATOM      5  O   UNL A   1      34.238  21.151  26.962  1.00  0.00    -0.274 OA
ATOM      6  H   UNL A   1      36.523  21.388  27.125  1.00  0.00     0.163 HD
BRANCH   4   7
ATOM      7  C   UNL A   1      34.196  22.254  24.792  1.00  0.00     0.050 C 
ATOM      8  C   UNL A   1      33.713  24.510  22.756  1.00  0.00     0.012 C 
ATOM      9  C   UNL A   1      32.609  24.119  23.803  1.00  0.00    -0.025 C 
ATOM     10  C   UNL A   1      31.695  23.014  23.220  1.00  0.00     0.007 C 
ATOM     11  C   UNL A   1      33.279  23.532  25.081  1.00  0.00     0.010 C 
ATOM     12  C   UNL A   1      31.795  25.441  24.053  1.00  0.00     0.005 C 
ATOM     13  C   UNL A   1      32.361  21.642  23.056  1.00  0.00     0.002 C 
ATOM     14  C   UNL A   1      33.863  24.607  25.995  1.00  0.00     0.006 C 
ATOM     15  C   UNL A   1      32.392  26.449  25.114  1.00  0.00    -0.008 C 
ATOM     16  C   UNL A   1      30.275  25.583  24.064  1.00  0.00     0.006 C 
ATOM     17  C   UNL A   1      33.166  21.186  24.285  1.00  0.00     0.017 C 
ATOM     18  C   UNL A   1      35.314  22.258  23.713  1.00  0.00     0.022 C 
ATOM     19  C   UNL A   1      32.924  25.747  26.341  1.00  0.00     0.012 C 
ATOM     20  C   UNL A   1      33.286  27.329  24.289  1.00  0.00    -0.018 C 
ATOM     21  C   UNL A   1      31.403  27.567  25.536  1.00  0.00     0.019 C 
ATOM     22  C   UNL A   1      29.999  27.069  23.601  1.00  0.00     0.008 C 
ATOM     23  C   UNL A   1      32.475  28.153  23.589  1.00  0.00    -0.045 C 
ATOM     24  C   UNL A   1      31.037  28.109  24.160  1.00  0.00     0.018 C 
BRANCH  23  25
ATOM     25  C   UNL A   1      32.880  28.950  22.399  1.00  0.00     0.187 C 
BRANCH  25  26
ATOM     26  O   UNL A   1      33.825  28.212  21.626  1.00  0.00    -0.392 OA
ATOM     27  H   UNL A   1      33.516  27.298  21.524  1.00  0.00     0.211 HD
ENDBRANCH  25  26
ENDBRANCH  23  25
ENDBRANCH   4   7
ENDBRANCH   2   3
ENDBRANCH   1   2
BRANCH   1  28
ATOM     28  C   UNL A   1      39.048  23.720  26.897  1.00  0.00     0.118 C 
BRANCH  28  29
ATOM     29  N   UNL A   1      40.160  24.179  26.090  1.00  0.00    -0.352 N 
ATOM     30  C   UNL A   1      40.853  25.362  26.171  1.00  0.00     0.251 C 
ATOM     31  H   UNL A   1      40.460  23.558  25.387  1.00  0.00     0.163 HD
ATOM     32  O   UNL A   1      41.568  25.696  25.231  1.00  0.00    -0.269 OA
BRANCH  30  33
ATOM     33  C   UNL A   1      40.733  26.232  27.368  1.00  0.00     0.039 A 
ATOM     34  C   UNL A   1      39.817  25.879  28.361  1.00  0.00     0.014 A 
ATOM     35  C   UNL A   1      41.474  27.411  27.504  1.00  0.00     0.014 A 
ATOM     36  C   UNL A   1      39.654  26.698  29.480  1.00  0.00     0.010 A 
ATOM     37  C   UNL A   1      41.402  28.158  28.676  1.00  0.00     0.010 A 
ATOM     38  C   UNL A   1      40.456  27.840  29.655  1.00  0.00    -0.014 A 
BRANCH  38  39
ATOM     39  C   UNL A   1      40.255  28.736  30.822  1.00  0.00     0.031 A 
ATOM     40  C   UNL A   1      41.116  28.587  32.051  1.00  0.00     0.074 A 
ATOM     41  C   UNL A   1      39.298  29.684  30.775  1.00  0.00     0.049 A 
ATOM     42  N   UNL A   1      41.131  29.311  33.142  1.00  0.00    -0.248 NA
ATOM     43  C   UNL A   1      42.066  27.461  32.075  1.00  0.00     0.031 C 
ATOM     44  C   UNL A   1      38.352  29.877  29.674  1.00  0.00     0.029 A 
ATOM     45  N   UNL A   1      38.972  30.671  31.669  1.00  0.00    -0.354 N 
ATOM     46  C   UNL A   1      42.077  28.724  33.976  1.00  0.00     0.074 A 
ATOM     47  C   UNL A   1      42.564  27.544  33.300  1.00  0.00     0.031 C 
ATOM     48  C   UNL A   1      37.589  30.951  29.933  1.00  0.00     0.029 A 
ATOM     49  C   UNL A   1      37.971  31.504  31.228  1.00  0.00     0.049 A 
ATOM     50  H   UNL A   1      39.412  30.774  32.543  1.00  0.00     0.167 HD
ATOM     51  C   UNL A   1      42.529  29.147  35.181  1.00  0.00     0.037 A 
ATOM     52  C   UNL A   1      37.435  32.602  31.796  1.00  0.00     0.037 A 
ATOM     53  C   UNL A   1      42.066  30.343  35.833  1.00  0.00     0.049 A 
ATOM     54  C   UNL A   1      37.983  33.079  33.113  1.00  0.00     0.074 A 
ATOM     55  C   UNL A   1      42.496  30.898  37.025  1.00  0.00     0.029 A 
ATOM     56  N   UNL A   1      41.066  31.173  35.344  1.00  0.00    -0.354 N 
ATOM     57  N   UNL A   1      38.931  32.554  33.852  1.00  0.00    -0.248 NA
ATOM     58  C   UNL A   1      37.401  34.310  33.664  1.00  0.00     0.031 C 
ATOM     59  C   UNL A   1      41.730  32.042  37.276  1.00  0.00     0.029 A 
ATOM     60  C   UNL A   1      40.856  32.227  36.217  1.00  0.00     0.049 A 
ATOM     61  H   UNL A   1      40.579  31.033  34.500  1.00  0.00     0.167 HD
ATOM     62  C   UNL A   1      39.073  33.400  34.946  1.00  0.00     0.074 A 
ATOM     63  C   UNL A   1      38.131  34.484  34.756  1.00  0.00     0.031 C 
ATOM     64  C   UNL A   1      39.906  33.292  36.011  1.00  0.00     0.037 A 
BRANCH  51  65
ATOM     65  C   UNL A   1      43.588  28.319  35.860  1.00  0.00     0.058 A 
ATOM     66  C   UNL A   1      43.257  27.258  36.720  1.00  0.00     0.135 A 
ATOM     67  C   UNL A   1      44.950  28.572  35.630  1.00  0.00     0.135 A 
ATOM     68  F   UNL A   1      41.971  26.983  36.990  1.00  0.00    -0.206 F 
ATOM     69  C   UNL A   1      44.237  26.499  37.351  1.00  0.00     0.059 A 
ATOM     70  C   UNL A   1      45.947  27.806  36.228  1.00  0.00     0.059 A 
ATOM     71  F   UNL A   1      45.325  29.574  34.820  1.00  0.00    -0.206 F 
ATOM     72  C   UNL A   1      45.580  26.781  37.099  1.00  0.00     0.060 A 
BRANCH  72  73
ATOM     73  S   UNL A   1      46.838  25.781  37.923  1.00  0.00     0.124 S 
ATOM     74  O   UNL A   1      47.272  24.908  36.837  1.00  0.00    -0.237 OA
ATOM     75  O   UNL A   1      47.804  26.786  38.352  1.00  0.00    -0.237 OA
ATOM     76  O   UNL A   1      46.100  25.124  38.999  1.00  0.00    -0.744 OA
ENDBRANCH  72  73
ENDBRANCH  51  65
BRANCH  52  77
ATOM     77  C   UNL A   1      36.355  33.347  31.097  1.00  0.00     0.058 A 
ATOM     78  C   UNL A   1      35.035  33.319  31.569  1.00  0.00     0.135 A 
ATOM     79  C   UNL A   1      36.624  34.119  29.956  1.00  0.00     0.135 A 
ATOM     80  F   UNL A   1      34.726  32.595  32.656  1.00  0.00    -0.206 F 
ATOM     81  C   UNL A   1      34.014  34.013  30.926  1.00  0.00     0.059 A 
ATOM     82  C   UNL A   1      35.627  34.842  29.312  1.00  0.00     0.059 A 
ATOM     83  F   UNL A   1      37.875  34.197  29.477  1.00  0.00    -0.206 F 
ATOM     84  C   UNL A   1      34.321  34.774  29.798  1.00  0.00     0.060 A 
BRANCH  84  85
ATOM     85  S   UNL A   1      33.002  35.714  28.999  1.00  0.00     0.124 S 
ATOM     86  O   UNL A   1      32.451  34.724  28.081  1.00  0.00    -0.237 OA
ATOM     87  O   UNL A   1      32.155  36.078  30.131  1.00  0.00    -0.237 OA
ATOM     88  O   UNL A   1      33.714  36.827  28.377  1.00  0.00    -0.744 OA
ENDBRANCH  84  85
ENDBRANCH  52  77
BRANCH  64  89
ATOM     89  C   UNL A   1      39.844  34.389  37.038  1.00  0.00     0.058 A 
ATOM     90  C   UNL A   1      38.988  34.311  38.148  1.00  0.00     0.135 A 
ATOM     91  C   UNL A   1      40.656  35.527  36.913  1.00  0.00     0.135 A 
ATOM     92  F   UNL A   1      38.190  33.245  38.313  1.00  0.00    -0.206 F 
ATOM     93  C   UNL A   1      38.903  35.347  39.072  1.00  0.00     0.059 A 
ATOM     94  C   UNL A   1      40.609  36.561  37.842  1.00  0.00     0.059 A 
ATOM     95  F   UNL A   1      41.506  35.643  35.880  1.00  0.00    -0.206 F 
ATOM     96  C   UNL A   1      39.712  36.472  38.906  1.00  0.00     0.060 A 
BRANCH  96  97
ATOM     97  S   UNL A   1      39.584  37.817  40.103  1.00  0.00     0.124 S 
ATOM     98  O   UNL A   1      40.871  38.484  39.929  1.00  0.00    -0.237 OA
ATOM     99  O   UNL A   1      38.418  38.553  39.626  1.00  0.00    -0.237 OA
ATOM    100  O   UNL A   1      39.403  37.123  41.375  1.00  0.00    -0.744 OA
ENDBRANCH  96  97
ENDBRANCH  64  89
ENDBRANCH  38  39
ENDBRANCH  30  33
ENDBRANCH  28  29
ENDBRANCH   1  28
TORSDOF 15
ENDMDL
MODEL 2
REMARK VINA RESULT:     -13.6      5.216      9.790
REMARK SMILES C[C@@]12CCC[C@](C)(C(=O)NCCCNC(=O)c3ccc(-c4c5nc(c(-c6c(F)cc(S(=O)(=O)[O-])cc6F)c6ccc([nH]6)c(-c6c(F)cc(S(=O)(=O)[O-])cc6F)c6nc(c(-c7c(F)cc(S(=O)(=O)[O-])cc7F)c7ccc4[nH]7)C=C6)C=C5)cc3)[C@H]1CC[C@@]13C=C(CO)[C@@H](CC[C@@H]12)C3
REMARK SMILES IDX 12 1 11 2 10 3 8 4 9 5 6 7 1 8 2 9 3 10 83 11 94 12 4 13
REMARK SMILES IDX 84 14 86 15 93 16 5 17 7 18 85 19 87 20 95 21 92 22 88 23
REMARK SMILES IDX 91 24 89 25 90 26 13 28 14 29 15 30 16 32 17 33 18 34 82 35
REMARK SMILES IDX 19 36 81 37 20 38 21 39 22 40 75 41 23 42 80 43 74 44 76 45
REMARK SMILES IDX 24 46 79 47 73 48 72 49 25 51 59 52 38 53 58 54 39 55 42 56
REMARK SMILES IDX 57 57 77 58 40 59 41 60 56 62 78 63 43 64 26 65 27 66 36 67
REMARK SMILES IDX 28 68 29 69 35 70 37 71 30 72 31 73 32 74 33 75 34 76 60 77
REMARK SMILES IDX 61 78 70 79 62 80 63 81 69 82 71 83 64 84 65 85 66 86 67 87
REMARK SMILES IDX 68 88 44 89 45 90 54 91 46 92 47 93 53 94 55 95 48 96 49 97
REMARK SMILES IDX 50 98 51 99 52 100
REMARK H PARENT 10 6 90 27 14 31 76 50 42 61
REMARK Flexibility Score: inf
ROOT
ATOM      1  C   UNL A   1      33.693  27.760  25.469  1.00  0.00     0.042 C 
ENDROOT
BRANCH   1   2
ATOM      2  C   UNL A   1      32.396  28.240  24.825  1.00  0.00     0.117 C 
BRANCH   2   3
ATOM      3  N   UNL A   1      31.231  27.480  25.276  1.00  0.00    -0.356 N 
ATOM      4  C   UNL A   1      30.694  26.271  24.925  1.00  0.00     0.226 C 
ATOM      5  O   UNL A   1      29.654  25.953  25.509  1.00  0.00    -0.274 OA
ATOM      6  H   UNL A   1      30.723  27.937  25.984  1.00  0.00     0.163 HD
BRANCH   4   7
ATOM      7  C   UNL A   1      31.363  25.323  23.894  1.00  0.00     0.050 C 
ATOM      8  C   UNL A   1      32.395  22.533  23.106  1.00  0.00     0.012 C 
ATOM      9  C   UNL A   1      33.394  23.693  23.460  1.00  0.00    -0.025 C 
ATOM     10  C   UNL A   1      33.748  24.494  22.183  1.00  0.00     0.007 C 
ATOM     11  C   UNL A   1      32.719  24.687  24.452  1.00  0.00     0.010 C 
ATOM     12  C   UNL A   1      34.668  22.974  24.038  1.00  0.00     0.005 C 
ATOM     13  C   UNL A   1      32.603  25.338  21.610  1.00  0.00     0.002 C 
ATOM     14  C   UNL A   1      32.698  24.171  25.889  1.00  0.00     0.006 C 
ATOM     15  C   UNL A   1      34.629  22.589  25.570  1.00  0.00    -0.008 C 
ATOM     16  C   UNL A   1      36.120  23.250  23.653  1.00  0.00     0.006 C 
ATOM     17  C   UNL A   1      31.846  26.165  22.662  1.00  0.00     0.017 C 
ATOM     18  C   UNL A   1      30.201  24.453  23.336  1.00  0.00     0.022 C 
ATOM     19  C   UNL A   1      34.031  23.682  26.424  1.00  0.00     0.012 C 
ATOM     20  C   UNL A   1      34.033  21.211  25.565  1.00  0.00    -0.018 C 
ATOM     21  C   UNL A   1      36.008  22.171  26.143  1.00  0.00     0.019 C 
ATOM     22  C   UNL A   1      36.870  21.877  23.877  1.00  0.00     0.008 C 
ATOM     23  C   UNL A   1      34.999  20.376  25.122  1.00  0.00    -0.045 C 
ATOM     24  C   UNL A   1      36.375  21.083  25.140  1.00  0.00     0.018 C 
BRANCH  23  25
ATOM     25  C   UNL A   1      34.775  18.990  24.626  1.00  0.00     0.187 C 
BRANCH  25  26
ATOM     26  O   UNL A   1      35.880  18.165  24.993  1.00  0.00    -0.392 OA
ATOM     27  H   UNL A   1      36.494  18.674  25.545  1.00  0.00     0.211 HD
ENDBRANCH  25  26
ENDBRANCH  23  25
ENDBRANCH   4   7
ENDBRANCH   2   3
ENDBRANCH   1   2
BRANCH   1  28
ATOM     28  C   UNL A   1      33.737  27.995  26.961  1.00  0.00     0.118 C 
BRANCH  28  29
ATOM     29  N   UNL A   1      33.503  29.388  27.278  1.00  0.00    -0.352 N 
ATOM     30  C   UNL A   1      34.318  30.267  27.950  1.00  0.00     0.251 C 
ATOM     31  H   UNL A   1      32.644  29.756  26.971  1.00  0.00     0.163 HD
ATOM     32  O   UNL A   1      33.838  31.315  28.372  1.00  0.00    -0.269 OA
BRANCH  30  33
ATOM     33  C   UNL A   1      35.751  29.954  28.176  1.00  0.00     0.039 A 
ATOM     34  C   UNL A   1      36.157  29.566  29.455  1.00  0.00     0.014 A 
ATOM     35  C   UNL A   1      36.706  30.081  27.161  1.00  0.00     0.014 A 
ATOM     36  C   UNL A   1      37.504  29.301  29.706  1.00  0.00     0.010 A 
ATOM     37  C   UNL A   1      38.025  29.697  27.382  1.00  0.00     0.010 A 
ATOM     38  C   UNL A   1      38.451  29.351  28.668  1.00  0.00    -0.014 A 
BRANCH  38  39
ATOM     39  C   UNL A   1      39.891  29.114  28.943  1.00  0.00     0.031 A 
ATOM     40  C   UNL A   1      40.520  27.786  28.601  1.00  0.00     0.074 A 
ATOM     41  C   UNL A   1      40.632  30.092  29.498  1.00  0.00     0.049 A 
ATOM     42  N   UNL A   1      41.769  27.412  28.709  1.00  0.00    -0.248 NA
ATOM     43  C   UNL A   1      39.627  26.727  28.098  1.00  0.00     0.031 C 
ATOM     44  C   UNL A   1      40.122  31.391  29.942  1.00  0.00     0.029 A 
ATOM     45  N   UNL A   1      41.975  30.153  29.771  1.00  0.00    -0.354 N 
ATOM     46  C   UNL A   1      41.806  26.082  28.301  1.00  0.00     0.074 A 
ATOM     47  C   UNL A   1      40.447  25.691  28.010  1.00  0.00     0.031 C 
ATOM     48  C   UNL A   1      41.146  32.139  30.383  1.00  0.00     0.029 A 
ATOM     49  C   UNL A   1      42.378  31.365  30.278  1.00  0.00     0.049 A 
ATOM     50  H   UNL A   1      42.591  29.400  29.619  1.00  0.00     0.167 HD
ATOM     51  C   UNL A   1      42.879  25.269  28.144  1.00  0.00     0.037 A 
ATOM     52  C   UNL A   1      43.609  31.809  30.603  1.00  0.00     0.037 A 
ATOM     53  C   UNL A   1      44.235  25.677  28.401  1.00  0.00     0.049 A 
ATOM     54  C   UNL A   1      44.790  30.905  30.379  1.00  0.00     0.074 A 
ATOM     55  C   UNL A   1      45.402  24.956  28.220  1.00  0.00     0.029 A 
ATOM     56  N   UNL A   1      44.607  26.921  28.892  1.00  0.00    -0.354 N 
ATOM     57  N   UNL A   1      44.814  29.676  29.920  1.00  0.00    -0.248 NA
ATOM     58  C   UNL A   1      46.113  31.455  30.700  1.00  0.00     0.031 C 
ATOM     59  C   UNL A   1      46.475  25.750  28.638  1.00  0.00     0.029 A 
ATOM     60  C   UNL A   1      45.982  26.983  29.034  1.00  0.00     0.049 A 
ATOM     61  H   UNL A   1      43.983  27.652  29.107  1.00  0.00     0.167 HD
ATOM     62  C   UNL A   1      46.155  29.312  29.878  1.00  0.00     0.074 A 
ATOM     63  C   UNL A   1      46.911  30.462  30.335  1.00  0.00     0.031 C 
ATOM     64  C   UNL A   1      46.713  28.136  29.498  1.00  0.00     0.037 A 
BRANCH  51  65
ATOM     65  C   UNL A   1      42.627  23.867  27.659  1.00  0.00     0.058 A 
ATOM     66  C   UNL A   1      42.504  22.788  28.551  1.00  0.00     0.135 A 
ATOM     67  C   UNL A   1      42.481  23.599  26.288  1.00  0.00     0.135 A 
ATOM     68  F   UNL A   1      42.652  22.982  29.871  1.00  0.00    -0.206 F 
ATOM     69  C   UNL A   1      42.277  21.492  28.100  1.00  0.00     0.059 A 
ATOM     70  C   UNL A   1      42.225  22.314  25.817  1.00  0.00     0.059 A 
ATOM     71  F   UNL A   1      42.591  24.590  25.390  1.00  0.00    -0.206 F 
ATOM     72  C   UNL A   1      42.140  21.264  26.731  1.00  0.00     0.060 A 
BRANCH  72  73
ATOM     73  S   UNL A   1      41.840  19.576  26.163  1.00  0.00     0.124 S 
ATOM     74  O   UNL A   1      42.239  18.801  27.334  1.00  0.00    -0.237 OA
ATOM     75  O   UNL A   1      40.411  19.593  25.871  1.00  0.00    -0.237 OA
ATOM     76  O   UNL A   1      42.715  19.449  24.999  1.00  0.00    -0.744 OA
ENDBRANCH  72  73
ENDBRANCH  51  65
BRANCH  52  77
ATOM     77  C   UNL A   1      43.785  33.190  31.126  1.00  0.00     0.058 A 
ATOM     78  C   UNL A   1      43.898  34.284  30.256  1.00  0.00     0.135 A 
ATOM     79  C   UNL A   1      43.824  33.445  32.505  1.00  0.00     0.135 A 
ATOM     80  F   UNL A   1      43.868  34.091  28.929  1.00  0.00    -0.206 F 
ATOM     81  C   UNL A   1      44.062  35.581  30.733  1.00  0.00     0.059 A 
ATOM     82  C   UNL A   1      43.960  34.735  33.006  1.00  0.00     0.059 A 
ATOM     83  F   UNL A   1      43.699  32.435  33.381  1.00  0.00    -0.206 F 
ATOM     84  C   UNL A   1      44.090  35.797  32.110  1.00  0.00     0.060 A 
BRANCH  84  85
ATOM     85  S   UNL A   1      44.249  37.489  32.721  1.00  0.00     0.124 S 
ATOM     86  O   UNL A   1      45.563  37.450  33.353  1.00  0.00    -0.237 OA
ATOM     87  O   UNL A   1      44.154  38.271  31.492  1.00  0.00    -0.237 OA
ATOM     88  O   UNL A   1      43.114  37.625  33.630  1.00  0.00    -0.744 OA
ENDBRANCH  84  85
ENDBRANCH  52  77
BRANCH  64  89
ATOM     89  C   UNL A   1      48.213  28.048  29.542  1.00  0.00     0.058 A 
ATOM     90  C   UNL A   1      49.004  28.363  28.426  1.00  0.00     0.135 A 
ATOM     91  C   UNL A   1      48.868  27.652  30.719  1.00  0.00     0.135 A 
ATOM     92  F   UNL A   1      48.427  28.746  27.276  1.00  0.00    -0.206 F 
ATOM     93  C   UNL A   1      50.388  28.240  28.459  1.00  0.00     0.059 A 
ATOM     94  C   UNL A   1      50.254  27.552  30.784  1.00  0.00     0.059 A 
ATOM     95  F   UNL A   1      48.161  27.357  31.822  1.00  0.00    -0.206 F 
ATOM     96  C   UNL A   1      51.004  27.826  29.641  1.00  0.00     0.060 A 
BRANCH  96  97
ATOM     97  S   UNL A   1      52.801  27.656  29.670  1.00  0.00     0.124 S 
ATOM     98  O   UNL A   1      52.956  26.300  30.187  1.00  0.00    -0.237 OA
ATOM     99  O   UNL A   1      53.158  27.845  28.268  1.00  0.00    -0.237 OA
ATOM    100  O   UNL A   1      53.228  28.724  30.569  1.00  0.00    -0.744 OA
ENDBRANCH  96  97
ENDBRANCH  64  89
ENDBRANCH  38  39
ENDBRANCH  30  33
ENDBRANCH  28  29
ENDBRANCH   1  28
TORSDOF 15
ENDMDL
MODEL 3
REMARK VINA RESULT:     -13.5      4.797     10.342
REMARK SMILES C[C@@]12CCC[C@](C)(C(=O)NCCCNC(=O)c3ccc(-c4c5nc(c(-c6c(F)cc(S(=O)(=O)[O-])cc6F)c6ccc([nH]6)c(-c6c(F)cc(S(=O)(=O)[O-])cc6F)c6nc(c(-c7c(F)cc(S(=O)(=O)[O-])cc7F)c7ccc4[nH]7)C=C6)C=C5)cc3)[C@H]1CC[C@@]13C=C(CO)[C@@H](CC[C@@H]12)C3
REMARK SMILES IDX 12 1 11 2 10 3 8 4 9 5 6 7 1 8 2 9 3 10 83 11 94 12 4 13
REMARK SMILES IDX 84 14 86 15 93 16 5 17 7 18 85 19 87 20 95 21 92 22 88 23
REMARK SMILES IDX 91 24 89 25 90 26 13 28 14 29 15 30 16 32 17 33 18 34 82 35
REMARK SMILES IDX 19 36 81 37 20 38 21 39 22 40 75 41 23 42 80 43 74 44 76 45
REMARK SMILES IDX 24 46 79 47 73 48 72 49 25 51 59 52 38 53 58 54 39 55 42 56
REMARK SMILES IDX 57 57 77 58 40 59 41 60 56 62 78 63 43 64 26 65 27 66 36 67
REMARK SMILES IDX 28 68 29 69 35 70 37 71 30 72 31 73 32 74 33 75 34 76 60 77
REMARK SMILES IDX 61 78 70 79 62 80 63 81 69 82 71 83 64 84 65 85 66 86 67 87
REMARK SMILES IDX 68 88 44 89 45 90 54 91 46 92 47 93 53 94 55 95 48 96 49 97
REMARK SMILES IDX 50 98 51 99 52 100
REMARK H PARENT 10 6 90 27 14 31 76 50 42 61
REMARK Flexibility Score: inf
ROOT
ATOM      1  C   UNL A   1      33.806  28.006  25.753  1.00  0.00     0.042 C 
ENDROOT
BRANCH   1   2
ATOM      2  C   UNL A   1      32.541  28.309  24.957  1.00  0.00     0.117 C 
BRANCH   2   3
ATOM      3  N   UNL A   1      31.384  27.552  25.431  1.00  0.00    -0.356 N 
ATOM      4  C   UNL A   1      30.827  26.352  25.081  1.00  0.00     0.226 C 
ATOM      5  O   UNL A   1      29.802  26.034  25.690  1.00  0.00    -0.274 OA
ATOM      6  H   UNL A   1      30.901  28.003  26.160  1.00  0.00     0.163 HD
BRANCH   4   7
ATOM      7  C   UNL A   1      31.458  25.412  24.018  1.00  0.00     0.050 C 
ATOM      8  C   UNL A   1      32.402  22.616  23.147  1.00  0.00     0.012 C 
ATOM      9  C   UNL A   1      33.437  23.737  23.520  1.00  0.00    -0.025 C 
ATOM     10  C   UNL A   1      33.802  24.561  22.261  1.00  0.00     0.007 C 
ATOM     11  C   UNL A   1      32.801  24.723  24.545  1.00  0.00     0.010 C 
ATOM     12  C   UNL A   1      34.695  22.967  24.065  1.00  0.00     0.005 C 
ATOM     13  C   UNL A   1      32.676  25.452  21.722  1.00  0.00     0.002 C 
ATOM     14  C   UNL A   1      32.779  24.171  25.968  1.00  0.00     0.006 C 
ATOM     15  C   UNL A   1      34.660  22.543  25.588  1.00  0.00    -0.008 C 
ATOM     16  C   UNL A   1      36.150  23.211  23.673  1.00  0.00     0.006 C 
ATOM     17  C   UNL A   1      31.953  26.273  22.804  1.00  0.00     0.017 C 
ATOM     18  C   UNL A   1      30.267  24.591  23.450  1.00  0.00     0.022 C 
ATOM     19  C   UNL A   1      34.103  23.629  26.476  1.00  0.00     0.012 C 
ATOM     20  C   UNL A   1      34.024  21.183  25.553  1.00  0.00    -0.018 C 
ATOM     21  C   UNL A   1      36.032  22.070  26.134  1.00  0.00     0.019 C 
ATOM     22  C   UNL A   1      36.864  21.812  23.853  1.00  0.00     0.008 C 
ATOM     23  C   UNL A   1      34.962  20.333  25.077  1.00  0.00    -0.045 C 
ATOM     24  C   UNL A   1      36.358  21.000  25.100  1.00  0.00     0.018 C 
BRANCH  23  25
ATOM     25  C   UNL A   1      34.694  18.967  24.548  1.00  0.00     0.187 C 
BRANCH  25  26
ATOM     26  O   UNL A   1      35.712  18.072  24.991  1.00  0.00    -0.392 OA
ATOM     27  H   UNL A   1      35.314  17.371  25.531  1.00  0.00     0.211 HD
ENDBRANCH  25  26
ENDBRANCH  23  25
ENDBRANCH   4   7
ENDBRANCH   2   3
ENDBRANCH   1   2
BRANCH   1  28
ATOM     28  C   UNL A   1      33.639  28.228  27.238  1.00  0.00     0.118 C 
BRANCH  28  29
ATOM     29  N   UNL A   1      33.500  29.636  27.544  1.00  0.00    -0.352 N 
ATOM     30  C   UNL A   1      34.396  30.477  28.159  1.00  0.00     0.251 C 
ATOM     31  H   UNL A   1      32.648  30.048  27.274  1.00  0.00     0.163 HD
ATOM     32  O   UNL A   1      33.997  31.556  28.588  1.00  0.00    -0.269 OA
BRANCH  30  33
ATOM     33  C   UNL A   1      35.819  30.086  28.318  1.00  0.00     0.039 A 
ATOM     34  C   UNL A   1      36.259  29.663  29.575  1.00  0.00     0.014 A 
ATOM     35  C   UNL A   1      36.734  30.174  27.264  1.00  0.00     0.014 A 
ATOM     36  C   UNL A   1      37.600  29.325  29.764  1.00  0.00     0.010 A 
ATOM     37  C   UNL A   1      38.039  29.719  27.422  1.00  0.00     0.010 A 
ATOM     38  C   UNL A   1      38.502  29.337  28.685  1.00  0.00    -0.014 A 
BRANCH  38  39
ATOM     39  C   UNL A   1      39.938  29.021  28.893  1.00  0.00     0.031 A 
ATOM     40  C   UNL A   1      40.855  30.038  29.524  1.00  0.00     0.074 A 
ATOM     41  C   UNL A   1      40.416  27.819  28.515  1.00  0.00     0.049 A 
ATOM     42  N   UNL A   1      42.120  29.925  29.842  1.00  0.00    -0.248 NA
ATOM     43  C   UNL A   1      40.290  31.368  29.812  1.00  0.00     0.031 C 
ATOM     44  C   UNL A   1      39.645  26.781  27.826  1.00  0.00     0.029 A 
ATOM     45  N   UNL A   1      41.659  27.261  28.669  1.00  0.00    -0.354 N 
ATOM     46  C   UNL A   1      42.498  31.162  30.352  1.00  0.00     0.074 A 
ATOM     47  C   UNL A   1      41.353  32.035  30.237  1.00  0.00     0.031 C 
ATOM     48  C   UNL A   1      40.417  25.694  27.664  1.00  0.00     0.029 A 
ATOM     49  C   UNL A   1      41.741  25.967  28.212  1.00  0.00     0.049 A 
ATOM     50  H   UNL A   1      42.420  27.741  29.068  1.00  0.00     0.167 HD
ATOM     51  C   UNL A   1      43.680  31.531  30.902  1.00  0.00     0.037 A 
ATOM     52  C   UNL A   1      42.766  25.092  28.250  1.00  0.00     0.037 A 
ATOM     53  C   UNL A   1      44.805  30.647  31.047  1.00  0.00     0.049 A 
ATOM     54  C   UNL A   1      44.053  25.508  28.905  1.00  0.00     0.074 A 
ATOM     55  C   UNL A   1      46.029  30.897  31.642  1.00  0.00     0.029 A 
ATOM     56  N   UNL A   1      44.843  29.336  30.592  1.00  0.00    -0.354 N 
ATOM     57  N   UNL A   1      44.367  26.660  29.451  1.00  0.00    -0.248 NA
ATOM     58  C   UNL A   1      45.120  24.501  28.967  1.00  0.00     0.031 C 
ATOM     59  C   UNL A   1      46.820  29.750  31.513  1.00  0.00     0.029 A 
ATOM     60  C   UNL A   1      46.073  28.769  30.881  1.00  0.00     0.049 A 
ATOM     61  H   UNL A   1      44.103  28.876  30.133  1.00  0.00     0.167 HD
ATOM     62  C   UNL A   1      45.661  26.509  29.939  1.00  0.00     0.074 A 
ATOM     63  C   UNL A   1      46.058  25.146  29.645  1.00  0.00     0.031 C 
ATOM     64  C   UNL A   1      46.450  27.413  30.572  1.00  0.00     0.037 A 
BRANCH  51  65
ATOM     65  C   UNL A   1      43.805  32.947  31.402  1.00  0.00     0.058 A 
ATOM     66  C   UNL A   1      43.425  33.306  32.706  1.00  0.00     0.135 A 
ATOM     67  C   UNL A   1      44.334  33.952  30.577  1.00  0.00     0.135 A 
ATOM     68  F   UNL A   1      42.897  32.389  33.532  1.00  0.00    -0.206 F 
ATOM     69  C   UNL A   1      43.535  34.615  33.163  1.00  0.00     0.059 A 
ATOM     70  C   UNL A   1      44.480  35.263  31.023  1.00  0.00     0.059 A 
ATOM     71  F   UNL A   1      44.711  33.668  29.320  1.00  0.00    -0.206 F 
ATOM     72  C   UNL A   1      44.064  35.587  32.314  1.00  0.00     0.060 A 
BRANCH  72  73
ATOM     73  S   UNL A   1      44.205  37.281  32.925  1.00  0.00     0.124 S 
ATOM     74  O   UNL A   1      45.611  37.333  33.313  1.00  0.00    -0.237 OA
ATOM     75  O   UNL A   1      43.841  38.068  31.753  1.00  0.00    -0.237 OA
ATOM     76  O   UNL A   1      43.248  37.324  34.029  1.00  0.00    -0.744 OA
ENDBRANCH  72  73
ENDBRANCH  51  65
BRANCH  52  77
ATOM     77  C   UNL A   1      42.594  23.724  27.692  1.00  0.00     0.058 A 
ATOM     78  C   UNL A   1      42.344  22.628  28.531  1.00  0.00     0.135 A 
ATOM     79  C   UNL A   1      42.654  23.489  26.311  1.00  0.00     0.135 A 
ATOM     80  F   UNL A   1      42.279  22.801  29.860  1.00  0.00    -0.206 F 
ATOM     81  C   UNL A   1      42.180  21.343  28.023  1.00  0.00     0.059 A 
ATOM     82  C   UNL A   1      42.467  22.219  25.777  1.00  0.00     0.059 A 
ATOM     83  F   UNL A   1      42.868  24.508  25.464  1.00  0.00    -0.206 F 
ATOM     84  C   UNL A   1      42.241  21.148  26.643  1.00  0.00     0.060 A 
BRANCH  84  85
ATOM     85  S   UNL A   1      41.974  19.487  25.987  1.00  0.00     0.124 S 
ATOM     86  O   UNL A   1      42.871  19.478  24.837  1.00  0.00    -0.237 OA
ATOM     87  O   UNL A   1      42.368  18.645  27.113  1.00  0.00    -0.237 OA
ATOM     88  O   UNL A   1      40.547  19.475  25.676  1.00  0.00    -0.744 OA
ENDBRANCH  84  85
ENDBRANCH  52  77
BRANCH  64  89
ATOM     89  C   UNL A   1      47.811  26.943  31.003  1.00  0.00     0.058 A 
ATOM     90  C   UNL A   1      48.943  27.116  30.191  1.00  0.00     0.135 A 
ATOM     91  C   UNL A   1      47.987  26.320  32.249  1.00  0.00     0.135 A 
ATOM     92  F   UNL A   1      48.829  27.705  28.990  1.00  0.00    -0.206 F 
ATOM     93  C   UNL A   1      50.192  26.643  30.576  1.00  0.00     0.059 A 
ATOM     94  C   UNL A   1      49.233  25.866  32.668  1.00  0.00     0.059 A 
ATOM     95  F   UNL A   1      46.941  26.146  33.073  1.00  0.00    -0.206 F 
ATOM     96  C   UNL A   1      50.325  26.012  31.814  1.00  0.00     0.060 A 
BRANCH  96  97
ATOM     97  S   UNL A   1      51.948  25.388  32.299  1.00  0.00     0.124 S 
ATOM     98  O   UNL A   1      52.137  26.043  33.589  1.00  0.00    -0.237 OA
ATOM     99  O   UNL A   1      51.731  23.946  32.346  1.00  0.00    -0.237 OA
ATOM    100  O   UNL A   1      52.824  25.849  31.226  1.00  0.00    -0.744 OA
ENDBRANCH  96  97
ENDBRANCH  64  89
ENDBRANCH  38  39
ENDBRANCH  30  33
ENDBRANCH  28  29
ENDBRANCH   1  28
TORSDOF 15
ENDMDL
