MODEL 1
REMARK VINA RESULT:     -10.6      0.000      0.000
REMARK SMILES O=C(COCCNC(=O)Nc1cccc(F)c1)NCCCNC(=O)c1ccc(-c2c3nc(c(-c4c(F)cc(S(=O)(=O)[O-])cc4F)c4ccc([nH]4)c(-c4c(F)cc(S(=O)(=O)[O-])cc4F)c4nc(c(-c5c(F)cc(S(=O)(=O)[O-])cc5F)c5ccc2[nH]5)C=C4)C=C3)cc1
REMARK SMILES IDX 19 1 18 2 1 3 2 4 3 6 4 7 5 8 6 9 7 10 8 11 9 13 10 14 11 16
REMARK SMILES IDX 12 17 17 18 13 19 15 20 14 21 16 22 20 23 21 24 22 25 23 26
REMARK SMILES IDX 24 28 25 29 26 30 90 31 27 32 89 33 28 34 29 35 30 36 83 37
REMARK SMILES IDX 31 38 88 39 82 40 84 41 32 42 87 43 81 44 80 45 33 47 67 48
REMARK SMILES IDX 46 49 66 50 47 51 50 52 65 53 85 54 48 55 49 56 64 58 86 59
REMARK SMILES IDX 51 60 34 61 35 62 44 63 36 64 37 65 43 66 45 67 38 68 39 69
REMARK SMILES IDX 40 70 41 71 42 72 68 73 69 74 78 75 70 76 71 77 77 78 79 79
REMARK SMILES IDX 72 80 73 81 74 82 75 83 76 84 52 85 53 86 62 87 54 88 55 89
REMARK SMILES IDX 61 90 63 91 56 92 57 93 58 94 59 95 60 96
REMARK H PARENT 18 5 7 12 10 15 22 27 84 46 50 57
REMARK Flexibility Score: inf
ROOT
ATOM      1  C   UNL A   1      31.547  27.793  25.862  1.00  0.00     0.117 C 
ENDROOT
BRANCH   1   2
ATOM      2  N   UNL A   1      32.385  27.111  24.903  1.00  0.00    -0.354 N 
ATOM      3  O   UNL A   1      30.966  27.330  23.103  1.00  0.00    -0.272 OA
ATOM      4  C   UNL A   1      32.030  26.956  23.580  1.00  0.00     0.245 C 
ATOM      5  H   UNL A   1      33.246  26.741  25.207  1.00  0.00     0.163 HD
BRANCH   4   6
ATOM      6  C   UNL A   1      33.108  26.253  22.752  1.00  0.00     0.260 C 
BRANCH   6   7
ATOM      7  O   UNL A   1      33.650  25.067  23.315  1.00  0.00    -0.370 OA
BRANCH   7   8
ATOM      8  C   UNL A   1      33.036  23.852  22.887  1.00  0.00     0.182 C 
BRANCH   8   9
ATOM      9  C   UNL A   1      32.503  22.961  24.008  1.00  0.00     0.146 C 
BRANCH   9  10
ATOM     10  N   UNL A   1      31.989  23.646  25.193  1.00  0.00    -0.336 N 
ATOM     11  C   UNL A   1      32.378  23.714  26.485  1.00  0.00     0.319 C 
ATOM     12  H   UNL A   1      31.180  24.175  25.010  1.00  0.00     0.165 HD
ATOM     13  O   UNL A   1      31.609  24.230  27.298  1.00  0.00    -0.249 OA
ATOM     14  N   UNL A   1      33.525  23.161  26.937  1.00  0.00    -0.308 N 
ATOM     15  H   UNL A   1      33.512  22.912  27.890  1.00  0.00     0.171 HD
BRANCH  14  16
ATOM     16  C   UNL A   1      34.725  22.882  26.281  1.00  0.00     0.045 A 
ATOM     17  C   UNL A   1      35.567  23.898  25.810  1.00  0.00     0.026 A 
ATOM     18  C   UNL A   1      35.040  21.546  26.043  1.00  0.00     0.065 A 
ATOM     19  C   UNL A   1      36.626  23.585  24.955  1.00  0.00     0.005 A 
ATOM     20  C   UNL A   1      36.092  21.249  25.185  1.00  0.00     0.125 A 
ATOM     21  C   UNL A   1      36.867  22.256  24.616  1.00  0.00     0.039 A 
ATOM     22  F   UNL A   1      36.328  19.973  24.858  1.00  0.00    -0.207 F 
ENDBRANCH  14  16
ENDBRANCH   9  10
ENDBRANCH   8   9
ENDBRANCH   7   8
ENDBRANCH   6   7
ENDBRANCH   4   6
ENDBRANCH   1   2
BRANCH   1  23
ATOM     23  C   UNL A   1      32.218  27.906  27.222  1.00  0.00     0.042 C 
BRANCH  23  24
ATOM     24  C   UNL A   1      33.590  28.574  27.180  1.00  0.00     0.118 C 
BRANCH  24  25
ATOM     25  N   UNL A   1      33.573  29.950  27.659  1.00  0.00    -0.352 N 
ATOM     26  C   UNL A   1      34.555  30.672  28.294  1.00  0.00     0.251 C 
ATOM     27  H   UNL A   1      32.731  30.436  27.503  1.00  0.00     0.163 HD
ATOM     28  O   UNL A   1      34.296  31.781  28.744  1.00  0.00    -0.269 OA
BRANCH  26  29
ATOM     29  C   UNL A   1      35.910  30.097  28.462  1.00  0.00     0.039 A 
ATOM     30  C   UNL A   1      36.797  30.147  27.385  1.00  0.00     0.014 A 
ATOM     31  C   UNL A   1      36.308  29.524  29.672  1.00  0.00     0.014 A 
ATOM     32  C   UNL A   1      38.109  29.698  27.548  1.00  0.00     0.010 A 
ATOM     33  C   UNL A   1      37.637  29.145  29.856  1.00  0.00     0.010 A 
ATOM     34  C   UNL A   1      38.555  29.240  28.799  1.00  0.00    -0.014 A 
BRANCH  34  35
ATOM     35  C   UNL A   1      39.983  28.901  29.031  1.00  0.00     0.031 A 
ATOM     36  C   UNL A   1      40.933  29.924  29.588  1.00  0.00     0.074 A 
ATOM     37  C   UNL A   1      40.437  27.679  28.681  1.00  0.00     0.049 A 
ATOM     38  N   UNL A   1      42.221  29.828  29.790  1.00  0.00    -0.248 NA
ATOM     39  C   UNL A   1      40.366  31.234  29.949  1.00  0.00     0.031 C 
ATOM     40  C   UNL A   1      39.621  26.612  28.097  1.00  0.00     0.029 A 
ATOM     41  N   UNL A   1      41.694  27.130  28.754  1.00  0.00    -0.354 N 
ATOM     42  C   UNL A   1      42.620  31.059  30.297  1.00  0.00     0.074 A 
ATOM     43  C   UNL A   1      41.446  31.905  30.323  1.00  0.00     0.031 C 
ATOM     44  C   UNL A   1      40.389  25.530  27.895  1.00  0.00     0.029 A 
ATOM     45  C   UNL A   1      41.762  25.839  28.284  1.00  0.00     0.049 A 
ATOM     46  H   UNL A   1      42.473  27.616  29.109  1.00  0.00     0.167 HD
ATOM     47  C   UNL A   1      43.848  31.440  30.725  1.00  0.00     0.037 A 
ATOM     48  C   UNL A   1      42.810  24.999  28.165  1.00  0.00     0.037 A 
ATOM     49  C   UNL A   1      45.007  30.585  30.711  1.00  0.00     0.049 A 
ATOM     50  C   UNL A   1      44.172  25.461  28.606  1.00  0.00     0.074 A 
ATOM     51  C   UNL A   1      46.283  30.866  31.168  1.00  0.00     0.029 A 
ATOM     52  N   UNL A   1      45.037  29.291  30.213  1.00  0.00    -0.354 N 
ATOM     53  N   UNL A   1      44.520  26.610  29.133  1.00  0.00    -0.248 NA
ATOM     54  C   UNL A   1      45.286  24.517  28.436  1.00  0.00     0.031 C 
ATOM     55  C   UNL A   1      47.098  29.764  30.896  1.00  0.00     0.029 A 
ATOM     56  C   UNL A   1      46.318  28.772  30.323  1.00  0.00     0.049 A 
ATOM     57  H   UNL A   1      44.264  28.812  29.837  1.00  0.00     0.167 HD
ATOM     58  C   UNL A   1      45.886  26.521  29.375  1.00  0.00     0.074 A 
ATOM     59  C   UNL A   1      46.300  25.200  28.950  1.00  0.00     0.031 C 
ATOM     60  C   UNL A   1      46.720  27.452  29.900  1.00  0.00     0.037 A 
BRANCH  47  61
ATOM     61  C   UNL A   1      44.009  32.837  31.259  1.00  0.00     0.058 A 
ATOM     62  C   UNL A   1      44.503  33.864  30.438  1.00  0.00     0.135 A 
ATOM     63  C   UNL A   1      43.753  33.142  32.605  1.00  0.00     0.135 A 
ATOM     64  F   UNL A   1      44.762  33.631  29.142  1.00  0.00    -0.206 F 
ATOM     65  C   UNL A   1      44.753  35.138  30.938  1.00  0.00     0.059 A 
ATOM     66  C   UNL A   1      43.969  34.417  33.120  1.00  0.00     0.059 A 
ATOM     67  F   UNL A   1      43.263  32.202  33.429  1.00  0.00    -0.206 F 
ATOM     68  C   UNL A   1      44.486  35.405  32.281  1.00  0.00     0.060 A 
BRANCH  68  69
ATOM     69  S   UNL A   1      44.794  37.069  32.907  1.00  0.00     0.124 S 
ATOM     70  O   UNL A   1      46.111  36.924  33.515  1.00  0.00    -0.237 OA
ATOM     71  O   UNL A   1      44.739  37.870  31.687  1.00  0.00    -0.237 OA
ATOM     72  O   UNL A   1      43.691  37.290  33.840  1.00  0.00    -0.744 OA
ENDBRANCH  68  69
ENDBRANCH  47  61
BRANCH  48  73
ATOM     73  C   UNL A   1      42.599  23.632  27.620  1.00  0.00     0.058 A 
ATOM     74  C   UNL A   1      42.388  22.531  28.465  1.00  0.00     0.135 A 
ATOM     75  C   UNL A   1      42.650  23.392  26.238  1.00  0.00     0.135 A 
ATOM     76  F   UNL A   1      42.340  22.702  29.795  1.00  0.00    -0.206 F 
ATOM     77  C   UNL A   1      42.267  21.239  27.964  1.00  0.00     0.059 A 
ATOM     78  C   UNL A   1      42.503  22.113  25.710  1.00  0.00     0.059 A 
ATOM     79  F   UNL A   1      42.836  24.414  25.389  1.00  0.00    -0.206 F 
ATOM     80  C   UNL A   1      42.331  21.039  26.584  1.00  0.00     0.060 A 
BRANCH  80  81
ATOM     81  S   UNL A   1      42.194  19.352  25.956  1.00  0.00     0.124 S 
ATOM     82  O   UNL A   1      40.762  19.254  25.694  1.00  0.00    -0.237 OA
ATOM     83  O   UNL A   1      43.054  19.397  24.777  1.00  0.00    -0.237 OA
ATOM     84  O   UNL A   1      42.688  18.538  27.061  1.00  0.00    -0.744 OA
ENDBRANCH  80  81
ENDBRANCH  48  73
BRANCH  60  85
ATOM     85  C   UNL A   1      48.170  27.090  30.062  1.00  0.00     0.058 A 
ATOM     86  C   UNL A   1      48.618  26.453  31.231  1.00  0.00     0.135 A 
ATOM     87  C   UNL A   1      49.132  27.469  29.113  1.00  0.00     0.135 A 
ATOM     88  F   UNL A   1      47.742  26.072  32.173  1.00  0.00    -0.206 F 
ATOM     89  C   UNL A   1      49.971  26.235  31.467  1.00  0.00     0.059 A 
ATOM     90  C   UNL A   1      50.489  27.236  29.316  1.00  0.00     0.059 A 
ATOM     91  F   UNL A   1      48.754  28.069  27.972  1.00  0.00    -0.206 F 
ATOM     92  C   UNL A   1      50.900  26.638  30.507  1.00  0.00     0.060 A 
BRANCH  92  93
ATOM     93  S   UNL A   1      52.653  26.370  30.843  1.00  0.00     0.124 S 
ATOM     94  O   UNL A   1      52.620  25.178  31.684  1.00  0.00    -0.237 OA
ATOM     95  O   UNL A   1      53.197  26.185  29.500  1.00  0.00    -0.237 OA
ATOM     96  O   UNL A   1      53.063  27.599  31.514  1.00  0.00    -0.744 OA
ENDBRANCH  92  93
ENDBRANCH  60  85
ENDBRANCH  34  35
ENDBRANCH  26  29
ENDBRANCH  24  25
ENDBRANCH  23  24
ENDBRANCH   1  23
TORSDOF 18
ENDMDL
MODEL 2
REMARK VINA RESULT:     -10.5      1.271      2.235
REMARK SMILES O=C(COCCNC(=O)Nc1cccc(F)c1)NCCCNC(=O)c1ccc(-c2c3nc(c(-c4c(F)cc(S(=O)(=O)[O-])cc4F)c4ccc([nH]4)c(-c4c(F)cc(S(=O)(=O)[O-])cc4F)c4nc(c(-c5c(F)cc(S(=O)(=O)[O-])cc5F)c5ccc2[nH]5)C=C4)C=C3)cc1
REMARK SMILES IDX 19 1 18 2 1 3 2 4 3 6 4 7 5 8 6 9 7 10 8 11 9 13 10 14 11 16
REMARK SMILES IDX 12 17 17 18 13 19 15 20 14 21 16 22 20 23 21 24 22 25 23 26
REMARK SMILES IDX 24 28 25 29 26 30 90 31 27 32 89 33 28 34 29 35 30 36 83 37
REMARK SMILES IDX 31 38 88 39 82 40 84 41 32 42 87 43 81 44 80 45 33 47 67 48
REMARK SMILES IDX 46 49 66 50 47 51 50 52 65 53 85 54 48 55 49 56 64 58 86 59
REMARK SMILES IDX 51 60 34 61 35 62 44 63 36 64 37 65 43 66 45 67 38 68 39 69
REMARK SMILES IDX 40 70 41 71 42 72 68 73 69 74 78 75 70 76 71 77 77 78 79 79
REMARK SMILES IDX 72 80 73 81 74 82 75 83 76 84 52 85 53 86 62 87 54 88 55 89
REMARK SMILES IDX 61 90 63 91 56 92 57 93 58 94 59 95 60 96
REMARK H PARENT 18 5 7 12 10 15 22 27 84 46 50 57
REMARK Flexibility Score: inf
ROOT
ATOM      1  C   UNL A   1      31.634  27.656  25.794  1.00  0.00     0.117 C 
ENDROOT
BRANCH   1   2
ATOM      2  N   UNL A   1      31.836  26.272  26.156  1.00  0.00    -0.354 N 
ATOM      3  O   UNL A   1      29.682  25.570  25.745  1.00  0.00    -0.272 OA
ATOM      4  C   UNL A   1      30.835  25.327  26.077  1.00  0.00     0.245 C 
ATOM      5  H   UNL A   1      32.725  25.992  26.473  1.00  0.00     0.163 HD
BRANCH   4   6
ATOM      6  C   UNL A   1      31.311  23.923  26.458  1.00  0.00     0.260 C 
BRANCH   6   7
ATOM      7  O   UNL A   1      32.693  23.795  26.758  1.00  0.00    -0.370 OA
BRANCH   7   8
ATOM      8  C   UNL A   1      33.117  22.488  27.142  1.00  0.00     0.182 C 
BRANCH   8   9
ATOM      9  C   UNL A   1      34.371  21.975  26.435  1.00  0.00     0.146 C 
BRANCH   9  10
ATOM     10  N   UNL A   1      35.611  22.704  26.704  1.00  0.00    -0.336 N 
ATOM     11  C   UNL A   1      36.460  23.429  25.944  1.00  0.00     0.319 C 
ATOM     12  H   UNL A   1      35.888  22.654  27.646  1.00  0.00     0.165 HD
ATOM     13  O   UNL A   1      37.540  23.760  26.434  1.00  0.00    -0.249 OA
ATOM     14  N   UNL A   1      36.216  23.725  24.649  1.00  0.00    -0.308 N 
ATOM     15  H   UNL A   1      37.023  23.878  24.105  1.00  0.00     0.171 HD
BRANCH  14  16
ATOM     16  C   UNL A   1      35.014  23.851  23.950  1.00  0.00     0.045 A 
ATOM     17  C   UNL A   1      34.485  22.803  23.186  1.00  0.00     0.026 A 
ATOM     18  C   UNL A   1      34.374  25.089  23.977  1.00  0.00     0.065 A 
ATOM     19  C   UNL A   1      33.420  23.043  22.317  1.00  0.00     0.005 A 
ATOM     20  C   UNL A   1      33.320  25.316  23.102  1.00  0.00     0.125 A 
ATOM     21  C   UNL A   1      32.857  24.316  22.251  1.00  0.00     0.039 A 
ATOM     22  F   UNL A   1      32.775  26.537  23.037  1.00  0.00    -0.207 F 
ENDBRANCH  14  16
ENDBRANCH   9  10
ENDBRANCH   8   9
ENDBRANCH   7   8
ENDBRANCH   6   7
ENDBRANCH   4   6
ENDBRANCH   1   2
BRANCH   1  23
ATOM     23  C   UNL A   1      32.935  28.441  25.806  1.00  0.00     0.042 C 
BRANCH  23  24
ATOM     24  C   UNL A   1      33.539  28.615  27.196  1.00  0.00     0.118 C 
BRANCH  24  25
ATOM     25  N   UNL A   1      33.525  29.997  27.659  1.00  0.00    -0.352 N 
ATOM     26  C   UNL A   1      34.506  30.722  28.292  1.00  0.00     0.251 C 
ATOM     27  H   UNL A   1      32.686  30.484  27.494  1.00  0.00     0.163 HD
ATOM     28  O   UNL A   1      34.249  31.838  28.728  1.00  0.00    -0.269 OA
BRANCH  26  29
ATOM     29  C   UNL A   1      35.857  30.145  28.475  1.00  0.00     0.039 A 
ATOM     30  C   UNL A   1      36.735  30.136  27.388  1.00  0.00     0.014 A 
ATOM     31  C   UNL A   1      36.262  29.625  29.707  1.00  0.00     0.014 A 
ATOM     32  C   UNL A   1      38.045  29.684  27.560  1.00  0.00     0.010 A 
ATOM     33  C   UNL A   1      37.590  29.244  29.896  1.00  0.00     0.010 A 
ATOM     34  C   UNL A   1      38.499  29.281  28.827  1.00  0.00    -0.014 A 
BRANCH  34  35
ATOM     35  C   UNL A   1      39.926  28.941  29.062  1.00  0.00     0.031 A 
ATOM     36  C   UNL A   1      40.875  29.963  29.623  1.00  0.00     0.074 A 
ATOM     37  C   UNL A   1      40.381  27.720  28.710  1.00  0.00     0.049 A 
ATOM     38  N   UNL A   1      42.163  29.866  29.828  1.00  0.00    -0.248 NA
ATOM     39  C   UNL A   1      40.308  31.272  29.985  1.00  0.00     0.031 C 
ATOM     40  C   UNL A   1      39.565  26.654  28.123  1.00  0.00     0.029 A 
ATOM     41  N   UNL A   1      41.636  27.171  28.785  1.00  0.00    -0.354 N 
ATOM     42  C   UNL A   1      42.561  31.096  30.338  1.00  0.00     0.074 A 
ATOM     43  C   UNL A   1      41.388  31.942  30.362  1.00  0.00     0.031 C 
ATOM     44  C   UNL A   1      40.333  25.573  27.920  1.00  0.00     0.029 A 
ATOM     45  C   UNL A   1      41.705  25.880  28.313  1.00  0.00     0.049 A 
ATOM     46  H   UNL A   1      42.416  27.655  29.143  1.00  0.00     0.167 HD
ATOM     47  C   UNL A   1      43.788  31.475  30.769  1.00  0.00     0.037 A 
ATOM     48  C   UNL A   1      42.754  25.040  28.195  1.00  0.00     0.037 A 
ATOM     49  C   UNL A   1      44.947  30.620  30.755  1.00  0.00     0.049 A 
ATOM     50  C   UNL A   1      44.114  25.500  28.640  1.00  0.00     0.074 A 
ATOM     51  C   UNL A   1      46.222  30.900  31.216  1.00  0.00     0.029 A 
ATOM     52  N   UNL A   1      44.978  29.327  30.255  1.00  0.00    -0.354 N 
ATOM     53  N   UNL A   1      44.462  26.649  29.169  1.00  0.00    -0.248 NA
ATOM     54  C   UNL A   1      45.228  24.556  28.470  1.00  0.00     0.031 C 
ATOM     55  C   UNL A   1      47.037  29.798  30.944  1.00  0.00     0.029 A 
ATOM     56  C   UNL A   1      46.258  28.807  30.368  1.00  0.00     0.049 A 
ATOM     57  H   UNL A   1      44.205  28.849  29.877  1.00  0.00     0.167 HD
ATOM     58  C   UNL A   1      45.827  26.558  29.414  1.00  0.00     0.074 A 
ATOM     59  C   UNL A   1      46.242  25.238  28.988  1.00  0.00     0.031 C 
ATOM     60  C   UNL A   1      46.660  27.488  29.943  1.00  0.00     0.037 A 
BRANCH  47  61
ATOM     61  C   UNL A   1      43.949  32.872  31.306  1.00  0.00     0.058 A 
ATOM     62  C   UNL A   1      43.668  33.156  32.653  1.00  0.00     0.135 A 
ATOM     63  C   UNL A   1      44.301  33.943  30.471  1.00  0.00     0.135 A 
ATOM     64  F   UNL A   1      43.330  32.170  33.498  1.00  0.00    -0.206 F 
ATOM     65  C   UNL A   1      43.714  34.456  33.147  1.00  0.00     0.059 A 
ATOM     66  C   UNL A   1      44.381  35.248  30.950  1.00  0.00     0.059 A 
ATOM     67  F   UNL A   1      44.597  33.725  29.180  1.00  0.00    -0.206 F 
ATOM     68  C   UNL A   1      44.069  35.497  32.287  1.00  0.00     0.060 A 
BRANCH  68  69
ATOM     69  S   UNL A   1      44.147  37.173  32.950  1.00  0.00     0.124 S 
ATOM     70  O   UNL A   1      45.471  37.195  33.560  1.00  0.00    -0.237 OA
ATOM     71  O   UNL A   1      43.985  37.985  31.747  1.00  0.00    -0.237 OA
ATOM     72  O   UNL A   1      43.023  37.221  33.882  1.00  0.00    -0.744 OA
ENDBRANCH  68  69
ENDBRANCH  47  61
BRANCH  48  73
ATOM     73  C   UNL A   1      42.544  23.674  27.647  1.00  0.00     0.058 A 
ATOM     74  C   UNL A   1      42.340  22.570  28.489  1.00  0.00     0.135 A 
ATOM     75  C   UNL A   1      42.587  23.438  26.264  1.00  0.00     0.135 A 
ATOM     76  F   UNL A   1      42.299  22.737  29.820  1.00  0.00    -0.206 F 
ATOM     77  C   UNL A   1      42.220  21.279  27.985  1.00  0.00     0.059 A 
ATOM     78  C   UNL A   1      42.440  22.160  25.733  1.00  0.00     0.059 A 
ATOM     79  F   UNL A   1      42.765  24.464  25.416  1.00  0.00    -0.206 F 
ATOM     80  C   UNL A   1      42.276  21.084  26.604  1.00  0.00     0.060 A 
BRANCH  80  81
ATOM     81  S   UNL A   1      42.140  19.398  25.971  1.00  0.00     0.124 S 
ATOM     82  O   UNL A   1      43.020  19.452  24.808  1.00  0.00    -0.237 OA
ATOM     83  O   UNL A   1      42.627  18.610  27.100  1.00  0.00    -0.237 OA
ATOM     84  O   UNL A   1      40.718  19.261  25.678  1.00  0.00    -0.744 OA
ENDBRANCH  80  81
ENDBRANCH  48  73
BRANCH  60  85
ATOM     85  C   UNL A   1      48.110  27.125  30.107  1.00  0.00     0.058 A 
ATOM     86  C   UNL A   1      48.563  26.521  31.292  1.00  0.00     0.135 A 
ATOM     87  C   UNL A   1      49.068  27.472  29.142  1.00  0.00     0.135 A 
ATOM     88  F   UNL A   1      47.690  26.172  32.250  1.00  0.00    -0.206 F 
ATOM     89  C   UNL A   1      49.916  26.305  31.527  1.00  0.00     0.059 A 
ATOM     90  C   UNL A   1      50.425  27.240  29.344  1.00  0.00     0.059 A 
ATOM     91  F   UNL A   1      48.686  28.040  27.986  1.00  0.00    -0.206 F 
ATOM     92  C   UNL A   1      50.840  26.676  30.550  1.00  0.00     0.060 A 
BRANCH  92  93
ATOM     93  S   UNL A   1      52.595  26.410  30.884  1.00  0.00     0.124 S 
ATOM     94  O   UNL A   1      53.148  26.323  29.537  1.00  0.00    -0.237 OA
ATOM     95  O   UNL A   1      52.947  27.610  31.639  1.00  0.00    -0.237 OA
ATOM     96  O   UNL A   1      52.611  25.168  31.651  1.00  0.00    -0.744 OA
ENDBRANCH  92  93
ENDBRANCH  60  85
ENDBRANCH  34  35
ENDBRANCH  26  29
ENDBRANCH  24  25
ENDBRANCH  23  24
ENDBRANCH   1  23
TORSDOF 18
ENDMDL
MODEL 3
REMARK VINA RESULT:     -10.5      1.182      8.464
REMARK SMILES O=C(COCCNC(=O)Nc1cccc(F)c1)NCCCNC(=O)c1ccc(-c2c3nc(c(-c4c(F)cc(S(=O)(=O)[O-])cc4F)c4ccc([nH]4)c(-c4c(F)cc(S(=O)(=O)[O-])cc4F)c4nc(c(-c5c(F)cc(S(=O)(=O)[O-])cc5F)c5ccc2[nH]5)C=C4)C=C3)cc1
REMARK SMILES IDX 19 1 18 2 1 3 2 4 3 6 4 7 5 8 6 9 7 10 8 11 9 13 10 14 11 16
REMARK SMILES IDX 12 17 17 18 13 19 15 20 14 21 16 22 20 23 21 24 22 25 23 26
REMARK SMILES IDX 24 28 25 29 26 30 90 31 27 32 89 33 28 34 29 35 30 36 83 37
REMARK SMILES IDX 31 38 88 39 82 40 84 41 32 42 87 43 81 44 80 45 33 47 67 48
REMARK SMILES IDX 46 49 66 50 47 51 50 52 65 53 85 54 48 55 49 56 64 58 86 59
REMARK SMILES IDX 51 60 34 61 35 62 44 63 36 64 37 65 43 66 45 67 38 68 39 69
REMARK SMILES IDX 40 70 41 71 42 72 68 73 69 74 78 75 70 76 71 77 77 78 79 79
REMARK SMILES IDX 72 80 73 81 74 82 75 83 76 84 52 85 53 86 62 87 54 88 55 89
REMARK SMILES IDX 61 90 63 91 56 92 57 93 58 94 59 95 60 96
REMARK H PARENT 18 5 7 12 10 15 22 27 84 46 50 57
REMARK Flexibility Score: inf
ROOT
ATOM      1  C   UNL A   1      31.588  27.225  26.186  1.00  0.00     0.117 C 
ENDROOT
BRANCH   1   2
ATOM      2  N   UNL A   1      31.869  25.834  25.917  1.00  0.00    -0.354 N 
ATOM      3  O   UNL A   1      29.822  25.014  26.581  1.00  0.00    -0.272 OA
ATOM      4  C   UNL A   1      30.941  24.834  26.117  1.00  0.00     0.245 C 
ATOM      5  H   UNL A   1      32.760  25.589  25.578  1.00  0.00     0.163 HD
BRANCH   4   6
ATOM      6  C   UNL A   1      31.455  23.453  25.704  1.00  0.00     0.260 C 
BRANCH   6   7
ATOM      7  O   UNL A   1      31.615  22.509  26.753  1.00  0.00    -0.370 OA
BRANCH   7   8
ATOM      8  C   UNL A   1      32.813  22.639  27.516  1.00  0.00     0.182 C 
BRANCH   8   9
ATOM      9  C   UNL A   1      33.761  21.443  27.450  1.00  0.00     0.146 C 
BRANCH   9  10
ATOM     10  N   UNL A   1      33.218  20.216  26.867  1.00  0.00    -0.336 N 
ATOM     11  C   UNL A   1      33.052  19.767  25.605  1.00  0.00     0.319 C 
ATOM     12  H   UNL A   1      32.904  19.576  27.545  1.00  0.00     0.165 HD
ATOM     13  O   UNL A   1      32.374  18.753  25.432  1.00  0.00    -0.249 OA
ATOM     14  N   UNL A   1      33.517  20.429  24.522  1.00  0.00    -0.308 N 
ATOM     15  H   UNL A   1      33.016  20.258  23.692  1.00  0.00     0.171 HD
BRANCH  14  16
ATOM     16  C   UNL A   1      34.587  21.314  24.383  1.00  0.00     0.045 A 
ATOM     17  C   UNL A   1      34.445  22.558  23.755  1.00  0.00     0.026 A 
ATOM     18  C   UNL A   1      35.838  20.896  24.831  1.00  0.00     0.065 A 
ATOM     19  C   UNL A   1      35.577  23.304  23.421  1.00  0.00     0.005 A 
ATOM     20  C   UNL A   1      36.957  21.644  24.486  1.00  0.00     0.125 A 
ATOM     21  C   UNL A   1      36.840  22.826  23.760  1.00  0.00     0.039 A 
ATOM     22  F   UNL A   1      38.173  21.189  24.810  1.00  0.00    -0.207 F 
ENDBRANCH  14  16
ENDBRANCH   9  10
ENDBRANCH   8   9
ENDBRANCH   7   8
ENDBRANCH   6   7
ENDBRANCH   4   6
ENDBRANCH   1   2
BRANCH   1  23
ATOM     23  C   UNL A   1      32.805  28.105  25.950  1.00  0.00     0.042 C 
BRANCH  23  24
ATOM     24  C   UNL A   1      33.618  28.386  27.210  1.00  0.00     0.118 C 
BRANCH  24  25
ATOM     25  N   UNL A   1      33.558  29.779  27.633  1.00  0.00    -0.352 N 
ATOM     26  C   UNL A   1      34.524  30.562  28.218  1.00  0.00     0.251 C 
ATOM     27  H   UNL A   1      32.696  30.227  27.475  1.00  0.00     0.163 HD
ATOM     28  O   UNL A   1      34.232  31.679  28.628  1.00  0.00    -0.269 OA
BRANCH  26  29
ATOM     29  C   UNL A   1      35.902  30.047  28.382  1.00  0.00     0.039 A 
ATOM     30  C   UNL A   1      36.772  30.099  27.290  1.00  0.00     0.014 A 
ATOM     31  C   UNL A   1      36.340  29.524  29.601  1.00  0.00     0.014 A 
ATOM     32  C   UNL A   1      38.103  29.707  27.445  1.00  0.00     0.010 A 
ATOM     33  C   UNL A   1      37.685  29.203  29.775  1.00  0.00     0.010 A 
ATOM     34  C   UNL A   1      38.584  29.303  28.702  1.00  0.00    -0.014 A 
BRANCH  34  35
ATOM     35  C   UNL A   1      40.028  29.026  28.921  1.00  0.00     0.031 A 
ATOM     36  C   UNL A   1      40.609  27.681  28.587  1.00  0.00     0.074 A 
ATOM     37  C   UNL A   1      40.805  29.976  29.482  1.00  0.00     0.049 A 
ATOM     38  N   UNL A   1      41.825  27.239  28.775  1.00  0.00    -0.248 NA
ATOM     39  C   UNL A   1      39.702  26.695  27.977  1.00  0.00     0.031 C 
ATOM     40  C   UNL A   1      40.349  31.309  29.884  1.00  0.00     0.029 A 
ATOM     41  N   UNL A   1      42.135  29.968  29.820  1.00  0.00    -0.354 N 
ATOM     42  C   UNL A   1      41.831  25.929  28.313  1.00  0.00     0.074 A 
ATOM     43  C   UNL A   1      40.483  25.628  27.882  1.00  0.00     0.031 C 
ATOM     44  C   UNL A   1      41.386  31.998  30.384  1.00  0.00     0.029 A 
ATOM     45  C   UNL A   1      42.570  31.144  30.388  1.00  0.00     0.049 A 
ATOM     46  H   UNL A   1      42.724  29.193  29.670  1.00  0.00     0.167 HD
ATOM     47  C   UNL A   1      42.872  25.066  28.232  1.00  0.00     0.037 A 
ATOM     48  C   UNL A   1      43.779  31.494  30.870  1.00  0.00     0.037 A 
ATOM     49  C   UNL A   1      44.214  25.380  28.648  1.00  0.00     0.049 A 
ATOM     50  C   UNL A   1      44.908  30.502  30.809  1.00  0.00     0.074 A 
ATOM     51  C   UNL A   1      45.345  24.586  28.562  1.00  0.00     0.029 A 
ATOM     52  N   UNL A   1      44.609  26.575  29.232  1.00  0.00    -0.354 N 
ATOM     53  N   UNL A   1      44.908  29.286  30.319  1.00  0.00    -0.248 NA
ATOM     54  C   UNL A   1      46.200  30.924  31.368  1.00  0.00     0.031 C 
ATOM     55  C   UNL A   1      46.411  25.279  29.142  1.00  0.00     0.029 A 
ATOM     56  C   UNL A   1      45.960  26.527  29.539  1.00  0.00     0.049 A 
ATOM     57  H   UNL A   1      44.017  27.343  29.403  1.00  0.00     0.167 HD
ATOM     58  C   UNL A   1      46.201  28.805  30.492  1.00  0.00     0.074 A 
ATOM     59  C   UNL A   1      46.960  29.865  31.120  1.00  0.00     0.031 C 
ATOM     60  C   UNL A   1      46.709  27.592  30.161  1.00  0.00     0.037 A 
BRANCH  47  61
ATOM     61  C   UNL A   1      42.613  23.697  27.661  1.00  0.00     0.058 A 
ATOM     62  C   UNL A   1      42.401  22.598  28.508  1.00  0.00     0.135 A 
ATOM     63  C   UNL A   1      42.657  23.459  26.279  1.00  0.00     0.135 A 
ATOM     64  F   UNL A   1      42.345  22.767  29.838  1.00  0.00    -0.206 F 
ATOM     65  C   UNL A   1      42.258  21.308  28.005  1.00  0.00     0.059 A 
ATOM     66  C   UNL A   1      42.489  22.182  25.751  1.00  0.00     0.059 A 
ATOM     67  F   UNL A   1      42.840  24.477  25.423  1.00  0.00    -0.206 F 
ATOM     68  C   UNL A   1      42.307  21.109  26.624  1.00  0.00     0.060 A 
BRANCH  68  69
ATOM     69  S   UNL A   1      42.097  19.434  25.987  1.00  0.00     0.124 S 
ATOM     70  O   UNL A   1      40.662  19.383  25.741  1.00  0.00    -0.237 OA
ATOM     71  O   UNL A   1      42.949  19.449  24.802  1.00  0.00    -0.237 OA
ATOM     72  O   UNL A   1      42.579  18.593  27.081  1.00  0.00    -0.744 OA
ENDBRANCH  68  69
ENDBRANCH  47  61
BRANCH  48  73
ATOM     73  C   UNL A   1      43.980  32.855  31.435  1.00  0.00     0.058 A 
ATOM     74  C   UNL A   1      43.716  33.135  32.784  1.00  0.00     0.135 A 
ATOM     75  C   UNL A   1      44.399  33.918  30.619  1.00  0.00     0.135 A 
ATOM     76  F   UNL A   1      43.303  32.158  33.607  1.00  0.00    -0.206 F 
ATOM     77  C   UNL A   1      43.828  34.423  33.298  1.00  0.00     0.059 A 
ATOM     78  C   UNL A   1      44.547  35.209  31.116  1.00  0.00     0.059 A 
ATOM     79  F   UNL A   1      44.678  33.698  29.325  1.00  0.00    -0.206 F 
ATOM     80  C   UNL A   1      44.240  35.455  32.454  1.00  0.00     0.060 A 
BRANCH  80  81
ATOM     81  S   UNL A   1      44.358  37.123  33.136  1.00  0.00     0.124 S 
ATOM     82  O   UNL A   1      45.689  37.100  33.734  1.00  0.00    -0.237 OA
ATOM     83  O   UNL A   1      44.212  37.949  31.941  1.00  0.00    -0.237 OA
ATOM     84  O   UNL A   1      43.246  37.183  34.078  1.00  0.00    -0.744 OA
ENDBRANCH  80  81
ENDBRANCH  48  73
BRANCH  60  85
ATOM     85  C   UNL A   1      48.160  27.331  30.456  1.00  0.00     0.058 A 
ATOM     86  C   UNL A   1      48.550  26.798  31.697  1.00  0.00     0.135 A 
ATOM     87  C   UNL A   1      49.171  27.707  29.558  1.00  0.00     0.135 A 
ATOM     88  F   UNL A   1      47.625  26.425  32.594  1.00  0.00    -0.206 F 
ATOM     89  C   UNL A   1      49.890  26.680  32.048  1.00  0.00     0.059 A 
ATOM     90  C   UNL A   1      50.518  27.572  29.878  1.00  0.00     0.059 A 
ATOM     91  F   UNL A   1      48.851  28.209  28.354  1.00  0.00    -0.206 F 
ATOM     92  C   UNL A   1      50.867  27.078  31.135  1.00  0.00     0.060 A 
BRANCH  92  93
ATOM     93  S   UNL A   1      52.601  26.941  31.620  1.00  0.00     0.124 S 
ATOM     94  O   UNL A   1      52.634  27.727  32.848  1.00  0.00    -0.237 OA
ATOM     95  O   UNL A   1      52.760  25.498  31.784  1.00  0.00    -0.237 OA
ATOM     96  O   UNL A   1      53.318  27.518  30.487  1.00  0.00    -0.744 OA
ENDBRANCH  92  93
ENDBRANCH  60  85
ENDBRANCH  34  35
ENDBRANCH  26  29
ENDBRANCH  24  25
ENDBRANCH  23  24
ENDBRANCH   1  23
TORSDOF 18
ENDMDL
