MODEL 1
REMARK VINA RESULT:     -12.5      0.000      0.000
REMARK SMILES O=C(/C=C/c1cc(C(=O)Nc2ccc(F)cc2Cl)cs1)NCCCNC(=O)c1ccc(-c2c3nc(c(-c4c(F)cc(S(=O)(=O)[O-])cc4F)c4ccc([nH]4)c(-c4c(F)cc(S(=O)(=O)[O-])cc4F)c4nc(c(-c5c(F)cc(S(=O)(=O)[O-])cc5F)c5ccc2[nH]5)C=C4)C=C3)cc1
REMARK SMILES IDX 23 1 22 2 21 3 1 4 2 5 3 7 4 8 5 9 6 10 20 11 7 12 19 13
REMARK SMILES IDX 8 14 9 15 10 16 11 18 12 19 17 20 13 21 16 22 18 23 14 24
REMARK SMILES IDX 15 25 24 26 25 27 26 28 27 30 28 31 29 32 93 33 30 34 92 35
REMARK SMILES IDX 31 36 32 37 33 38 86 39 34 40 91 41 85 42 87 43 35 44 90 45
REMARK SMILES IDX 84 46 83 47 36 49 70 50 49 51 69 52 50 53 53 54 68 55 88 56
REMARK SMILES IDX 51 57 52 58 67 60 89 61 54 62 37 63 38 64 47 65 39 66 40 67
REMARK SMILES IDX 46 68 48 69 41 70 42 71 43 72 44 73 45 74 71 75 72 76 81 77
REMARK SMILES IDX 73 78 74 79 80 80 82 81 75 82 76 83 77 84 78 85 79 86 55 87
REMARK SMILES IDX 56 88 65 89 57 90 58 91 64 92 66 93 59 94 60 95 61 96 62 97
REMARK SMILES IDX 63 98
REMARK H PARENT 21 6 10 17 25 29 87 48 53 59
REMARK Flexibility Score: inf
ROOT
ATOM      1  C   UNL A   1      40.457  22.082  27.509  1.00  0.00     0.042 C 
ENDROOT
BRANCH   1   2
ATOM      2  C   UNL A   1      39.875  21.853  26.119  1.00  0.00     0.118 C 
BRANCH   2   3
ATOM      3  N   UNL A   1      38.425  21.856  26.106  1.00  0.00    -0.352 N 
ATOM      4  O   UNL A   1      38.195  24.125  25.792  1.00  0.00    -0.270 OA
ATOM      5  C   UNL A   1      37.707  23.012  25.940  1.00  0.00     0.244 C 
ATOM      6  H   UNL A   1      37.944  21.005  26.220  1.00  0.00     0.163 HD
BRANCH   5   7
ATOM      7  C   UNL A   1      36.246  22.825  25.796  1.00  0.00     0.072 C 
ATOM      8  C   UNL A   1      35.406  23.749  25.303  1.00  0.00     0.024 C 
BRANCH   8   9
ATOM      9  C   UNL A   1      33.994  23.536  25.302  1.00  0.00     0.028 A 
ATOM     10  C   UNL A   1      33.051  23.761  26.291  1.00  0.00     0.033 A 
ATOM     11  S   UNL A   1      33.210  22.938  23.892  1.00  0.00    -0.144 S 
ATOM     12  C   UNL A   1      31.695  23.759  25.813  1.00  0.00     0.051 A 
ATOM     13  C   UNL A   1      31.654  23.204  24.549  1.00  0.00     0.079 A 
BRANCH  12  14
ATOM     14  C   UNL A   1      30.492  24.187  26.532  1.00  0.00     0.256 C 
ATOM     15  O   UNL A   1      29.908  23.432  27.312  1.00  0.00    -0.269 OA
ATOM     16  N   UNL A   1      30.038  25.484  26.403  1.00  0.00    -0.321 N 
ATOM     17  H   UNL A   1      29.444  25.781  27.130  1.00  0.00     0.170 HD
BRANCH  16  18
ATOM     18  C   UNL A   1      30.276  26.457  25.409  1.00  0.00     0.060 A 
ATOM     19  C   UNL A   1      29.628  26.429  24.166  1.00  0.00     0.031 A 
ATOM     20  C   UNL A   1      31.198  27.488  25.668  1.00  0.00     0.067 A 
ATOM     21  C   UNL A   1      29.981  27.337  23.165  1.00  0.00     0.041 A 
ATOM     22  C   UNL A   1      31.557  28.390  24.666  1.00  0.00     0.062 A 
ATOM     23  Cl  UNL A   1      31.979  27.622  27.205  1.00  0.00    -0.082 Cl
ATOM     24  C   UNL A   1      30.957  28.293  23.419  1.00  0.00     0.124 A 
ATOM     25  F   UNL A   1      31.319  29.138  22.446  1.00  0.00    -0.207 F 
ENDBRANCH  16  18
ENDBRANCH  12  14
ENDBRANCH   8   9
ENDBRANCH   5   7
ENDBRANCH   2   3
ENDBRANCH   1   2
BRANCH   1  26
ATOM     26  C   UNL A   1      41.575  23.120  27.570  1.00  0.00     0.118 C 
BRANCH  26  27
ATOM     27  N   UNL A   1      41.662  23.939  26.371  1.00  0.00    -0.352 N 
ATOM     28  C   UNL A   1      41.465  25.286  26.194  1.00  0.00     0.251 C 
ATOM     29  H   UNL A   1      41.899  23.448  25.552  1.00  0.00     0.163 HD
ATOM     30  O   UNL A   1      41.476  25.737  25.050  1.00  0.00    -0.269 OA
BRANCH  28  31
ATOM     31  C   UNL A   1      41.223  26.195  27.341  1.00  0.00     0.039 A 
ATOM     32  C   UNL A   1      42.114  27.255  27.544  1.00  0.00     0.014 A 
ATOM     33  C   UNL A   1      40.181  25.987  28.248  1.00  0.00     0.014 A 
ATOM     34  C   UNL A   1      41.936  28.126  28.624  1.00  0.00     0.010 A 
ATOM     35  C   UNL A   1      39.967  26.894  29.289  1.00  0.00     0.010 A 
ATOM     36  C   UNL A   1      40.849  27.964  29.496  1.00  0.00    -0.014 A 
BRANCH  36  37
ATOM     37  C   UNL A   1      40.645  28.889  30.642  1.00  0.00     0.031 A 
ATOM     38  C   UNL A   1      41.486  28.755  31.884  1.00  0.00     0.074 A 
ATOM     39  C   UNL A   1      39.678  29.825  30.585  1.00  0.00     0.049 A 
ATOM     40  N   UNL A   1      41.429  29.437  32.999  1.00  0.00    -0.248 NA
ATOM     41  C   UNL A   1      42.511  27.699  31.881  1.00  0.00     0.031 C 
ATOM     42  C   UNL A   1      38.765  30.031  29.458  1.00  0.00     0.029 A 
ATOM     43  N   UNL A   1      39.298  30.776  31.498  1.00  0.00    -0.354 N 
ATOM     44  C   UNL A   1      42.393  28.884  33.834  1.00  0.00     0.074 A 
ATOM     45  C   UNL A   1      42.991  27.781  33.113  1.00  0.00     0.031 C 
ATOM     46  C   UNL A   1      37.944  31.057  29.740  1.00  0.00     0.029 A 
ATOM     47  C   UNL A   1      38.254  31.564  31.073  1.00  0.00     0.049 A 
ATOM     48  H   UNL A   1      39.732  30.885  32.375  1.00  0.00     0.167 HD
ATOM     49  C   UNL A   1      42.764  29.271  35.079  1.00  0.00     0.037 A 
ATOM     50  C   UNL A   1      37.620  32.582  31.687  1.00  0.00     0.037 A 
ATOM     51  C   UNL A   1      42.194  30.390  35.783  1.00  0.00     0.049 A 
ATOM     52  C   UNL A   1      38.072  33.017  33.054  1.00  0.00     0.074 A 
ATOM     53  C   UNL A   1      42.534  30.890  37.028  1.00  0.00     0.029 A 
ATOM     54  N   UNL A   1      41.168  31.190  35.300  1.00  0.00    -0.354 N 
ATOM     55  N   UNL A   1      39.018  32.513  33.809  1.00  0.00    -0.248 NA
ATOM     56  C   UNL A   1      37.378  34.168  33.649  1.00  0.00     0.031 C 
ATOM     57  C   UNL A   1      41.699  31.977  37.309  1.00  0.00     0.029 A 
ATOM     58  C   UNL A   1      40.861  32.176  36.222  1.00  0.00     0.049 A 
ATOM     59  H   UNL A   1      40.724  31.073  34.428  1.00  0.00     0.167 HD
ATOM     60  C   UNL A   1      39.055  33.303  34.952  1.00  0.00     0.074 A 
ATOM     61  C   UNL A   1      38.039  34.322  34.788  1.00  0.00     0.031 C 
ATOM     62  C   UNL A   1      39.859  33.195  36.038  1.00  0.00     0.037 A 
BRANCH  49  63
ATOM     63  C   UNL A   1      43.846  28.478  35.757  1.00  0.00     0.058 A 
ATOM     64  C   UNL A   1      43.546  27.410  36.616  1.00  0.00     0.135 A 
ATOM     65  C   UNL A   1      45.199  28.774  35.527  1.00  0.00     0.135 A 
ATOM     66  F   UNL A   1      42.267  27.095  36.881  1.00  0.00    -0.206 F 
ATOM     67  C   UNL A   1      44.547  26.685  37.254  1.00  0.00     0.059 A 
ATOM     68  C   UNL A   1      46.219  28.045  36.135  1.00  0.00     0.059 A 
ATOM     69  F   UNL A   1      45.543  29.784  34.713  1.00  0.00    -0.206 F 
ATOM     70  C   UNL A   1      45.881  27.014  37.010  1.00  0.00     0.060 A 
BRANCH  70  71
ATOM     71  S   UNL A   1      47.172  26.072  37.851  1.00  0.00     0.124 S 
ATOM     72  O   UNL A   1      48.153  27.115  38.137  1.00  0.00    -0.237 OA
ATOM     73  O   UNL A   1      46.465  25.534  39.010  1.00  0.00    -0.237 OA
ATOM     74  O   UNL A   1      47.576  25.086  36.854  1.00  0.00    -0.744 OA
ENDBRANCH  70  71
ENDBRANCH  49  63
BRANCH  50  75
ATOM     75  C   UNL A   1      36.512  33.289  30.993  1.00  0.00     0.058 A 
ATOM     76  C   UNL A   1      35.181  33.115  31.400  1.00  0.00     0.135 A 
ATOM     77  C   UNL A   1      36.762  34.160  29.922  1.00  0.00     0.135 A 
ATOM     78  F   UNL A   1      34.895  32.288  32.416  1.00  0.00    -0.206 F 
ATOM     79  C   UNL A   1      34.133  33.767  30.761  1.00  0.00     0.059 A 
ATOM     80  C   UNL A   1      35.731  34.840  29.280  1.00  0.00     0.059 A 
ATOM     81  F   UNL A   1      38.020  34.372  29.508  1.00  0.00    -0.206 F 
ATOM     82  C   UNL A   1      34.418  34.629  29.700  1.00  0.00     0.060 A 
BRANCH  82  83
ATOM     83  S   UNL A   1      33.056  35.510  28.907  1.00  0.00     0.124 S 
ATOM     84  O   UNL A   1      32.433  34.446  28.128  1.00  0.00    -0.237 OA
ATOM     85  O   UNL A   1      32.292  35.994  30.052  1.00  0.00    -0.237 OA
ATOM     86  O   UNL A   1      33.735  36.547  28.134  1.00  0.00    -0.744 OA
ENDBRANCH  82  83
ENDBRANCH  50  75
BRANCH  62  87
ATOM     87  C   UNL A   1      39.706  34.230  37.116  1.00  0.00     0.058 A 
ATOM     88  C   UNL A   1      38.953  33.984  38.274  1.00  0.00     0.135 A 
ATOM     89  C   UNL A   1      40.355  35.470  37.005  1.00  0.00     0.135 A 
ATOM     90  F   UNL A   1      38.309  32.816  38.425  1.00  0.00    -0.206 F 
ATOM     91  C   UNL A   1      38.829  34.941  39.276  1.00  0.00     0.059 A 
ATOM     92  C   UNL A   1      40.263  36.433  38.004  1.00  0.00     0.059 A 
ATOM     93  F   UNL A   1      41.095  35.750  35.920  1.00  0.00    -0.206 F 
ATOM     94  C   UNL A   1      39.486  36.165  39.130  1.00  0.00     0.060 A 
BRANCH  94  95
ATOM     95  S   UNL A   1      39.342  37.393  40.447  1.00  0.00     0.124 S 
ATOM     96  O   UNL A   1      38.983  36.557  41.587  1.00  0.00    -0.237 OA
ATOM     97  O   UNL A   1      40.681  37.975  40.484  1.00  0.00    -0.237 OA
ATOM     98  O   UNL A   1      38.293  38.285  39.964  1.00  0.00    -0.744 OA
ENDBRANCH  94  95
ENDBRANCH  62  87
ENDBRANCH  36  37
ENDBRANCH  28  31
ENDBRANCH  26  27
ENDBRANCH   1  26
TORSDOF 16
ENDMDL
MODEL 2
REMARK VINA RESULT:     -12.4      1.525      2.113
REMARK SMILES O=C(/C=C/c1cc(C(=O)Nc2ccc(F)cc2Cl)cs1)NCCCNC(=O)c1ccc(-c2c3nc(c(-c4c(F)cc(S(=O)(=O)[O-])cc4F)c4ccc([nH]4)c(-c4c(F)cc(S(=O)(=O)[O-])cc4F)c4nc(c(-c5c(F)cc(S(=O)(=O)[O-])cc5F)c5ccc2[nH]5)C=C4)C=C3)cc1
REMARK SMILES IDX 23 1 22 2 21 3 1 4 2 5 3 7 4 8 5 9 6 10 20 11 7 12 19 13
REMARK SMILES IDX 8 14 9 15 10 16 11 18 12 19 17 20 13 21 16 22 18 23 14 24
REMARK SMILES IDX 15 25 24 26 25 27 26 28 27 30 28 31 29 32 93 33 30 34 92 35
REMARK SMILES IDX 31 36 32 37 33 38 86 39 34 40 91 41 85 42 87 43 35 44 90 45
REMARK SMILES IDX 84 46 83 47 36 49 70 50 49 51 69 52 50 53 53 54 68 55 88 56
REMARK SMILES IDX 51 57 52 58 67 60 89 61 54 62 37 63 38 64 47 65 39 66 40 67
REMARK SMILES IDX 46 68 48 69 41 70 42 71 43 72 44 73 45 74 71 75 72 76 81 77
REMARK SMILES IDX 73 78 74 79 80 80 82 81 75 82 76 83 77 84 78 85 79 86 55 87
REMARK SMILES IDX 56 88 65 89 57 90 58 91 64 92 66 93 59 94 60 95 61 96 62 97
REMARK SMILES IDX 63 98
REMARK H PARENT 21 6 10 17 25 29 87 48 53 59
REMARK Flexibility Score: inf
ROOT
ATOM      1  C   UNL A   1      40.701  22.210  27.666  1.00  0.00     0.042 C 
ENDROOT
BRANCH   1   2
ATOM      2  C   UNL A   1      40.198  21.631  26.348  1.00  0.00     0.118 C 
BRANCH   2   3
ATOM      3  N   UNL A   1      39.005  22.292  25.859  1.00  0.00    -0.352 N 
ATOM      4  O   UNL A   1      38.022  20.400  24.993  1.00  0.00    -0.270 OA
ATOM      5  C   UNL A   1      38.009  21.603  25.217  1.00  0.00     0.244 C 
ATOM      6  H   UNL A   1      38.907  23.263  25.993  1.00  0.00     0.163 HD
BRANCH   5   7
ATOM      7  C   UNL A   1      36.793  22.393  24.919  1.00  0.00     0.072 C 
ATOM      8  C   UNL A   1      35.745  21.938  24.214  1.00  0.00     0.024 C 
BRANCH   8   9
ATOM      9  C   UNL A   1      34.658  22.799  23.871  1.00  0.00     0.028 A 
ATOM     10  C   UNL A   1      34.658  24.075  23.334  1.00  0.00     0.033 A 
ATOM     11  S   UNL A   1      33.035  22.267  24.079  1.00  0.00    -0.144 S 
ATOM     12  C   UNL A   1      33.385  24.482  22.801  1.00  0.00     0.051 A 
ATOM     13  C   UNL A   1      32.402  23.627  23.259  1.00  0.00     0.079 A 
BRANCH  12  14
ATOM     14  C   UNL A   1      33.096  25.653  21.969  1.00  0.00     0.256 C 
ATOM     15  O   UNL A   1      33.182  25.604  20.740  1.00  0.00    -0.269 OA
ATOM     16  N   UNL A   1      32.641  26.816  22.554  1.00  0.00    -0.321 N 
ATOM     17  H   UNL A   1      32.178  27.429  21.936  1.00  0.00     0.170 HD
BRANCH  16  18
ATOM     18  C   UNL A   1      32.724  27.283  23.884  1.00  0.00     0.060 A 
ATOM     19  C   UNL A   1      33.871  27.916  24.383  1.00  0.00     0.031 A 
ATOM     20  C   UNL A   1      31.623  27.103  24.742  1.00  0.00     0.067 A 
ATOM     21  C   UNL A   1      33.960  28.252  25.735  1.00  0.00     0.041 A 
ATOM     22  C   UNL A   1      31.715  27.431  26.094  1.00  0.00     0.062 A 
ATOM     23  Cl  UNL A   1      30.153  26.395  24.171  1.00  0.00    -0.082 Cl
ATOM     24  C   UNL A   1      32.891  27.986  26.580  1.00  0.00     0.124 A 
ATOM     25  F   UNL A   1      32.993  28.275  27.883  1.00  0.00    -0.207 F 
ENDBRANCH  16  18
ENDBRANCH  12  14
ENDBRANCH   8   9
ENDBRANCH   5   7
ENDBRANCH   2   3
ENDBRANCH   1   2
BRANCH   1  26
ATOM     26  C   UNL A   1      42.053  22.914  27.580  1.00  0.00     0.118 C 
BRANCH  26  27
ATOM     27  N   UNL A   1      42.199  23.730  26.384  1.00  0.00    -0.352 N 
ATOM     28  C   UNL A   1      42.018  25.078  26.196  1.00  0.00     0.251 C 
ATOM     29  H   UNL A   1      42.472  23.235  25.578  1.00  0.00     0.163 HD
ATOM     30  O   UNL A   1      42.084  25.526  25.053  1.00  0.00    -0.269 OA
BRANCH  28  31
ATOM     31  C   UNL A   1      41.728  25.990  27.329  1.00  0.00     0.039 A 
ATOM     32  C   UNL A   1      42.667  26.981  27.636  1.00  0.00     0.014 A 
ATOM     33  C   UNL A   1      40.590  25.848  28.127  1.00  0.00     0.014 A 
ATOM     34  C   UNL A   1      42.445  27.852  28.708  1.00  0.00     0.010 A 
ATOM     35  C   UNL A   1      40.338  26.757  29.157  1.00  0.00     0.010 A 
ATOM     36  C   UNL A   1      41.269  27.759  29.467  1.00  0.00    -0.014 A 
BRANCH  36  37
ATOM     37  C   UNL A   1      41.018  28.685  30.603  1.00  0.00     0.031 A 
ATOM     38  C   UNL A   1      41.838  28.582  31.861  1.00  0.00     0.074 A 
ATOM     39  C   UNL A   1      40.027  29.594  30.522  1.00  0.00     0.049 A 
ATOM     40  N   UNL A   1      41.742  29.268  32.971  1.00  0.00    -0.248 NA
ATOM     41  C   UNL A   1      42.892  27.554  31.884  1.00  0.00     0.031 C 
ATOM     42  C   UNL A   1      39.129  29.768  29.377  1.00  0.00     0.029 A 
ATOM     43  N   UNL A   1      39.603  30.540  31.422  1.00  0.00    -0.354 N 
ATOM     44  C   UNL A   1      42.705  28.747  33.827  1.00  0.00     0.074 A 
ATOM     45  C   UNL A   1      43.346  27.656  33.124  1.00  0.00     0.031 C 
ATOM     46  C   UNL A   1      38.276  30.773  29.637  1.00  0.00     0.029 A 
ATOM     47  C   UNL A   1      38.546  31.296  30.973  1.00  0.00     0.049 A 
ATOM     48  H   UNL A   1      40.017  30.666  32.306  1.00  0.00     0.167 HD
ATOM     49  C   UNL A   1      43.041  29.152  35.076  1.00  0.00     0.037 A 
ATOM     50  C   UNL A   1      37.873  32.300  31.568  1.00  0.00     0.037 A 
ATOM     51  C   UNL A   1      42.427  30.258  35.762  1.00  0.00     0.049 A 
ATOM     52  C   UNL A   1      38.287  32.755  32.941  1.00  0.00     0.074 A 
ATOM     53  C   UNL A   1      42.731  30.774  37.010  1.00  0.00     0.029 A 
ATOM     54  N   UNL A   1      41.390  31.027  35.255  1.00  0.00    -0.354 N 
ATOM     55  N   UNL A   1      39.233  32.281  33.716  1.00  0.00    -0.248 NA
ATOM     56  C   UNL A   1      37.551  33.890  33.515  1.00  0.00     0.031 C 
ATOM     57  C   UNL A   1      41.861  31.840  37.268  1.00  0.00     0.029 A 
ATOM     58  C   UNL A   1      41.039  32.009  36.165  1.00  0.00     0.049 A 
ATOM     59  H   UNL A   1      40.966  30.893  34.376  1.00  0.00     0.167 HD
ATOM     60  C   UNL A   1      39.226  33.079  34.854  1.00  0.00     0.074 A 
ATOM     61  C   UNL A   1      38.186  34.069  34.665  1.00  0.00     0.031 C 
ATOM     62  C   UNL A   1      40.012  32.999  35.956  1.00  0.00     0.037 A 
BRANCH  49  63
ATOM     63  C   UNL A   1      44.132  28.392  35.779  1.00  0.00     0.058 A 
ATOM     64  C   UNL A   1      45.482  28.751  35.642  1.00  0.00     0.135 A 
ATOM     65  C   UNL A   1      43.824  27.307  36.615  1.00  0.00     0.135 A 
ATOM     66  F   UNL A   1      45.832  29.772  34.842  1.00  0.00    -0.206 F 
ATOM     67  C   UNL A   1      46.493  28.040  36.280  1.00  0.00     0.059 A 
ATOM     68  C   UNL A   1      44.818  26.596  37.284  1.00  0.00     0.059 A 
ATOM     69  F   UNL A   1      42.549  26.923  36.783  1.00  0.00    -0.206 F 
ATOM     70  C   UNL A   1      46.150  26.960  37.095  1.00  0.00     0.060 A 
BRANCH  70  71
ATOM     71  S   UNL A   1      47.472  26.039  37.910  1.00  0.00     0.124 S 
ATOM     72  O   UNL A   1      46.748  25.402  39.006  1.00  0.00    -0.237 OA
ATOM     73  O   UNL A   1      47.932  25.145  36.852  1.00  0.00    -0.237 OA
ATOM     74  O   UNL A   1      48.417  27.079  38.303  1.00  0.00    -0.744 OA
ENDBRANCH  70  71
ENDBRANCH  49  63
BRANCH  50  75
ATOM     75  C   UNL A   1      36.759  32.972  30.849  1.00  0.00     0.058 A 
ATOM     76  C   UNL A   1      35.423  32.686  31.165  1.00  0.00     0.135 A 
ATOM     77  C   UNL A   1      37.008  33.920  29.845  1.00  0.00     0.135 A 
ATOM     78  F   UNL A   1      35.138  31.782  32.114  1.00  0.00    -0.206 F 
ATOM     79  C   UNL A   1      34.370  33.304  30.501  1.00  0.00     0.059 A 
ATOM     80  C   UNL A   1      35.971  34.567  29.181  1.00  0.00     0.059 A 
ATOM     81  F   UNL A   1      38.270  34.239  29.520  1.00  0.00    -0.206 F 
ATOM     82  C   UNL A   1      34.654  34.245  29.509  1.00  0.00     0.060 A 
BRANCH  82  83
ATOM     83  S   UNL A   1      33.280  35.079  28.685  1.00  0.00     0.124 S 
ATOM     84  O   UNL A   1      32.494  35.542  29.823  1.00  0.00    -0.237 OA
ATOM     85  O   UNL A   1      33.963  36.114  27.916  1.00  0.00    -0.237 OA
ATOM     86  O   UNL A   1      32.674  34.015  27.888  1.00  0.00    -0.744 OA
ENDBRANCH  82  83
ENDBRANCH  50  75
BRANCH  62  87
ATOM     87  C   UNL A   1      39.811  34.036  37.024  1.00  0.00     0.058 A 
ATOM     88  C   UNL A   1      38.901  33.846  38.075  1.00  0.00     0.135 A 
ATOM     89  C   UNL A   1      40.569  35.218  37.016  1.00  0.00     0.135 A 
ATOM     90  F   UNL A   1      38.149  32.736  38.125  1.00  0.00    -0.206 F 
ATOM     91  C   UNL A   1      38.731  34.804  39.070  1.00  0.00     0.059 A 
ATOM     92  C   UNL A   1      40.432  36.179  38.012  1.00  0.00     0.059 A 
ATOM     93  F   UNL A   1      41.460  35.443  36.037  1.00  0.00    -0.206 F 
ATOM     94  C   UNL A   1      39.500  35.969  39.028  1.00  0.00     0.060 A 
BRANCH  94  95
ATOM     95  S   UNL A   1      39.293  37.196  40.338  1.00  0.00     0.124 S 
ATOM     96  O   UNL A   1      40.680  37.504  40.671  1.00  0.00    -0.237 OA
ATOM     97  O   UNL A   1      38.553  38.257  39.662  1.00  0.00    -0.237 OA
ATOM     98  O   UNL A   1      38.545  36.474  41.362  1.00  0.00    -0.744 OA
ENDBRANCH  94  95
ENDBRANCH  62  87
ENDBRANCH  36  37
ENDBRANCH  28  31
ENDBRANCH  26  27
ENDBRANCH   1  26
TORSDOF 16
ENDMDL
MODEL 3
REMARK VINA RESULT:     -12.3      6.496     12.289
REMARK SMILES O=C(/C=C/c1cc(C(=O)Nc2ccc(F)cc2Cl)cs1)NCCCNC(=O)c1ccc(-c2c3nc(c(-c4c(F)cc(S(=O)(=O)[O-])cc4F)c4ccc([nH]4)c(-c4c(F)cc(S(=O)(=O)[O-])cc4F)c4nc(c(-c5c(F)cc(S(=O)(=O)[O-])cc5F)c5ccc2[nH]5)C=C4)C=C3)cc1
REMARK SMILES IDX 23 1 22 2 21 3 1 4 2 5 3 7 4 8 5 9 6 10 20 11 7 12 19 13
REMARK SMILES IDX 8 14 9 15 10 16 11 18 12 19 17 20 13 21 16 22 18 23 14 24
REMARK SMILES IDX 15 25 24 26 25 27 26 28 27 30 28 31 29 32 93 33 30 34 92 35
REMARK SMILES IDX 31 36 32 37 33 38 86 39 34 40 91 41 85 42 87 43 35 44 90 45
REMARK SMILES IDX 84 46 83 47 36 49 70 50 49 51 69 52 50 53 53 54 68 55 88 56
REMARK SMILES IDX 51 57 52 58 67 60 89 61 54 62 37 63 38 64 47 65 39 66 40 67
REMARK SMILES IDX 46 68 48 69 41 70 42 71 43 72 44 73 45 74 71 75 72 76 81 77
REMARK SMILES IDX 73 78 74 79 80 80 82 81 75 82 76 83 77 84 78 85 79 86 55 87
REMARK SMILES IDX 56 88 65 89 57 90 58 91 64 92 66 93 59 94 60 95 61 96 62 97
REMARK SMILES IDX 63 98
REMARK H PARENT 21 6 10 17 25 29 87 48 53 59
REMARK Flexibility Score: inf
ROOT
ATOM      1  C   UNL A   1      35.627  32.770  28.014  1.00  0.00     0.042 C 
ENDROOT
BRANCH   1   2
ATOM      2  C   UNL A   1      34.157  32.439  28.241  1.00  0.00     0.118 C 
BRANCH   2   3
ATOM      3  N   UNL A   1      33.817  31.082  27.860  1.00  0.00    -0.352 N 
ATOM      4  O   UNL A   1      31.822  31.611  26.842  1.00  0.00    -0.270 OA
ATOM      5  C   UNL A   1      32.662  30.789  27.183  1.00  0.00     0.244 C 
ATOM      6  H   UNL A   1      34.434  30.351  28.094  1.00  0.00     0.163 HD
BRANCH   5   7
ATOM      7  C   UNL A   1      32.539  29.384  26.735  1.00  0.00     0.072 C 
ATOM      8  C   UNL A   1      31.644  28.949  25.833  1.00  0.00     0.024 C 
BRANCH   8   9
ATOM      9  C   UNL A   1      31.512  27.558  25.538  1.00  0.00     0.028 A 
ATOM     10  C   UNL A   1      31.796  26.445  26.311  1.00  0.00     0.033 A 
ATOM     11  S   UNL A   1      30.876  27.053  24.021  1.00  0.00    -0.144 S 
ATOM     12  C   UNL A   1      31.210  25.228  25.815  1.00  0.00     0.051 A 
ATOM     13  C   UNL A   1      30.788  25.418  24.513  1.00  0.00     0.079 A 
BRANCH  12  14
ATOM     14  C   UNL A   1      31.117  23.936  26.499  1.00  0.00     0.256 C 
ATOM     15  O   UNL A   1      30.175  23.674  27.251  1.00  0.00    -0.269 OA
ATOM     16  N   UNL A   1      32.052  22.954  26.245  1.00  0.00    -0.321 N 
ATOM     17  H   UNL A   1      31.760  22.043  26.478  1.00  0.00     0.170 HD
BRANCH  16  18
ATOM     18  C   UNL A   1      33.356  23.029  25.709  1.00  0.00     0.060 A 
ATOM     19  C   UNL A   1      34.395  23.701  26.366  1.00  0.00     0.031 A 
ATOM     20  C   UNL A   1      33.623  22.414  24.472  1.00  0.00     0.067 A 
ATOM     21  C   UNL A   1      35.637  23.858  25.747  1.00  0.00     0.041 A 
ATOM     22  C   UNL A   1      34.861  22.577  23.850  1.00  0.00     0.062 A 
ATOM     23  Cl  UNL A   1      32.405  21.508  23.644  1.00  0.00    -0.082 Cl
ATOM     24  C   UNL A   1      35.849  23.314  24.487  1.00  0.00     0.124 A 
ATOM     25  F   UNL A   1      37.028  23.497  23.880  1.00  0.00    -0.207 F 
ENDBRANCH  16  18
ENDBRANCH  12  14
ENDBRANCH   8   9
ENDBRANCH   5   7
ENDBRANCH   2   3
ENDBRANCH   1   2
BRANCH   1  26
ATOM     26  C   UNL A   1      36.491  32.736  29.272  1.00  0.00     0.118 C 
BRANCH  26  27
ATOM     27  N   UNL A   1      36.056  31.739  30.239  1.00  0.00    -0.352 N 
ATOM     28  C   UNL A   1      36.626  30.547  30.611  1.00  0.00     0.251 C 
ATOM     29  H   UNL A   1      35.215  31.954  30.702  1.00  0.00     0.163 HD
ATOM     30  O   UNL A   1      36.003  29.808  31.371  1.00  0.00    -0.269 OA
BRANCH  28  31
ATOM     31  C   UNL A   1      37.955  30.129  30.103  1.00  0.00     0.039 A 
ATOM     32  C   UNL A   1      38.975  29.899  31.034  1.00  0.00     0.014 A 
ATOM     33  C   UNL A   1      38.232  30.021  28.738  1.00  0.00     0.014 A 
ATOM     34  C   UNL A   1      40.250  29.522  30.601  1.00  0.00     0.010 A 
ATOM     35  C   UNL A   1      39.487  29.584  28.309  1.00  0.00     0.010 A 
ATOM     36  C   UNL A   1      40.513  29.342  29.234  1.00  0.00    -0.014 A 
BRANCH  36  37
ATOM     37  C   UNL A   1      41.862  28.932  28.762  1.00  0.00     0.031 A 
ATOM     38  C   UNL A   1      42.976  29.942  28.681  1.00  0.00     0.074 A 
ATOM     39  C   UNL A   1      42.078  27.662  28.368  1.00  0.00     0.049 A 
ATOM     40  N   UNL A   1      44.204  29.787  28.258  1.00  0.00    -0.248 NA
ATOM     41  C   UNL A   1      42.662  31.314  29.113  1.00  0.00     0.031 C 
ATOM     42  C   UNL A   1      41.072  26.598  28.354  1.00  0.00     0.029 A 
ATOM     43  N   UNL A   1      43.213  27.052  27.897  1.00  0.00    -0.354 N 
ATOM     44  C   UNL A   1      44.802  31.038  28.353  1.00  0.00     0.074 A 
ATOM     45  C   UNL A   1      43.788  31.952  28.834  1.00  0.00     0.031 C 
ATOM     46  C   UNL A   1      41.641  25.462  27.917  1.00  0.00     0.029 A 
ATOM     47  C   UNL A   1      43.041  25.721  27.595  1.00  0.00     0.049 A 
ATOM     48  H   UNL A   1      44.071  27.522  27.786  1.00  0.00     0.167 HD
ATOM     49  C   UNL A   1      46.083  31.392  28.086  1.00  0.00     0.037 A 
ATOM     50  C   UNL A   1      43.913  24.813  27.117  1.00  0.00     0.037 A 
ATOM     51  C   UNL A   1      47.100  30.476  27.641  1.00  0.00     0.049 A 
ATOM     52  C   UNL A   1      45.339  25.220  26.861  1.00  0.00     0.074 A 
ATOM     53  C   UNL A   1      48.437  30.729  27.389  1.00  0.00     0.029 A 
ATOM     54  N   UNL A   1      46.896  29.127  27.389  1.00  0.00    -0.354 N 
ATOM     55  N   UNL A   1      45.898  26.398  27.004  1.00  0.00    -0.248 NA
ATOM     56  C   UNL A   1      46.256  24.171  26.392  1.00  0.00     0.031 C 
ATOM     57  C   UNL A   1      49.037  29.538  26.962  1.00  0.00     0.029 A 
ATOM     58  C   UNL A   1      48.080  28.536  26.982  1.00  0.00     0.049 A 
ATOM     59  H   UNL A   1      46.034  28.659  27.487  1.00  0.00     0.167 HD
ATOM     60  C   UNL A   1      47.237  26.225  26.672  1.00  0.00     0.074 A 
ATOM     61  C   UNL A   1      47.405  24.828  26.327  1.00  0.00     0.031 C 
ATOM     62  C   UNL A   1      48.236  27.141  26.658  1.00  0.00     0.037 A 
BRANCH  49  63
ATOM     63  C   UNL A   1      46.456  32.836  28.278  1.00  0.00     0.058 A 
ATOM     64  C   UNL A   1      46.338  33.769  27.236  1.00  0.00     0.135 A 
ATOM     65  C   UNL A   1      46.915  33.296  29.522  1.00  0.00     0.135 A 
ATOM     66  F   UNL A   1      45.918  33.377  26.022  1.00  0.00    -0.206 F 
ATOM     67  C   UNL A   1      46.696  35.102  27.409  1.00  0.00     0.059 A 
ATOM     68  C   UNL A   1      47.255  34.632  29.725  1.00  0.00     0.059 A 
ATOM     69  F   UNL A   1      47.044  32.447  30.552  1.00  0.00    -0.206 F 
ATOM     70  C   UNL A   1      47.159  35.522  28.657  1.00  0.00     0.060 A 
BRANCH  70  71
ATOM     71  S   UNL A   1      47.630  37.252  28.866  1.00  0.00     0.124 S 
ATOM     72  O   UNL A   1      47.125  37.531  30.207  1.00  0.00    -0.237 OA
ATOM     73  O   UNL A   1      49.083  37.202  28.735  1.00  0.00    -0.237 OA
ATOM     74  O   UNL A   1      46.930  37.928  27.778  1.00  0.00    -0.744 OA
ENDBRANCH  70  71
ENDBRANCH  49  63
BRANCH  50  75
ATOM     75  C   UNL A   1      43.471  23.413  26.886  1.00  0.00     0.058 A 
ATOM     76  C   UNL A   1      43.272  22.927  25.585  1.00  0.00     0.135 A 
ATOM     77  C   UNL A   1      43.251  22.533  27.956  1.00  0.00     0.135 A 
ATOM     78  F   UNL A   1      43.465  23.735  24.532  1.00  0.00    -0.206 F 
ATOM     79  C   UNL A   1      42.856  21.621  25.352  1.00  0.00     0.059 A 
ATOM     80  C   UNL A   1      42.854  21.216  27.747  1.00  0.00     0.059 A 
ATOM     81  F   UNL A   1      43.444  22.947  29.217  1.00  0.00    -0.206 F 
ATOM     82  C   UNL A   1      42.649  20.772  26.441  1.00  0.00     0.060 A 
BRANCH  82  83
ATOM     83  S   UNL A   1      42.157  19.063  26.127  1.00  0.00     0.124 S 
ATOM     84  O   UNL A   1      40.744  19.220  25.803  1.00  0.00    -0.237 OA
ATOM     85  O   UNL A   1      43.028  18.689  25.018  1.00  0.00    -0.237 OA
ATOM     86  O   UNL A   1      42.446  18.395  27.393  1.00  0.00    -0.744 OA
ENDBRANCH  82  83
ENDBRANCH  50  75
BRANCH  62  87
ATOM     87  C   UNL A   1      49.612  26.655  26.300  1.00  0.00     0.058 A 
ATOM     88  C   UNL A   1      50.449  26.044  27.246  1.00  0.00     0.135 A 
ATOM     89  C   UNL A   1      50.083  26.768  24.981  1.00  0.00     0.135 A 
ATOM     90  F   UNL A   1      50.047  25.916  28.520  1.00  0.00    -0.206 F 
ATOM     91  C   UNL A   1      51.716  25.581  26.903  1.00  0.00     0.059 A 
ATOM     92  C   UNL A   1      51.337  26.293  24.612  1.00  0.00     0.059 A 
ATOM     93  F   UNL A   1      49.316  27.337  24.037  1.00  0.00    -0.206 F 
ATOM     94  C   UNL A   1      52.152  25.714  25.583  1.00  0.00     0.060 A 
BRANCH  94  95
ATOM     95  S   UNL A   1      53.787  25.088  25.140  1.00  0.00     0.124 S 
ATOM     96  O   UNL A   1      54.155  25.981  24.046  1.00  0.00    -0.237 OA
ATOM     97  O   UNL A   1      54.539  25.261  26.379  1.00  0.00    -0.237 OA
ATOM     98  O   UNL A   1      53.528  23.703  24.761  1.00  0.00    -0.744 OA
ENDBRANCH  94  95
ENDBRANCH  62  87
ENDBRANCH  36  37
ENDBRANCH  28  31
ENDBRANCH  26  27
ENDBRANCH   1  26
TORSDOF 16
ENDMDL
