MODEL 1
REMARK VINA RESULT:     -12.1      0.000      0.000
REMARK SMILES O=C(NCCCNC(=O)c1ccc(-c2c3nc(c(-c4c(F)cc(S(=O)(=O)[O-])cc4F)c4ccc([nH]4)c(-c4c(F)cc(S(=O)(=O)[O-])cc4F)c4nc(c(-c5c(F)cc(S(=O)(=O)[O-])cc5F)c5ccc2[nH]5)C=C4)C=C3)cc1)C1=Cc2cc(S(F)(F)(F)(F)F)cc(Br)c2O[C@@H]1C(F)(F)F
REMARK SMILES IDX 6 1 5 2 4 3 3 4 1 5 2 6 76 8 77 9 92 10 78 11 91 12 79 13
REMARK SMILES IDX 90 14 80 15 88 16 87 17 89 18 93 19 94 20 95 21 96 22 81 23
REMARK SMILES IDX 82 24 83 25 84 26 85 27 86 28 7 29 8 30 9 32 10 33 11 34
REMARK SMILES IDX 75 35 12 36 74 37 13 38 14 39 15 40 68 41 16 42 73 43 67 44
REMARK SMILES IDX 69 45 17 46 72 47 66 48 65 49 18 51 52 52 31 53 51 54 32 55
REMARK SMILES IDX 35 56 50 57 70 58 33 59 34 60 49 62 71 63 36 64 19 65 20 66
REMARK SMILES IDX 29 67 21 68 22 69 28 70 30 71 23 72 24 73 25 74 26 75 27 76
REMARK SMILES IDX 53 77 54 78 63 79 55 80 56 81 62 82 64 83 57 84 58 85 59 86
REMARK SMILES IDX 60 87 61 88 37 89 38 90 47 91 39 92 40 93 46 94 48 95 41 96
REMARK SMILES IDX 42 97 43 98 44 99 45 100
REMARK H PARENT 3 7 7 31 69 50 35 61
REMARK Flexibility Score: inf
ROOT
ATOM      1  C   UNL A   1      36.720  23.942  25.678  1.00  0.00     0.118 C 
ENDROOT
BRANCH   1   2
ATOM      2  C   UNL A   1      35.662  23.831  24.593  1.00  0.00     0.042 C 
BRANCH   2   3
ATOM      3  C   UNL A   1      34.782  25.070  24.615  1.00  0.00     0.118 C 
BRANCH   3   4
ATOM      4  N   UNL A   1      33.704  24.924  23.626  1.00  0.00    -0.352 N 
ATOM      5  O   UNL A   1      31.419  24.430  23.206  1.00  0.00    -0.270 OA
ATOM      6  C   UNL A   1      32.350  24.556  24.062  1.00  0.00     0.251 C 
ATOM      7  H   UNL A   1      33.891  25.073  22.670  1.00  0.00     0.163 HD
BRANCH   6   8
ATOM      8  C   UNL A   1      32.063  24.326  25.537  1.00  0.00     0.067 C 
ATOM      9  C   UNL A   1      32.082  25.374  26.405  1.00  0.00     0.025 C 
ATOM     10  C   UNL A   1      31.757  22.925  26.042  1.00  0.00     0.314 C 
ATOM     11  C   UNL A   1      32.390  26.773  25.900  1.00  0.00     0.020 A 
ATOM     12  O   UNL A   1      30.922  26.233  24.111  1.00  0.00    -0.474 OA
ATOM     13  C   UNL A   1      33.345  27.578  26.499  1.00  0.00     0.036 A 
ATOM     14  C   UNL A   1      31.776  27.147  24.784  1.00  0.00     0.142 A 
ATOM     15  C   UNL A   1      33.376  28.900  25.996  1.00  0.00     0.109 A 
ATOM     16  C   UNL A   1      31.956  28.410  24.275  1.00  0.00     0.062 A 
ATOM     17  C   UNL A   1      32.841  29.280  24.850  1.00  0.00     0.044 A 
ATOM     18  Br  UNL A   1      30.933  28.973  22.701  1.00  0.00    -0.047 Br
BRANCH  10  19
ATOM     19  C   UNL A   1      30.373  22.906  26.671  1.00  0.00     0.429 C 
ATOM     20  F   UNL A   1      30.486  22.765  27.988  1.00  0.00    -0.167 F 
ATOM     21  F   UNL A   1      29.747  24.047  26.399  1.00  0.00    -0.167 F 
ATOM     22  F   UNL A   1      29.675  21.888  26.174  1.00  0.00    -0.167 F 
ENDBRANCH  10  19
BRANCH  15  23
ATOM     23  S   UNL A   1      34.206  30.162  26.995  1.00  0.00     0.310 S 
ATOM     24  F   UNL A   1      34.388  29.177  28.226  1.00  0.00    -0.094 F 
ATOM     25  F   UNL A   1      32.814  30.567  27.612  1.00  0.00    -0.094 F 
ATOM     26  F   UNL A   1      34.928  31.251  27.838  1.00  0.00    -0.094 F 
ATOM     27  F   UNL A   1      35.606  29.650  26.473  1.00  0.00    -0.094 F 
ATOM     28  F   UNL A   1      33.500  28.978  26.221  1.00  0.00    -0.094 F 
ENDBRANCH  15  23
ENDBRANCH   6   8
ENDBRANCH   3   4
ENDBRANCH   2   3
ENDBRANCH   1   2
BRANCH   1  29
ATOM     29  N   UNL A   1      37.716  22.875  25.502  1.00  0.00    -0.352 N 
ATOM     30  C   UNL A   1      39.077  23.046  26.033  1.00  0.00     0.251 C 
ATOM     31  H   UNL A   1      37.473  22.047  25.030  1.00  0.00     0.163 HD
ATOM     32  O   UNL A   1      39.938  22.124  25.880  1.00  0.00    -0.269 OA
BRANCH  30  33
ATOM     33  C   UNL A   1      39.454  24.325  26.762  1.00  0.00     0.039 A 
ATOM     34  C   UNL A   1      39.103  24.376  28.100  1.00  0.00     0.014 A 
ATOM     35  C   UNL A   1      40.194  25.279  26.207  1.00  0.00     0.014 A 
ATOM     36  C   UNL A   1      39.342  25.631  28.709  1.00  0.00     0.010 A 
ATOM     37  C   UNL A   1      40.503  26.419  26.907  1.00  0.00     0.010 A 
ATOM     38  C   UNL A   1      40.136  26.562  28.217  1.00  0.00    -0.014 A 
BRANCH  38  39
ATOM     39  C   UNL A   1      40.619  27.731  29.060  1.00  0.00     0.031 A 
ATOM     40  C   UNL A   1      41.812  27.641  29.780  1.00  0.00     0.074 A 
ATOM     41  C   UNL A   1      39.719  28.776  29.181  1.00  0.00     0.049 A 
ATOM     42  N   UNL A   1      42.303  28.521  30.653  1.00  0.00    -0.248 NA
ATOM     43  C   UNL A   1      42.753  26.516  29.679  1.00  0.00     0.031 C 
ATOM     44  C   UNL A   1      38.519  28.879  28.452  1.00  0.00     0.029 A 
ATOM     45  N   UNL A   1      39.809  29.879  30.002  1.00  0.00    -0.354 N 
ATOM     46  C   UNL A   1      43.478  28.097  31.124  1.00  0.00     0.074 A 
ATOM     47  C   UNL A   1      43.780  26.799  30.508  1.00  0.00     0.031 C 
ATOM     48  C   UNL A   1      37.888  30.019  28.835  1.00  0.00     0.029 A 
ATOM     49  C   UNL A   1      38.684  30.651  29.810  1.00  0.00     0.049 A 
ATOM     50  H   UNL A   1      40.550  30.080  30.618  1.00  0.00     0.167 HD
ATOM     51  C   UNL A   1      44.308  28.744  32.042  1.00  0.00     0.037 A 
ATOM     52  C   UNL A   1      38.353  31.838  30.442  1.00  0.00     0.037 A 
ATOM     53  C   UNL A   1      43.997  29.953  32.641  1.00  0.00     0.049 A 
ATOM     54  C   UNL A   1      39.157  32.456  31.403  1.00  0.00     0.074 A 
ATOM     55  C   UNL A   1      44.827  30.622  33.561  1.00  0.00     0.029 A 
ATOM     56  N   UNL A   1      42.860  30.712  32.468  1.00  0.00    -0.354 N 
ATOM     57  N   UNL A   1      40.349  32.052  31.844  1.00  0.00    -0.248 NA
ATOM     58  C   UNL A   1      38.801  33.698  32.102  1.00  0.00     0.031 C 
ATOM     59  C   UNL A   1      44.196  31.764  33.946  1.00  0.00     0.029 A 
ATOM     60  C   UNL A   1      42.961  31.826  33.271  1.00  0.00     0.049 A 
ATOM     61  H   UNL A   1      42.107  30.496  31.872  1.00  0.00     0.167 HD
ATOM     62  C   UNL A   1      40.820  32.912  32.749  1.00  0.00     0.074 A 
ATOM     63  C   UNL A   1      39.828  33.979  32.934  1.00  0.00     0.031 C 
ATOM     64  C   UNL A   1      42.040  32.851  33.425  1.00  0.00     0.037 A 
BRANCH  51  65
ATOM     65  C   UNL A   1      45.629  28.083  32.402  1.00  0.00     0.058 A 
ATOM     66  C   UNL A   1      45.603  27.173  33.446  1.00  0.00     0.135 A 
ATOM     67  C   UNL A   1      46.734  28.287  31.693  1.00  0.00     0.135 A 
ATOM     68  F   UNL A   1      44.476  26.752  34.013  1.00  0.00    -0.206 F 
ATOM     69  C   UNL A   1      46.884  26.733  33.855  1.00  0.00     0.059 A 
ATOM     70  C   UNL A   1      47.924  27.714  32.073  1.00  0.00     0.059 A 
ATOM     71  F   UNL A   1      46.687  29.051  30.605  1.00  0.00    -0.206 F 
ATOM     72  C   UNL A   1      47.983  26.851  33.131  1.00  0.00     0.060 A 
BRANCH  72  73
ATOM     73  S   UNL A   1      49.486  25.922  33.522  1.00  0.00     0.124 S 
ATOM     74  O   UNL A   1      49.111  24.506  33.963  1.00  0.00    -0.237 OA
ATOM     75  O   UNL A   1      50.379  25.851  32.281  1.00  0.00    -0.237 OA
ATOM     76  O   UNL A   1      50.330  26.709  34.785  1.00  0.00    -0.744 OA
ENDBRANCH  72  73
ENDBRANCH  51  65
BRANCH  52  77
ATOM     77  C   UNL A   1      37.040  32.507  30.067  1.00  0.00     0.058 A 
ATOM     78  C   UNL A   1      37.074  33.498  29.100  1.00  0.00     0.135 A 
ATOM     79  C   UNL A   1      35.921  32.224  30.724  1.00  0.00     0.135 A 
ATOM     80  F   UNL A   1      38.086  33.645  28.249  1.00  0.00    -0.206 F 
ATOM     81  C   UNL A   1      35.937  34.338  29.099  1.00  0.00     0.059 A 
ATOM     82  C   UNL A   1      34.803  33.010  30.572  1.00  0.00     0.059 A 
ATOM     83  F   UNL A   1      35.881  31.172  31.537  1.00  0.00    -0.206 F 
ATOM     84  C   UNL A   1      34.786  34.042  29.676  1.00  0.00     0.060 A 
BRANCH  84  85
ATOM     85  S   UNL A   1      33.268  34.954  29.302  1.00  0.00     0.124 S 
ATOM     86  O   UNL A   1      32.474  34.205  28.230  1.00  0.00    -0.237 OA
ATOM     87  O   UNL A   1      32.422  35.078  30.571  1.00  0.00    -0.237 OA
ATOM     88  O   UNL A   1      33.668  36.514  28.727  1.00  0.00    -0.744 OA
ENDBRANCH  84  85
ENDBRANCH  52  77
BRANCH  64  89
ATOM     89  C   UNL A   1      42.378  33.977  34.389  1.00  0.00     0.058 A 
ATOM     90  C   UNL A   1      42.044  33.727  35.710  1.00  0.00     0.135 A 
ATOM     91  C   UNL A   1      43.059  35.063  34.045  1.00  0.00     0.135 A 
ATOM     92  F   UNL A   1      41.594  32.548  36.134  1.00  0.00    -0.206 F 
ATOM     93  C   UNL A   1      42.224  34.838  36.567  1.00  0.00     0.059 A 
ATOM     94  C   UNL A   1      43.317  36.049  34.967  1.00  0.00     0.059 A 
ATOM     95  F   UNL A   1      43.494  35.200  32.795  1.00  0.00    -0.206 F 
ATOM     96  C   UNL A   1      42.962  35.894  36.278  1.00  0.00     0.060 A 
BRANCH  96  97
ATOM     97  S   UNL A   1      43.475  37.075  37.551  1.00  0.00     0.124 S 
ATOM     98  O   UNL A   1      43.963  38.364  36.885  1.00  0.00    -0.237 OA
ATOM     99  O   UNL A   1      42.287  37.391  38.462  1.00  0.00    -0.237 OA
ATOM    100  O   UNL A   1      44.742  36.398  38.479  1.00  0.00    -0.744 OA
ENDBRANCH  96  97
ENDBRANCH  64  89
ENDBRANCH  38  39
ENDBRANCH  30  33
ENDBRANCH   1  29
TORSDOF 15
ENDMDL
MODEL 2
REMARK VINA RESULT:     -12.0      3.989      9.398
REMARK SMILES O=C(NCCCNC(=O)c1ccc(-c2c3nc(c(-c4c(F)cc(S(=O)(=O)[O-])cc4F)c4ccc([nH]4)c(-c4c(F)cc(S(=O)(=O)[O-])cc4F)c4nc(c(-c5c(F)cc(S(=O)(=O)[O-])cc5F)c5ccc2[nH]5)C=C4)C=C3)cc1)C1=Cc2cc(S(F)(F)(F)(F)F)cc(Br)c2O[C@@H]1C(F)(F)F
REMARK SMILES IDX 6 1 5 2 4 3 3 4 1 5 2 6 76 8 77 9 92 10 78 11 91 12 79 13
REMARK SMILES IDX 90 14 80 15 88 16 87 17 89 18 93 19 94 20 95 21 96 22 81 23
REMARK SMILES IDX 82 24 83 25 84 26 85 27 86 28 7 29 8 30 9 32 10 33 11 34
REMARK SMILES IDX 75 35 12 36 74 37 13 38 14 39 15 40 68 41 16 42 73 43 67 44
REMARK SMILES IDX 69 45 17 46 72 47 66 48 65 49 18 51 52 52 31 53 51 54 32 55
REMARK SMILES IDX 35 56 50 57 70 58 33 59 34 60 49 62 71 63 36 64 19 65 20 66
REMARK SMILES IDX 29 67 21 68 22 69 28 70 30 71 23 72 24 73 25 74 26 75 27 76
REMARK SMILES IDX 53 77 54 78 63 79 55 80 56 81 62 82 64 83 57 84 58 85 59 86
REMARK SMILES IDX 60 87 61 88 37 89 38 90 47 91 39 92 40 93 46 94 48 95 41 96
REMARK SMILES IDX 42 97 43 98 44 99 45 100
REMARK H PARENT 3 7 7 31 69 50 35 61
REMARK Flexibility Score: inf
ROOT
ATOM      1  C   UNL A   1      34.050  28.258  26.804  1.00  0.00     0.118 C 
ENDROOT
BRANCH   1   2
ATOM      2  C   UNL A   1      32.862  27.368  26.481  1.00  0.00     0.042 C 
BRANCH   2   3
ATOM      3  C   UNL A   1      33.354  25.967  26.152  1.00  0.00     0.118 C 
BRANCH   3   4
ATOM      4  N   UNL A   1      32.207  25.112  25.813  1.00  0.00    -0.352 N 
ATOM      5  O   UNL A   1      30.943  24.029  24.118  1.00  0.00    -0.270 OA
ATOM      6  C   UNL A   1      31.934  24.769  24.411  1.00  0.00     0.251 C 
ATOM      7  H   UNL A   1      31.622  24.768  26.527  1.00  0.00     0.163 HD
BRANCH   6   8
ATOM      8  C   UNL A   1      32.838  25.300  23.309  1.00  0.00     0.067 C 
ATOM      9  C   UNL A   1      34.118  24.850  23.203  1.00  0.00     0.025 C 
ATOM     10  C   UNL A   1      32.312  26.334  22.327  1.00  0.00     0.314 C 
ATOM     11  C   UNL A   1      34.643  23.817  24.186  1.00  0.00     0.020 A 
ATOM     12  O   UNL A   1      32.557  22.731  23.851  1.00  0.00    -0.474 OA
ATOM     13  C   UNL A   1      35.839  23.989  24.864  1.00  0.00     0.036 A 
ATOM     14  C   UNL A   1      33.844  22.790  24.448  1.00  0.00     0.142 A 
ATOM     15  C   UNL A   1      36.244  22.854  25.607  1.00  0.00     0.109 A 
ATOM     16  C   UNL A   1      34.250  21.783  25.289  1.00  0.00     0.062 A 
ATOM     17  C   UNL A   1      35.447  21.858  25.948  1.00  0.00     0.044 A 
ATOM     18  Br  UNL A   1      33.101  20.218  25.551  1.00  0.00    -0.047 Br
BRANCH  10  19
ATOM     19  C   UNL A   1      32.389  25.776  20.915  1.00  0.00     0.429 C 
ATOM     20  F   UNL A   1      33.370  26.381  20.252  1.00  0.00    -0.167 F 
ATOM     21  F   UNL A   1      32.629  24.469  20.968  1.00  0.00    -0.167 F 
ATOM     22  F   UNL A   1      31.234  25.990  20.290  1.00  0.00    -0.167 F 
ENDBRANCH  10  19
BRANCH  15  23
ATOM     23  S   UNL A   1      37.976  22.760  26.124  1.00  0.00     0.310 S 
ATOM     24  F   UNL A   1      38.401  23.968  25.187  1.00  0.00    -0.094 F 
ATOM     25  F   UNL A   1      38.271  21.802  24.909  1.00  0.00    -0.094 F 
ATOM     26  F   UNL A   1      39.458  22.677  26.586  1.00  0.00    -0.094 F 
ATOM     27  F   UNL A   1      37.694  23.831  27.251  1.00  0.00    -0.094 F 
ATOM     28  F   UNL A   1      36.496  22.944  25.600  1.00  0.00    -0.094 F 
ENDBRANCH  15  23
ENDBRANCH   6   8
ENDBRANCH   3   4
ENDBRANCH   2   3
ENDBRANCH   1   2
BRANCH   1  29
ATOM     29  N   UNL A   1      33.569  29.558  27.293  1.00  0.00    -0.352 N 
ATOM     30  C   UNL A   1      34.460  30.422  28.081  1.00  0.00     0.251 C 
ATOM     31  H   UNL A   1      32.651  29.851  27.093  1.00  0.00     0.163 HD
ATOM     32  O   UNL A   1      34.044  31.547  28.504  1.00  0.00    -0.269 OA
BRANCH  30  33
ATOM     33  C   UNL A   1      35.878  29.972  28.391  1.00  0.00     0.039 A 
ATOM     34  C   UNL A   1      36.800  30.158  27.376  1.00  0.00     0.014 A 
ATOM     35  C   UNL A   1      36.254  29.558  29.596  1.00  0.00     0.014 A 
ATOM     36  C   UNL A   1      38.072  29.601  27.645  1.00  0.00     0.010 A 
ATOM     37  C   UNL A   1      37.548  29.155  29.824  1.00  0.00     0.010 A 
ATOM     38  C   UNL A   1      38.498  29.256  28.846  1.00  0.00    -0.014 A 
BRANCH  38  39
ATOM     39  C   UNL A   1      39.968  28.987  29.128  1.00  0.00     0.031 A 
ATOM     40  C   UNL A   1      40.802  30.011  29.579  1.00  0.00     0.074 A 
ATOM     41  C   UNL A   1      40.417  27.735  28.744  1.00  0.00     0.049 A 
ATOM     42  N   UNL A   1      42.125  29.966  29.751  1.00  0.00    -0.248 NA
ATOM     43  C   UNL A   1      40.333  31.352  29.955  1.00  0.00     0.031 C 
ATOM     44  C   UNL A   1      39.580  26.694  28.296  1.00  0.00     0.029 A 
ATOM     45  N   UNL A   1      41.714  27.272  28.722  1.00  0.00    -0.354 N 
ATOM     46  C   UNL A   1      42.568  31.136  30.216  1.00  0.00     0.074 A 
ATOM     47  C   UNL A   1      41.423  32.046  30.348  1.00  0.00     0.031 C 
ATOM     48  C   UNL A   1      40.362  25.624  27.997  1.00  0.00     0.029 A 
ATOM     49  C   UNL A   1      41.701  25.976  28.254  1.00  0.00     0.049 A 
ATOM     50  H   UNL A   1      42.512  27.780  28.994  1.00  0.00     0.167 HD
ATOM     51  C   UNL A   1      43.884  31.478  30.536  1.00  0.00     0.037 A 
ATOM     52  C   UNL A   1      42.783  25.135  28.054  1.00  0.00     0.037 A 
ATOM     53  C   UNL A   1      44.961  30.623  30.377  1.00  0.00     0.049 A 
ATOM     54  C   UNL A   1      44.107  25.498  28.319  1.00  0.00     0.074 A 
ATOM     55  C   UNL A   1      46.291  30.949  30.703  1.00  0.00     0.029 A 
ATOM     56  N   UNL A   1      44.950  29.336  29.885  1.00  0.00    -0.354 N 
ATOM     57  N   UNL A   1      44.545  26.653  28.822  1.00  0.00    -0.248 NA
ATOM     58  C   UNL A   1      45.264  24.627  28.081  1.00  0.00     0.031 C 
ATOM     59  C   UNL A   1      47.074  29.878  30.403  1.00  0.00     0.029 A 
ATOM     60  C   UNL A   1      46.245  28.864  29.885  1.00  0.00     0.049 A 
ATOM     61  H   UNL A   1      44.155  28.838  29.587  1.00  0.00     0.167 HD
ATOM     62  C   UNL A   1      45.872  26.622  28.953  1.00  0.00     0.074 A 
ATOM     63  C   UNL A   1      46.355  25.321  28.472  1.00  0.00     0.031 C 
ATOM     64  C   UNL A   1      46.700  27.626  29.459  1.00  0.00     0.037 A 
BRANCH  51  65
ATOM     65  C   UNL A   1      44.147  32.868  31.092  1.00  0.00     0.058 A 
ATOM     66  C   UNL A   1      44.360  33.877  30.167  1.00  0.00     0.135 A 
ATOM     67  C   UNL A   1      44.079  33.129  32.393  1.00  0.00     0.135 A 
ATOM     68  F   UNL A   1      44.185  33.709  28.859  1.00  0.00    -0.206 F 
ATOM     69  C   UNL A   1      44.780  35.100  30.739  1.00  0.00     0.059 A 
ATOM     70  C   UNL A   1      44.371  34.385  32.870  1.00  0.00     0.059 A 
ATOM     71  F   UNL A   1      43.725  32.168  33.241  1.00  0.00    -0.206 F 
ATOM     72  C   UNL A   1      44.648  35.415  32.016  1.00  0.00     0.060 A 
BRANCH  72  73
ATOM     73  S   UNL A   1      44.827  37.119  32.601  1.00  0.00     0.124 S 
ATOM     74  O   UNL A   1      45.961  37.190  33.625  1.00  0.00    -0.237 OA
ATOM     75  O   UNL A   1      45.148  38.034  31.416  1.00  0.00    -0.237 OA
ATOM     76  O   UNL A   1      43.366  37.626  33.331  1.00  0.00    -0.744 OA
ENDBRANCH  72  73
ENDBRANCH  51  65
BRANCH  52  77
ATOM     77  C   UNL A   1      42.517  23.740  27.514  1.00  0.00     0.058 A 
ATOM     78  C   UNL A   1      42.405  22.706  28.429  1.00  0.00     0.135 A 
ATOM     79  C   UNL A   1      42.500  23.508  26.207  1.00  0.00     0.135 A 
ATOM     80  F   UNL A   1      42.165  22.905  29.722  1.00  0.00    -0.206 F 
ATOM     81  C   UNL A   1      42.571  21.420  27.863  1.00  0.00     0.059 A 
ATOM     82  C   UNL A   1      42.526  22.221  25.724  1.00  0.00     0.059 A 
ATOM     83  F   UNL A   1      42.458  24.529  25.356  1.00  0.00    -0.206 F 
ATOM     84  C   UNL A   1      42.478  21.150  26.574  1.00  0.00     0.060 A 
BRANCH  84  85
ATOM     85  S   UNL A   1      42.296  19.456  25.963  1.00  0.00     0.124 S 
ATOM     86  O   UNL A   1      42.767  18.473  27.038  1.00  0.00    -0.237 OA
ATOM     87  O   UNL A   1      40.826  19.188  25.635  1.00  0.00    -0.237 OA
ATOM     88  O   UNL A   1      43.243  19.254  24.554  1.00  0.00    -0.744 OA
ENDBRANCH  84  85
ENDBRANCH  52  77
BRANCH  64  89
ATOM     89  C   UNL A   1      48.191  27.343  29.550  1.00  0.00     0.058 A 
ATOM     90  C   UNL A   1      48.924  27.753  28.448  1.00  0.00     0.135 A 
ATOM     91  C   UNL A   1      48.788  26.869  30.636  1.00  0.00     0.135 A 
ATOM     92  F   UNL A   1      48.401  28.462  27.451  1.00  0.00    -0.206 F 
ATOM     93  C   UNL A   1      50.280  27.348  28.480  1.00  0.00     0.059 A 
ATOM     94  C   UNL A   1      50.140  26.624  30.642  1.00  0.00     0.059 A 
ATOM     95  F   UNL A   1      48.070  26.626  31.730  1.00  0.00    -0.206 F 
ATOM     96  C   UNL A   1      50.917  26.949  29.565  1.00  0.00     0.060 A 
BRANCH  96  97
ATOM     97  S   UNL A   1      52.723  26.836  29.623  1.00  0.00     0.124 S 
ATOM     98  O   UNL A   1      53.141  25.939  30.790  1.00  0.00    -0.237 OA
ATOM     99  O   UNL A   1      53.239  26.240  28.311  1.00  0.00    -0.237 OA
ATOM    100  O   UNL A   1      53.385  28.398  29.840  1.00  0.00    -0.744 OA
ENDBRANCH  96  97
ENDBRANCH  64  89
ENDBRANCH  38  39
ENDBRANCH  30  33
ENDBRANCH   1  29
TORSDOF 15
ENDMDL
MODEL 3
REMARK VINA RESULT:     -12.0      3.800      9.530
REMARK SMILES O=C(NCCCNC(=O)c1ccc(-c2c3nc(c(-c4c(F)cc(S(=O)(=O)[O-])cc4F)c4ccc([nH]4)c(-c4c(F)cc(S(=O)(=O)[O-])cc4F)c4nc(c(-c5c(F)cc(S(=O)(=O)[O-])cc5F)c5ccc2[nH]5)C=C4)C=C3)cc1)C1=Cc2cc(S(F)(F)(F)(F)F)cc(Br)c2O[C@@H]1C(F)(F)F
REMARK SMILES IDX 6 1 5 2 4 3 3 4 1 5 2 6 76 8 77 9 92 10 78 11 91 12 79 13
REMARK SMILES IDX 90 14 80 15 88 16 87 17 89 18 93 19 94 20 95 21 96 22 81 23
REMARK SMILES IDX 82 24 83 25 84 26 85 27 86 28 7 29 8 30 9 32 10 33 11 34
REMARK SMILES IDX 75 35 12 36 74 37 13 38 14 39 15 40 68 41 16 42 73 43 67 44
REMARK SMILES IDX 69 45 17 46 72 47 66 48 65 49 18 51 52 52 31 53 51 54 32 55
REMARK SMILES IDX 35 56 50 57 70 58 33 59 34 60 49 62 71 63 36 64 19 65 20 66
REMARK SMILES IDX 29 67 21 68 22 69 28 70 30 71 23 72 24 73 25 74 26 75 27 76
REMARK SMILES IDX 53 77 54 78 63 79 55 80 56 81 62 82 64 83 57 84 58 85 59 86
REMARK SMILES IDX 60 87 61 88 37 89 38 90 47 91 39 92 40 93 46 94 48 95 41 96
REMARK SMILES IDX 42 97 43 98 44 99 45 100
REMARK H PARENT 3 7 7 31 69 50 35 61
REMARK Flexibility Score: inf
ROOT
ATOM      1  C   UNL A   1      33.974  28.329  26.734  1.00  0.00     0.118 C 
ENDROOT
BRANCH   1   2
ATOM      2  C   UNL A   1      34.150  28.396  25.226  1.00  0.00     0.042 C 
BRANCH   2   3
ATOM      3  C   UNL A   1      33.140  27.479  24.557  1.00  0.00     0.118 C 
BRANCH   3   4
ATOM      4  N   UNL A   1      33.835  26.585  23.619  1.00  0.00    -0.352 N 
ATOM      5  O   UNL A   1      33.705  24.711  22.164  1.00  0.00    -0.270 OA
ATOM      6  C   UNL A   1      33.105  25.484  22.975  1.00  0.00     0.251 C 
ATOM      7  H   UNL A   1      34.790  26.724  23.423  1.00  0.00     0.163 HD
BRANCH   6   8
ATOM      8  C   UNL A   1      31.631  25.270  23.278  1.00  0.00     0.067 C 
ATOM      9  C   UNL A   1      31.214  24.101  23.839  1.00  0.00     0.025 C 
ATOM     10  C   UNL A   1      30.621  26.360  22.955  1.00  0.00     0.314 C 
ATOM     11  C   UNL A   1      32.223  23.012  24.161  1.00  0.00     0.020 A 
ATOM     12  O   UNL A   1      33.561  24.781  25.012  1.00  0.00    -0.474 OA
ATOM     13  C   UNL A   1      32.043  21.699  23.755  1.00  0.00     0.036 A 
ATOM     14  C   UNL A   1      33.344  23.401  24.755  1.00  0.00     0.142 A 
ATOM     15  C   UNL A   1      32.998  20.800  24.285  1.00  0.00     0.109 A 
ATOM     16  C   UNL A   1      34.296  22.482  25.125  1.00  0.00     0.062 A 
ATOM     17  C   UNL A   1      34.156  21.159  24.809  1.00  0.00     0.044 A 
ATOM     18  Br  UNL A   1      35.878  23.075  26.118  1.00  0.00    -0.047 Br
BRANCH  10  19
ATOM     19  C   UNL A   1      29.920  26.795  24.232  1.00  0.00     0.429 C 
ATOM     20  F   UNL A   1      28.677  26.322  24.238  1.00  0.00    -0.167 F 
ATOM     21  F   UNL A   1      30.580  26.320  25.284  1.00  0.00    -0.167 F 
ATOM     22  F   UNL A   1      29.889  28.123  24.290  1.00  0.00    -0.167 F 
ENDBRANCH  10  19
BRANCH  15  23
ATOM     23  S   UNL A   1      32.605  19.033  24.244  1.00  0.00     0.310 S 
ATOM     24  F   UNL A   1      34.134  18.617  24.158  1.00  0.00    -0.094 F 
ATOM     25  F   UNL A   1      32.601  19.086  22.670  1.00  0.00    -0.094 F 
ATOM     26  F   UNL A   1      32.256  17.518  24.222  1.00  0.00    -0.094 F 
ATOM     27  F   UNL A   1      32.752  18.967  25.815  1.00  0.00    -0.094 F 
ATOM     28  F   UNL A   1      33.073  20.543  24.278  1.00  0.00    -0.094 F 
ENDBRANCH  15  23
ENDBRANCH   6   8
ENDBRANCH   3   4
ENDBRANCH   2   3
ENDBRANCH   1   2
BRANCH   1  29
ATOM     29  N   UNL A   1      33.490  29.626  27.229  1.00  0.00    -0.352 N 
ATOM     30  C   UNL A   1      34.374  30.482  28.033  1.00  0.00     0.251 C 
ATOM     31  H   UNL A   1      32.574  29.922  27.021  1.00  0.00     0.163 HD
ATOM     32  O   UNL A   1      33.955  31.603  28.461  1.00  0.00    -0.269 OA
BRANCH  30  33
ATOM     33  C   UNL A   1      35.788  30.027  28.354  1.00  0.00     0.039 A 
ATOM     34  C   UNL A   1      36.724  30.237  27.357  1.00  0.00     0.014 A 
ATOM     35  C   UNL A   1      36.147  29.586  29.555  1.00  0.00     0.014 A 
ATOM     36  C   UNL A   1      37.994  29.675  27.633  1.00  0.00     0.010 A 
ATOM     37  C   UNL A   1      37.437  29.180  29.793  1.00  0.00     0.010 A 
ATOM     38  C   UNL A   1      38.402  29.304  28.832  1.00  0.00    -0.014 A 
BRANCH  38  39
ATOM     39  C   UNL A   1      39.868  29.030  29.130  1.00  0.00     0.031 A 
ATOM     40  C   UNL A   1      40.703  30.054  29.581  1.00  0.00     0.074 A 
ATOM     41  C   UNL A   1      40.315  27.774  28.760  1.00  0.00     0.049 A 
ATOM     42  N   UNL A   1      42.023  30.005  29.766  1.00  0.00    -0.248 NA
ATOM     43  C   UNL A   1      40.235  31.400  29.943  1.00  0.00     0.031 C 
ATOM     44  C   UNL A   1      39.478  26.733  28.312  1.00  0.00     0.029 A 
ATOM     45  N   UNL A   1      41.610  27.305  28.753  1.00  0.00    -0.354 N 
ATOM     46  C   UNL A   1      42.468  31.176  30.227  1.00  0.00     0.074 A 
ATOM     47  C   UNL A   1      41.325  32.092  30.341  1.00  0.00     0.031 C 
ATOM     48  C   UNL A   1      40.257  25.657  28.028  1.00  0.00     0.029 A 
ATOM     49  C   UNL A   1      41.595  26.006  28.295  1.00  0.00     0.049 A 
ATOM     50  H   UNL A   1      42.408  27.811  29.029  1.00  0.00     0.167 HD
ATOM     51  C   UNL A   1      43.781  31.515  30.557  1.00  0.00     0.037 A 
ATOM     52  C   UNL A   1      42.676  25.158  28.112  1.00  0.00     0.037 A 
ATOM     53  C   UNL A   1      44.856  30.654  30.414  1.00  0.00     0.049 A 
ATOM     54  C   UNL A   1      43.998  25.517  28.387  1.00  0.00     0.074 A 
ATOM     55  C   UNL A   1      46.185  30.976  30.751  1.00  0.00     0.029 A 
ATOM     56  N   UNL A   1      44.844  29.363  29.932  1.00  0.00    -0.354 N 
ATOM     57  N   UNL A   1      44.437  26.674  28.885  1.00  0.00    -0.248 NA
ATOM     58  C   UNL A   1      45.155  24.639  28.166  1.00  0.00     0.031 C 
ATOM     59  C   UNL A   1      46.966  29.899  30.466  1.00  0.00     0.029 A 
ATOM     60  C   UNL A   1      46.137  28.886  29.948  1.00  0.00     0.049 A 
ATOM     61  H   UNL A   1      44.050  28.866  29.630  1.00  0.00     0.167 HD
ATOM     62  C   UNL A   1      45.763  26.638  29.030  1.00  0.00     0.074 A 
ATOM     63  C   UNL A   1      46.245  25.332  28.563  1.00  0.00     0.031 C 
ATOM     64  C   UNL A   1      46.591  27.642  29.536  1.00  0.00     0.037 A 
BRANCH  51  65
ATOM     65  C   UNL A   1      44.046  32.908  31.105  1.00  0.00     0.058 A 
ATOM     66  C   UNL A   1      44.301  33.903  30.176  1.00  0.00     0.135 A 
ATOM     67  C   UNL A   1      43.940  33.185  32.400  1.00  0.00     0.135 A 
ATOM     68  F   UNL A   1      44.166  33.722  28.865  1.00  0.00    -0.206 F 
ATOM     69  C   UNL A   1      44.720  35.127  30.747  1.00  0.00     0.059 A 
ATOM     70  C   UNL A   1      44.233  34.443  32.871  1.00  0.00     0.059 A 
ATOM     71  F   UNL A   1      43.547  32.239  33.247  1.00  0.00    -0.206 F 
ATOM     72  C   UNL A   1      44.551  35.459  32.015  1.00  0.00     0.060 A 
BRANCH  72  73
ATOM     73  S   UNL A   1      44.734  37.167  32.586  1.00  0.00     0.124 S 
ATOM     74  O   UNL A   1      44.737  38.110  31.381  1.00  0.00    -0.237 OA
ATOM     75  O   UNL A   1      43.568  37.523  33.511  1.00  0.00    -0.237 OA
ATOM     76  O   UNL A   1      46.207  37.327  33.439  1.00  0.00    -0.744 OA
ENDBRANCH  72  73
ENDBRANCH  51  65
BRANCH  52  77
ATOM     77  C   UNL A   1      42.408  23.760  27.580  1.00  0.00     0.058 A 
ATOM     78  C   UNL A   1      42.410  22.714  28.488  1.00  0.00     0.135 A 
ATOM     79  C   UNL A   1      42.285  23.540  26.276  1.00  0.00     0.135 A 
ATOM     80  F   UNL A   1      42.278  22.893  29.800  1.00  0.00    -0.206 F 
ATOM     81  C   UNL A   1      42.568  21.440  27.894  1.00  0.00     0.059 A 
ATOM     82  C   UNL A   1      42.310  22.259  25.777  1.00  0.00     0.059 A 
ATOM     83  F   UNL A   1      42.136  24.567  25.445  1.00  0.00    -0.206 F 
ATOM     84  C   UNL A   1      42.371  21.180  26.615  1.00  0.00     0.060 A 
BRANCH  84  85
ATOM     85  S   UNL A   1      42.191  19.487  26.001  1.00  0.00     0.124 S 
ATOM     86  O   UNL A   1      40.720  19.213  25.681  1.00  0.00    -0.237 OA
ATOM     87  O   UNL A   1      43.030  19.312  24.733  1.00  0.00    -0.237 OA
ATOM     88  O   UNL A   1      42.728  18.388  27.197  1.00  0.00    -0.744 OA
ENDBRANCH  84  85
ENDBRANCH  52  77
BRANCH  64  89
ATOM     89  C   UNL A   1      48.079  27.354  29.643  1.00  0.00     0.058 A 
ATOM     90  C   UNL A   1      48.826  27.761  28.550  1.00  0.00     0.135 A 
ATOM     91  C   UNL A   1      48.662  26.876  30.736  1.00  0.00     0.135 A 
ATOM     92  F   UNL A   1      48.317  28.473  27.547  1.00  0.00    -0.206 F 
ATOM     93  C   UNL A   1      50.180  27.351  28.596  1.00  0.00     0.059 A 
ATOM     94  C   UNL A   1      50.013  26.626  30.756  1.00  0.00     0.059 A 
ATOM     95  F   UNL A   1      47.931  26.635  31.821  1.00  0.00    -0.206 F 
ATOM     96  C   UNL A   1      50.803  26.948  29.688  1.00  0.00     0.060 A 
BRANCH  96  97
ATOM     97  S   UNL A   1      52.608  26.829  29.766  1.00  0.00     0.124 S 
ATOM     98  O   UNL A   1      53.139  26.251  28.452  1.00  0.00    -0.237 OA
ATOM     99  O   UNL A   1      53.202  28.222  29.987  1.00  0.00    -0.237 OA
ATOM    100  O   UNL A   1      53.056  25.805  31.061  1.00  0.00    -0.744 OA
ENDBRANCH  96  97
ENDBRANCH  64  89
ENDBRANCH  38  39
ENDBRANCH  30  33
ENDBRANCH   1  29
TORSDOF 15
ENDMDL
