MODEL 1
REMARK VINA RESULT:     -11.7      0.000      0.000
REMARK SMILES COC(=O)[C@@H](C)S(=O)(=O)N(C)c1snc(C)c1C(=O)NCCCNC(=O)c1ccc(-c2c3nc(c(-c4c(F)cc(S(=O)(=O)[O-])cc4F)c4ccc([nH]4)c(-c4c(F)cc(S(=O)(=O)[O-])cc4F)c4nc(c(-c5c(F)cc(S(=O)(=O)[O-])cc5F)c5ccc2[nH]5)C=C4)C=C3)cc1
REMARK SMILES IDX 21 1 20 2 18 3 19 4 17 6 12 7 13 8 14 9 15 10 16 11 10 12
REMARK SMILES IDX 11 13 7 14 8 15 9 16 5 17 6 18 3 19 4 20 2 21 1 22 22 23
REMARK SMILES IDX 23 24 24 25 25 26 26 28 27 29 28 30 92 31 29 32 91 33 30 34
REMARK SMILES IDX 31 35 32 36 85 37 33 38 90 39 84 40 86 41 34 42 89 43 83 44
REMARK SMILES IDX 82 45 35 47 69 48 48 49 68 50 49 51 52 52 67 53 87 54 50 55
REMARK SMILES IDX 51 56 66 58 88 59 53 60 36 61 37 62 46 63 38 64 39 65 45 66
REMARK SMILES IDX 47 67 40 68 41 69 42 70 43 71 44 72 70 73 71 74 80 75 72 76
REMARK SMILES IDX 73 77 79 78 81 79 74 80 75 81 76 82 77 83 78 84 54 85 55 86
REMARK SMILES IDX 64 87 56 88 57 89 63 90 65 91 58 92 59 93 60 94 61 95 62 96
REMARK H PARENT 20 5 24 27 86 46 52 57
REMARK Flexibility Score: inf
ROOT
ATOM      1  C   UNL A   1      31.581  30.086  25.613  1.00  0.00     0.118 C 
ENDROOT
BRANCH   1   2
ATOM      2  N   UNL A   1      32.363  29.572  24.527  1.00  0.00    -0.352 N 
ATOM      3  C   UNL A   1      31.931  28.781  23.489  1.00  0.00     0.256 C 
ATOM      4  O   UNL A   1      32.740  28.557  22.587  1.00  0.00    -0.269 OA
ATOM      5  H   UNL A   1      33.318  29.812  24.524  1.00  0.00     0.163 HD
BRANCH   3   6
ATOM      6  C   UNL A   1      30.622  28.124  23.499  1.00  0.00     0.098 A 
ATOM      7  C   UNL A   1      30.250  26.816  23.818  1.00  0.00     0.138 A 
ATOM      8  S   UNL A   1      28.529  26.712  23.781  1.00  0.00    -0.017 S 
ATOM      9  N   UNL A   1      28.253  28.226  23.226  1.00  0.00    -0.195 NA
ATOM     10  C   UNL A   1      29.415  28.869  23.121  1.00  0.00     0.066 A 
ATOM     11  C   UNL A   1      29.343  30.260  22.575  1.00  0.00     0.069 C 
BRANCH   7  12
ATOM     12  N   UNL A   1      31.086  25.634  24.085  1.00  0.00    -0.261 N 
ATOM     13  C   UNL A   1      30.729  24.450  23.260  1.00  0.00     0.164 C 
BRANCH  12  14
ATOM     14  S   UNL A   1      31.228  25.349  25.772  1.00  0.00     0.249 S 
ATOM     15  O   UNL A   1      30.633  24.053  26.034  1.00  0.00    -0.206 OA
ATOM     16  O   UNL A   1      30.695  26.531  26.423  1.00  0.00    -0.206 OA
BRANCH  14  17
ATOM     17  C   UNL A   1      32.976  25.295  26.194  1.00  0.00     0.236 C 
ATOM     18  C   UNL A   1      33.942  26.255  25.516  1.00  0.00     0.039 C 
BRANCH  17  19
ATOM     19  C   UNL A   1      33.484  23.901  26.014  1.00  0.00     0.325 C 
ATOM     20  O   UNL A   1      33.603  23.341  24.933  1.00  0.00    -0.251 OA
BRANCH  19  21
ATOM     21  O   UNL A   1      33.634  23.288  27.225  1.00  0.00    -0.468 OA
ATOM     22  C   UNL A   1      33.916  21.894  27.149  1.00  0.00     0.282 C 
ENDBRANCH  19  21
ENDBRANCH  17  19
ENDBRANCH  14  17
ENDBRANCH  12  14
ENDBRANCH   7  12
ENDBRANCH   3   6
ENDBRANCH   1   2
BRANCH   1  23
ATOM     23  C   UNL A   1      32.055  29.773  27.018  1.00  0.00     0.042 C 
BRANCH  23  24
ATOM     24  C   UNL A   1      33.572  29.808  27.183  1.00  0.00     0.118 C 
BRANCH  24  25
ATOM     25  N   UNL A   1      34.208  31.118  26.985  1.00  0.00    -0.352 N 
ATOM     26  C   UNL A   1      35.287  31.657  27.682  1.00  0.00     0.251 C 
ATOM     27  H   UNL A   1      33.825  31.684  26.275  1.00  0.00     0.163 HD
ATOM     28  O   UNL A   1      35.650  32.809  27.548  1.00  0.00    -0.269 OA
BRANCH  26  29
ATOM     29  C   UNL A   1      36.048  30.691  28.489  1.00  0.00     0.039 A 
ATOM     30  C   UNL A   1      36.444  29.455  27.981  1.00  0.00     0.014 A 
ATOM     31  C   UNL A   1      36.682  31.283  29.569  1.00  0.00     0.014 A 
ATOM     32  C   UNL A   1      37.627  28.889  28.464  1.00  0.00     0.010 A 
ATOM     33  C   UNL A   1      37.939  30.829  29.866  1.00  0.00     0.010 A 
ATOM     34  C   UNL A   1      38.432  29.622  29.350  1.00  0.00    -0.014 A 
BRANCH  34  35
ATOM     35  C   UNL A   1      39.841  29.261  29.604  1.00  0.00     0.031 A 
ATOM     36  C   UNL A   1      40.288  29.043  31.022  1.00  0.00     0.074 A 
ATOM     37  C   UNL A   1      40.658  28.810  28.622  1.00  0.00     0.049 A 
ATOM     38  N   UNL A   1      41.287  29.597  31.638  1.00  0.00    -0.248 NA
ATOM     39  C   UNL A   1      39.535  28.102  31.867  1.00  0.00     0.031 C 
ATOM     40  C   UNL A   1      40.377  28.668  27.184  1.00  0.00     0.029 A 
ATOM     41  N   UNL A   1      41.881  28.222  28.740  1.00  0.00    -0.354 N 
ATOM     42  C   UNL A   1      41.409  28.955  32.872  1.00  0.00     0.074 A 
ATOM     43  C   UNL A   1      40.239  28.123  33.003  1.00  0.00     0.031 C 
ATOM     44  C   UNL A   1      41.231  27.781  26.641  1.00  0.00     0.029 A 
ATOM     45  C   UNL A   1      42.263  27.504  27.618  1.00  0.00     0.049 A 
ATOM     46  H   UNL A   1      42.441  28.299  29.546  1.00  0.00     0.167 HD
ATOM     47  C   UNL A   1      42.546  29.020  33.626  1.00  0.00     0.037 A 
ATOM     48  C   UNL A   1      43.370  26.753  27.453  1.00  0.00     0.037 A 
ATOM     49  C   UNL A   1      43.429  30.063  33.174  1.00  0.00     0.049 A 
ATOM     50  C   UNL A   1      44.386  27.274  28.390  1.00  0.00     0.074 A 
ATOM     51  C   UNL A   1      43.352  31.435  33.053  1.00  0.00     0.029 A 
ATOM     52  N   UNL A   1      44.536  29.690  32.453  1.00  0.00    -0.354 N 
ATOM     53  N   UNL A   1      44.878  28.484  28.328  1.00  0.00    -0.248 NA
ATOM     54  C   UNL A   1      44.615  26.577  29.645  1.00  0.00     0.031 C 
ATOM     55  C   UNL A   1      44.119  31.751  31.891  1.00  0.00     0.029 A 
ATOM     56  C   UNL A   1      44.636  30.554  31.391  1.00  0.00     0.049 A 
ATOM     57  H   UNL A   1      45.144  28.944  32.658  1.00  0.00     0.167 HD
ATOM     58  C   UNL A   1      45.102  28.847  29.645  1.00  0.00     0.074 A 
ATOM     59  C   UNL A   1      45.074  27.589  30.385  1.00  0.00     0.031 C 
ATOM     60  C   UNL A   1      45.009  30.149  30.050  1.00  0.00     0.037 A 
BRANCH  47  61
ATOM     61  C   UNL A   1      43.023  27.954  34.590  1.00  0.00     0.058 A 
ATOM     62  C   UNL A   1      43.261  28.279  35.945  1.00  0.00     0.135 A 
ATOM     63  C   UNL A   1      43.522  26.701  34.173  1.00  0.00     0.135 A 
ATOM     64  F   UNL A   1      42.843  29.452  36.449  1.00  0.00    -0.206 F 
ATOM     65  C   UNL A   1      43.996  27.454  36.800  1.00  0.00     0.059 A 
ATOM     66  C   UNL A   1      44.215  25.839  35.023  1.00  0.00     0.059 A 
ATOM     67  F   UNL A   1      43.446  26.304  32.896  1.00  0.00    -0.206 F 
ATOM     68  C   UNL A   1      44.488  26.244  36.321  1.00  0.00     0.060 A 
BRANCH  68  69
ATOM     69  S   UNL A   1      45.544  25.231  37.376  1.00  0.00     0.124 S 
ATOM     70  O   UNL A   1      46.667  26.133  37.608  1.00  0.00    -0.237 OA
ATOM     71  O   UNL A   1      44.682  24.974  38.525  1.00  0.00    -0.237 OA
ATOM     72  O   UNL A   1      45.829  24.067  36.542  1.00  0.00    -0.744 OA
ENDBRANCH  68  69
ENDBRANCH  47  61
BRANCH  48  73
ATOM     73  C   UNL A   1      43.481  25.499  26.679  1.00  0.00     0.058 A 
ATOM     74  C   UNL A   1      44.287  25.411  25.537  1.00  0.00     0.135 A 
ATOM     75  C   UNL A   1      42.978  24.282  27.192  1.00  0.00     0.135 A 
ATOM     76  F   UNL A   1      44.820  26.520  25.002  1.00  0.00    -0.206 F 
ATOM     77  C   UNL A   1      44.611  24.184  24.953  1.00  0.00     0.059 A 
ATOM     78  C   UNL A   1      43.278  23.048  26.621  1.00  0.00     0.059 A 
ATOM     79  F   UNL A   1      42.248  24.256  28.319  1.00  0.00    -0.206 F 
ATOM     80  C   UNL A   1      44.118  23.006  25.516  1.00  0.00     0.060 A 
BRANCH  80  81
ATOM     81  S   UNL A   1      44.689  21.415  24.874  1.00  0.00     0.124 S 
ATOM     82  O   UNL A   1      44.747  21.672  23.440  1.00  0.00    -0.237 OA
ATOM     83  O   UNL A   1      45.973  21.258  25.548  1.00  0.00    -0.237 OA
ATOM     84  O   UNL A   1      43.648  20.483  25.302  1.00  0.00    -0.744 OA
ENDBRANCH  80  81
ENDBRANCH  48  73
BRANCH  60  85
ATOM     85  C   UNL A   1      44.999  31.230  28.994  1.00  0.00     0.058 A 
ATOM     86  C   UNL A   1      46.150  31.682  28.326  1.00  0.00     0.135 A 
ATOM     87  C   UNL A   1      43.768  31.699  28.515  1.00  0.00     0.135 A 
ATOM     88  F   UNL A   1      47.358  31.206  28.641  1.00  0.00    -0.206 F 
ATOM     89  C   UNL A   1      46.089  32.577  27.258  1.00  0.00     0.059 A 
ATOM     90  C   UNL A   1      43.678  32.572  27.429  1.00  0.00     0.059 A 
ATOM     91  F   UNL A   1      42.623  31.257  29.061  1.00  0.00    -0.206 F 
ATOM     92  C   UNL A   1      44.847  33.013  26.810  1.00  0.00     0.060 A 
BRANCH  92  93
ATOM     93  S   UNL A   1      44.770  34.076  25.352  1.00  0.00     0.124 S 
ATOM     94  O   UNL A   1      44.276  33.160  24.329  1.00  0.00    -0.237 OA
ATOM     95  O   UNL A   1      43.839  35.123  25.766  1.00  0.00    -0.237 OA
ATOM     96  O   UNL A   1      46.152  34.519  25.180  1.00  0.00    -0.744 OA
ENDBRANCH  92  93
ENDBRANCH  60  85
ENDBRANCH  34  35
ENDBRANCH  26  29
ENDBRANCH  24  25
ENDBRANCH  23  24
ENDBRANCH   1  23
TORSDOF 18
ENDMDL
MODEL 2
REMARK VINA RESULT:     -11.3      3.217      8.111
REMARK SMILES COC(=O)[C@@H](C)S(=O)(=O)N(C)c1snc(C)c1C(=O)NCCCNC(=O)c1ccc(-c2c3nc(c(-c4c(F)cc(S(=O)(=O)[O-])cc4F)c4ccc([nH]4)c(-c4c(F)cc(S(=O)(=O)[O-])cc4F)c4nc(c(-c5c(F)cc(S(=O)(=O)[O-])cc5F)c5ccc2[nH]5)C=C4)C=C3)cc1
REMARK SMILES IDX 21 1 20 2 18 3 19 4 17 6 12 7 13 8 14 9 15 10 16 11 10 12
REMARK SMILES IDX 11 13 7 14 8 15 9 16 5 17 6 18 3 19 4 20 2 21 1 22 22 23
REMARK SMILES IDX 23 24 24 25 25 26 26 28 27 29 28 30 92 31 29 32 91 33 30 34
REMARK SMILES IDX 31 35 32 36 85 37 33 38 90 39 84 40 86 41 34 42 89 43 83 44
REMARK SMILES IDX 82 45 35 47 69 48 48 49 68 50 49 51 52 52 67 53 87 54 50 55
REMARK SMILES IDX 51 56 66 58 88 59 53 60 36 61 37 62 46 63 38 64 39 65 45 66
REMARK SMILES IDX 47 67 40 68 41 69 42 70 43 71 44 72 70 73 71 74 80 75 72 76
REMARK SMILES IDX 73 77 79 78 81 79 74 80 75 81 76 82 77 83 78 84 54 85 55 86
REMARK SMILES IDX 64 87 56 88 57 89 63 90 65 91 58 92 59 93 60 94 61 95 62 96
REMARK H PARENT 20 5 24 27 86 46 52 57
REMARK Flexibility Score: inf
ROOT
ATOM      1  C   UNL A   1      36.265  21.492  25.710  1.00  0.00     0.118 C 
ENDROOT
BRANCH   1   2
ATOM      2  N   UNL A   1      35.295  21.554  26.764  1.00  0.00    -0.352 N 
ATOM      3  C   UNL A   1      33.931  21.437  26.649  1.00  0.00     0.256 C 
ATOM      4  O   UNL A   1      33.287  21.389  27.698  1.00  0.00    -0.269 OA
ATOM      5  H   UNL A   1      35.647  21.696  27.672  1.00  0.00     0.163 HD
BRANCH   3   6
ATOM      6  C   UNL A   1      33.247  21.495  25.354  1.00  0.00     0.098 A 
ATOM      7  C   UNL A   1      32.754  22.577  24.621  1.00  0.00     0.138 A 
ATOM      8  S   UNL A   1      32.193  21.994  23.098  1.00  0.00    -0.017 S 
ATOM      9  N   UNL A   1      32.413  20.402  23.404  1.00  0.00    -0.195 NA
ATOM     10  C   UNL A   1      32.972  20.263  24.606  1.00  0.00     0.066 A 
ATOM     11  C   UNL A   1      33.195  18.856  25.062  1.00  0.00     0.069 C 
BRANCH   7  12
ATOM     12  N   UNL A   1      32.617  23.993  24.999  1.00  0.00    -0.261 N 
ATOM     13  C   UNL A   1      33.905  24.644  25.356  1.00  0.00     0.164 C 
BRANCH  12  14
ATOM     14  S   UNL A   1      31.339  24.209  26.125  1.00  0.00     0.249 S 
ATOM     15  O   UNL A   1      31.948  24.392  27.427  1.00  0.00    -0.206 OA
ATOM     16  O   UNL A   1      30.424  23.104  25.906  1.00  0.00    -0.206 OA
BRANCH  14  17
ATOM     17  C   UNL A   1      30.434  25.699  25.679  1.00  0.00     0.236 C 
ATOM     18  C   UNL A   1      30.130  25.983  24.215  1.00  0.00     0.039 C 
BRANCH  17  19
ATOM     19  C   UNL A   1      31.127  26.889  26.261  1.00  0.00     0.325 C 
ATOM     20  O   UNL A   1      31.082  27.208  27.441  1.00  0.00    -0.251 OA
BRANCH  19  21
ATOM     21  O   UNL A   1      31.672  27.655  25.271  1.00  0.00    -0.468 OA
ATOM     22  C   UNL A   1      32.961  28.180  25.573  1.00  0.00     0.282 C 
ENDBRANCH  19  21
ENDBRANCH  17  19
ENDBRANCH  14  17
ENDBRANCH  12  14
ENDBRANCH   7  12
ENDBRANCH   3   6
ENDBRANCH   1   2
BRANCH   1  23
ATOM     23  C   UNL A   1      37.294  22.603  25.647  1.00  0.00     0.042 C 
BRANCH  23  24
ATOM     24  C   UNL A   1      38.729  22.133  25.865  1.00  0.00     0.118 C 
BRANCH  24  25
ATOM     25  N   UNL A   1      38.956  20.686  25.733  1.00  0.00    -0.352 N 
ATOM     26  C   UNL A   1      40.157  19.995  25.872  1.00  0.00     0.251 C 
ATOM     27  H   UNL A   1      38.164  20.140  25.520  1.00  0.00     0.163 HD
ATOM     28  O   UNL A   1      40.276  18.817  25.598  1.00  0.00    -0.269 OA
BRANCH  26  29
ATOM     29  C   UNL A   1      41.242  20.757  26.508  1.00  0.00     0.039 A 
ATOM     30  C   UNL A   1      42.054  21.629  25.783  1.00  0.00     0.014 A 
ATOM     31  C   UNL A   1      41.085  20.864  27.880  1.00  0.00     0.014 A 
ATOM     32  C   UNL A   1      42.575  22.748  26.439  1.00  0.00     0.010 A 
ATOM     33  C   UNL A   1      41.415  22.068  28.443  1.00  0.00     0.010 A 
ATOM     34  C   UNL A   1      42.182  23.021  27.759  1.00  0.00    -0.014 A 
BRANCH  34  35
ATOM     35  C   UNL A   1      42.386  24.347  28.374  1.00  0.00     0.031 A 
ATOM     36  C   UNL A   1      41.299  25.377  28.252  1.00  0.00     0.074 A 
ATOM     37  C   UNL A   1      43.350  24.573  29.298  1.00  0.00     0.049 A 
ATOM     38  N   UNL A   1      41.397  26.593  27.812  1.00  0.00    -0.248 NA
ATOM     39  C   UNL A   1      39.931  25.017  28.661  1.00  0.00     0.031 C 
ATOM     40  C   UNL A   1      44.380  23.647  29.799  1.00  0.00     0.029 A 
ATOM     41  N   UNL A   1      43.506  25.652  30.116  1.00  0.00    -0.354 N 
ATOM     42  C   UNL A   1      40.168  27.212  28.052  1.00  0.00     0.074 A 
ATOM     43  C   UNL A   1      39.273  26.164  28.474  1.00  0.00     0.031 C 
ATOM     44  C   UNL A   1      44.823  24.068  30.998  1.00  0.00     0.029 A 
ATOM     45  C   UNL A   1      44.310  25.403  31.216  1.00  0.00     0.049 A 
ATOM     46  H   UNL A   1      43.086  26.525  29.941  1.00  0.00     0.167 HD
ATOM     47  C   UNL A   1      40.015  28.569  28.053  1.00  0.00     0.037 A 
ATOM     48  C   UNL A   1      44.592  26.234  32.239  1.00  0.00     0.037 A 
ATOM     49  C   UNL A   1      41.147  29.236  27.464  1.00  0.00     0.049 A 
ATOM     50  C   UNL A   1      44.416  27.612  31.735  1.00  0.00     0.074 A 
ATOM     51  C   UNL A   1      41.752  29.238  26.223  1.00  0.00     0.029 A 
ATOM     52  N   UNL A   1      42.038  29.845  28.311  1.00  0.00    -0.354 N 
ATOM     53  N   UNL A   1      45.134  28.128  30.772  1.00  0.00    -0.248 NA
ATOM     54  C   UNL A   1      43.192  28.329  32.047  1.00  0.00     0.031 C 
ATOM     55  C   UNL A   1      43.145  29.407  26.488  1.00  0.00     0.029 A 
ATOM     56  C   UNL A   1      43.298  29.522  27.872  1.00  0.00     0.049 A 
ATOM     57  H   UNL A   1      41.817  30.407  29.088  1.00  0.00     0.167 HD
ATOM     58  C   UNL A   1      44.269  28.968  30.092  1.00  0.00     0.074 A 
ATOM     59  C   UNL A   1      43.152  29.169  31.010  1.00  0.00     0.031 C 
ATOM     60  C   UNL A   1      44.403  29.194  28.751  1.00  0.00     0.037 A 
BRANCH  47  61
ATOM     61  C   UNL A   1      38.986  29.338  28.856  1.00  0.00     0.058 A 
ATOM     62  C   UNL A   1      38.025  30.137  28.196  1.00  0.00     0.135 A 
ATOM     63  C   UNL A   1      39.086  29.540  30.249  1.00  0.00     0.135 A 
ATOM     64  F   UNL A   1      37.852  30.039  26.867  1.00  0.00    -0.206 F 
ATOM     65  C   UNL A   1      37.270  31.109  28.858  1.00  0.00     0.059 A 
ATOM     66  C   UNL A   1      38.307  30.468  30.939  1.00  0.00     0.059 A 
ATOM     67  F   UNL A   1      40.014  28.915  30.985  1.00  0.00    -0.206 F 
ATOM     68  C   UNL A   1      37.436  31.280  30.229  1.00  0.00     0.060 A 
BRANCH  68  69
ATOM     69  S   UNL A   1      36.561  32.615  31.071  1.00  0.00     0.124 S 
ATOM     70  O   UNL A   1      35.283  31.979  31.367  1.00  0.00    -0.237 OA
ATOM     71  O   UNL A   1      37.425  32.878  32.218  1.00  0.00    -0.237 OA
ATOM     72  O   UNL A   1      36.525  33.675  30.068  1.00  0.00    -0.744 OA
ENDBRANCH  68  69
ENDBRANCH  47  61
BRANCH  48  73
ATOM     73  C   UNL A   1      44.790  25.859  33.655  1.00  0.00     0.058 A 
ATOM     74  C   UNL A   1      45.911  26.289  34.377  1.00  0.00     0.135 A 
ATOM     75  C   UNL A   1      43.750  25.261  34.401  1.00  0.00     0.135 A 
ATOM     76  F   UNL A   1      46.931  26.886  33.744  1.00  0.00    -0.206 F 
ATOM     77  C   UNL A   1      45.984  26.171  35.768  1.00  0.00     0.059 A 
ATOM     78  C   UNL A   1      43.805  25.122  35.785  1.00  0.00     0.059 A 
ATOM     79  F   UNL A   1      42.609  24.873  33.807  1.00  0.00    -0.206 F 
ATOM     80  C   UNL A   1      44.916  25.604  36.464  1.00  0.00     0.060 A 
BRANCH  80  81
ATOM     81  S   UNL A   1      44.932  25.623  38.272  1.00  0.00     0.124 S 
ATOM     82  O   UNL A   1      44.856  24.201  38.588  1.00  0.00    -0.237 OA
ATOM     83  O   UNL A   1      46.206  26.274  38.559  1.00  0.00    -0.237 OA
ATOM     84  O   UNL A   1      43.747  26.405  38.614  1.00  0.00    -0.744 OA
ENDBRANCH  80  81
ENDBRANCH  48  73
BRANCH  60  85
ATOM     85  C   UNL A   1      45.699  28.797  28.082  1.00  0.00     0.058 A 
ATOM     86  C   UNL A   1      45.915  27.548  27.475  1.00  0.00     0.135 A 
ATOM     87  C   UNL A   1      46.689  29.770  27.891  1.00  0.00     0.135 A 
ATOM     88  F   UNL A   1      44.979  26.597  27.511  1.00  0.00    -0.206 F 
ATOM     89  C   UNL A   1      47.068  27.265  26.743  1.00  0.00     0.059 A 
ATOM     90  C   UNL A   1      47.838  29.522  27.137  1.00  0.00     0.059 A 
ATOM     91  F   UNL A   1      46.519  31.008  28.385  1.00  0.00    -0.206 F 
ATOM     92  C   UNL A   1      48.023  28.261  26.572  1.00  0.00     0.060 A 
BRANCH  92  93
ATOM     93  S   UNL A   1      49.455  27.925  25.523  1.00  0.00     0.124 S 
ATOM     94  O   UNL A   1      48.862  27.913  24.189  1.00  0.00    -0.237 OA
ATOM     95  O   UNL A   1      50.337  29.052  25.813  1.00  0.00    -0.237 OA
ATOM     96  O   UNL A   1      49.935  26.632  26.006  1.00  0.00    -0.744 OA
ENDBRANCH  92  93
ENDBRANCH  60  85
ENDBRANCH  34  35
ENDBRANCH  26  29
ENDBRANCH  24  25
ENDBRANCH  23  24
ENDBRANCH   1  23
TORSDOF 18
ENDMDL
MODEL 3
REMARK VINA RESULT:     -11.3      1.336      1.840
REMARK SMILES COC(=O)[C@@H](C)S(=O)(=O)N(C)c1snc(C)c1C(=O)NCCCNC(=O)c1ccc(-c2c3nc(c(-c4c(F)cc(S(=O)(=O)[O-])cc4F)c4ccc([nH]4)c(-c4c(F)cc(S(=O)(=O)[O-])cc4F)c4nc(c(-c5c(F)cc(S(=O)(=O)[O-])cc5F)c5ccc2[nH]5)C=C4)C=C3)cc1
REMARK SMILES IDX 21 1 20 2 18 3 19 4 17 6 12 7 13 8 14 9 15 10 16 11 10 12
REMARK SMILES IDX 11 13 7 14 8 15 9 16 5 17 6 18 3 19 4 20 2 21 1 22 22 23
REMARK SMILES IDX 23 24 24 25 25 26 26 28 27 29 28 30 92 31 29 32 91 33 30 34
REMARK SMILES IDX 31 35 32 36 85 37 33 38 90 39 84 40 86 41 34 42 89 43 83 44
REMARK SMILES IDX 82 45 35 47 69 48 48 49 68 50 49 51 52 52 67 53 87 54 50 55
REMARK SMILES IDX 51 56 66 58 88 59 53 60 36 61 37 62 46 63 38 64 39 65 45 66
REMARK SMILES IDX 47 67 40 68 41 69 42 70 43 71 44 72 70 73 71 74 80 75 72 76
REMARK SMILES IDX 73 77 79 78 81 79 74 80 75 81 76 82 77 83 78 84 54 85 55 86
REMARK SMILES IDX 64 87 56 88 57 89 63 90 65 91 58 92 59 93 60 94 61 95 62 96
REMARK H PARENT 20 5 24 27 86 46 52 57
REMARK Flexibility Score: inf
ROOT
ATOM      1  C   UNL A   1      32.481  28.112  26.826  1.00  0.00     0.118 C 
ENDROOT
BRANCH   1   2
ATOM      2  N   UNL A   1      31.309  27.288  26.884  1.00  0.00    -0.352 N 
ATOM      3  C   UNL A   1      30.845  26.430  25.917  1.00  0.00     0.256 C 
ATOM      4  O   UNL A   1      29.888  25.717  26.221  1.00  0.00    -0.269 OA
ATOM      5  H   UNL A   1      30.777  27.344  27.711  1.00  0.00     0.163 HD
BRANCH   3   6
ATOM      6  C   UNL A   1      31.365  26.440  24.547  1.00  0.00     0.098 A 
ATOM      7  C   UNL A   1      32.195  25.544  23.871  1.00  0.00     0.138 A 
ATOM      8  S   UNL A   1      32.314  26.045  22.225  1.00  0.00    -0.017 S 
ATOM      9  N   UNL A   1      31.477  27.442  22.384  1.00  0.00    -0.195 NA
ATOM     10  C   UNL A   1      31.027  27.539  23.635  1.00  0.00     0.066 A 
ATOM     11  C   UNL A   1      30.279  28.792  23.962  1.00  0.00     0.069 C 
BRANCH   7  12
ATOM     12  N   UNL A   1      32.946  24.384  24.377  1.00  0.00    -0.261 N 
ATOM     13  C   UNL A   1      34.371  24.362  23.953  1.00  0.00     0.164 C 
BRANCH  12  14
ATOM     14  S   UNL A   1      32.074  22.927  24.126  1.00  0.00     0.249 S 
ATOM     15  O   UNL A   1      32.818  22.151  23.154  1.00  0.00    -0.206 OA
ATOM     16  O   UNL A   1      30.708  23.324  23.838  1.00  0.00    -0.206 OA
BRANCH  14  17
ATOM     17  C   UNL A   1      32.011  22.025  25.681  1.00  0.00     0.236 C 
ATOM     18  C   UNL A   1      32.380  22.735  26.976  1.00  0.00     0.039 C 
BRANCH  17  19
ATOM     19  C   UNL A   1      32.837  20.785  25.566  1.00  0.00     0.325 C 
ATOM     20  O   UNL A   1      34.057  20.754  25.659  1.00  0.00    -0.251 OA
BRANCH  19  21
ATOM     21  O   UNL A   1      32.062  19.731  25.177  1.00  0.00    -0.468 OA
ATOM     22  C   UNL A   1      32.710  18.464  25.248  1.00  0.00     0.282 C 
ENDBRANCH  19  21
ENDBRANCH  17  19
ENDBRANCH  14  17
ENDBRANCH  12  14
ENDBRANCH   7  12
ENDBRANCH   3   6
ENDBRANCH   1   2
BRANCH   1  23
ATOM     23  C   UNL A   1      32.352  29.539  27.322  1.00  0.00     0.042 C 
BRANCH  23  24
ATOM     24  C   UNL A   1      33.450  30.472  26.821  1.00  0.00     0.118 C 
BRANCH  24  25
ATOM     25  N   UNL A   1      33.862  31.533  27.750  1.00  0.00    -0.352 N 
ATOM     26  C   UNL A   1      34.878  31.487  28.702  1.00  0.00     0.251 C 
ATOM     27  H   UNL A   1      33.360  32.379  27.694  1.00  0.00     0.163 HD
ATOM     28  O   UNL A   1      35.048  32.363  29.528  1.00  0.00    -0.269 OA
BRANCH  26  29
ATOM     29  C   UNL A   1      35.821  30.369  28.549  1.00  0.00     0.039 A 
ATOM     30  C   UNL A   1      36.682  30.274  27.456  1.00  0.00     0.014 A 
ATOM     31  C   UNL A   1      36.071  29.716  29.744  1.00  0.00     0.014 A 
ATOM     32  C   UNL A   1      37.919  29.650  27.640  1.00  0.00     0.010 A 
ATOM     33  C   UNL A   1      37.361  29.312  29.964  1.00  0.00     0.010 A 
ATOM     34  C   UNL A   1      38.303  29.243  28.928  1.00  0.00    -0.014 A 
BRANCH  34  35
ATOM     35  C   UNL A   1      39.706  28.928  29.259  1.00  0.00     0.031 A 
ATOM     36  C   UNL A   1      40.080  28.716  30.699  1.00  0.00     0.074 A 
ATOM     37  C   UNL A   1      40.593  28.512  28.323  1.00  0.00     0.049 A 
ATOM     38  N   UNL A   1      41.022  29.300  31.373  1.00  0.00    -0.248 NA
ATOM     39  C   UNL A   1      39.313  27.744  31.496  1.00  0.00     0.031 C 
ATOM     40  C   UNL A   1      40.399  28.370  26.871  1.00  0.00     0.029 A 
ATOM     41  N   UNL A   1      41.827  27.965  28.507  1.00  0.00    -0.354 N 
ATOM     42  C   UNL A   1      41.096  28.654  32.610  1.00  0.00     0.074 A 
ATOM     43  C   UNL A   1      39.950  27.781  32.669  1.00  0.00     0.031 C 
ATOM     44  C   UNL A   1      41.312  27.516  26.373  1.00  0.00     0.029 A 
ATOM     45  C   UNL A   1      42.295  27.268  27.405  1.00  0.00     0.049 A 
ATOM     46  H   UNL A   1      42.337  28.055  29.344  1.00  0.00     0.167 HD
ATOM     47  C   UNL A   1      42.186  28.752  33.427  1.00  0.00     0.037 A 
ATOM     48  C   UNL A   1      43.435  26.556  27.300  1.00  0.00     0.037 A 
ATOM     49  C   UNL A   1      43.057  29.827  33.031  1.00  0.00     0.049 A 
ATOM     50  C   UNL A   1      44.379  27.105  28.296  1.00  0.00     0.074 A 
ATOM     51  C   UNL A   1      42.939  31.197  32.912  1.00  0.00     0.029 A 
ATOM     52  N   UNL A   1      44.215  29.498  32.372  1.00  0.00    -0.354 N 
ATOM     53  N   UNL A   1      44.831  28.332  28.267  1.00  0.00    -0.248 NA
ATOM     54  C   UNL A   1      44.560  26.408  29.558  1.00  0.00     0.031 C 
ATOM     55  C   UNL A   1      43.760  31.547  31.797  1.00  0.00     0.029 A 
ATOM     56  C   UNL A   1      44.345  30.371  31.322  1.00  0.00     0.049 A 
ATOM     57  H   UNL A   1      44.836  28.771  32.608  1.00  0.00     0.167 HD
ATOM     58  C   UNL A   1      44.967  28.693  29.597  1.00  0.00     0.074 A 
ATOM     59  C   UNL A   1      44.941  27.430  30.328  1.00  0.00     0.031 C 
ATOM     60  C   UNL A   1      44.808  29.988  30.002  1.00  0.00     0.037 A 
BRANCH  47  61
ATOM     61  C   UNL A   1      42.644  27.696  34.412  1.00  0.00     0.058 A 
ATOM     62  C   UNL A   1      42.651  27.975  35.797  1.00  0.00     0.135 A 
ATOM     63  C   UNL A   1      43.339  26.529  34.027  1.00  0.00     0.135 A 
ATOM     64  F   UNL A   1      42.033  29.067  36.277  1.00  0.00    -0.206 F 
ATOM     65  C   UNL A   1      43.351  27.192  36.720  1.00  0.00     0.059 A 
ATOM     66  C   UNL A   1      44.001  25.706  34.936  1.00  0.00     0.059 A 
ATOM     67  F   UNL A   1      43.488  26.193  32.739  1.00  0.00    -0.206 F 
ATOM     68  C   UNL A   1      44.041  26.070  36.274  1.00  0.00     0.060 A 
BRANCH  68  69
ATOM     69  S   UNL A   1      45.050  25.126  37.434  1.00  0.00     0.124 S 
ATOM     70  O   UNL A   1      44.356  25.380  38.691  1.00  0.00    -0.237 OA
ATOM     71  O   UNL A   1      44.943  23.769  36.907  1.00  0.00    -0.237 OA
ATOM     72  O   UNL A   1      46.369  25.739  37.303  1.00  0.00    -0.744 OA
ENDBRANCH  68  69
ENDBRANCH  47  61
BRANCH  48  73
ATOM     73  C   UNL A   1      43.633  25.312  26.528  1.00  0.00     0.058 A 
ATOM     74  C   UNL A   1      44.619  25.213  25.537  1.00  0.00     0.135 A 
ATOM     75  C   UNL A   1      43.008  24.107  26.919  1.00  0.00     0.135 A 
ATOM     76  F   UNL A   1      45.274  26.309  25.127  1.00  0.00    -0.206 F 
ATOM     77  C   UNL A   1      44.995  23.983  24.990  1.00  0.00     0.059 A 
ATOM     78  C   UNL A   1      43.357  22.872  26.380  1.00  0.00     0.059 A 
ATOM     79  F   UNL A   1      42.094  24.091  27.904  1.00  0.00    -0.206 F 
ATOM     80  C   UNL A   1      44.371  22.816  25.432  1.00  0.00     0.060 A 
BRANCH  80  81
ATOM     81  S   UNL A   1      44.988  21.215  24.861  1.00  0.00     0.124 S 
ATOM     82  O   UNL A   1      44.791  21.315  23.419  1.00  0.00    -0.237 OA
ATOM     83  O   UNL A   1      46.372  21.240  25.321  1.00  0.00    -0.237 OA
ATOM     84  O   UNL A   1      44.125  20.256  25.546  1.00  0.00    -0.744 OA
ENDBRANCH  80  81
ENDBRANCH  48  73
BRANCH  60  85
ATOM     85  C   UNL A   1      44.820  31.076  28.953  1.00  0.00     0.058 A 
ATOM     86  C   UNL A   1      45.994  31.617  28.401  1.00  0.00     0.135 A 
ATOM     87  C   UNL A   1      43.610  31.457  28.357  1.00  0.00     0.135 A 
ATOM     88  F   UNL A   1      47.197  31.228  28.832  1.00  0.00    -0.206 F 
ATOM     89  C   UNL A   1      45.971  32.515  27.334  1.00  0.00     0.059 A 
ATOM     90  C   UNL A   1      43.561  32.331  27.269  1.00  0.00     0.059 A 
ATOM     91  F   UNL A   1      42.453  30.927  28.788  1.00  0.00    -0.206 F 
ATOM     92  C   UNL A   1      44.749  32.863  26.768  1.00  0.00     0.060 A 
BRANCH  92  93
ATOM     93  S   UNL A   1      44.736  33.931  25.312  1.00  0.00     0.124 S 
ATOM     94  O   UNL A   1      43.839  35.006  25.727  1.00  0.00    -0.237 OA
ATOM     95  O   UNL A   1      46.142  34.300  25.171  1.00  0.00    -0.237 OA
ATOM     96  O   UNL A   1      44.222  33.062  24.256  1.00  0.00    -0.744 OA
ENDBRANCH  92  93
ENDBRANCH  60  85
ENDBRANCH  34  35
ENDBRANCH  26  29
ENDBRANCH  24  25
ENDBRANCH  23  24
ENDBRANCH   1  23
TORSDOF 18
ENDMDL
