MODEL 1
REMARK VINA RESULT:     -12.5      0.000      0.000
REMARK SMILES Cc1cc(CNS(=O)(=O)c2ccc(C(=O)NCCCNC(=O)c3ccc(-c4c5nc(c(-c6c(F)cc(S(=O)(=O)[O-])cc6F)c6ccc([nH]6)c(-c6c(F)cc(S(=O)(=O)[O-])cc6F)c6nc(c(-c7c(F)cc(S(=O)(=O)[O-])cc7F)c7ccc4[nH]7)C=C6)C=C5)cc3)cc2F)no1
REMARK SMILES IDX 17 1 16 2 14 3 15 4 13 6 10 7 11 8 90 9 12 10 89 11 91 12
REMARK SMILES IDX 7 13 8 14 9 15 6 16 5 18 4 19 1 20 2 21 3 22 93 23 92 24
REMARK SMILES IDX 18 25 19 26 20 27 21 28 22 30 23 31 24 32 88 33 25 34 87 35
REMARK SMILES IDX 26 36 27 37 28 38 81 39 29 40 86 41 80 42 82 43 30 44 85 45
REMARK SMILES IDX 79 46 78 47 31 49 65 50 44 51 64 52 45 53 48 54 63 55 83 56
REMARK SMILES IDX 46 57 47 58 62 60 84 61 49 62 32 63 33 64 42 65 34 66 35 67
REMARK SMILES IDX 41 68 43 69 36 70 37 71 38 72 39 73 40 74 66 75 67 76 76 77
REMARK SMILES IDX 68 78 69 79 75 80 77 81 70 82 71 83 72 84 73 85 74 86 50 87
REMARK SMILES IDX 51 88 60 89 52 90 53 91 59 92 61 93 54 94 55 95 56 96 57 97
REMARK SMILES IDX 58 98
REMARK H PARENT 16 5 6 17 20 29 82 48 48 59
REMARK Flexibility Score: inf
ROOT
ATOM      1  C   UNL A   1      37.804  22.379  25.529  1.00  0.00     0.118 C 
ENDROOT
BRANCH   1   2
ATOM      2  N   UNL A   1      36.643  21.935  26.278  1.00  0.00    -0.352 N 
ATOM      3  C   UNL A   1      35.295  22.089  26.094  1.00  0.00     0.251 C 
ATOM      4  O   UNL A   1      34.549  21.516  26.890  1.00  0.00    -0.269 OA
ATOM      5  H   UNL A   1      36.870  21.419  27.084  1.00  0.00     0.163 HD
BRANCH   3   6
ATOM      6  C   UNL A   1      34.680  22.870  24.982  1.00  0.00     0.042 A 
ATOM      7  C   UNL A   1      33.654  24.517  22.951  1.00  0.00     0.118 A 
ATOM      8  C   UNL A   1      34.313  25.096  24.034  1.00  0.00     0.026 A 
ATOM      9  C   UNL A   1      33.512  23.141  22.879  1.00  0.00     0.144 A 
ATOM     10  C   UNL A   1      34.813  24.271  25.047  1.00  0.00     0.015 A 
ATOM     11  C   UNL A   1      34.049  22.316  23.867  1.00  0.00     0.054 A 
ATOM     12  F   UNL A   1      32.885  22.565  21.844  1.00  0.00    -0.205 F 
BRANCH   7  13
ATOM     13  S   UNL A   1      33.056  25.530  21.639  1.00  0.00     0.243 S 
ATOM     14  O   UNL A   1      33.234  24.781  20.409  1.00  0.00    -0.207 OA
ATOM     15  O   UNL A   1      33.637  26.838  21.817  1.00  0.00    -0.207 OA
BRANCH  13  16
ATOM     16  N   UNL A   1      31.410  25.657  21.890  1.00  0.00    -0.205 NA
ATOM     17  H   UNL A   1      31.032  26.228  21.133  1.00  0.00     0.141 HD
BRANCH  16  18
ATOM     18  C   UNL A   1      30.944  26.242  23.151  1.00  0.00     0.158 C 
BRANCH  18  19
ATOM     19  C   UNL A   1      30.125  27.450  22.840  1.00  0.00     0.099 A 
ATOM     20  C   UNL A   1      27.512  30.021  22.893  1.00  0.00     0.091 C 
ATOM     21  C   UNL A   1      28.608  29.043  22.787  1.00  0.00     0.133 A 
ATOM     22  C   UNL A   1      28.914  27.870  23.434  1.00  0.00     0.073 A 
ATOM     23  O   UNL A   1      29.568  29.307  21.861  1.00  0.00    -0.361 OA
ATOM     24  N   UNL A   1      30.526  28.309  21.890  1.00  0.00    -0.083 NA
ENDBRANCH  18  19
ENDBRANCH  16  18
ENDBRANCH  13  16
ENDBRANCH   7  13
ENDBRANCH   3   6
ENDBRANCH   1   2
BRANCH   1  25
ATOM     25  C   UNL A   1      39.082  22.271  26.361  1.00  0.00     0.042 C 
BRANCH  25  26
ATOM     26  C   UNL A   1      39.580  23.614  26.892  1.00  0.00     0.118 C 
BRANCH  26  27
ATOM     27  N   UNL A   1      40.598  24.196  26.029  1.00  0.00    -0.352 N 
ATOM     28  C   UNL A   1      41.194  25.432  26.081  1.00  0.00     0.251 C 
ATOM     29  H   UNL A   1      40.906  23.615  25.297  1.00  0.00     0.163 HD
ATOM     30  O   UNL A   1      41.870  25.811  25.128  1.00  0.00    -0.269 OA
BRANCH  28  31
ATOM     31  C   UNL A   1      41.025  26.308  27.262  1.00  0.00     0.039 A 
ATOM     32  C   UNL A   1      40.021  26.003  28.188  1.00  0.00     0.014 A 
ATOM     33  C   UNL A   1      41.805  27.456  27.432  1.00  0.00     0.014 A 
ATOM     34  C   UNL A   1      39.834  26.819  29.307  1.00  0.00     0.010 A 
ATOM     35  C   UNL A   1      41.651  28.240  28.575  1.00  0.00     0.010 A 
ATOM     36  C   UNL A   1      40.663  27.930  29.522  1.00  0.00    -0.014 A 
BRANCH  36  37
ATOM     37  C   UNL A   1      40.514  28.785  30.728  1.00  0.00     0.031 A 
ATOM     38  C   UNL A   1      39.474  29.872  30.760  1.00  0.00     0.074 A 
ATOM     39  C   UNL A   1      41.353  28.620  31.769  1.00  0.00     0.049 A 
ATOM     40  N   UNL A   1      39.267  30.788  31.670  1.00  0.00    -0.248 NA
ATOM     41  C   UNL A   1      38.562  29.951  29.607  1.00  0.00     0.031 C 
ATOM     42  C   UNL A   1      42.415  27.615  31.848  1.00  0.00     0.029 A 
ATOM     43  N   UNL A   1      41.454  29.303  32.956  1.00  0.00    -0.354 N 
ATOM     44  C   UNL A   1      38.217  31.563  31.195  1.00  0.00     0.074 A 
ATOM     45  C   UNL A   1      37.851  31.031  29.900  1.00  0.00     0.031 C 
ATOM     46  C   UNL A   1      43.047  27.735  33.026  1.00  0.00     0.029 A 
ATOM     47  C   UNL A   1      42.464  28.848  33.770  1.00  0.00     0.049 A 
ATOM     48  H   UNL A   1      40.858  30.047  33.201  1.00  0.00     0.167 HD
ATOM     49  C   UNL A   1      37.602  32.612  31.792  1.00  0.00     0.037 A 
ATOM     50  C   UNL A   1      42.882  29.284  34.974  1.00  0.00     0.037 A 
ATOM     51  C   UNL A   1      37.948  33.116  33.095  1.00  0.00     0.049 A 
ATOM     52  C   UNL A   1      42.188  30.452  35.616  1.00  0.00     0.074 A 
ATOM     53  C   UNL A   1      37.358  34.150  33.801  1.00  0.00     0.029 A 
ATOM     54  N   UNL A   1      38.971  32.620  33.891  1.00  0.00    -0.354 N 
ATOM     55  N   UNL A   1      41.184  31.163  35.160  1.00  0.00    -0.248 NA
ATOM     56  C   UNL A   1      42.680  30.881  36.933  1.00  0.00     0.031 C 
ATOM     57  C   UNL A   1      38.040  34.296  35.014  1.00  0.00     0.029 A 
ATOM     58  C   UNL A   1      39.034  33.332  35.076  1.00  0.00     0.049 A 
ATOM     59  H   UNL A   1      39.563  31.873  33.648  1.00  0.00     0.167 HD
ATOM     60  C   UNL A   1      40.913  32.111  36.139  1.00  0.00     0.074 A 
ATOM     61  C   UNL A   1      41.853  31.880  37.217  1.00  0.00     0.031 C 
ATOM     62  C   UNL A   1      39.971  33.085  36.143  1.00  0.00     0.037 A 
BRANCH  49  63
ATOM     63  C   UNL A   1      36.481  33.281  31.049  1.00  0.00     0.058 A 
ATOM     64  C   UNL A   1      36.750  34.151  29.980  1.00  0.00     0.135 A 
ATOM     65  C   UNL A   1      35.141  33.101  31.427  1.00  0.00     0.135 A 
ATOM     66  F   UNL A   1      38.013  34.355  29.575  1.00  0.00    -0.206 F 
ATOM     67  C   UNL A   1      35.729  34.826  29.318  1.00  0.00     0.059 A 
ATOM     68  C   UNL A   1      34.102  33.749  30.764  1.00  0.00     0.059 A 
ATOM     69  F   UNL A   1      34.830  32.263  32.429  1.00  0.00    -0.206 F 
ATOM     70  C   UNL A   1      34.409  34.619  29.718  1.00  0.00     0.060 A 
BRANCH  70  71
ATOM     71  S   UNL A   1      33.089  35.465  28.820  1.00  0.00     0.124 S 
ATOM     72  O   UNL A   1      32.331  36.074  29.907  1.00  0.00    -0.237 OA
ATOM     73  O   UNL A   1      33.837  36.386  27.969  1.00  0.00    -0.237 OA
ATOM     74  O   UNL A   1      32.416  34.380  28.111  1.00  0.00    -0.744 OA
ENDBRANCH  70  71
ENDBRANCH  49  63
BRANCH  50  75
ATOM     75  C   UNL A   1      44.005  28.590  35.655  1.00  0.00     0.058 A 
ATOM     76  C   UNL A   1      45.339  28.930  35.394  1.00  0.00     0.135 A 
ATOM     77  C   UNL A   1      43.758  27.536  36.547  1.00  0.00     0.135 A 
ATOM     78  F   UNL A   1      45.627  29.925  34.541  1.00  0.00    -0.206 F 
ATOM     79  C   UNL A   1      46.394  28.231  35.974  1.00  0.00     0.059 A 
ATOM     80  C   UNL A   1      44.796  26.835  37.155  1.00  0.00     0.059 A 
ATOM     81  F   UNL A   1      42.496  27.185  36.836  1.00  0.00    -0.206 F 
ATOM     82  C   UNL A   1      46.112  27.180  36.846  1.00  0.00     0.060 A 
BRANCH  82  83
ATOM     83  S   UNL A   1      47.493  26.269  37.571  1.00  0.00     0.124 S 
ATOM     84  O   UNL A   1      47.974  25.510  36.421  1.00  0.00    -0.237 OA
ATOM     85  O   UNL A   1      48.365  27.346  38.029  1.00  0.00    -0.237 OA
ATOM     86  O   UNL A   1      46.862  25.484  38.626  1.00  0.00    -0.744 OA
ENDBRANCH  82  83
ENDBRANCH  50  75
BRANCH  62  87
ATOM     87  C   UNL A   1      39.888  33.971  37.353  1.00  0.00     0.058 A 
ATOM     88  C   UNL A   1      39.000  33.666  38.397  1.00  0.00     0.135 A 
ATOM     89  C   UNL A   1      40.616  35.167  37.434  1.00  0.00     0.135 A 
ATOM     90  F   UNL A   1      38.281  32.533  38.364  1.00  0.00    -0.206 F 
ATOM     91  C   UNL A   1      38.820  34.530  39.470  1.00  0.00     0.059 A 
ATOM     92  C   UNL A   1      40.465  36.038  38.509  1.00  0.00     0.059 A 
ATOM     93  F   UNL A   1      41.486  35.494  36.466  1.00  0.00    -0.206 F 
ATOM     94  C   UNL A   1      39.550  35.719  39.513  1.00  0.00     0.060 A 
BRANCH  94  95
ATOM     95  S   UNL A   1      39.298  36.837  40.908  1.00  0.00     0.124 S 
ATOM     96  O   UNL A   1      40.658  37.285  41.181  1.00  0.00    -0.237 OA
ATOM     97  O   UNL A   1      38.401  37.841  40.342  1.00  0.00    -0.237 OA
ATOM     98  O   UNL A   1      38.700  35.979  41.925  1.00  0.00    -0.744 OA
ENDBRANCH  94  95
ENDBRANCH  62  87
ENDBRANCH  36  37
ENDBRANCH  28  31
ENDBRANCH  26  27
ENDBRANCH  25  26
ENDBRANCH   1  25
TORSDOF 17
ENDMDL
MODEL 2
REMARK VINA RESULT:     -12.3      0.595      8.254
REMARK SMILES Cc1cc(CNS(=O)(=O)c2ccc(C(=O)NCCCNC(=O)c3ccc(-c4c5nc(c(-c6c(F)cc(S(=O)(=O)[O-])cc6F)c6ccc([nH]6)c(-c6c(F)cc(S(=O)(=O)[O-])cc6F)c6nc(c(-c7c(F)cc(S(=O)(=O)[O-])cc7F)c7ccc4[nH]7)C=C6)C=C5)cc3)cc2F)no1
REMARK SMILES IDX 17 1 16 2 14 3 15 4 13 6 10 7 11 8 90 9 12 10 89 11 91 12
REMARK SMILES IDX 7 13 8 14 9 15 6 16 5 18 4 19 1 20 2 21 3 22 93 23 92 24
REMARK SMILES IDX 18 25 19 26 20 27 21 28 22 30 23 31 24 32 88 33 25 34 87 35
REMARK SMILES IDX 26 36 27 37 28 38 81 39 29 40 86 41 80 42 82 43 30 44 85 45
REMARK SMILES IDX 79 46 78 47 31 49 65 50 44 51 64 52 45 53 48 54 63 55 83 56
REMARK SMILES IDX 46 57 47 58 62 60 84 61 49 62 32 63 33 64 42 65 34 66 35 67
REMARK SMILES IDX 41 68 43 69 36 70 37 71 38 72 39 73 40 74 66 75 67 76 76 77
REMARK SMILES IDX 68 78 69 79 75 80 77 81 70 82 71 83 72 84 73 85 74 86 50 87
REMARK SMILES IDX 51 88 60 89 52 90 53 91 59 92 61 93 54 94 55 95 56 96 57 97
REMARK SMILES IDX 58 98
REMARK H PARENT 16 5 6 17 20 29 82 48 48 59
REMARK Flexibility Score: inf
ROOT
ATOM      1  C   UNL A   1      37.605  22.718  25.586  1.00  0.00     0.118 C 
ENDROOT
BRANCH   1   2
ATOM      2  N   UNL A   1      36.407  22.400  26.342  1.00  0.00    -0.352 N 
ATOM      3  C   UNL A   1      35.084  22.707  26.171  1.00  0.00     0.251 C 
ATOM      4  O   UNL A   1      34.285  22.213  26.969  1.00  0.00    -0.269 OA
ATOM      5  H   UNL A   1      36.582  21.853  27.140  1.00  0.00     0.163 HD
BRANCH   3   6
ATOM      6  C   UNL A   1      34.552  23.564  25.073  1.00  0.00     0.042 A 
ATOM      7  C   UNL A   1      33.669  25.352  23.094  1.00  0.00     0.118 A 
ATOM      8  C   UNL A   1      34.198  25.852  24.283  1.00  0.00     0.026 A 
ATOM      9  C   UNL A   1      33.585  23.983  22.894  1.00  0.00     0.144 A 
ATOM     10  C   UNL A   1      34.626  24.957  25.268  1.00  0.00     0.015 A 
ATOM     11  C   UNL A   1      34.053  23.091  23.858  1.00  0.00     0.054 A 
ATOM     12  F   UNL A   1      33.083  23.482  21.757  1.00  0.00    -0.205 F 
BRANCH   7  13
ATOM     13  S   UNL A   1      33.165  26.457  21.819  1.00  0.00     0.243 S 
ATOM     14  O   UNL A   1      33.156  25.701  20.580  1.00  0.00    -0.207 OA
ATOM     15  O   UNL A   1      33.951  27.658  21.965  1.00  0.00    -0.207 OA
BRANCH  13  16
ATOM     16  N   UNL A   1      31.574  26.837  22.161  1.00  0.00    -0.205 NA
ATOM     17  H   UNL A   1      31.207  27.351  21.360  1.00  0.00     0.141 HD
BRANCH  16  18
ATOM     18  C   UNL A   1      31.296  27.638  23.358  1.00  0.00     0.158 C 
BRANCH  18  19
ATOM     19  C   UNL A   1      30.394  28.764  22.975  1.00  0.00     0.099 A 
ATOM     20  C   UNL A   1      28.269  31.749  23.099  1.00  0.00     0.091 C 
ATOM     21  C   UNL A   1      29.100  30.543  22.941  1.00  0.00     0.133 A 
ATOM     22  C   UNL A   1      29.823  29.755  23.804  1.00  0.00     0.073 A 
ATOM     23  O   UNL A   1      29.224  30.054  21.678  1.00  0.00    -0.361 OA
ATOM     24  N   UNL A   1      30.038  28.935  21.693  1.00  0.00    -0.083 NA
ENDBRANCH  18  19
ENDBRANCH  16  18
ENDBRANCH  13  16
ENDBRANCH   7  13
ENDBRANCH   3   6
ENDBRANCH   1   2
BRANCH   1  25
ATOM     25  C   UNL A   1      38.871  22.374  26.371  1.00  0.00     0.042 C 
BRANCH  25  26
ATOM     26  C   UNL A   1      39.571  23.595  26.966  1.00  0.00     0.118 C 
BRANCH  26  27
ATOM     27  N   UNL A   1      40.623  24.097  26.094  1.00  0.00    -0.352 N 
ATOM     28  C   UNL A   1      41.271  25.308  26.104  1.00  0.00     0.251 C 
ATOM     29  H   UNL A   1      40.912  23.475  25.389  1.00  0.00     0.163 HD
ATOM     30  O   UNL A   1      41.972  25.618  25.145  1.00  0.00    -0.269 OA
BRANCH  28  31
ATOM     31  C   UNL A   1      41.127  26.237  27.246  1.00  0.00     0.039 A 
ATOM     32  C   UNL A   1      42.006  27.321  27.347  1.00  0.00     0.014 A 
ATOM     33  C   UNL A   1      40.175  26.017  28.246  1.00  0.00     0.014 A 
ATOM     34  C   UNL A   1      41.899  28.209  28.420  1.00  0.00     0.010 A 
ATOM     35  C   UNL A   1      40.035  26.931  29.289  1.00  0.00     0.010 A 
ATOM     36  C   UNL A   1      40.897  28.035  29.387  1.00  0.00    -0.014 A 
BRANCH  36  37
ATOM     37  C   UNL A   1      40.732  28.992  30.512  1.00  0.00     0.031 A 
ATOM     38  C   UNL A   1      41.605  28.882  31.731  1.00  0.00     0.074 A 
ATOM     39  C   UNL A   1      39.758  29.922  30.459  1.00  0.00     0.049 A 
ATOM     40  N   UNL A   1      41.539  29.547  32.855  1.00  0.00    -0.248 NA
ATOM     41  C   UNL A   1      42.680  27.877  31.689  1.00  0.00     0.031 C 
ATOM     42  C   UNL A   1      38.833  30.114  29.340  1.00  0.00     0.029 A 
ATOM     43  N   UNL A   1      39.374  30.871  31.373  1.00  0.00    -0.354 N 
ATOM     44  C   UNL A   1      42.548  29.032  33.660  1.00  0.00     0.074 A 
ATOM     45  C   UNL A   1      43.190  27.975  32.909  1.00  0.00     0.031 C 
ATOM     46  C   UNL A   1      38.003  31.129  29.625  1.00  0.00     0.029 A 
ATOM     47  C   UNL A   1      38.307  31.634  30.961  1.00  0.00     0.049 A 
ATOM     48  H   UNL A   1      39.821  30.993  32.241  1.00  0.00     0.167 HD
ATOM     49  C   UNL A   1      42.916  29.417  34.905  1.00  0.00     0.037 A 
ATOM     50  C   UNL A   1      37.641  32.622  31.591  1.00  0.00     0.037 A 
ATOM     51  C   UNL A   1      42.295  30.491  35.635  1.00  0.00     0.049 A 
ATOM     52  C   UNL A   1      38.065  33.029  32.974  1.00  0.00     0.074 A 
ATOM     53  C   UNL A   1      42.624  30.981  36.888  1.00  0.00     0.029 A 
ATOM     54  N   UNL A   1      41.225  31.246  35.178  1.00  0.00    -0.354 N 
ATOM     55  N   UNL A   1      39.033  32.543  33.713  1.00  0.00    -0.248 NA
ATOM     56  C   UNL A   1      37.309  34.117  33.611  1.00  0.00     0.031 C 
ATOM     57  C   UNL A   1      41.735  32.016  37.199  1.00  0.00     0.029 A 
ATOM     58  C   UNL A   1      40.875  32.192  36.126  1.00  0.00     0.049 A 
ATOM     59  H   UNL A   1      40.781  31.127  34.308  1.00  0.00     0.167 HD
ATOM     60  C   UNL A   1      39.013  33.275  34.895  1.00  0.00     0.074 A 
ATOM     61  C   UNL A   1      37.943  34.243  34.770  1.00  0.00     0.031 C 
ATOM     62  C   UNL A   1      39.810  33.154  35.984  1.00  0.00     0.037 A 
BRANCH  49  63
ATOM     63  C   UNL A   1      44.052  28.682  35.558  1.00  0.00     0.058 A 
ATOM     64  C   UNL A   1      43.804  27.599  36.416  1.00  0.00     0.135 A 
ATOM     65  C   UNL A   1      45.385  29.081  35.374  1.00  0.00     0.135 A 
ATOM     66  F   UNL A   1      42.549  27.173  36.623  1.00  0.00    -0.206 F 
ATOM     67  C   UNL A   1      44.839  26.942  37.076  1.00  0.00     0.059 A 
ATOM     68  C   UNL A   1      46.438  28.425  36.006  1.00  0.00     0.059 A 
ATOM     69  F   UNL A   1      45.677  30.098  34.547  1.00  0.00    -0.206 F 
ATOM     70  C   UNL A   1      46.152  27.363  36.866  1.00  0.00     0.060 A 
BRANCH  70  71
ATOM     71  S   UNL A   1      47.490  26.474  37.691  1.00  0.00     0.124 S 
ATOM     72  O   UNL A   1      47.171  25.088  37.368  1.00  0.00    -0.237 OA
ATOM     73  O   UNL A   1      48.674  27.024  37.038  1.00  0.00    -0.237 OA
ATOM     74  O   UNL A   1      47.329  26.849  39.093  1.00  0.00    -0.744 OA
ENDBRANCH  70  71
ENDBRANCH  49  63
BRANCH  50  75
ATOM     75  C   UNL A   1      36.518  33.304  30.900  1.00  0.00     0.058 A 
ATOM     76  C   UNL A   1      36.745  34.204  29.849  1.00  0.00     0.135 A 
ATOM     77  C   UNL A   1      35.193  33.100  31.314  1.00  0.00     0.135 A 
ATOM     78  F   UNL A   1      37.996  34.440  29.422  1.00  0.00    -0.206 F 
ATOM     79  C   UNL A   1      35.701  34.900  29.249  1.00  0.00     0.059 A 
ATOM     80  C   UNL A   1      34.130  33.769  30.716  1.00  0.00     0.059 A 
ATOM     81  F   UNL A   1      34.928  32.238  32.307  1.00  0.00    -0.206 F 
ATOM     82  C   UNL A   1      34.397  34.682  29.696  1.00  0.00     0.060 A 
BRANCH  82  83
ATOM     83  S   UNL A   1      33.056  35.612  28.921  1.00  0.00     0.124 S 
ATOM     84  O   UNL A   1      33.799  36.594  28.138  1.00  0.00    -0.237 OA
ATOM     85  O   UNL A   1      32.368  34.579  28.154  1.00  0.00    -0.237 OA
ATOM     86  O   UNL A   1      32.314  36.144  30.060  1.00  0.00    -0.744 OA
ENDBRANCH  82  83
ENDBRANCH  50  75
BRANCH  62  87
ATOM     87  C   UNL A   1      39.577  34.097  37.128  1.00  0.00     0.058 A 
ATOM     88  C   UNL A   1      40.299  35.298  37.217  1.00  0.00     0.135 A 
ATOM     89  C   UNL A   1      38.710  33.769  38.181  1.00  0.00     0.135 A 
ATOM     90  F   UNL A   1      41.141  35.656  36.235  1.00  0.00    -0.206 F 
ATOM     91  C   UNL A   1      40.186  36.131  38.324  1.00  0.00     0.059 A 
ATOM     92  C   UNL A   1      38.568  34.598  39.290  1.00  0.00     0.059 A 
ATOM     93  F   UNL A   1      37.990  32.638  38.133  1.00  0.00    -0.206 F 
ATOM     94  C   UNL A   1      39.325  35.767  39.361  1.00  0.00     0.060 A 
BRANCH  94  95
ATOM     95  S   UNL A   1      39.198  36.852  40.798  1.00  0.00     0.124 S 
ATOM     96  O   UNL A   1      38.305  37.895  40.306  1.00  0.00    -0.237 OA
ATOM     97  O   UNL A   1      38.638  35.962  41.811  1.00  0.00    -0.237 OA
ATOM     98  O   UNL A   1      40.578  37.265  41.033  1.00  0.00    -0.744 OA
ENDBRANCH  94  95
ENDBRANCH  62  87
ENDBRANCH  36  37
ENDBRANCH  28  31
ENDBRANCH  26  27
ENDBRANCH  25  26
ENDBRANCH   1  25
TORSDOF 17
ENDMDL
MODEL 3
REMARK VINA RESULT:     -12.3      1.522      2.433
REMARK SMILES Cc1cc(CNS(=O)(=O)c2ccc(C(=O)NCCCNC(=O)c3ccc(-c4c5nc(c(-c6c(F)cc(S(=O)(=O)[O-])cc6F)c6ccc([nH]6)c(-c6c(F)cc(S(=O)(=O)[O-])cc6F)c6nc(c(-c7c(F)cc(S(=O)(=O)[O-])cc7F)c7ccc4[nH]7)C=C6)C=C5)cc3)cc2F)no1
REMARK SMILES IDX 17 1 16 2 14 3 15 4 13 6 10 7 11 8 90 9 12 10 89 11 91 12
REMARK SMILES IDX 7 13 8 14 9 15 6 16 5 18 4 19 1 20 2 21 3 22 93 23 92 24
REMARK SMILES IDX 18 25 19 26 20 27 21 28 22 30 23 31 24 32 88 33 25 34 87 35
REMARK SMILES IDX 26 36 27 37 28 38 81 39 29 40 86 41 80 42 82 43 30 44 85 45
REMARK SMILES IDX 79 46 78 47 31 49 65 50 44 51 64 52 45 53 48 54 63 55 83 56
REMARK SMILES IDX 46 57 47 58 62 60 84 61 49 62 32 63 33 64 42 65 34 66 35 67
REMARK SMILES IDX 41 68 43 69 36 70 37 71 38 72 39 73 40 74 66 75 67 76 76 77
REMARK SMILES IDX 68 78 69 79 75 80 77 81 70 82 71 83 72 84 73 85 74 86 50 87
REMARK SMILES IDX 51 88 60 89 52 90 53 91 59 92 61 93 54 94 55 95 56 96 57 97
REMARK SMILES IDX 58 98
REMARK H PARENT 16 5 6 17 20 29 82 48 48 59
REMARK Flexibility Score: inf
ROOT
ATOM      1  C   UNL A   1      37.956  21.958  26.007  1.00  0.00     0.118 C 
ENDROOT
BRANCH   1   2
ATOM      2  N   UNL A   1      37.775  22.351  24.622  1.00  0.00    -0.352 N 
ATOM      3  C   UNL A   1      36.700  22.822  23.915  1.00  0.00     0.251 C 
ATOM      4  O   UNL A   1      36.895  23.138  22.740  1.00  0.00    -0.269 OA
ATOM      5  H   UNL A   1      38.590  22.259  24.079  1.00  0.00     0.163 HD
BRANCH   3   6
ATOM      6  C   UNL A   1      35.334  23.005  24.483  1.00  0.00     0.042 A 
ATOM      7  C   UNL A   1      32.727  23.126  25.524  1.00  0.00     0.118 A 
ATOM      8  C   UNL A   1      33.109  22.025  24.760  1.00  0.00     0.026 A 
ATOM      9  C   UNL A   1      33.631  24.149  25.767  1.00  0.00     0.144 A 
ATOM     10  C   UNL A   1      34.405  21.975  24.236  1.00  0.00     0.015 A 
ATOM     11  C   UNL A   1      34.936  24.078  25.282  1.00  0.00     0.054 A 
ATOM     12  F   UNL A   1      33.284  25.214  26.503  1.00  0.00    -0.205 F 
BRANCH   7  13
ATOM     13  S   UNL A   1      31.116  23.192  26.233  1.00  0.00     0.243 S 
ATOM     14  O   UNL A   1      31.273  23.653  27.600  1.00  0.00    -0.207 OA
ATOM     15  O   UNL A   1      30.469  21.939  25.929  1.00  0.00    -0.207 OA
BRANCH  13  16
ATOM     16  N   UNL A   1      30.315  24.402  25.407  1.00  0.00    -0.205 NA
ATOM     17  H   UNL A   1      29.318  24.185  25.444  1.00  0.00     0.141 HD
BRANCH  16  18
ATOM     18  C   UNL A   1      30.659  24.625  23.999  1.00  0.00     0.158 C 
BRANCH  18  19
ATOM     19  C   UNL A   1      31.149  26.026  23.846  1.00  0.00     0.099 A 
ATOM     20  C   UNL A   1      33.194  28.952  23.009  1.00  0.00     0.091 C 
ATOM     21  C   UNL A   1      32.299  27.846  23.389  1.00  0.00     0.133 A 
ATOM     22  C   UNL A   1      32.372  26.477  23.300  1.00  0.00     0.073 A 
ATOM     23  O   UNL A   1      31.114  28.195  23.958  1.00  0.00    -0.361 OA
ATOM     24  N   UNL A   1      30.386  27.054  24.246  1.00  0.00    -0.083 NA
ENDBRANCH  18  19
ENDBRANCH  16  18
ENDBRANCH  13  16
ENDBRANCH   7  13
ENDBRANCH   3   6
ENDBRANCH   1   2
BRANCH   1  25
ATOM     25  C   UNL A   1      39.409  22.129  26.452  1.00  0.00     0.042 C 
BRANCH  25  26
ATOM     26  C   UNL A   1      39.735  23.539  26.942  1.00  0.00     0.118 C 
BRANCH  26  27
ATOM     27  N   UNL A   1      40.569  24.264  25.995  1.00  0.00    -0.352 N 
ATOM     28  C   UNL A   1      41.017  25.562  26.032  1.00  0.00     0.251 C 
ATOM     29  H   UNL A   1      40.854  23.747  25.209  1.00  0.00     0.163 HD
ATOM     30  O   UNL A   1      41.526  26.047  25.025  1.00  0.00    -0.269 OA
BRANCH  28  31
ATOM     31  C   UNL A   1      40.886  26.377  27.260  1.00  0.00     0.039 A 
ATOM     32  C   UNL A   1      41.814  27.397  27.493  1.00  0.00     0.014 A 
ATOM     33  C   UNL A   1      39.896  26.106  28.209  1.00  0.00     0.014 A 
ATOM     34  C   UNL A   1      41.720  28.176  28.649  1.00  0.00     0.010 A 
ATOM     35  C   UNL A   1      39.771  26.916  29.337  1.00  0.00     0.010 A 
ATOM     36  C   UNL A   1      40.683  27.957  29.569  1.00  0.00    -0.014 A 
BRANCH  36  37
ATOM     37  C   UNL A   1      40.534  28.802  30.782  1.00  0.00     0.031 A 
ATOM     38  C   UNL A   1      39.513  29.907  30.812  1.00  0.00     0.074 A 
ATOM     39  C   UNL A   1      41.357  28.612  31.832  1.00  0.00     0.049 A 
ATOM     40  N   UNL A   1      39.311  30.817  31.729  1.00  0.00    -0.248 NA
ATOM     41  C   UNL A   1      38.617  30.014  29.649  1.00  0.00     0.031 C 
ATOM     42  C   UNL A   1      42.400  27.588  31.913  1.00  0.00     0.029 A 
ATOM     43  N   UNL A   1      41.454  29.281  33.026  1.00  0.00    -0.354 N 
ATOM     44  C   UNL A   1      38.280  31.616  31.249  1.00  0.00     0.074 A 
ATOM     45  C   UNL A   1      37.921  31.103  29.944  1.00  0.00     0.031 C 
ATOM     46  C   UNL A   1      43.019  27.685  33.100  1.00  0.00     0.029 A 
ATOM     47  C   UNL A   1      42.446  28.801  33.848  1.00  0.00     0.049 A 
ATOM     48  H   UNL A   1      40.869  30.033  33.271  1.00  0.00     0.167 HD
ATOM     49  C   UNL A   1      37.676  32.669  31.849  1.00  0.00     0.037 A 
ATOM     50  C   UNL A   1      42.857  29.218  35.062  1.00  0.00     0.037 A 
ATOM     51  C   UNL A   1      38.015  33.154  33.161  1.00  0.00     0.049 A 
ATOM     52  C   UNL A   1      42.175  30.391  35.707  1.00  0.00     0.074 A 
ATOM     53  C   UNL A   1      37.433  34.191  33.870  1.00  0.00     0.029 A 
ATOM     54  N   UNL A   1      39.018  32.632  33.965  1.00  0.00    -0.354 N 
ATOM     55  N   UNL A   1      41.189  31.123  35.246  1.00  0.00    -0.248 NA
ATOM     56  C   UNL A   1      42.658  30.798  37.035  1.00  0.00     0.031 C 
ATOM     57  C   UNL A   1      38.103  34.313  35.093  1.00  0.00     0.029 A 
ATOM     58  C   UNL A   1      39.078  33.331  35.158  1.00  0.00     0.049 A 
ATOM     59  H   UNL A   1      39.600  31.877  33.722  1.00  0.00     0.167 HD
ATOM     60  C   UNL A   1      40.923  32.067  36.232  1.00  0.00     0.074 A 
ATOM     61  C   UNL A   1      41.845  31.808  37.318  1.00  0.00     0.031 C 
ATOM     62  C   UNL A   1      39.998  33.057  36.234  1.00  0.00     0.037 A 
BRANCH  49  63
ATOM     63  C   UNL A   1      36.576  33.365  31.099  1.00  0.00     0.058 A 
ATOM     64  C   UNL A   1      35.232  33.170  31.455  1.00  0.00     0.135 A 
ATOM     65  C   UNL A   1      36.849  34.186  29.993  1.00  0.00     0.135 A 
ATOM     66  F   UNL A   1      34.916  32.398  32.507  1.00  0.00    -0.206 F 
ATOM     67  C   UNL A   1      34.196  33.758  30.737  1.00  0.00     0.059 A 
ATOM     68  C   UNL A   1      35.829  34.803  29.273  1.00  0.00     0.059 A 
ATOM     69  F   UNL A   1      38.118  34.421  29.625  1.00  0.00    -0.206 F 
ATOM     70  C   UNL A   1      34.505  34.572  29.646  1.00  0.00     0.060 A 
BRANCH  70  71
ATOM     71  S   UNL A   1      33.154  35.368  28.749  1.00  0.00     0.124 S 
ATOM     72  O   UNL A   1      33.873  36.318  27.907  1.00  0.00    -0.237 OA
ATOM     73  O   UNL A   1      32.538  34.240  28.056  1.00  0.00    -0.237 OA
ATOM     74  O   UNL A   1      32.343  35.954  29.813  1.00  0.00    -0.744 OA
ENDBRANCH  70  71
ENDBRANCH  49  63
BRANCH  50  75
ATOM     75  C   UNL A   1      43.958  28.496  35.750  1.00  0.00     0.058 A 
ATOM     76  C   UNL A   1      43.698  27.461  36.658  1.00  0.00     0.135 A 
ATOM     77  C   UNL A   1      45.295  28.867  35.542  1.00  0.00     0.135 A 
ATOM     78  F   UNL A   1      42.435  27.076  36.898  1.00  0.00    -0.206 F 
ATOM     79  C   UNL A   1      44.723  26.834  37.359  1.00  0.00     0.059 A 
ATOM     80  C   UNL A   1      46.340  28.241  36.216  1.00  0.00     0.059 A 
ATOM     81  F   UNL A   1      45.591  29.844  34.672  1.00  0.00    -0.206 F 
ATOM     82  C   UNL A   1      46.041  27.237  37.137  1.00  0.00     0.060 A 
BRANCH  82  83
ATOM     83  S   UNL A   1      47.357  26.429  38.073  1.00  0.00     0.124 S 
ATOM     84  O   UNL A   1      47.626  25.259  37.244  1.00  0.00    -0.237 OA
ATOM     85  O   UNL A   1      48.398  27.451  38.085  1.00  0.00    -0.237 OA
ATOM     86  O   UNL A   1      46.733  26.157  39.365  1.00  0.00    -0.744 OA
ENDBRANCH  82  83
ENDBRANCH  50  75
BRANCH  62  87
ATOM     87  C   UNL A   1      39.915  33.932  37.451  1.00  0.00     0.058 A 
ATOM     88  C   UNL A   1      39.078  33.581  38.522  1.00  0.00     0.135 A 
ATOM     89  C   UNL A   1      40.590  35.160  37.516  1.00  0.00     0.135 A 
ATOM     90  F   UNL A   1      38.410  32.417  38.506  1.00  0.00    -0.206 F 
ATOM     91  C   UNL A   1      38.895  34.431  39.607  1.00  0.00     0.059 A 
ATOM     92  C   UNL A   1      40.436  36.017  38.601  1.00  0.00     0.059 A 
ATOM     93  F   UNL A   1      41.412  35.531  36.522  1.00  0.00    -0.206 F 
ATOM     94  C   UNL A   1      39.571  35.652  39.633  1.00  0.00     0.060 A 
BRANCH  94  95
ATOM     95  S   UNL A   1      39.314  36.750  41.042  1.00  0.00     0.124 S 
ATOM     96  O   UNL A   1      38.421  35.957  41.880  1.00  0.00    -0.237 OA
ATOM     97  O   UNL A   1      40.672  36.925  41.550  1.00  0.00    -0.237 OA
ATOM     98  O   UNL A   1      38.721  37.940  40.440  1.00  0.00    -0.744 OA
ENDBRANCH  94  95
ENDBRANCH  62  87
ENDBRANCH  36  37
ENDBRANCH  28  31
ENDBRANCH  26  27
ENDBRANCH  25  26
ENDBRANCH   1  25
TORSDOF 17
ENDMDL
