MODEL 1
REMARK VINA RESULT:      -9.8      0.000      0.000
REMARK SMILES C=CCCCOC(F)(F)C(=O)NCCCNC(=O)c1ccc(-c2c3nc(c(-c4c(F)cc(S(=O)(=O)[O-])cc4F)c4ccc([nH]4)c(-c4c(F)cc(S(=O)(=O)[O-])cc4F)c4nc(c(-c5c(F)cc(S(=O)(=O)[O-])cc5F)c5ccc2[nH]5)C=C4)C=C3)cc1
REMARK SMILES IDX 13 1 12 2 10 3 11 4 7 6 8 7 9 8 6 9 5 10 4 11 3 12 2 13 1 14
REMARK SMILES IDX 14 15 15 16 16 17 17 18 18 20 19 21 20 22 84 23 21 24 83 25
REMARK SMILES IDX 22 26 23 27 24 28 77 29 25 30 82 31 76 32 78 33 26 34 81 35
REMARK SMILES IDX 75 36 74 37 27 39 61 40 40 41 60 42 41 43 44 44 59 45 79 46
REMARK SMILES IDX 42 47 43 48 58 50 80 51 45 52 28 53 29 54 38 55 30 56 31 57
REMARK SMILES IDX 37 58 39 59 32 60 33 61 34 62 35 63 36 64 62 65 63 66 72 67
REMARK SMILES IDX 64 68 65 69 71 70 73 71 66 72 67 73 68 74 69 75 70 76 46 77
REMARK SMILES IDX 47 78 56 79 48 80 49 81 55 82 57 83 50 84 51 85 52 86 53 87
REMARK SMILES IDX 54 88
REMARK H PARENT 12 5 16 19 78 38 44 49
REMARK Flexibility Score: inf
ROOT
ATOM      1  C   UNL A   1      34.733  34.037  31.277  1.00  0.00     0.118 C 
ENDROOT
BRANCH   1   2
ATOM      2  N   UNL A   1      34.030  35.279  31.576  1.00  0.00    -0.348 N 
ATOM      3  C   UNL A   1      33.248  36.020  30.700  1.00  0.00     0.320 C 
ATOM      4  O   UNL A   1      32.648  37.006  31.133  1.00  0.00    -0.265 OA
ATOM      5  H   UNL A   1      34.117  35.627  32.493  1.00  0.00     0.163 HD
BRANCH   3   6
ATOM      6  C   UNL A   1      33.206  35.538  29.207  1.00  0.00     0.436 C 
ATOM      7  F   UNL A   1      34.405  35.827  28.621  1.00  0.00    -0.165 F 
ATOM      8  F   UNL A   1      32.262  36.281  28.566  1.00  0.00    -0.165 F 
BRANCH   6   9
ATOM      9  O   UNL A   1      32.910  34.196  28.904  1.00  0.00    -0.313 OA
BRANCH   9  10
ATOM     10  C   UNL A   1      33.749  33.634  27.894  1.00  0.00     0.168 C 
BRANCH  10  11
ATOM     11  C   UNL A   1      34.137  32.157  28.080  1.00  0.00     0.033 C 
BRANCH  11  12
ATOM     12  C   UNL A   1      33.299  31.054  27.405  1.00  0.00     0.029 C 
BRANCH  12  13
ATOM     13  C   UNL A   1      33.847  29.656  27.445  1.00  0.00    -0.035 C 
ATOM     14  C   UNL A   1      35.137  29.385  27.686  1.00  0.00     0.004 C 
ENDBRANCH  12  13
ENDBRANCH  11  12
ENDBRANCH  10  11
ENDBRANCH   9  10
ENDBRANCH   6   9
ENDBRANCH   3   6
ENDBRANCH   1   2
BRANCH   1  15
ATOM     15  C   UNL A   1      36.222  34.224  31.015  1.00  0.00     0.042 C 
BRANCH  15  16
ATOM     16  C   UNL A   1      37.102  33.106  31.558  1.00  0.00     0.118 C 
BRANCH  16  17
ATOM     17  N   UNL A   1      36.407  31.830  31.647  1.00  0.00    -0.352 N 
ATOM     18  C   UNL A   1      36.755  30.585  31.197  1.00  0.00     0.251 C 
ATOM     19  H   UNL A   1      35.539  31.870  32.109  1.00  0.00     0.163 HD
ATOM     20  O   UNL A   1      35.917  29.681  31.260  1.00  0.00    -0.269 OA
BRANCH  18  21
ATOM     21  C   UNL A   1      38.091  30.311  30.625  1.00  0.00     0.039 A 
ATOM     22  C   UNL A   1      39.129  29.974  31.498  1.00  0.00     0.014 A 
ATOM     23  C   UNL A   1      38.347  30.420  29.255  1.00  0.00     0.014 A 
ATOM     24  C   UNL A   1      40.401  29.694  30.996  1.00  0.00     0.010 A 
ATOM     25  C   UNL A   1      39.593  30.060  28.746  1.00  0.00     0.010 A 
ATOM     26  C   UNL A   1      40.637  29.699  29.611  1.00  0.00    -0.014 A 
BRANCH  26  27
ATOM     27  C   UNL A   1      41.963  29.310  29.066  1.00  0.00     0.031 A 
ATOM     28  C   UNL A   1      43.067  30.323  28.925  1.00  0.00     0.074 A 
ATOM     29  C   UNL A   1      42.157  28.041  28.652  1.00  0.00     0.049 A 
ATOM     30  N   UNL A   1      44.282  30.161  28.466  1.00  0.00    -0.248 NA
ATOM     31  C   UNL A   1      42.759  31.705  29.328  1.00  0.00     0.031 C 
ATOM     32  C   UNL A   1      41.144  26.983  28.672  1.00  0.00     0.029 A 
ATOM     33  N   UNL A   1      43.266  27.426  28.129  1.00  0.00    -0.354 N 
ATOM     34  C   UNL A   1      44.878  31.415  28.514  1.00  0.00     0.074 A 
ATOM     35  C   UNL A   1      43.875  32.339  28.997  1.00  0.00     0.031 C 
ATOM     36  C   UNL A   1      41.685  25.846  28.208  1.00  0.00     0.029 A 
ATOM     37  C   UNL A   1      43.071  26.099  27.827  1.00  0.00     0.049 A 
ATOM     38  H   UNL A   1      44.122  27.892  27.983  1.00  0.00     0.167 HD
ATOM     39  C   UNL A   1      46.151  31.762  28.203  1.00  0.00     0.037 A 
ATOM     40  C   UNL A   1      43.910  25.188  27.298  1.00  0.00     0.037 A 
ATOM     41  C   UNL A   1      47.151  30.832  27.741  1.00  0.00     0.049 A 
ATOM     42  C   UNL A   1      45.325  25.590  26.985  1.00  0.00     0.074 A 
ATOM     43  C   UNL A   1      48.487  31.069  27.471  1.00  0.00     0.029 A 
ATOM     44  N   UNL A   1      46.924  29.490  27.471  1.00  0.00    -0.354 N 
ATOM     45  N   UNL A   1      45.897  26.763  27.118  1.00  0.00    -0.248 NA
ATOM     46  C   UNL A   1      46.211  24.542  26.463  1.00  0.00     0.031 C 
ATOM     47  C   UNL A   1      49.055  29.885  26.989  1.00  0.00     0.029 A 
ATOM     48  C   UNL A   1      48.088  28.893  27.011  1.00  0.00     0.049 A 
ATOM     49  H   UNL A   1      46.062  29.029  27.588  1.00  0.00     0.167 HD
ATOM     50  C   UNL A   1      47.216  26.590  26.714  1.00  0.00     0.074 A 
ATOM     51  C   UNL A   1      47.361  25.193  26.355  1.00  0.00     0.031 C 
ATOM     52  C   UNL A   1      48.217  27.504  26.645  1.00  0.00     0.037 A 
BRANCH  39  53
ATOM     53  C   UNL A   1      46.537  33.210  28.351  1.00  0.00     0.058 A 
ATOM     54  C   UNL A   1      47.056  33.720  29.553  1.00  0.00     0.135 A 
ATOM     55  C   UNL A   1      46.416  34.095  27.267  1.00  0.00     0.135 A 
ATOM     56  F   UNL A   1      47.181  32.924  30.626  1.00  0.00    -0.206 F 
ATOM     57  C   UNL A   1      47.409  35.059  29.685  1.00  0.00     0.059 A 
ATOM     58  C   UNL A   1      46.792  35.432  27.366  1.00  0.00     0.059 A 
ATOM     59  F   UNL A   1      45.928  33.663  26.093  1.00  0.00    -0.206 F 
ATOM     60  C   UNL A   1      47.272  35.908  28.586  1.00  0.00     0.060 A 
BRANCH  60  61
ATOM     61  S   UNL A   1      47.733  37.643  28.774  1.00  0.00     0.124 S 
ATOM     62  O   UNL A   1      49.144  37.532  29.134  1.00  0.00    -0.237 OA
ATOM     63  O   UNL A   1      47.459  38.185  27.446  1.00  0.00    -0.237 OA
ATOM     64  O   UNL A   1      46.851  38.118  29.835  1.00  0.00    -0.744 OA
ENDBRANCH  60  61
ENDBRANCH  39  53
BRANCH  40  65
ATOM     65  C   UNL A   1      43.434  23.800  27.055  1.00  0.00     0.058 A 
ATOM     66  C   UNL A   1      43.273  22.893  28.112  1.00  0.00     0.135 A 
ATOM     67  C   UNL A   1      43.104  23.363  25.762  1.00  0.00     0.135 A 
ATOM     68  F   UNL A   1      43.578  23.262  29.366  1.00  0.00    -0.206 F 
ATOM     69  C   UNL A   1      42.815  21.597  27.897  1.00  0.00     0.059 A 
ATOM     70  C   UNL A   1      42.619  22.081  25.526  1.00  0.00     0.059 A 
ATOM     71  F   UNL A   1      43.224  24.199  24.719  1.00  0.00    -0.206 F 
ATOM     72  C   UNL A   1      42.486  21.201  26.599  1.00  0.00     0.060 A 
BRANCH  72  73
ATOM     73  S   UNL A   1      41.834  19.538  26.338  1.00  0.00     0.124 S 
ATOM     74  O   UNL A   1      42.274  18.857  27.550  1.00  0.00    -0.237 OA
ATOM     75  O   UNL A   1      40.400  19.784  26.227  1.00  0.00    -0.237 OA
ATOM     76  O   UNL A   1      42.487  19.113  25.103  1.00  0.00    -0.744 OA
ENDBRANCH  72  73
ENDBRANCH  40  65
BRANCH  52  77
ATOM     77  C   UNL A   1      49.562  27.014  26.181  1.00  0.00     0.058 A 
ATOM     78  C   UNL A   1      50.519  26.518  27.081  1.00  0.00     0.135 A 
ATOM     79  C   UNL A   1      49.892  27.027  24.816  1.00  0.00     0.135 A 
ATOM     80  F   UNL A   1      50.256  26.487  28.397  1.00  0.00    -0.206 F 
ATOM     81  C   UNL A   1      51.772  26.094  26.649  1.00  0.00     0.059 A 
ATOM     82  C   UNL A   1      51.128  26.577  24.359  1.00  0.00     0.059 A 
ATOM     83  F   UNL A   1      49.011  27.477  23.910  1.00  0.00    -0.206 F 
ATOM     84  C   UNL A   1      52.068  26.131  25.287  1.00  0.00     0.060 A 
BRANCH  84  85
ATOM     85  S   UNL A   1      53.698  25.581  24.739  1.00  0.00     0.124 S 
ATOM     86  O   UNL A   1      53.540  24.131  24.760  1.00  0.00    -0.237 OA
ATOM     87  O   UNL A   1      53.805  26.187  23.415  1.00  0.00    -0.237 OA
ATOM     88  O   UNL A   1      54.599  26.130  25.747  1.00  0.00    -0.744 OA
ENDBRANCH  84  85
ENDBRANCH  52  77
ENDBRANCH  26  27
ENDBRANCH  18  21
ENDBRANCH  16  17
ENDBRANCH  15  16
ENDBRANCH   1  15
TORSDOF 18
ENDMDL
MODEL 2
REMARK VINA RESULT:      -9.7      3.306     11.844
REMARK SMILES C=CCCCOC(F)(F)C(=O)NCCCNC(=O)c1ccc(-c2c3nc(c(-c4c(F)cc(S(=O)(=O)[O-])cc4F)c4ccc([nH]4)c(-c4c(F)cc(S(=O)(=O)[O-])cc4F)c4nc(c(-c5c(F)cc(S(=O)(=O)[O-])cc5F)c5ccc2[nH]5)C=C4)C=C3)cc1
REMARK SMILES IDX 13 1 12 2 10 3 11 4 7 6 8 7 9 8 6 9 5 10 4 11 3 12 2 13 1 14
REMARK SMILES IDX 14 15 15 16 16 17 17 18 18 20 19 21 20 22 84 23 21 24 83 25
REMARK SMILES IDX 22 26 23 27 24 28 77 29 25 30 82 31 76 32 78 33 26 34 81 35
REMARK SMILES IDX 75 36 74 37 27 39 61 40 40 41 60 42 41 43 44 44 59 45 79 46
REMARK SMILES IDX 42 47 43 48 58 50 80 51 45 52 28 53 29 54 38 55 30 56 31 57
REMARK SMILES IDX 37 58 39 59 32 60 33 61 34 62 35 63 36 64 62 65 63 66 72 67
REMARK SMILES IDX 64 68 65 69 71 70 73 71 66 72 67 73 68 74 69 75 70 76 46 77
REMARK SMILES IDX 47 78 56 79 48 80 49 81 55 82 57 83 50 84 51 85 52 86 53 87
REMARK SMILES IDX 54 88
REMARK H PARENT 12 5 16 19 78 38 44 49
REMARK Flexibility Score: inf
ROOT
ATOM      1  C   UNL A   1      42.900  20.364  25.840  1.00  0.00     0.118 C 
ENDROOT
BRANCH   1   2
ATOM      2  N   UNL A   1      43.706  19.155  25.722  1.00  0.00    -0.348 N 
ATOM      3  C   UNL A   1      45.036  19.081  25.330  1.00  0.00     0.320 C 
ATOM      4  O   UNL A   1      45.602  17.986  25.365  1.00  0.00    -0.265 OA
ATOM      5  H   UNL A   1      43.263  18.305  25.943  1.00  0.00     0.163 HD
BRANCH   3   6
ATOM      6  C   UNL A   1      45.711  20.417  24.858  1.00  0.00     0.436 C 
ATOM      7  F   UNL A   1      44.911  21.001  23.918  1.00  0.00    -0.165 F 
ATOM      8  F   UNL A   1      46.877  20.087  24.237  1.00  0.00    -0.165 F 
BRANCH   6   9
ATOM      9  O   UNL A   1      46.043  21.413  25.796  1.00  0.00    -0.313 OA
BRANCH   9  10
ATOM     10  C   UNL A   1      45.951  22.743  25.282  1.00  0.00     0.168 C 
BRANCH  10  11
ATOM     11  C   UNL A   1      45.240  23.768  26.182  1.00  0.00     0.033 C 
BRANCH  11  12
ATOM     12  C   UNL A   1      43.863  23.431  26.786  1.00  0.00     0.029 C 
BRANCH  12  13
ATOM     13  C   UNL A   1      43.822  23.095  28.249  1.00  0.00    -0.035 C 
ATOM     14  C   UNL A   1      42.907  23.599  29.088  1.00  0.00     0.004 C 
ENDBRANCH  12  13
ENDBRANCH  11  12
ENDBRANCH  10  11
ENDBRANCH   9  10
ENDBRANCH   6   9
ENDBRANCH   3   6
ENDBRANCH   1   2
BRANCH   1  15
ATOM     15  C   UNL A   1      41.510  20.120  26.414  1.00  0.00     0.042 C 
BRANCH  15  16
ATOM     16  C   UNL A   1      40.842  21.359  26.996  1.00  0.00     0.118 C 
BRANCH  16  17
ATOM     17  N   UNL A   1      39.544  21.636  26.398  1.00  0.00    -0.352 N 
ATOM     18  C   UNL A   1      38.823  22.797  26.313  1.00  0.00     0.251 C 
ATOM     19  H   UNL A   1      39.110  20.855  25.984  1.00  0.00     0.163 HD
ATOM     20  O   UNL A   1      37.666  22.741  25.886  1.00  0.00    -0.269 OA
BRANCH  18  21
ATOM     21  C   UNL A   1      39.390  24.095  26.735  1.00  0.00     0.039 A 
ATOM     22  C   UNL A   1      39.263  24.470  28.076  1.00  0.00     0.014 A 
ATOM     23  C   UNL A   1      40.006  24.964  25.830  1.00  0.00     0.014 A 
ATOM     24  C   UNL A   1      39.798  25.682  28.517  1.00  0.00     0.010 A 
ATOM     25  C   UNL A   1      40.612  26.134  26.285  1.00  0.00     0.010 A 
ATOM     26  C   UNL A   1      40.510  26.509  27.633  1.00  0.00    -0.014 A 
BRANCH  26  27
ATOM     27  C   UNL A   1      41.162  27.753  28.117  1.00  0.00     0.031 A 
ATOM     28  C   UNL A   1      42.656  27.920  28.045  1.00  0.00     0.074 A 
ATOM     29  C   UNL A   1      40.401  28.722  28.668  1.00  0.00     0.049 A 
ATOM     30  N   UNL A   1      43.391  28.934  28.426  1.00  0.00    -0.248 NA
ATOM     31  C   UNL A   1      43.428  26.792  27.501  1.00  0.00     0.031 C 
ATOM     32  C   UNL A   1      38.950  28.650  28.856  1.00  0.00     0.029 A 
ATOM     33  N   UNL A   1      40.740  29.950  29.174  1.00  0.00    -0.354 N 
ATOM     34  C   UNL A   1      44.708  28.564  28.178  1.00  0.00     0.074 A 
ATOM     35  C   UNL A   1      44.674  27.212  27.664  1.00  0.00     0.031 C 
ATOM     36  C   UNL A   1      38.521  29.793  29.413  1.00  0.00     0.029 A 
ATOM     37  C   UNL A   1      39.667  30.665  29.652  1.00  0.00     0.049 A 
ATOM     38  H   UNL A   1      41.665  30.288  29.195  1.00  0.00     0.167 HD
ATOM     39  C   UNL A   1      45.839  29.292  28.344  1.00  0.00     0.037 A 
ATOM     40  C   UNL A   1      39.609  31.884  30.223  1.00  0.00     0.037 A 
ATOM     41  C   UNL A   1      45.863  30.646  28.838  1.00  0.00     0.049 A 
ATOM     42  C   UNL A   1      40.875  32.682  30.373  1.00  0.00     0.074 A 
ATOM     43  C   UNL A   1      46.948  31.494  28.973  1.00  0.00     0.029 A 
ATOM     44  N   UNL A   1      44.753  31.347  29.288  1.00  0.00    -0.354 N 
ATOM     45  N   UNL A   1      42.102  32.349  30.053  1.00  0.00    -0.248 NA
ATOM     46  C   UNL A   1      40.745  34.027  30.950  1.00  0.00     0.031 C 
ATOM     47  C   UNL A   1      46.504  32.688  29.551  1.00  0.00     0.029 A 
ATOM     48  C   UNL A   1      45.132  32.607  29.726  1.00  0.00     0.049 A 
ATOM     49  H   UNL A   1      43.832  31.000  29.295  1.00  0.00     0.167 HD
ATOM     50  C   UNL A   1      42.890  33.450  30.372  1.00  0.00     0.074 A 
ATOM     51  C   UNL A   1      41.994  34.466  30.888  1.00  0.00     0.031 C 
ATOM     52  C   UNL A   1      44.232  33.606  30.250  1.00  0.00     0.037 A 
BRANCH  39  53
ATOM     53  C   UNL A   1      47.149  28.639  27.989  1.00  0.00     0.058 A 
ATOM     54  C   UNL A   1      47.956  28.020  28.957  1.00  0.00     0.135 A 
ATOM     55  C   UNL A   1      47.589  28.603  26.654  1.00  0.00     0.135 A 
ATOM     56  F   UNL A   1      47.593  28.034  30.249  1.00  0.00    -0.206 F 
ATOM     57  C   UNL A   1      49.166  27.419  28.623  1.00  0.00     0.059 A 
ATOM     58  C   UNL A   1      48.780  27.982  26.292  1.00  0.00     0.059 A 
ATOM     59  F   UNL A   1      46.857  29.178  25.686  1.00  0.00    -0.206 F 
ATOM     60  C   UNL A   1      49.571  27.407  27.287  1.00  0.00     0.060 A 
BRANCH  60  61
ATOM     61  S   UNL A   1      51.143  26.625  26.870  1.00  0.00     0.124 S 
ATOM     62  O   UNL A   1      51.331  25.724  28.004  1.00  0.00    -0.237 OA
ATOM     63  O   UNL A   1      50.844  25.982  25.594  1.00  0.00    -0.237 OA
ATOM     64  O   UNL A   1      52.074  27.748  26.800  1.00  0.00    -0.744 OA
ENDBRANCH  60  61
ENDBRANCH  39  53
BRANCH  40  65
ATOM     65  C   UNL A   1      38.299  32.428  30.670  1.00  0.00     0.058 A 
ATOM     66  C   UNL A   1      37.763  32.092  31.921  1.00  0.00     0.135 A 
ATOM     67  C   UNL A   1      37.571  33.318  29.864  1.00  0.00     0.135 A 
ATOM     68  F   UNL A   1      38.419  31.242  32.726  1.00  0.00    -0.206 F 
ATOM     69  C   UNL A   1      36.545  32.606  32.355  1.00  0.00     0.059 A 
ATOM     70  C   UNL A   1      36.365  33.866  30.287  1.00  0.00     0.059 A 
ATOM     71  F   UNL A   1      38.050  33.685  28.665  1.00  0.00    -0.206 F 
ATOM     72  C   UNL A   1      35.855  33.498  31.530  1.00  0.00     0.060 A 
BRANCH  72  73
ATOM     73  S   UNL A   1      34.306  34.208  32.127  1.00  0.00     0.124 S 
ATOM     74  O   UNL A   1      33.566  34.386  30.884  1.00  0.00    -0.237 OA
ATOM     75  O   UNL A   1      33.814  33.164  33.020  1.00  0.00    -0.237 OA
ATOM     76  O   UNL A   1      34.734  35.437  32.789  1.00  0.00    -0.744 OA
ENDBRANCH  72  73
ENDBRANCH  40  65
BRANCH  52  77
ATOM     77  C   UNL A   1      44.809  34.933  30.665  1.00  0.00     0.058 A 
ATOM     78  C   UNL A   1      44.880  36.018  29.778  1.00  0.00     0.135 A 
ATOM     79  C   UNL A   1      45.284  35.125  31.972  1.00  0.00     0.135 A 
ATOM     80  F   UNL A   1      44.443  35.888  28.514  1.00  0.00    -0.206 F 
ATOM     81  C   UNL A   1      45.440  37.233  30.158  1.00  0.00     0.059 A 
ATOM     82  C   UNL A   1      45.819  36.342  32.384  1.00  0.00     0.059 A 
ATOM     83  F   UNL A   1      45.228  34.125  32.867  1.00  0.00    -0.206 F 
ATOM     84  C   UNL A   1      45.911  37.384  31.463  1.00  0.00     0.060 A 
BRANCH  84  85
ATOM     85  S   UNL A   1      46.640  38.964  31.944  1.00  0.00     0.124 S 
ATOM     86  O   UNL A   1      47.143  38.659  33.280  1.00  0.00    -0.237 OA
ATOM     87  O   UNL A   1      47.656  39.167  30.916  1.00  0.00    -0.237 OA
ATOM     88  O   UNL A   1      45.512  39.888  31.893  1.00  0.00    -0.744 OA
ENDBRANCH  84  85
ENDBRANCH  52  77
ENDBRANCH  26  27
ENDBRANCH  18  21
ENDBRANCH  16  17
ENDBRANCH  15  16
ENDBRANCH   1  15
TORSDOF 18
ENDMDL
MODEL 3
REMARK VINA RESULT:      -9.5      6.186     13.982
REMARK SMILES C=CCCCOC(F)(F)C(=O)NCCCNC(=O)c1ccc(-c2c3nc(c(-c4c(F)cc(S(=O)(=O)[O-])cc4F)c4ccc([nH]4)c(-c4c(F)cc(S(=O)(=O)[O-])cc4F)c4nc(c(-c5c(F)cc(S(=O)(=O)[O-])cc5F)c5ccc2[nH]5)C=C4)C=C3)cc1
REMARK SMILES IDX 13 1 12 2 10 3 11 4 7 6 8 7 9 8 6 9 5 10 4 11 3 12 2 13 1 14
REMARK SMILES IDX 14 15 15 16 16 17 17 18 18 20 19 21 20 22 84 23 21 24 83 25
REMARK SMILES IDX 22 26 23 27 24 28 77 29 25 30 82 31 76 32 78 33 26 34 81 35
REMARK SMILES IDX 75 36 74 37 27 39 61 40 40 41 60 42 41 43 44 44 59 45 79 46
REMARK SMILES IDX 42 47 43 48 58 50 80 51 45 52 28 53 29 54 38 55 30 56 31 57
REMARK SMILES IDX 37 58 39 59 32 60 33 61 34 62 35 63 36 64 62 65 63 66 72 67
REMARK SMILES IDX 64 68 65 69 71 70 73 71 66 72 67 73 68 74 69 75 70 76 46 77
REMARK SMILES IDX 47 78 56 79 48 80 49 81 55 82 57 83 50 84 51 85 52 86 53 87
REMARK SMILES IDX 54 88
REMARK H PARENT 12 5 16 19 78 38 44 49
REMARK Flexibility Score: inf
ROOT
ATOM      1  C   UNL A   1      42.849  20.931  26.381  1.00  0.00     0.118 C 
ENDROOT
BRANCH   1   2
ATOM      2  N   UNL A   1      43.257  20.202  25.186  1.00  0.00    -0.348 N 
ATOM      3  C   UNL A   1      44.443  20.362  24.482  1.00  0.00     0.320 C 
ATOM      4  O   UNL A   1      44.676  19.605  23.537  1.00  0.00    -0.265 OA
ATOM      5  H   UNL A   1      42.627  19.528  24.843  1.00  0.00     0.163 HD
BRANCH   3   6
ATOM      6  C   UNL A   1      45.394  21.520  24.951  1.00  0.00     0.436 C 
ATOM      7  F   UNL A   1      46.583  21.401  24.290  1.00  0.00    -0.165 F 
ATOM      8  F   UNL A   1      45.653  21.323  26.273  1.00  0.00    -0.165 F 
BRANCH   6   9
ATOM      9  O   UNL A   1      44.987  22.862  24.834  1.00  0.00    -0.313 OA
BRANCH   9  10
ATOM     10  C   UNL A   1      46.045  23.804  25.023  1.00  0.00     0.168 C 
BRANCH  10  11
ATOM     11  C   UNL A   1      45.617  25.246  25.345  1.00  0.00     0.033 C 
BRANCH  11  12
ATOM     12  C   UNL A   1      45.965  25.860  26.715  1.00  0.00     0.029 C 
BRANCH  12  13
ATOM     13  C   UNL A   1      45.917  24.946  27.907  1.00  0.00    -0.035 C 
ATOM     14  C   UNL A   1      44.772  24.569  28.491  1.00  0.00     0.004 C 
ENDBRANCH  12  13
ENDBRANCH  11  12
ENDBRANCH  10  11
ENDBRANCH   9  10
ENDBRANCH   6   9
ENDBRANCH   3   6
ENDBRANCH   1   2
BRANCH   1  15
ATOM     15  C   UNL A   1      41.676  21.875  26.154  1.00  0.00     0.042 C 
BRANCH  15  16
ATOM     16  C   UNL A   1      41.882  23.281  26.702  1.00  0.00     0.118 C 
BRANCH  16  17
ATOM     17  N   UNL A   1      42.174  24.256  25.662  1.00  0.00    -0.352 N 
ATOM     18  C   UNL A   1      42.143  25.625  25.680  1.00  0.00     0.251 C 
ATOM     19  H   UNL A   1      42.439  23.865  24.798  1.00  0.00     0.163 HD
ATOM     20  O   UNL A   1      42.286  26.231  24.614  1.00  0.00    -0.269 OA
BRANCH  18  21
ATOM     21  C   UNL A   1      41.924  26.380  26.932  1.00  0.00     0.039 A 
ATOM     22  C   UNL A   1      42.706  27.514  27.168  1.00  0.00     0.014 A 
ATOM     23  C   UNL A   1      40.996  25.967  27.893  1.00  0.00     0.014 A 
ATOM     24  C   UNL A   1      42.519  28.262  28.333  1.00  0.00     0.010 A 
ATOM     25  C   UNL A   1      40.752  26.759  29.014  1.00  0.00     0.010 A 
ATOM     26  C   UNL A   1      41.514  27.912  29.250  1.00  0.00    -0.014 A 
BRANCH  26  27
ATOM     27  C   UNL A   1      41.249  28.757  30.443  1.00  0.00     0.031 A 
ATOM     28  C   UNL A   1      42.068  28.603  31.696  1.00  0.00     0.074 A 
ATOM     29  C   UNL A   1      40.229  29.640  30.408  1.00  0.00     0.049 A 
ATOM     30  N   UNL A   1      41.971  29.251  32.829  1.00  0.00    -0.248 NA
ATOM     31  C   UNL A   1      43.114  27.568  31.685  1.00  0.00     0.031 C 
ATOM     32  C   UNL A   1      39.320  29.835  29.277  1.00  0.00     0.029 A 
ATOM     33  N   UNL A   1      39.783  30.533  31.349  1.00  0.00    -0.354 N 
ATOM     34  C   UNL A   1      42.932  28.698  33.667  1.00  0.00     0.074 A 
ATOM     35  C   UNL A   1      43.566  27.626  32.930  1.00  0.00     0.031 C 
ATOM     36  C   UNL A   1      38.441  30.803  29.579  1.00  0.00     0.029 A 
ATOM     37  C   UNL A   1      38.702  31.275  30.935  1.00  0.00     0.049 A 
ATOM     38  H   UNL A   1      40.197  30.632  32.237  1.00  0.00     0.167 HD
ATOM     39  C   UNL A   1      43.269  29.064  34.928  1.00  0.00     0.037 A 
ATOM     40  C   UNL A   1      37.995  32.226  31.576  1.00  0.00     0.037 A 
ATOM     41  C   UNL A   1      42.647  30.146  35.649  1.00  0.00     0.049 A 
ATOM     42  C   UNL A   1      38.405  32.632  32.965  1.00  0.00     0.074 A 
ATOM     43  C   UNL A   1      42.967  30.643  36.900  1.00  0.00     0.029 A 
ATOM     44  N   UNL A   1      41.572  30.892  35.188  1.00  0.00    -0.354 N 
ATOM     45  N   UNL A   1      39.373  32.157  33.710  1.00  0.00    -0.248 NA
ATOM     46  C   UNL A   1      37.634  33.713  33.593  1.00  0.00     0.031 C 
ATOM     47  C   UNL A   1      42.054  31.654  37.218  1.00  0.00     0.029 A 
ATOM     48  C   UNL A   1      41.199  31.828  36.142  1.00  0.00     0.049 A 
ATOM     49  H   UNL A   1      41.138  30.775  34.312  1.00  0.00     0.167 HD
ATOM     50  C   UNL A   1      39.341  32.893  34.889  1.00  0.00     0.074 A 
ATOM     51  C   UNL A   1      38.271  33.861  34.746  1.00  0.00     0.031 C 
ATOM     52  C   UNL A   1      40.124  32.778  35.992  1.00  0.00     0.037 A 
BRANCH  39  53
ATOM     53  C   UNL A   1      44.363  28.287  35.612  1.00  0.00     0.058 A 
ATOM     54  C   UNL A   1      45.714  28.659  35.510  1.00  0.00     0.135 A 
ATOM     55  C   UNL A   1      44.054  27.170  36.407  1.00  0.00     0.135 A 
ATOM     56  F   UNL A   1      46.069  29.709  34.753  1.00  0.00    -0.206 F 
ATOM     57  C   UNL A   1      46.720  27.936  36.142  1.00  0.00     0.059 A 
ATOM     58  C   UNL A   1      45.041  26.450  37.074  1.00  0.00     0.059 A 
ATOM     59  F   UNL A   1      42.780  26.769  36.543  1.00  0.00    -0.206 F 
ATOM     60  C   UNL A   1      46.374  26.831  36.921  1.00  0.00     0.060 A 
BRANCH  60  61
ATOM     61  S   UNL A   1      47.691  25.902  37.734  1.00  0.00     0.124 S 
ATOM     62  O   UNL A   1      47.971  26.747  38.892  1.00  0.00    -0.237 OA
ATOM     63  O   UNL A   1      47.041  24.627  38.023  1.00  0.00    -0.237 OA
ATOM     64  O   UNL A   1      48.745  25.851  36.726  1.00  0.00    -0.744 OA
ENDBRANCH  60  61
ENDBRANCH  39  53
BRANCH  40  65
ATOM     65  C   UNL A   1      36.842  32.873  30.894  1.00  0.00     0.058 A 
ATOM     66  C   UNL A   1      35.522  32.572  31.258  1.00  0.00     0.135 A 
ATOM     67  C   UNL A   1      37.041  33.827  29.883  1.00  0.00     0.135 A 
ATOM     68  F   UNL A   1      35.280  31.664  32.215  1.00  0.00    -0.206 F 
ATOM     69  C   UNL A   1      34.437  33.182  30.635  1.00  0.00     0.059 A 
ATOM     70  C   UNL A   1      35.974  34.470  29.265  1.00  0.00     0.059 A 
ATOM     71  F   UNL A   1      38.286  34.163  29.511  1.00  0.00    -0.206 F 
ATOM     72  C   UNL A   1      34.674  34.135  29.642  1.00  0.00     0.060 A 
BRANCH  72  73
ATOM     73  S   UNL A   1      33.262  34.966  28.884  1.00  0.00     0.124 S 
ATOM     74  O   UNL A   1      32.411  35.215  30.041  1.00  0.00    -0.237 OA
ATOM     75  O   UNL A   1      33.884  36.142  28.284  1.00  0.00    -0.237 OA
ATOM     76  O   UNL A   1      32.763  33.977  27.933  1.00  0.00    -0.744 OA
ENDBRANCH  72  73
ENDBRANCH  40  65
BRANCH  52  77
ATOM     77  C   UNL A   1      39.863  33.738  37.121  1.00  0.00     0.058 A 
ATOM     78  C   UNL A   1      39.053  33.392  38.214  1.00  0.00     0.135 A 
ATOM     79  C   UNL A   1      40.443  35.017  37.116  1.00  0.00     0.135 A 
ATOM     80  F   UNL A   1      38.471  32.183  38.268  1.00  0.00    -0.206 F 
ATOM     81  C   UNL A   1      38.792  34.295  39.241  1.00  0.00     0.059 A 
ATOM     82  C   UNL A   1      40.222  35.924  38.148  1.00  0.00     0.059 A 
ATOM     83  F   UNL A   1      41.238  35.397  36.102  1.00  0.00    -0.206 F 
ATOM     84  C   UNL A   1      39.378  35.560  39.196  1.00  0.00     0.060 A 
BRANCH  84  85
ATOM     85  S   UNL A   1      39.030  36.724  40.532  1.00  0.00     0.124 S 
ATOM     86  O   UNL A   1      38.603  37.904  39.787  1.00  0.00    -0.237 OA
ATOM     87  O   UNL A   1      37.984  36.036  41.282  1.00  0.00    -0.237 OA
ATOM     88  O   UNL A   1      40.311  36.844  41.221  1.00  0.00    -0.744 OA
ENDBRANCH  84  85
ENDBRANCH  52  77
ENDBRANCH  26  27
ENDBRANCH  18  21
ENDBRANCH  16  17
ENDBRANCH  15  16
ENDBRANCH   1  15
TORSDOF 18
ENDMDL
