MODEL 1
REMARK VINA RESULT:     -13.4      0.000      0.000
REMARK SMILES Cc1ccc(C(=O)N2CCC3(CCC(=O)N(CC(=O)NCCCNC(=O)c4ccc(-c5c6nc(c(-c7c(F)cc(S(=O)(=O)[O-])cc7F)c7ccc([nH]7)c(-c7c(F)cc(S(=O)(=O)[O-])cc7F)c7nc(c(-c8c(F)cc(S(=O)(=O)[O-])cc8F)c8ccc5[nH]8)C=C7)C=C6)cc4)C3)CC2)cc1O
REMARK SMILES IDX 22 1 21 2 20 3 18 4 19 5 17 7 16 8 6 9 7 10 8 11 9 12 95 13
REMARK SMILES IDX 10 14 94 15 11 16 12 17 93 18 13 19 14 20 15 21 5 22 1 23
REMARK SMILES IDX 2 24 3 25 97 26 4 27 96 28 98 29 23 31 24 32 25 33 26 35
REMARK SMILES IDX 27 36 28 37 92 38 29 39 91 40 30 41 31 42 32 43 85 44 33 45
REMARK SMILES IDX 90 46 84 47 86 48 34 49 89 50 83 51 82 52 35 54 69 55 48 56
REMARK SMILES IDX 68 57 49 58 52 59 67 60 87 61 50 62 51 63 66 65 88 66 53 67
REMARK SMILES IDX 36 68 37 69 46 70 38 71 39 72 45 73 47 74 40 75 41 76 42 77
REMARK SMILES IDX 43 78 44 79 70 80 71 81 80 82 72 83 73 84 79 85 81 86 74 87
REMARK SMILES IDX 75 88 76 89 77 90 78 91 54 92 55 93 64 94 56 95 57 96 63 97
REMARK SMILES IDX 65 98 58 99 59 100 60 101 61 102 62 103
REMARK H PARENT 20 6 98 30 24 34 86 53 52 64
REMARK Flexibility Score: inf
ROOT
ATOM      1  C   UNL A   1      39.625  22.242  26.494  1.00  0.00     0.042 C 
ENDROOT
BRANCH   1   2
ATOM      2  C   UNL A   1      38.255  22.882  26.322  1.00  0.00     0.117 C 
BRANCH   2   3
ATOM      3  N   UNL A   1      37.833  22.911  24.941  1.00  0.00    -0.354 N 
ATOM      4  C   UNL A   1      36.973  22.079  24.289  1.00  0.00     0.239 C 
ATOM      5  O   UNL A   1      36.570  22.438  23.179  1.00  0.00    -0.273 OA
ATOM      6  H   UNL A   1      38.222  23.632  24.394  1.00  0.00     0.163 HD
BRANCH   4   7
ATOM      7  C   UNL A   1      36.377  20.858  25.000  1.00  0.00     0.219 C 
BRANCH   7   8
ATOM      8  N   UNL A   1      34.974  20.914  25.425  1.00  0.00    -0.333 N 
ATOM      9  C   UNL A   1      32.180  26.603  24.412  1.00  0.00     0.253 C 
ATOM     10  O   UNL A   1      31.941  26.920  23.246  1.00  0.00    -0.269 OA
ATOM     11  N   UNL A   1      32.204  25.268  24.810  1.00  0.00    -0.339 N 
ATOM     12  C   UNL A   1      32.518  24.267  23.807  1.00  0.00     0.120 C 
ATOM     13  C   UNL A   1      31.729  24.743  26.088  1.00  0.00     0.120 C 
ATOM     14  C   UNL A   1      33.628  23.374  24.346  1.00  0.00     0.030 C 
ATOM     15  C   UNL A   1      32.742  23.764  26.694  1.00  0.00     0.030 C 
ATOM     16  C   UNL A   1      33.252  22.693  25.688  1.00  0.00    -0.008 C 
ATOM     17  C   UNL A   1      32.190  21.585  25.530  1.00  0.00     0.019 C 
ATOM     18  C   UNL A   1      34.501  22.008  26.264  1.00  0.00     0.127 C 
ATOM     19  C   UNL A   1      32.667  20.425  24.671  1.00  0.00     0.101 C 
ATOM     20  C   UNL A   1      34.107  19.988  24.869  1.00  0.00     0.223 C 
ATOM     21  O   UNL A   1      34.500  18.924  24.395  1.00  0.00    -0.275 OA
BRANCH   9  22
ATOM     22  C   UNL A   1      32.617  27.678  25.352  1.00  0.00     0.043 A 
ATOM     23  C   UNL A   1      34.153  31.085  27.540  1.00  0.00     0.048 C 
ATOM     24  C   UNL A   1      33.581  29.913  26.799  1.00  0.00    -0.009 A 
ATOM     25  C   UNL A   1      34.274  28.697  26.810  1.00  0.00     0.008 A 
ATOM     26  C   UNL A   1      32.399  29.992  26.052  1.00  0.00     0.119 A 
ATOM     27  C   UNL A   1      33.809  27.602  26.076  1.00  0.00     0.014 A 
ATOM     28  C   UNL A   1      31.913  28.889  25.347  1.00  0.00     0.060 A 
BRANCH  26  29
ATOM     29  O   UNL A   1      31.678  31.146  25.936  1.00  0.00    -0.508 OA
ATOM     30  H   UNL A   1      30.743  31.121  25.992  1.00  0.00     0.293 HD
ENDBRANCH  26  29
ENDBRANCH   9  22
ENDBRANCH   7   8
ENDBRANCH   4   7
ENDBRANCH   2   3
ENDBRANCH   1   2
BRANCH   1  31
ATOM     31  C   UNL A   1      40.676  23.183  27.071  1.00  0.00     0.118 C 
BRANCH  31  32
ATOM     32  N   UNL A   1      41.344  23.971  26.043  1.00  0.00    -0.352 N 
ATOM     33  C   UNL A   1      41.647  25.308  26.008  1.00  0.00     0.251 C 
ATOM     34  H   UNL A   1      41.624  23.463  25.248  1.00  0.00     0.163 HD
ATOM     35  O   UNL A   1      42.031  25.811  24.952  1.00  0.00    -0.269 OA
BRANCH  33  36
ATOM     36  C   UNL A   1      41.498  26.147  27.217  1.00  0.00     0.039 A 
ATOM     37  C   UNL A   1      42.459  27.127  27.483  1.00  0.00     0.014 A 
ATOM     38  C   UNL A   1      40.432  25.958  28.101  1.00  0.00     0.014 A 
ATOM     39  C   UNL A   1      42.313  27.957  28.596  1.00  0.00     0.010 A 
ATOM     40  C   UNL A   1      40.243  26.839  29.160  1.00  0.00     0.010 A 
ATOM     41  C   UNL A   1      41.183  27.846  29.423  1.00  0.00    -0.014 A 
BRANCH  41  42
ATOM     42  C   UNL A   1      40.967  28.773  30.564  1.00  0.00     0.031 A 
ATOM     43  C   UNL A   1      41.799  28.648  31.811  1.00  0.00     0.074 A 
ATOM     44  C   UNL A   1      39.977  29.686  30.498  1.00  0.00     0.049 A 
ATOM     45  N   UNL A   1      41.715  29.320  32.930  1.00  0.00    -0.248 NA
ATOM     46  C   UNL A   1      42.847  27.614  31.809  1.00  0.00     0.031 C 
ATOM     47  C   UNL A   1      39.075  29.875  29.359  1.00  0.00     0.029 A 
ATOM     48  N   UNL A   1      39.558  30.621  31.409  1.00  0.00    -0.354 N 
ATOM     49  C   UNL A   1      42.689  28.787  33.767  1.00  0.00     0.074 A 
ATOM     50  C   UNL A   1      43.309  27.695  33.048  1.00  0.00     0.031 C 
ATOM     51  C   UNL A   1      38.230  30.883  29.630  1.00  0.00     0.029 A 
ATOM     52  C   UNL A   1      38.498  31.381  30.975  1.00  0.00     0.049 A 
ATOM     53  H   UNL A   1      39.977  30.738  32.293  1.00  0.00     0.167 HD
ATOM     54  C   UNL A   1      43.051  29.187  35.009  1.00  0.00     0.037 A 
ATOM     55  C   UNL A   1      37.812  32.363  31.592  1.00  0.00     0.037 A 
ATOM     56  C   UNL A   1      42.433  30.282  35.714  1.00  0.00     0.049 A 
ATOM     57  C   UNL A   1      38.215  32.773  32.982  1.00  0.00     0.074 A 
ATOM     58  C   UNL A   1      42.755  30.795  36.958  1.00  0.00     0.029 A 
ATOM     59  N   UNL A   1      41.365  31.028  35.238  1.00  0.00    -0.354 N 
ATOM     60  N   UNL A   1      39.178  32.298  33.736  1.00  0.00    -0.248 NA
ATOM     61  C   UNL A   1      37.441  33.856  33.604  1.00  0.00     0.031 C 
ATOM     62  C   UNL A   1      41.849  31.819  37.256  1.00  0.00     0.029 A 
ATOM     63  C   UNL A   1      40.999  31.984  36.174  1.00  0.00     0.049 A 
ATOM     64  H   UNL A   1      40.930  30.900  34.364  1.00  0.00     0.167 HD
ATOM     65  C   UNL A   1      39.146  33.044  34.910  1.00  0.00     0.074 A 
ATOM     66  C   UNL A   1      38.075  34.008  34.760  1.00  0.00     0.031 C 
ATOM     67  C   UNL A   1      39.933  32.941  36.009  1.00  0.00     0.037 A 
BRANCH  54  68
ATOM     68  C   UNL A   1      44.165  28.434  35.685  1.00  0.00     0.058 A 
ATOM     69  C   UNL A   1      45.513  28.791  35.506  1.00  0.00     0.135 A 
ATOM     70  C   UNL A   1      43.887  27.353  36.538  1.00  0.00     0.135 A 
ATOM     71  F   UNL A   1      45.840  29.807  34.692  1.00  0.00    -0.206 F 
ATOM     72  C   UNL A   1      46.542  28.081  36.114  1.00  0.00     0.059 A 
ATOM     73  C   UNL A   1      44.900  26.648  37.183  1.00  0.00     0.059 A 
ATOM     74  F   UNL A   1      42.618  26.967  36.748  1.00  0.00    -0.206 F 
ATOM     75  C   UNL A   1      46.226  27.009  36.949  1.00  0.00     0.060 A 
BRANCH  75  76
ATOM     76  S   UNL A   1      47.575  26.093  37.722  1.00  0.00     0.124 S 
ATOM     77  O   UNL A   1      48.718  26.952  37.426  1.00  0.00    -0.237 OA
ATOM     78  O   UNL A   1      47.163  26.051  39.121  1.00  0.00    -0.237 OA
ATOM     79  O   UNL A   1      47.559  24.810  37.027  1.00  0.00    -0.744 OA
ENDBRANCH  75  76
ENDBRANCH  54  68
BRANCH  55  80
ATOM     80  C   UNL A   1      36.695  33.045  30.885  1.00  0.00     0.058 A 
ATOM     81  C   UNL A   1      35.360  32.768  31.212  1.00  0.00     0.135 A 
ATOM     82  C   UNL A   1      36.939  34.003  29.887  1.00  0.00     0.135 A 
ATOM     83  F   UNL A   1      35.077  31.856  32.154  1.00  0.00    -0.206 F 
ATOM     84  C   UNL A   1      34.304  33.404  30.568  1.00  0.00     0.059 A 
ATOM     85  C   UNL A   1      35.900  34.672  29.248  1.00  0.00     0.059 A 
ATOM     86  F   UNL A   1      38.198  34.319  29.549  1.00  0.00    -0.206 F 
ATOM     87  C   UNL A   1      34.585  34.360  29.590  1.00  0.00     0.060 A 
BRANCH  87  88
ATOM     88  S   UNL A   1      33.207  35.226  28.806  1.00  0.00     0.124 S 
ATOM     89  O   UNL A   1      32.441  35.669  29.965  1.00  0.00    -0.237 OA
ATOM     90  O   UNL A   1      33.894  36.273  28.055  1.00  0.00    -0.237 OA
ATOM     91  O   UNL A   1      32.581  34.190  27.991  1.00  0.00    -0.744 OA
ENDBRANCH  87  88
ENDBRANCH  55  80
BRANCH  67  92
ATOM     92  C   UNL A   1      39.695  33.921  37.126  1.00  0.00     0.058 A 
ATOM     93  C   UNL A   1      38.938  33.584  38.259  1.00  0.00     0.135 A 
ATOM     94  C   UNL A   1      40.277  35.199  37.083  1.00  0.00     0.135 A 
ATOM     95  F   UNL A   1      38.354  32.379  38.348  1.00  0.00    -0.206 F 
ATOM     96  C   UNL A   1      38.746  34.488  39.300  1.00  0.00     0.059 A 
ATOM     97  C   UNL A   1      40.123  36.107  38.126  1.00  0.00     0.059 A 
ATOM     98  F   UNL A   1      41.018  35.570  36.027  1.00  0.00    -0.206 F 
ATOM     99  C   UNL A   1      39.345  35.747  39.225  1.00  0.00     0.060 A 
BRANCH  99 100
ATOM    100  S   UNL A   1      39.116  36.897  40.598  1.00  0.00     0.124 S 
ATOM    101  O   UNL A   1      40.494  37.267  40.903  1.00  0.00    -0.237 OA
ATOM    102  O   UNL A   1      38.297  37.943  39.995  1.00  0.00    -0.237 OA
ATOM    103  O   UNL A   1      38.444  36.088  41.610  1.00  0.00    -0.744 OA
ENDBRANCH  99 100
ENDBRANCH  67  92
ENDBRANCH  41  42
ENDBRANCH  33  36
ENDBRANCH  31  32
ENDBRANCH   1  31
TORSDOF 16
ENDMDL
MODEL 2
REMARK VINA RESULT:     -13.3      0.566      8.021
REMARK SMILES Cc1ccc(C(=O)N2CCC3(CCC(=O)N(CC(=O)NCCCNC(=O)c4ccc(-c5c6nc(c(-c7c(F)cc(S(=O)(=O)[O-])cc7F)c7ccc([nH]7)c(-c7c(F)cc(S(=O)(=O)[O-])cc7F)c7nc(c(-c8c(F)cc(S(=O)(=O)[O-])cc8F)c8ccc5[nH]8)C=C7)C=C6)cc4)C3)CC2)cc1O
REMARK SMILES IDX 22 1 21 2 20 3 18 4 19 5 17 7 16 8 6 9 7 10 8 11 9 12 95 13
REMARK SMILES IDX 10 14 94 15 11 16 12 17 93 18 13 19 14 20 15 21 5 22 1 23
REMARK SMILES IDX 2 24 3 25 97 26 4 27 96 28 98 29 23 31 24 32 25 33 26 35
REMARK SMILES IDX 27 36 28 37 92 38 29 39 91 40 30 41 31 42 32 43 85 44 33 45
REMARK SMILES IDX 90 46 84 47 86 48 34 49 89 50 83 51 82 52 35 54 69 55 48 56
REMARK SMILES IDX 68 57 49 58 52 59 67 60 87 61 50 62 51 63 66 65 88 66 53 67
REMARK SMILES IDX 36 68 37 69 46 70 38 71 39 72 45 73 47 74 40 75 41 76 42 77
REMARK SMILES IDX 43 78 44 79 70 80 71 81 80 82 72 83 73 84 79 85 81 86 74 87
REMARK SMILES IDX 75 88 76 89 77 90 78 91 54 92 55 93 64 94 56 95 57 96 63 97
REMARK SMILES IDX 65 98 58 99 59 100 60 101 61 102 62 103
REMARK H PARENT 20 6 98 30 24 34 86 53 52 64
REMARK Flexibility Score: inf
ROOT
ATOM      1  C   UNL A   1      39.025  22.666  26.437  1.00  0.00     0.042 C 
ENDROOT
BRANCH   1   2
ATOM      2  C   UNL A   1      37.776  23.454  26.071  1.00  0.00     0.117 C 
BRANCH   2   3
ATOM      3  N   UNL A   1      37.453  23.346  24.668  1.00  0.00    -0.354 N 
ATOM      4  C   UNL A   1      36.689  22.413  24.032  1.00  0.00     0.239 C 
ATOM      5  O   UNL A   1      36.347  22.657  22.872  1.00  0.00    -0.273 OA
ATOM      6  H   UNL A   1      37.838  24.043  24.089  1.00  0.00     0.163 HD
BRANCH   4   7
ATOM      7  C   UNL A   1      36.114  21.218  24.801  1.00  0.00     0.219 C 
BRANCH   7   8
ATOM      8  N   UNL A   1      34.740  21.309  25.307  1.00  0.00    -0.333 N 
ATOM      9  C   UNL A   1      32.164  27.163  24.776  1.00  0.00     0.253 C 
ATOM     10  O   UNL A   1      31.877  27.559  23.645  1.00  0.00    -0.269 OA
ATOM     11  N   UNL A   1      32.147  25.808  25.095  1.00  0.00    -0.339 N 
ATOM     12  C   UNL A   1      32.360  24.855  24.022  1.00  0.00     0.120 C 
ATOM     13  C   UNL A   1      31.718  25.230  26.367  1.00  0.00     0.120 C 
ATOM     14  C   UNL A   1      33.455  23.884  24.447  1.00  0.00     0.030 C 
ATOM     15  C   UNL A   1      32.715  24.174  26.858  1.00  0.00     0.030 C 
ATOM     16  C   UNL A   1      33.119  23.143  25.767  1.00  0.00    -0.008 C 
ATOM     17  C   UNL A   1      32.001  22.093  25.607  1.00  0.00     0.019 C 
ATOM     18  C   UNL A   1      34.365  22.371  26.232  1.00  0.00     0.127 C 
ATOM     19  C   UNL A   1      32.376  20.966  24.658  1.00  0.00     0.101 C 
ATOM     20  C   UNL A   1      33.803  20.457  24.749  1.00  0.00     0.223 C 
ATOM     21  O   UNL A   1      34.120  19.406  24.195  1.00  0.00    -0.275 OA
BRANCH   9  22
ATOM     22  C   UNL A   1      32.700  28.162  25.749  1.00  0.00     0.043 A 
ATOM     23  C   UNL A   1      34.452  31.397  28.032  1.00  0.00     0.048 C 
ATOM     24  C   UNL A   1      33.808  30.282  27.263  1.00  0.00    -0.009 A 
ATOM     25  C   UNL A   1      34.512  29.087  27.079  1.00  0.00     0.008 A 
ATOM     26  C   UNL A   1      32.541  30.398  26.678  1.00  0.00     0.119 A 
ATOM     27  C   UNL A   1      33.974  28.051  26.312  1.00  0.00     0.014 A 
ATOM     28  C   UNL A   1      31.986  29.351  25.940  1.00  0.00     0.060 A 
BRANCH  26  29
ATOM     29  O   UNL A   1      31.796  31.540  26.755  1.00  0.00    -0.508 OA
ATOM     30  H   UNL A   1      31.935  32.144  27.459  1.00  0.00     0.293 HD
ENDBRANCH  26  29
ENDBRANCH   9  22
ENDBRANCH   7   8
ENDBRANCH   4   7
ENDBRANCH   2   3
ENDBRANCH   1   2
BRANCH   1  31
ATOM     31  C   UNL A   1      40.148  23.523  27.010  1.00  0.00     0.118 C 
BRANCH  31  32
ATOM     32  N   UNL A   1      40.776  24.366  26.000  1.00  0.00    -0.352 N 
ATOM     33  C   UNL A   1      41.094  25.700  26.032  1.00  0.00     0.251 C 
ATOM     34  H   UNL A   1      41.012  23.904  25.164  1.00  0.00     0.163 HD
ATOM     35  O   UNL A   1      41.433  26.262  24.991  1.00  0.00    -0.269 OA
BRANCH  33  36
ATOM     36  C   UNL A   1      41.012  26.465  27.295  1.00  0.00     0.039 A 
ATOM     37  C   UNL A   1      41.920  27.505  27.515  1.00  0.00     0.014 A 
ATOM     38  C   UNL A   1      40.065  26.147  28.272  1.00  0.00     0.014 A 
ATOM     39  C   UNL A   1      41.832  28.266  28.682  1.00  0.00     0.010 A 
ATOM     40  C   UNL A   1      39.924  26.959  29.394  1.00  0.00     0.010 A 
ATOM     41  C   UNL A   1      40.809  28.024  29.614  1.00  0.00    -0.014 A 
BRANCH  41  42
ATOM     42  C   UNL A   1      40.648  28.875  30.822  1.00  0.00     0.031 A 
ATOM     43  C   UNL A   1      39.607  29.961  30.850  1.00  0.00     0.074 A 
ATOM     44  C   UNL A   1      41.482  28.709  31.867  1.00  0.00     0.049 A 
ATOM     45  N   UNL A   1      39.359  30.843  31.784  1.00  0.00    -0.248 NA
ATOM     46  C   UNL A   1      38.747  30.089  29.662  1.00  0.00     0.031 C 
ATOM     47  C   UNL A   1      42.559  27.718  31.940  1.00  0.00     0.029 A 
ATOM     48  N   UNL A   1      41.562  29.372  33.065  1.00  0.00    -0.354 N 
ATOM     49  C   UNL A   1      38.326  31.634  31.295  1.00  0.00     0.074 A 
ATOM     50  C   UNL A   1      38.035  31.166  29.957  1.00  0.00     0.031 C 
ATOM     51  C   UNL A   1      43.171  27.821  33.130  1.00  0.00     0.029 A 
ATOM     52  C   UNL A   1      42.563  28.911  33.886  1.00  0.00     0.049 A 
ATOM     53  H   UNL A   1      40.959  30.110  33.313  1.00  0.00     0.167 HD
ATOM     54  C   UNL A   1      37.663  32.641  31.913  1.00  0.00     0.037 A 
ATOM     55  C   UNL A   1      42.955  29.324  35.108  1.00  0.00     0.037 A 
ATOM     56  C   UNL A   1      37.953  33.094  33.250  1.00  0.00     0.049 A 
ATOM     57  C   UNL A   1      42.220  30.461  35.765  1.00  0.00     0.074 A 
ATOM     58  C   UNL A   1      37.311  34.075  33.984  1.00  0.00     0.029 A 
ATOM     59  N   UNL A   1      38.973  32.599  34.050  1.00  0.00    -0.354 N 
ATOM     60  N   UNL A   1      41.206  31.158  35.312  1.00  0.00    -0.248 NA
ATOM     61  C   UNL A   1      42.680  30.864  37.100  1.00  0.00     0.031 C 
ATOM     62  C   UNL A   1      37.975  34.209  35.208  1.00  0.00     0.029 A 
ATOM     63  C   UNL A   1      38.993  33.271  35.263  1.00  0.00     0.049 A 
ATOM     64  H   UNL A   1      39.591  31.876  33.796  1.00  0.00     0.167 HD
ATOM     65  C   UNL A   1      40.886  32.064  36.319  1.00  0.00     0.074 A 
ATOM     66  C   UNL A   1      41.809  31.815  37.408  1.00  0.00     0.031 C 
ATOM     67  C   UNL A   1      39.916  33.010  36.341  1.00  0.00     0.037 A 
BRANCH  54  68
ATOM     68  C   UNL A   1      36.559  33.320  31.147  1.00  0.00     0.058 A 
ATOM     69  C   UNL A   1      35.208  33.160  31.501  1.00  0.00     0.135 A 
ATOM     70  C   UNL A   1      36.851  34.157  30.057  1.00  0.00     0.135 A 
ATOM     71  F   UNL A   1      34.867  32.361  32.525  1.00  0.00    -0.206 F 
ATOM     72  C   UNL A   1      34.188  33.770  30.779  1.00  0.00     0.059 A 
ATOM     73  C   UNL A   1      35.848  34.804  29.341  1.00  0.00     0.059 A 
ATOM     74  F   UNL A   1      38.124  34.349  29.675  1.00  0.00    -0.206 F 
ATOM     75  C   UNL A   1      34.518  34.589  29.699  1.00  0.00     0.060 A 
BRANCH  75  76
ATOM     76  S   UNL A   1      33.181  35.366  28.768  1.00  0.00     0.124 S 
ATOM     77  O   UNL A   1      33.921  36.290  27.913  1.00  0.00    -0.237 OA
ATOM     78  O   UNL A   1      32.572  34.227  28.088  1.00  0.00    -0.237 OA
ATOM     79  O   UNL A   1      32.361  35.988  29.801  1.00  0.00    -0.744 OA
ENDBRANCH  75  76
ENDBRANCH  54  68
BRANCH  55  80
ATOM     80  C   UNL A   1      44.078  28.636  35.799  1.00  0.00     0.058 A 
ATOM     81  C   UNL A   1      43.839  27.565  36.672  1.00  0.00     0.135 A 
ATOM     82  C   UNL A   1      45.412  29.020  35.585  1.00  0.00     0.135 A 
ATOM     83  F   UNL A   1      42.581  27.166  36.913  1.00  0.00    -0.206 F 
ATOM     84  C   UNL A   1      44.878  26.904  37.318  1.00  0.00     0.059 A 
ATOM     85  C   UNL A   1      46.470  28.357  36.199  1.00  0.00     0.059 A 
ATOM     86  F   UNL A   1      45.697  30.027  34.746  1.00  0.00    -0.206 F 
ATOM     87  C   UNL A   1      46.192  27.305  37.070  1.00  0.00     0.060 A 
BRANCH  87  88
ATOM     88  S   UNL A   1      47.537  26.398  37.865  1.00  0.00     0.124 S 
ATOM     89  O   UNL A   1      46.971  25.059  37.964  1.00  0.00    -0.237 OA
ATOM     90  O   UNL A   1      48.625  26.564  36.905  1.00  0.00    -0.237 OA
ATOM     91  O   UNL A   1      47.715  27.106  39.130  1.00  0.00    -0.744 OA
ENDBRANCH  87  88
ENDBRANCH  55  80
BRANCH  67  92
ATOM     92  C   UNL A   1      39.772  33.827  37.596  1.00  0.00     0.058 A 
ATOM     93  C   UNL A   1      40.436  35.052  37.763  1.00  0.00     0.135 A 
ATOM     94  C   UNL A   1      38.917  33.399  38.625  1.00  0.00     0.135 A 
ATOM     95  F   UNL A   1      41.271  35.504  36.814  1.00  0.00    -0.206 F 
ATOM     96  C   UNL A   1      40.276  35.814  38.917  1.00  0.00     0.059 A 
ATOM     97  C   UNL A   1      38.718  34.160  39.773  1.00  0.00     0.059 A 
ATOM     98  F   UNL A   1      38.250  32.240  38.513  1.00  0.00    -0.206 F 
ATOM     99  C   UNL A   1      39.412  35.360  39.916  1.00  0.00     0.060 A 
BRANCH  99 100
ATOM    100  S   UNL A   1      39.187  36.375  41.391  1.00  0.00     0.124 S 
ATOM    101  O   UNL A   1      40.467  36.197  42.068  1.00  0.00    -0.237 OA
ATOM    102  O   UNL A   1      38.947  37.700  40.825  1.00  0.00    -0.237 OA
ATOM    103  O   UNL A   1      38.036  35.766  42.052  1.00  0.00    -0.744 OA
ENDBRANCH  99 100
ENDBRANCH  67  92
ENDBRANCH  41  42
ENDBRANCH  33  36
ENDBRANCH  31  32
ENDBRANCH   1  31
TORSDOF 16
ENDMDL
MODEL 3
REMARK VINA RESULT:     -13.2      6.465     11.995
REMARK SMILES Cc1ccc(C(=O)N2CCC3(CCC(=O)N(CC(=O)NCCCNC(=O)c4ccc(-c5c6nc(c(-c7c(F)cc(S(=O)(=O)[O-])cc7F)c7ccc([nH]7)c(-c7c(F)cc(S(=O)(=O)[O-])cc7F)c7nc(c(-c8c(F)cc(S(=O)(=O)[O-])cc8F)c8ccc5[nH]8)C=C7)C=C6)cc4)C3)CC2)cc1O
REMARK SMILES IDX 22 1 21 2 20 3 18 4 19 5 17 7 16 8 6 9 7 10 8 11 9 12 95 13
REMARK SMILES IDX 10 14 94 15 11 16 12 17 93 18 13 19 14 20 15 21 5 22 1 23
REMARK SMILES IDX 2 24 3 25 97 26 4 27 96 28 98 29 23 31 24 32 25 33 26 35
REMARK SMILES IDX 27 36 28 37 92 38 29 39 91 40 30 41 31 42 32 43 85 44 33 45
REMARK SMILES IDX 90 46 84 47 86 48 34 49 89 50 83 51 82 52 35 54 69 55 48 56
REMARK SMILES IDX 68 57 49 58 52 59 67 60 87 61 50 62 51 63 66 65 88 66 53 67
REMARK SMILES IDX 36 68 37 69 46 70 38 71 39 72 45 73 47 74 40 75 41 76 42 77
REMARK SMILES IDX 43 78 44 79 70 80 71 81 80 82 72 83 73 84 79 85 81 86 74 87
REMARK SMILES IDX 75 88 76 89 77 90 78 91 54 92 55 93 64 94 56 95 57 96 63 97
REMARK SMILES IDX 65 98 58 99 59 100 60 101 61 102 62 103
REMARK H PARENT 20 6 98 30 24 34 86 53 52 64
REMARK Flexibility Score: inf
ROOT
ATOM      1  C   UNL A   1      33.749  29.003  27.271  1.00  0.00     0.042 C 
ENDROOT
BRANCH   1   2
ATOM      2  C   UNL A   1      33.126  29.414  25.945  1.00  0.00     0.117 C 
BRANCH   2   3
ATOM      3  N   UNL A   1      33.881  28.932  24.813  1.00  0.00    -0.354 N 
ATOM      4  C   UNL A   1      33.484  28.777  23.519  1.00  0.00     0.239 C 
ATOM      5  O   UNL A   1      34.364  28.585  22.675  1.00  0.00    -0.273 OA
ATOM      6  H   UNL A   1      34.814  28.678  25.002  1.00  0.00     0.163 HD
BRANCH   4   7
ATOM      7  C   UNL A   1      32.029  29.040  23.111  1.00  0.00     0.219 C 
BRANCH   7   8
ATOM      8  N   UNL A   1      31.136  27.891  22.933  1.00  0.00    -0.333 N 
ATOM      9  C   UNL A   1      32.531  22.908  26.731  1.00  0.00     0.253 C 
ATOM     10  O   UNL A   1      32.299  23.027  27.935  1.00  0.00    -0.269 OA
ATOM     11  N   UNL A   1      31.778  23.587  25.776  1.00  0.00    -0.339 N 
ATOM     12  C   UNL A   1      31.137  24.827  26.175  1.00  0.00     0.120 C 
ATOM     13  C   UNL A   1      31.381  23.072  24.468  1.00  0.00     0.120 C 
ATOM     14  C   UNL A   1      31.495  25.905  25.159  1.00  0.00     0.030 C 
ATOM     15  C   UNL A   1      31.627  24.111  23.367  1.00  0.00     0.030 C 
ATOM     16  C   UNL A   1      31.083  25.526  23.712  1.00  0.00    -0.008 C 
ATOM     17  C   UNL A   1      29.557  25.564  23.485  1.00  0.00     0.019 C 
ATOM     18  C   UNL A   1      31.684  26.554  22.741  1.00  0.00     0.127 C 
ATOM     19  C   UNL A   1      28.965  26.952  23.666  1.00  0.00     0.101 C 
ATOM     20  C   UNL A   1      29.781  28.108  23.117  1.00  0.00     0.223 C 
ATOM     21  O   UNL A   1      29.275  29.224  23.009  1.00  0.00    -0.275 OA
BRANCH   9  22
ATOM     22  C   UNL A   1      33.755  22.152  26.328  1.00  0.00     0.043 A 
ATOM     23  C   UNL A   1      37.335  20.386  24.649  1.00  0.00     0.048 C 
ATOM     24  C   UNL A   1      36.115  21.002  25.269  1.00  0.00    -0.009 A 
ATOM     25  C   UNL A   1      34.865  20.418  25.036  1.00  0.00     0.008 A 
ATOM     26  C   UNL A   1      36.165  22.169  26.041  1.00  0.00     0.119 A 
ATOM     27  C   UNL A   1      33.699  21.000  25.539  1.00  0.00     0.014 A 
ATOM     28  C   UNL A   1      35.005  22.733  26.575  1.00  0.00     0.060 A 
BRANCH  26  29
ATOM     29  O   UNL A   1      37.328  22.843  26.284  1.00  0.00    -0.508 OA
ATOM     30  H   UNL A   1      37.653  23.458  25.656  1.00  0.00     0.293 HD
ENDBRANCH  26  29
ENDBRANCH   9  22
ENDBRANCH   7   8
ENDBRANCH   4   7
ENDBRANCH   2   3
ENDBRANCH   1   2
BRANCH   1  31
ATOM     31  C   UNL A   1      35.131  29.599  27.513  1.00  0.00     0.118 C 
BRANCH  31  32
ATOM     32  N   UNL A   1      35.205  30.348  28.761  1.00  0.00    -0.352 N 
ATOM     33  C   UNL A   1      36.229  30.460  29.667  1.00  0.00     0.251 C 
ATOM     34  H   UNL A   1      34.393  30.854  28.989  1.00  0.00     0.163 HD
ATOM     35  O   UNL A   1      36.008  30.979  30.761  1.00  0.00    -0.269 OA
BRANCH  33  36
ATOM     36  C   UNL A   1      37.579  29.948  29.348  1.00  0.00     0.039 A 
ATOM     37  C   UNL A   1      37.976  29.877  28.010  1.00  0.00     0.014 A 
ATOM     38  C   UNL A   1      38.444  29.516  30.357  1.00  0.00     0.014 A 
ATOM     39  C   UNL A   1      39.262  29.437  27.691  1.00  0.00     0.010 A 
ATOM     40  C   UNL A   1      39.752  29.158  30.044  1.00  0.00     0.010 A 
ATOM     41  C   UNL A   1      40.175  29.110  28.708  1.00  0.00    -0.014 A 
BRANCH  41  42
ATOM     42  C   UNL A   1      41.573  28.718  28.394  1.00  0.00     0.031 A 
ATOM     43  C   UNL A   1      42.665  29.753  28.380  1.00  0.00     0.074 A 
ATOM     44  C   UNL A   1      41.846  27.441  28.059  1.00  0.00     0.049 A 
ATOM     45  N   UNL A   1      43.928  29.616  28.069  1.00  0.00    -0.248 NA
ATOM     46  C   UNL A   1      42.282  31.128  28.740  1.00  0.00     0.031 C 
ATOM     47  C   UNL A   1      40.864  26.356  27.995  1.00  0.00     0.029 A 
ATOM     48  N   UNL A   1      43.026  26.840  27.703  1.00  0.00    -0.354 N 
ATOM     49  C   UNL A   1      44.488  30.884  28.184  1.00  0.00     0.074 A 
ATOM     50  C   UNL A   1      43.413  31.787  28.536  1.00  0.00     0.031 C 
ATOM     51  C   UNL A   1      41.487  25.218  27.651  1.00  0.00     0.029 A 
ATOM     52  C   UNL A   1      42.901  25.499  27.425  1.00  0.00     0.049 A 
ATOM     53  H   UNL A   1      43.882  27.323  27.651  1.00  0.00     0.167 HD
ATOM     54  C   UNL A   1      45.781  31.257  28.038  1.00  0.00     0.037 A 
ATOM     55  C   UNL A   1      43.820  24.598  27.026  1.00  0.00     0.037 A 
ATOM     56  C   UNL A   1      46.847  30.348  27.698  1.00  0.00     0.049 A 
ATOM     57  C   UNL A   1      45.247  25.040  26.845  1.00  0.00     0.074 A 
ATOM     58  C   UNL A   1      48.198  30.617  27.569  1.00  0.00     0.029 A 
ATOM     59  N   UNL A   1      46.681  28.997  27.428  1.00  0.00    -0.354 N 
ATOM     60  N   UNL A   1      45.769  26.231  27.017  1.00  0.00    -0.248 NA
ATOM     61  C   UNL A   1      46.209  24.016  26.419  1.00  0.00     0.031 C 
ATOM     62  C   UNL A   1      48.841  29.439  27.171  1.00  0.00     0.029 A 
ATOM     63  C   UNL A   1      47.901  28.423  27.110  1.00  0.00     0.049 A 
ATOM     64  H   UNL A   1      45.822  28.516  27.458  1.00  0.00     0.167 HD
ATOM     65  C   UNL A   1      47.128  26.093  26.750  1.00  0.00     0.074 A 
ATOM     66  C   UNL A   1      47.346  24.700  26.416  1.00  0.00     0.031 C 
ATOM     67  C   UNL A   1      48.104  27.032  26.783  1.00  0.00     0.037 A 
BRANCH  54  68
ATOM     68  C   UNL A   1      46.114  32.710  28.244  1.00  0.00     0.058 A 
ATOM     69  C   UNL A   1      46.508  33.206  29.499  1.00  0.00     0.135 A 
ATOM     70  C   UNL A   1      46.058  33.619  27.174  1.00  0.00     0.135 A 
ATOM     71  F   UNL A   1      46.567  32.388  30.562  1.00  0.00    -0.206 F 
ATOM     72  C   UNL A   1      46.794  34.554  29.693  1.00  0.00     0.059 A 
ATOM     73  C   UNL A   1      46.371  34.965  27.338  1.00  0.00     0.059 A 
ATOM     74  F   UNL A   1      45.689  33.201  25.952  1.00  0.00    -0.206 F 
ATOM     75  C   UNL A   1      46.721  35.426  28.607  1.00  0.00     0.060 A 
BRANCH  75  76
ATOM     76  S   UNL A   1      47.086  37.173  28.879  1.00  0.00     0.124 S 
ATOM     77  O   UNL A   1      48.456  37.264  28.382  1.00  0.00    -0.237 OA
ATOM     78  O   UNL A   1      46.072  37.834  28.064  1.00  0.00    -0.237 OA
ATOM     79  O   UNL A   1      46.930  37.333  30.321  1.00  0.00    -0.744 OA
ENDBRANCH  75  76
ENDBRANCH  54  68
BRANCH  55  80
ATOM     80  C   UNL A   1      43.422  23.182  26.802  1.00  0.00     0.058 A 
ATOM     81  C   UNL A   1      43.349  22.651  25.507  1.00  0.00     0.135 A 
ATOM     82  C   UNL A   1      43.129  22.327  27.877  1.00  0.00     0.135 A 
ATOM     83  F   UNL A   1      43.614  23.431  24.448  1.00  0.00    -0.206 F 
ATOM     84  C   UNL A   1      42.989  21.327  25.280  1.00  0.00     0.059 A 
ATOM     85  C   UNL A   1      42.793  20.992  27.677  1.00  0.00     0.059 A 
ATOM     86  F   UNL A   1      43.201  22.779  29.138  1.00  0.00    -0.206 F 
ATOM     87  C   UNL A   1      42.718  20.503  26.374  1.00  0.00     0.060 A 
BRANCH  87  88
ATOM     88  S   UNL A   1      42.314  18.769  26.071  1.00  0.00     0.124 S 
ATOM     89  O   UNL A   1      43.223  18.441  24.979  1.00  0.00    -0.237 OA
ATOM     90  O   UNL A   1      42.616  18.156  27.361  1.00  0.00    -0.237 OA
ATOM     91  O   UNL A   1      40.897  18.812  25.723  1.00  0.00    -0.744 OA
ENDBRANCH  87  88
ENDBRANCH  55  80
BRANCH  67  92
ATOM     92  C   UNL A   1      49.509  26.582  26.486  1.00  0.00     0.058 A 
ATOM     93  C   UNL A   1      50.309  25.960  27.458  1.00  0.00     0.135 A 
ATOM     94  C   UNL A   1      50.043  26.731  25.195  1.00  0.00     0.135 A 
ATOM     95  F   UNL A   1      49.850  25.799  28.709  1.00  0.00    -0.206 F 
ATOM     96  C   UNL A   1      51.597  25.522  27.167  1.00  0.00     0.059 A 
ATOM     97  C   UNL A   1      51.317  26.273  24.874  1.00  0.00     0.059 A 
ATOM     98  F   UNL A   1      49.318  27.310  24.225  1.00  0.00    -0.206 F 
ATOM     99  C   UNL A   1      52.092  25.681  25.870  1.00  0.00     0.060 A 
BRANCH  99 100
ATOM    100  S   UNL A   1      53.752  25.078  25.498  1.00  0.00     0.124 S 
ATOM    101  O   UNL A   1      54.494  25.518  26.674  1.00  0.00    -0.237 OA
ATOM    102  O   UNL A   1      53.542  23.637  25.383  1.00  0.00    -0.237 OA
ATOM    103  O   UNL A   1      54.089  25.757  24.251  1.00  0.00    -0.744 OA
ENDBRANCH  99 100
ENDBRANCH  67  92
ENDBRANCH  41  42
ENDBRANCH  33  36
ENDBRANCH  31  32
ENDBRANCH   1  31
TORSDOF 16
ENDMDL
