MODEL 1
REMARK VINA RESULT:     -11.0      0.000      0.000
REMARK SMILES CC(C)C[C@H](NC(=O)c1cc(Cl)nnc1Cl)C(=O)NCCCNC(=O)c1ccc(-c2c3nc(c(-c4c(F)cc(S(=O)(=O)[O-])cc4F)c4ccc([nH]4)c(-c4c(F)cc(S(=O)(=O)[O-])cc4F)c4nc(c(-c5c(F)cc(S(=O)(=O)[O-])cc5F)c5ccc2[nH]5)C=C4)C=C3)cc1
REMARK SMILES IDX 21 1 20 2 19 3 17 4 18 5 5 7 4 8 2 9 1 10 3 11 6 12 7 13
REMARK SMILES IDX 8 15 9 16 10 17 15 18 11 19 14 20 16 21 12 22 13 23 22 24
REMARK SMILES IDX 23 25 24 26 25 28 26 29 27 30 91 31 28 32 90 33 29 34 30 35
REMARK SMILES IDX 31 36 84 37 32 38 89 39 83 40 85 41 33 42 88 43 82 44 81 45
REMARK SMILES IDX 34 47 68 48 47 49 67 50 48 51 51 52 66 53 86 54 49 55 50 56
REMARK SMILES IDX 65 58 87 59 52 60 35 61 36 62 45 63 37 64 38 65 44 66 46 67
REMARK SMILES IDX 39 68 40 69 41 70 42 71 43 72 69 73 70 74 79 75 71 76 72 77
REMARK SMILES IDX 78 78 80 79 73 80 74 81 75 82 76 83 77 84 53 85 54 86 63 87
REMARK SMILES IDX 55 88 56 89 62 90 64 91 57 92 58 93 59 94 60 95 61 96
REMARK H PARENT 19 6 6 14 23 27 85 46 51 57
REMARK Flexibility Score: inf
ROOT
ATOM      1  C   UNL A   1      33.420  27.850  25.749  1.00  0.00     0.042 C 
ENDROOT
BRANCH   1   2
ATOM      2  C   UNL A   1      33.733  26.416  25.348  1.00  0.00     0.117 C 
BRANCH   2   3
ATOM      3  N   UNL A   1      33.777  26.249  23.905  1.00  0.00    -0.354 N 
ATOM      4  C   UNL A   1      34.127  25.193  23.122  1.00  0.00     0.242 C 
ATOM      5  O   UNL A   1      33.963  25.312  21.904  1.00  0.00    -0.273 OA
ATOM      6  H   UNL A   1      33.501  27.048  23.400  1.00  0.00     0.163 HD
BRANCH   4   7
ATOM      7  C   UNL A   1      34.606  23.860  23.718  1.00  0.00     0.171 C 
BRANCH   7   8
ATOM      8  C   UNL A   1      36.109  23.636  23.475  1.00  0.00     0.038 C 
BRANCH   8   9
ATOM      9  C   UNL A   1      36.893  23.251  24.745  1.00  0.00    -0.015 C 
ATOM     10  C   UNL A   1      36.109  23.580  26.016  1.00  0.00     0.007 C 
ATOM     11  C   UNL A   1      37.233  21.759  24.712  1.00  0.00     0.007 C 
ENDBRANCH   8   9
ENDBRANCH   7   8
BRANCH   7  12
ATOM     12  N   UNL A   1      33.786  22.745  23.233  1.00  0.00    -0.340 N 
ATOM     13  C   UNL A   1      32.629  22.236  23.761  1.00  0.00     0.255 C 
ATOM     14  H   UNL A   1      34.111  22.302  22.416  1.00  0.00     0.164 HD
ATOM     15  O   UNL A   1      32.073  21.267  23.261  1.00  0.00    -0.269 OA
BRANCH  13  16
ATOM     16  C   UNL A   1      32.075  22.803  24.988  1.00  0.00     0.082 A 
ATOM     17  C   UNL A   1      31.181  23.867  24.874  1.00  0.00     0.060 A 
ATOM     18  C   UNL A   1      32.446  22.357  26.242  1.00  0.00     0.164 A 
ATOM     19  C   UNL A   1      30.657  24.377  26.039  1.00  0.00     0.152 A 
ATOM     20  N   UNL A   1      31.896  22.876  27.360  1.00  0.00    -0.136 NA
ATOM     21  Cl  UNL A   1      33.606  21.130  26.537  1.00  0.00    -0.059 Cl
ATOM     22  Cl  UNL A   1      29.521  25.655  26.030  1.00  0.00    -0.060 Cl
ATOM     23  N   UNL A   1      30.978  23.894  27.256  1.00  0.00    -0.137 NA
ENDBRANCH  13  16
ENDBRANCH   7  12
ENDBRANCH   4   7
ENDBRANCH   2   3
ENDBRANCH   1   2
BRANCH   1  24
ATOM     24  C   UNL A   1      33.704  28.158  27.214  1.00  0.00     0.118 C 
BRANCH  24  25
ATOM     25  N   UNL A   1      33.600  29.579  27.521  1.00  0.00    -0.352 N 
ATOM     26  C   UNL A   1      34.538  30.413  28.081  1.00  0.00     0.251 C 
ATOM     27  H   UNL A   1      32.739  29.999  27.295  1.00  0.00     0.163 HD
ATOM     28  O   UNL A   1      34.225  31.543  28.441  1.00  0.00    -0.269 OA
BRANCH  26  29
ATOM     29  C   UNL A   1      35.915  29.919  28.271  1.00  0.00     0.039 A 
ATOM     30  C   UNL A   1      36.831  30.036  27.223  1.00  0.00     0.014 A 
ATOM     31  C   UNL A   1      36.305  29.382  29.501  1.00  0.00     0.014 A 
ATOM     32  C   UNL A   1      38.164  29.683  27.438  1.00  0.00     0.010 A 
ATOM     33  C   UNL A   1      37.646  29.102  29.735  1.00  0.00     0.010 A 
ATOM     34  C   UNL A   1      38.586  29.247  28.705  1.00  0.00    -0.014 A 
BRANCH  34  35
ATOM     35  C   UNL A   1      40.006  28.911  28.963  1.00  0.00     0.031 A 
ATOM     36  C   UNL A   1      40.909  29.935  29.589  1.00  0.00     0.074 A 
ATOM     37  C   UNL A   1      40.488  27.708  28.594  1.00  0.00     0.049 A 
ATOM     38  N   UNL A   1      42.182  29.848  29.873  1.00  0.00    -0.248 NA
ATOM     39  C   UNL A   1      40.307  31.239  29.918  1.00  0.00     0.031 C 
ATOM     40  C   UNL A   1      39.717  26.651  27.935  1.00  0.00     0.029 A 
ATOM     41  N   UNL A   1      41.745  27.172  28.719  1.00  0.00    -0.354 N 
ATOM     42  C   UNL A   1      42.531  31.078  30.413  1.00  0.00     0.074 A 
ATOM     43  C   UNL A   1      41.355  31.917  30.359  1.00  0.00     0.031 C 
ATOM     44  C   UNL A   1      40.511  25.584  27.741  1.00  0.00     0.029 A 
ATOM     45  C   UNL A   1      41.849  25.888  28.239  1.00  0.00     0.049 A 
ATOM     46  H   UNL A   1      42.502  27.661  29.116  1.00  0.00     0.167 HD
ATOM     47  C   UNL A   1      43.717  31.462  30.941  1.00  0.00     0.037 A 
ATOM     48  C   UNL A   1      42.904  25.050  28.211  1.00  0.00     0.037 A 
ATOM     49  C   UNL A   1      44.875  30.614  31.018  1.00  0.00     0.049 A 
ATOM     50  C   UNL A   1      44.217  25.505  28.787  1.00  0.00     0.074 A 
ATOM     51  C   UNL A   1      46.106  30.890  31.584  1.00  0.00     0.029 A 
ATOM     52  N   UNL A   1      44.941  29.324  30.515  1.00  0.00    -0.354 N 
ATOM     53  N   UNL A   1      44.513  26.651  29.352  1.00  0.00    -0.248 NA
ATOM     54  C   UNL A   1      45.338  24.556  28.724  1.00  0.00     0.031 C 
ATOM     55  C   UNL A   1      46.929  29.774  31.399  1.00  0.00     0.029 A 
ATOM     56  C   UNL A   1      46.200  28.794  30.743  1.00  0.00     0.049 A 
ATOM     57  H   UNL A   1      44.204  28.854  30.064  1.00  0.00     0.167 HD
ATOM     58  C   UNL A   1      45.847  26.556  29.728  1.00  0.00     0.074 A 
ATOM     59  C   UNL A   1      46.300  25.237  29.333  1.00  0.00     0.031 C 
ATOM     60  C   UNL A   1      46.627  27.476  30.346  1.00  0.00     0.037 A 
BRANCH  47  61
ATOM     61  C   UNL A   1      43.803  32.852  31.501  1.00  0.00     0.058 A 
ATOM     62  C   UNL A   1      44.078  33.952  30.673  1.00  0.00     0.135 A 
ATOM     63  C   UNL A   1      43.590  33.093  32.867  1.00  0.00     0.135 A 
ATOM     64  F   UNL A   1      44.308  33.771  29.362  1.00  0.00    -0.206 F 
ATOM     65  C   UNL A   1      44.168  35.241  31.184  1.00  0.00     0.059 A 
ATOM     66  C   UNL A   1      43.653  34.380  33.396  1.00  0.00     0.059 A 
ATOM     67  F   UNL A   1      43.328  32.075  33.701  1.00  0.00    -0.206 F 
ATOM     68  C   UNL A   1      43.957  35.445  32.548  1.00  0.00     0.060 A 
BRANCH  68  69
ATOM     69  S   UNL A   1      44.081  37.124  33.196  1.00  0.00     0.124 S 
ATOM     70  O   UNL A   1      45.235  37.009  34.082  1.00  0.00    -0.237 OA
ATOM     71  O   UNL A   1      44.289  37.912  31.985  1.00  0.00    -0.237 OA
ATOM     72  O   UNL A   1      42.798  37.329  33.859  1.00  0.00    -0.744 OA
ENDBRANCH  68  69
ENDBRANCH  47  61
BRANCH  48  73
ATOM     73  C   UNL A   1      42.746  23.680  27.659  1.00  0.00     0.058 A 
ATOM     74  C   UNL A   1      42.486  22.594  28.508  1.00  0.00     0.135 A 
ATOM     75  C   UNL A   1      42.825  23.430  26.281  1.00  0.00     0.135 A 
ATOM     76  F   UNL A   1      42.407  22.784  29.833  1.00  0.00    -0.206 F 
ATOM     77  C   UNL A   1      42.314  21.306  28.011  1.00  0.00     0.059 A 
ATOM     78  C   UNL A   1      42.641  22.153  25.758  1.00  0.00     0.059 A 
ATOM     79  F   UNL A   1      43.059  24.440  25.428  1.00  0.00    -0.206 F 
ATOM     80  C   UNL A   1      42.389  21.097  26.633  1.00  0.00     0.060 A 
BRANCH  80  81
ATOM     81  S   UNL A   1      42.106  19.430  25.998  1.00  0.00     0.124 S 
ATOM     82  O   UNL A   1      42.583  18.608  27.103  1.00  0.00    -0.237 OA
ATOM     83  O   UNL A   1      40.663  19.429  25.777  1.00  0.00    -0.237 OA
ATOM     84  O   UNL A   1      42.917  19.391  24.785  1.00  0.00    -0.744 OA
ENDBRANCH  80  81
ENDBRANCH  48  73
BRANCH  60  85
ATOM     85  C   UNL A   1      48.048  27.100  30.645  1.00  0.00     0.058 A 
ATOM     86  C   UNL A   1      49.090  27.445  29.772  1.00  0.00     0.135 A 
ATOM     87  C   UNL A   1      48.382  26.489  31.865  1.00  0.00     0.135 A 
ATOM     88  F   UNL A   1      48.817  28.023  28.591  1.00  0.00    -0.206 F 
ATOM     89  C   UNL A   1      50.419  27.204  30.100  1.00  0.00     0.059 A 
ATOM     90  C   UNL A   1      49.706  26.256  32.222  1.00  0.00     0.059 A 
ATOM     91  F   UNL A   1      47.418  26.148  32.735  1.00  0.00    -0.206 F 
ATOM     92  C   UNL A   1      50.717  26.618  31.333  1.00  0.00     0.060 A 
BRANCH  92  93
ATOM     93  S   UNL A   1      52.451  26.388  31.782  1.00  0.00     0.124 S 
ATOM     94  O   UNL A   1      53.065  26.162  30.478  1.00  0.00    -0.237 OA
ATOM     95  O   UNL A   1      52.778  27.658  32.425  1.00  0.00    -0.237 OA
ATOM     96  O   UNL A   1      52.421  25.232  32.672  1.00  0.00    -0.744 OA
ENDBRANCH  92  93
ENDBRANCH  60  85
ENDBRANCH  34  35
ENDBRANCH  26  29
ENDBRANCH  24  25
ENDBRANCH   1  24
TORSDOF 17
ENDMDL
MODEL 2
REMARK VINA RESULT:     -10.7      1.285      2.683
REMARK SMILES CC(C)C[C@H](NC(=O)c1cc(Cl)nnc1Cl)C(=O)NCCCNC(=O)c1ccc(-c2c3nc(c(-c4c(F)cc(S(=O)(=O)[O-])cc4F)c4ccc([nH]4)c(-c4c(F)cc(S(=O)(=O)[O-])cc4F)c4nc(c(-c5c(F)cc(S(=O)(=O)[O-])cc5F)c5ccc2[nH]5)C=C4)C=C3)cc1
REMARK SMILES IDX 21 1 20 2 19 3 17 4 18 5 5 7 4 8 2 9 1 10 3 11 6 12 7 13
REMARK SMILES IDX 8 15 9 16 10 17 15 18 11 19 14 20 16 21 12 22 13 23 22 24
REMARK SMILES IDX 23 25 24 26 25 28 26 29 27 30 91 31 28 32 90 33 29 34 30 35
REMARK SMILES IDX 31 36 84 37 32 38 89 39 83 40 85 41 33 42 88 43 82 44 81 45
REMARK SMILES IDX 34 47 68 48 47 49 67 50 48 51 51 52 66 53 86 54 49 55 50 56
REMARK SMILES IDX 65 58 87 59 52 60 35 61 36 62 45 63 37 64 38 65 44 66 46 67
REMARK SMILES IDX 39 68 40 69 41 70 42 71 43 72 69 73 70 74 79 75 71 76 72 77
REMARK SMILES IDX 78 78 80 79 73 80 74 81 75 82 76 83 77 84 53 85 54 86 63 87
REMARK SMILES IDX 55 88 56 89 62 90 64 91 57 92 58 93 59 94 60 95 61 96
REMARK H PARENT 19 6 6 14 23 27 85 46 51 57
REMARK Flexibility Score: inf
ROOT
ATOM      1  C   UNL A   1      33.902  28.054  25.834  1.00  0.00     0.042 C 
ENDROOT
BRANCH   1   2
ATOM      2  C   UNL A   1      33.685  26.611  25.404  1.00  0.00     0.117 C 
BRANCH   2   3
ATOM      3  N   UNL A   1      32.882  25.869  26.362  1.00  0.00    -0.354 N 
ATOM      4  C   UNL A   1      31.916  24.925  26.202  1.00  0.00     0.242 C 
ATOM      5  O   UNL A   1      31.475  24.388  27.222  1.00  0.00    -0.273 OA
ATOM      6  H   UNL A   1      33.073  26.092  27.302  1.00  0.00     0.163 HD
BRANCH   4   7
ATOM      7  C   UNL A   1      31.459  24.455  24.812  1.00  0.00     0.171 C 
BRANCH   7   8
ATOM      8  C   UNL A   1      30.141  25.129  24.389  1.00  0.00     0.038 C 
BRANCH   8   9
ATOM      9  C   UNL A   1      30.324  26.555  23.833  1.00  0.00    -0.015 C 
ATOM     10  C   UNL A   1      31.202  26.566  22.582  1.00  0.00     0.007 C 
ATOM     11  C   UNL A   1      28.958  27.167  23.519  1.00  0.00     0.007 C 
ENDBRANCH   8   9
ENDBRANCH   7   8
BRANCH   7  12
ATOM     12  N   UNL A   1      31.386  22.991  24.752  1.00  0.00    -0.340 N 
ATOM     13  C   UNL A   1      32.385  22.092  24.491  1.00  0.00     0.255 C 
ATOM     14  H   UNL A   1      30.498  22.602  24.924  1.00  0.00     0.164 HD
ATOM     15  O   UNL A   1      32.161  20.889  24.436  1.00  0.00    -0.269 OA
BRANCH  13  16
ATOM     16  C   UNL A   1      33.735  22.565  24.195  1.00  0.00     0.082 A 
ATOM     17  C   UNL A   1      34.655  22.621  25.241  1.00  0.00     0.060 A 
ATOM     18  C   UNL A   1      34.107  23.001  22.938  1.00  0.00     0.164 A 
ATOM     19  C   UNL A   1      35.925  23.053  24.941  1.00  0.00     0.152 A 
ATOM     20  N   UNL A   1      35.370  23.405  22.682  1.00  0.00    -0.136 NA
ATOM     21  Cl  UNL A   1      33.058  23.083  21.584  1.00  0.00    -0.059 Cl
ATOM     22  Cl  UNL A   1      37.153  23.130  26.129  1.00  0.00    -0.060 Cl
ATOM     23  N   UNL A   1      36.296  23.419  23.697  1.00  0.00    -0.137 NA
ENDBRANCH  13  16
ENDBRANCH   7  12
ENDBRANCH   4   7
ENDBRANCH   2   3
ENDBRANCH   1   2
BRANCH   1  24
ATOM     24  C   UNL A   1      33.610  28.309  27.308  1.00  0.00     0.118 C 
BRANCH  24  25
ATOM     25  N   UNL A   1      33.517  29.728  27.626  1.00  0.00    -0.352 N 
ATOM     26  C   UNL A   1      34.464  30.552  28.186  1.00  0.00     0.251 C 
ATOM     27  H   UNL A   1      32.657  30.155  27.410  1.00  0.00     0.163 HD
ATOM     28  O   UNL A   1      34.161  31.681  28.557  1.00  0.00    -0.269 OA
BRANCH  26  29
ATOM     29  C   UNL A   1      35.840  30.048  28.362  1.00  0.00     0.039 A 
ATOM     30  C   UNL A   1      36.718  30.074  27.277  1.00  0.00     0.014 A 
ATOM     31  C   UNL A   1      36.265  29.593  29.613  1.00  0.00     0.014 A 
ATOM     32  C   UNL A   1      38.053  29.714  27.470  1.00  0.00     0.010 A 
ATOM     33  C   UNL A   1      37.610  29.305  29.819  1.00  0.00     0.010 A 
ATOM     34  C   UNL A   1      38.514  29.361  28.748  1.00  0.00    -0.014 A 
BRANCH  34  35
ATOM     35  C   UNL A   1      39.937  29.018  28.980  1.00  0.00     0.031 A 
ATOM     36  C   UNL A   1      40.859  30.043  29.578  1.00  0.00     0.074 A 
ATOM     37  C   UNL A   1      40.404  27.809  28.612  1.00  0.00     0.049 A 
ATOM     38  N   UNL A   1      42.136  29.950  29.836  1.00  0.00    -0.248 NA
ATOM     39  C   UNL A   1      40.272  31.352  29.908  1.00  0.00     0.031 C 
ATOM     40  C   UNL A   1      39.613  26.751  27.979  1.00  0.00     0.029 A 
ATOM     41  N   UNL A   1      41.660  27.266  28.716  1.00  0.00    -0.354 N 
ATOM     42  C   UNL A   1      42.505  31.183  30.357  1.00  0.00     0.074 A 
ATOM     43  C   UNL A   1      41.333  32.029  30.321  1.00  0.00     0.031 C 
ATOM     44  C   UNL A   1      40.396  25.678  27.778  1.00  0.00     0.029 A 
ATOM     45  C   UNL A   1      41.746  25.978  28.245  1.00  0.00     0.049 A 
ATOM     46  H   UNL A   1      42.428  27.754  29.093  1.00  0.00     0.167 HD
ATOM     47  C   UNL A   1      43.704  31.564  30.857  1.00  0.00     0.037 A 
ATOM     48  C   UNL A   1      42.795  25.133  28.203  1.00  0.00     0.037 A 
ATOM     49  C   UNL A   1      44.858  30.710  30.918  1.00  0.00     0.049 A 
ATOM     50  C   UNL A   1      44.123  25.585  28.747  1.00  0.00     0.074 A 
ATOM     51  C   UNL A   1      46.102  30.984  31.455  1.00  0.00     0.029 A 
ATOM     52  N   UNL A   1      44.906  29.415  30.425  1.00  0.00    -0.354 N 
ATOM     53  N   UNL A   1      44.438  26.734  29.296  1.00  0.00    -0.248 NA
ATOM     54  C   UNL A   1      45.236  24.629  28.669  1.00  0.00     0.031 C 
ATOM     55  C   UNL A   1      46.914  29.861  31.263  1.00  0.00     0.029 A 
ATOM     56  C   UNL A   1      46.166  28.880  30.631  1.00  0.00     0.049 A 
ATOM     57  H   UNL A   1      44.156  28.945  29.994  1.00  0.00     0.167 HD
ATOM     58  C   UNL A   1      45.779  26.634  29.645  1.00  0.00     0.074 A 
ATOM     59  C   UNL A   1      46.216  25.309  29.252  1.00  0.00     0.031 C 
ATOM     60  C   UNL A   1      46.577  27.555  30.238  1.00  0.00     0.037 A 
BRANCH  47  61
ATOM     61  C   UNL A   1      43.809  32.959  31.402  1.00  0.00     0.058 A 
ATOM     62  C   UNL A   1      43.526  33.234  32.749  1.00  0.00     0.135 A 
ATOM     63  C   UNL A   1      44.213  34.024  30.583  1.00  0.00     0.135 A 
ATOM     64  F   UNL A   1      43.116  32.253  33.569  1.00  0.00    -0.206 F 
ATOM     65  C   UNL A   1      43.611  34.524  33.260  1.00  0.00     0.059 A 
ATOM     66  C   UNL A   1      44.328  35.320  31.080  1.00  0.00     0.059 A 
ATOM     67  F   UNL A   1      44.491  33.813  29.288  1.00  0.00    -0.206 F 
ATOM     68  C   UNL A   1      44.011  35.561  32.416  1.00  0.00     0.060 A 
BRANCH  68  69
ATOM     69  S   UNL A   1      44.114  37.230  33.095  1.00  0.00     0.124 S 
ATOM     70  O   UNL A   1      44.059  38.040  31.882  1.00  0.00    -0.237 OA
ATOM     71  O   UNL A   1      42.934  37.293  33.952  1.00  0.00    -0.237 OA
ATOM     72  O   UNL A   1      45.394  37.234  33.795  1.00  0.00    -0.744 OA
ENDBRANCH  68  69
ENDBRANCH  47  61
BRANCH  48  73
ATOM     73  C   UNL A   1      42.618  23.759  27.667  1.00  0.00     0.058 A 
ATOM     74  C   UNL A   1      42.443  22.671  28.535  1.00  0.00     0.135 A 
ATOM     75  C   UNL A   1      42.594  23.507  26.287  1.00  0.00     0.135 A 
ATOM     76  F   UNL A   1      42.465  22.864  29.862  1.00  0.00    -0.206 F 
ATOM     77  C   UNL A   1      42.255  21.379  28.055  1.00  0.00     0.059 A 
ATOM     78  C   UNL A   1      42.390  22.226  25.782  1.00  0.00     0.059 A 
ATOM     79  F   UNL A   1      42.744  24.518  25.417  1.00  0.00    -0.206 F 
ATOM     80  C   UNL A   1      42.226  21.167  26.675  1.00  0.00     0.060 A 
BRANCH  80  81
ATOM     81  S   UNL A   1      41.921  19.495  26.066  1.00  0.00     0.124 S 
ATOM     82  O   UNL A   1      42.833  19.424  24.931  1.00  0.00    -0.237 OA
ATOM     83  O   UNL A   1      42.277  18.679  27.223  1.00  0.00    -0.237 OA
ATOM     84  O   UNL A   1      40.499  19.512  25.736  1.00  0.00    -0.744 OA
ENDBRANCH  80  81
ENDBRANCH  48  73
BRANCH  60  85
ATOM     85  C   UNL A   1      48.001  27.173  30.510  1.00  0.00     0.058 A 
ATOM     86  C   UNL A   1      49.018  27.455  29.587  1.00  0.00     0.135 A 
ATOM     87  C   UNL A   1      48.367  26.623  31.750  1.00  0.00     0.135 A 
ATOM     88  F   UNL A   1      48.715  27.974  28.386  1.00  0.00    -0.206 F 
ATOM     89  C   UNL A   1      50.354  27.211  29.884  1.00  0.00     0.059 A 
ATOM     90  C   UNL A   1      49.698  26.388  32.076  1.00  0.00     0.059 A 
ATOM     91  F   UNL A   1      47.428  26.344  32.668  1.00  0.00    -0.206 F 
ATOM     92  C   UNL A   1      50.685  26.686  31.136  1.00  0.00     0.060 A 
BRANCH  92  93
ATOM     93  S   UNL A   1      52.429  26.454  31.541  1.00  0.00     0.124 S 
ATOM     94  O   UNL A   1      53.015  26.262  30.218  1.00  0.00    -0.237 OA
ATOM     95  O   UNL A   1      52.765  27.708  32.208  1.00  0.00    -0.237 OA
ATOM     96  O   UNL A   1      52.424  25.276  32.403  1.00  0.00    -0.744 OA
ENDBRANCH  92  93
ENDBRANCH  60  85
ENDBRANCH  34  35
ENDBRANCH  26  29
ENDBRANCH  24  25
ENDBRANCH   1  24
TORSDOF 17
ENDMDL
MODEL 3
REMARK VINA RESULT:     -10.7      3.287      9.207
REMARK SMILES CC(C)C[C@H](NC(=O)c1cc(Cl)nnc1Cl)C(=O)NCCCNC(=O)c1ccc(-c2c3nc(c(-c4c(F)cc(S(=O)(=O)[O-])cc4F)c4ccc([nH]4)c(-c4c(F)cc(S(=O)(=O)[O-])cc4F)c4nc(c(-c5c(F)cc(S(=O)(=O)[O-])cc5F)c5ccc2[nH]5)C=C4)C=C3)cc1
REMARK SMILES IDX 21 1 20 2 19 3 17 4 18 5 5 7 4 8 2 9 1 10 3 11 6 12 7 13
REMARK SMILES IDX 8 15 9 16 10 17 15 18 11 19 14 20 16 21 12 22 13 23 22 24
REMARK SMILES IDX 23 25 24 26 25 28 26 29 27 30 91 31 28 32 90 33 29 34 30 35
REMARK SMILES IDX 31 36 84 37 32 38 89 39 83 40 85 41 33 42 88 43 82 44 81 45
REMARK SMILES IDX 34 47 68 48 47 49 67 50 48 51 51 52 66 53 86 54 49 55 50 56
REMARK SMILES IDX 65 58 87 59 52 60 35 61 36 62 45 63 37 64 38 65 44 66 46 67
REMARK SMILES IDX 39 68 40 69 41 70 42 71 43 72 69 73 70 74 79 75 71 76 72 77
REMARK SMILES IDX 78 78 80 79 73 80 74 81 75 82 76 83 77 84 53 85 54 86 63 87
REMARK SMILES IDX 55 88 56 89 62 90 64 91 57 92 58 93 59 94 60 95 61 96
REMARK H PARENT 19 6 6 14 23 27 85 46 51 57
REMARK Flexibility Score: inf
ROOT
ATOM      1  C   UNL A   1      35.140  23.456  26.009  1.00  0.00     0.042 C 
ENDROOT
BRANCH   1   2
ATOM      2  C   UNL A   1      34.234  24.673  25.886  1.00  0.00     0.117 C 
BRANCH   2   3
ATOM      3  N   UNL A   1      32.893  24.409  26.382  1.00  0.00    -0.354 N 
ATOM      4  C   UNL A   1      31.796  25.203  26.503  1.00  0.00     0.242 C 
ATOM      5  O   UNL A   1      30.746  24.666  26.868  1.00  0.00    -0.273 OA
ATOM      6  H   UNL A   1      32.754  23.483  26.688  1.00  0.00     0.163 HD
BRANCH   4   7
ATOM      7  C   UNL A   1      31.815  26.686  26.099  1.00  0.00     0.171 C 
BRANCH   7   8
ATOM      8  C   UNL A   1      31.946  27.607  27.327  1.00  0.00     0.038 C 
BRANCH   8   9
ATOM      9  C   UNL A   1      32.951  28.760  27.132  1.00  0.00    -0.015 C 
ATOM     10  C   UNL A   1      34.029  28.405  26.107  1.00  0.00     0.007 C 
ATOM     11  C   UNL A   1      32.209  30.024  26.695  1.00  0.00     0.007 C 
ENDBRANCH   8   9
ENDBRANCH   7   8
BRANCH   7  12
ATOM     12  N   UNL A   1      30.651  27.018  25.271  1.00  0.00    -0.340 N 
ATOM     13  C   UNL A   1      30.502  26.902  23.914  1.00  0.00     0.255 C 
ATOM     14  H   UNL A   1      29.871  27.373  25.755  1.00  0.00     0.164 HD
ATOM     15  O   UNL A   1      29.475  27.260  23.353  1.00  0.00    -0.269 OA
BRANCH  13  16
ATOM     16  C   UNL A   1      31.610  26.412  23.097  1.00  0.00     0.082 A 
ATOM     17  C   UNL A   1      31.738  25.034  22.923  1.00  0.00     0.060 A 
ATOM     18  C   UNL A   1      32.551  27.258  22.542  1.00  0.00     0.164 A 
ATOM     19  C   UNL A   1      32.777  24.592  22.138  1.00  0.00     0.152 A 
ATOM     20  N   UNL A   1      33.547  26.783  21.765  1.00  0.00    -0.136 NA
ATOM     21  Cl  UNL A   1      32.578  28.959  22.754  1.00  0.00    -0.059 Cl
ATOM     22  Cl  UNL A   1      33.017  22.930  21.817  1.00  0.00    -0.060 Cl
ATOM     23  N   UNL A   1      33.654  25.430  21.550  1.00  0.00    -0.137 NA
ENDBRANCH  13  16
ENDBRANCH   7  12
ENDBRANCH   4   7
ENDBRANCH   2   3
ENDBRANCH   1   2
BRANCH   1  24
ATOM     24  C   UNL A   1      36.558  23.687  25.502  1.00  0.00     0.118 C 
BRANCH  24  25
ATOM     25  N   UNL A   1      37.485  22.649  25.930  1.00  0.00    -0.352 N 
ATOM     26  C   UNL A   1      38.734  22.781  26.490  1.00  0.00     0.251 C 
ATOM     27  H   UNL A   1      37.174  21.723  25.800  1.00  0.00     0.163 HD
ATOM     28  O   UNL A   1      39.459  21.802  26.623  1.00  0.00    -0.269 OA
BRANCH  26  29
ATOM     29  C   UNL A   1      39.197  24.121  26.899  1.00  0.00     0.039 A 
ATOM     30  C   UNL A   1      39.069  24.508  28.234  1.00  0.00     0.014 A 
ATOM     31  C   UNL A   1      39.798  24.970  25.966  1.00  0.00     0.014 A 
ATOM     32  C   UNL A   1      39.616  25.723  28.649  1.00  0.00     0.010 A 
ATOM     33  C   UNL A   1      40.406  26.144  26.396  1.00  0.00     0.010 A 
ATOM     34  C   UNL A   1      40.318  26.531  27.740  1.00  0.00    -0.014 A 
BRANCH  34  35
ATOM     35  C   UNL A   1      40.943  27.803  28.174  1.00  0.00     0.031 A 
ATOM     36  C   UNL A   1      42.430  27.979  28.047  1.00  0.00     0.074 A 
ATOM     37  C   UNL A   1      40.183  28.773  28.719  1.00  0.00     0.049 A 
ATOM     38  N   UNL A   1      43.170  29.000  28.390  1.00  0.00    -0.248 NA
ATOM     39  C   UNL A   1      43.187  26.849  27.481  1.00  0.00     0.031 C 
ATOM     40  C   UNL A   1      38.737  28.695  28.936  1.00  0.00     0.029 A 
ATOM     41  N   UNL A   1      40.523  30.015  29.193  1.00  0.00    -0.354 N 
ATOM     42  C   UNL A   1      44.475  28.637  28.082  1.00  0.00     0.074 A 
ATOM     43  C   UNL A   1      44.435  27.280  27.585  1.00  0.00     0.031 C 
ATOM     44  C   UNL A   1      38.311  29.851  29.473  1.00  0.00     0.029 A 
ATOM     45  C   UNL A   1      39.453  30.740  29.659  1.00  0.00     0.049 A 
ATOM     46  H   UNL A   1      41.447  30.354  29.197  1.00  0.00     0.167 HD
ATOM     47  C   UNL A   1      45.602  29.383  28.171  1.00  0.00     0.037 A 
ATOM     48  C   UNL A   1      39.401  31.985  30.172  1.00  0.00     0.037 A 
ATOM     49  C   UNL A   1      45.632  30.741  28.639  1.00  0.00     0.049 A 
ATOM     50  C   UNL A   1      40.668  32.788  30.279  1.00  0.00     0.074 A 
ATOM     51  C   UNL A   1      46.713  31.599  28.716  1.00  0.00     0.029 A 
ATOM     52  N   UNL A   1      44.529  31.437  29.109  1.00  0.00    -0.354 N 
ATOM     53  N   UNL A   1      41.886  32.453  29.923  1.00  0.00    -0.248 NA
ATOM     54  C   UNL A   1      40.558  34.136  30.853  1.00  0.00     0.031 C 
ATOM     55  C   UNL A   1      46.268  32.810  29.259  1.00  0.00     0.029 A 
ATOM     56  C   UNL A   1      44.906  32.713  29.493  1.00  0.00     0.049 A 
ATOM     57  H   UNL A   1      43.614  31.079  29.161  1.00  0.00     0.167 HD
ATOM     58  C   UNL A   1      42.683  33.553  30.213  1.00  0.00     0.074 A 
ATOM     59  C   UNL A   1      41.810  34.569  30.768  1.00  0.00     0.031 C 
ATOM     60  C   UNL A   1      44.017  33.710  30.036  1.00  0.00     0.037 A 
BRANCH  47  61
ATOM     61  C   UNL A   1      46.885  28.745  27.723  1.00  0.00     0.058 A 
ATOM     62  C   UNL A   1      47.721  28.081  28.634  1.00  0.00     0.135 A 
ATOM     63  C   UNL A   1      47.275  28.780  26.375  1.00  0.00     0.135 A 
ATOM     64  F   UNL A   1      47.402  28.037  29.938  1.00  0.00    -0.206 F 
ATOM     65  C   UNL A   1      48.915  27.496  28.230  1.00  0.00     0.059 A 
ATOM     66  C   UNL A   1      48.456  28.181  25.945  1.00  0.00     0.059 A 
ATOM     67  F   UNL A   1      46.512  29.406  25.467  1.00  0.00    -0.206 F 
ATOM     68  C   UNL A   1      49.276  27.554  26.883  1.00  0.00     0.060 A 
BRANCH  68  69
ATOM     69  S   UNL A   1      50.831  26.792  26.376  1.00  0.00     0.124 S 
ATOM     70  O   UNL A   1      51.806  27.690  26.988  1.00  0.00    -0.237 OA
ATOM     71  O   UNL A   1      50.736  25.462  26.969  1.00  0.00    -0.237 OA
ATOM     72  O   UNL A   1      50.770  26.831  24.919  1.00  0.00    -0.744 OA
ENDBRANCH  68  69
ENDBRANCH  47  61
BRANCH  48  73
ATOM     73  C   UNL A   1      38.095  32.564  30.580  1.00  0.00     0.058 A 
ATOM     74  C   UNL A   1      37.661  32.478  31.911  1.00  0.00     0.135 A 
ATOM     75  C   UNL A   1      37.269  33.232  29.663  1.00  0.00     0.135 A 
ATOM     76  F   UNL A   1      38.415  31.844  32.822  1.00  0.00    -0.206 F 
ATOM     77  C   UNL A   1      36.452  33.031  32.321  1.00  0.00     0.059 A 
ATOM     78  C   UNL A   1      36.062  33.807  30.052  1.00  0.00     0.059 A 
ATOM     79  F   UNL A   1      37.647  33.351  28.381  1.00  0.00    -0.206 F 
ATOM     80  C   UNL A   1      35.661  33.698  31.383  1.00  0.00     0.060 A 
BRANCH  80  81
ATOM     81  S   UNL A   1      34.123  34.461  31.941  1.00  0.00     0.124 S 
ATOM     82  O   UNL A   1      33.391  34.600  30.688  1.00  0.00    -0.237 OA
ATOM     83  O   UNL A   1      33.608  33.464  32.875  1.00  0.00    -0.237 OA
ATOM     84  O   UNL A   1      34.571  35.709  32.554  1.00  0.00    -0.744 OA
ENDBRANCH  80  81
ENDBRANCH  48  73
BRANCH  60  85
ATOM     85  C   UNL A   1      44.626  35.022  30.434  1.00  0.00     0.058 A 
ATOM     86  C   UNL A   1      44.629  36.116  29.557  1.00  0.00     0.135 A 
ATOM     87  C   UNL A   1      45.106  35.218  31.739  1.00  0.00     0.135 A 
ATOM     88  F   UNL A   1      44.186  35.973  28.297  1.00  0.00    -0.206 F 
ATOM     89  C   UNL A   1      45.083  37.366  29.961  1.00  0.00     0.059 A 
ATOM     90  C   UNL A   1      45.548  36.464  32.170  1.00  0.00     0.059 A 
ATOM     91  F   UNL A   1      45.115  34.201  32.615  1.00  0.00    -0.206 F 
ATOM     92  C   UNL A   1      45.532  37.533  31.274  1.00  0.00     0.060 A 
BRANCH  92  93
ATOM     93  S   UNL A   1      46.039  39.180  31.810  1.00  0.00     0.124 S 
ATOM     94  O   UNL A   1      44.927  39.564  32.673  1.00  0.00    -0.237 OA
ATOM     95  O   UNL A   1      47.305  38.913  32.486  1.00  0.00    -0.237 OA
ATOM     96  O   UNL A   1      46.150  39.925  30.559  1.00  0.00    -0.744 OA
ENDBRANCH  92  93
ENDBRANCH  60  85
ENDBRANCH  34  35
ENDBRANCH  26  29
ENDBRANCH  24  25
ENDBRANCH   1  24
TORSDOF 17
ENDMDL
