MODEL 1
REMARK VINA RESULT:     -10.1      0.000      0.000
REMARK SMILES C=CCN(CC(=O)NCCCNC(=O)c1ccc(-c2c3nc(c(-c4c(F)cc(S(=O)(=O)[O-])cc4F)c4ccc([nH]4)c(-c4c(F)cc(S(=O)(=O)[O-])cc4F)c4nc(c(-c5c(F)cc(S(=O)(=O)[O-])cc5F)c5ccc2[nH]5)C=C4)C=C3)cc1)C(=O)N1CCC[C@@H]1C(=O)OCC
REMARK SMILES IDX 6 1 7 2 8 3 5 5 4 6 3 7 2 8 1 9 81 10 82 11 83 12 84 13
REMARK SMILES IDX 87 14 85 15 86 16 88 17 89 18 90 19 91 20 92 21 9 22 10 23
REMARK SMILES IDX 11 24 12 25 13 26 14 28 15 29 16 30 80 31 17 32 79 33 18 34
REMARK SMILES IDX 19 35 20 36 73 37 21 38 78 39 72 40 74 41 22 42 77 43 71 44
REMARK SMILES IDX 70 45 23 47 57 48 36 49 56 50 37 51 40 52 55 53 75 54 38 55
REMARK SMILES IDX 39 56 54 58 76 59 41 60 24 61 25 62 34 63 26 64 27 65 33 66
REMARK SMILES IDX 35 67 28 68 29 69 30 70 31 71 32 72 58 73 59 74 68 75 60 76
REMARK SMILES IDX 61 77 67 78 69 79 62 80 63 81 64 82 65 83 66 84 42 85 43 86
REMARK SMILES IDX 52 87 44 88 45 89 51 90 53 91 46 92 47 93 48 94 49 95 50 96
REMARK H PARENT 8 4 12 27 74 46 40 57
REMARK Flexibility Score: inf
ROOT
ATOM      1  C   UNL A   1      33.668  28.727  23.245  1.00  0.00     0.239 C 
ATOM      2  O   UNL A   1      34.579  28.556  22.425  1.00  0.00    -0.273 OA
ATOM      3  N   UNL A   1      34.021  28.697  24.562  1.00  0.00    -0.354 N 
ATOM      4  H   UNL A   1      34.856  28.214  24.760  1.00  0.00     0.163 HD
ENDROOT
BRANCH   1   5
ATOM      5  C   UNL A   1      32.251  29.085  22.761  1.00  0.00     0.221 C 
BRANCH   5   6
ATOM      6  N   UNL A   1      31.235  28.029  22.835  1.00  0.00    -0.312 N 
BRANCH   6   7
ATOM      7  C   UNL A   1      29.837  28.425  22.688  1.00  0.00     0.149 C 
BRANCH   7   8
ATOM      8  C   UNL A   1      29.541  29.637  23.524  1.00  0.00    -0.013 C 
ATOM      9  C   UNL A   1      28.849  30.688  23.063  1.00  0.00     0.006 C 
ENDBRANCH   7   8
ENDBRANCH   6   7
BRANCH   6  10
ATOM     10  C   UNL A   1      31.512  26.668  22.796  1.00  0.00     0.321 C 
ATOM     11  O   UNL A   1      31.886  26.101  21.770  1.00  0.00    -0.248 OA
BRANCH  10  12
ATOM     12  N   UNL A   1      31.506  26.000  24.001  1.00  0.00    -0.311 N 
ATOM     13  C   UNL A   1      30.285  25.750  24.736  1.00  0.00     0.122 C 
ATOM     14  C   UNL A   1      32.336  24.796  24.113  1.00  0.00     0.197 C 
ATOM     15  C   UNL A   1      30.789  25.056  25.981  1.00  0.00     0.024 C 
ATOM     16  C   UNL A   1      31.906  24.156  25.448  1.00  0.00     0.039 C 
BRANCH  14  17
ATOM     17  C   UNL A   1      33.849  25.012  24.096  1.00  0.00     0.328 C 
ATOM     18  O   UNL A   1      34.417  25.792  24.855  1.00  0.00    -0.250 OA
BRANCH  17  19
ATOM     19  O   UNL A   1      34.453  24.373  23.055  1.00  0.00    -0.464 OA
BRANCH  19  20
ATOM     20  C   UNL A   1      34.984  23.069  23.333  1.00  0.00     0.229 C 
ATOM     21  C   UNL A   1      36.491  22.977  23.146  1.00  0.00     0.049 C 
ENDBRANCH  19  20
ENDBRANCH  17  19
ENDBRANCH  14  17
ENDBRANCH  10  12
ENDBRANCH   6  10
ENDBRANCH   5   6
ENDBRANCH   1   5
BRANCH   3  22
ATOM     22  C   UNL A   1      33.354  29.269  25.712  1.00  0.00     0.117 C 
BRANCH  22  23
ATOM     23  C   UNL A   1      33.947  28.861  27.057  1.00  0.00     0.042 C 
BRANCH  23  24
ATOM     24  C   UNL A   1      35.280  29.513  27.411  1.00  0.00     0.118 C 
BRANCH  24  25
ATOM     25  N   UNL A   1      35.303  30.074  28.752  1.00  0.00    -0.352 N 
ATOM     26  C   UNL A   1      36.297  30.154  29.694  1.00  0.00     0.251 C 
ATOM     27  H   UNL A   1      34.447  30.467  29.038  1.00  0.00     0.163 HD
ATOM     28  O   UNL A   1      35.989  30.521  30.828  1.00  0.00    -0.269 OA
BRANCH  26  29
ATOM     29  C   UNL A   1      37.709  29.814  29.395  1.00  0.00     0.039 A 
ATOM     30  C   UNL A   1      38.123  29.830  28.057  1.00  0.00     0.014 A 
ATOM     31  C   UNL A   1      38.606  29.394  30.381  1.00  0.00     0.014 A 
ATOM     32  C   UNL A   1      39.430  29.468  27.716  1.00  0.00     0.010 A 
ATOM     33  C   UNL A   1      39.932  29.103  30.050  1.00  0.00     0.010 A 
ATOM     34  C   UNL A   1      40.356  29.122  28.713  1.00  0.00    -0.014 A 
BRANCH  34  35
ATOM     35  C   UNL A   1      41.756  28.761  28.366  1.00  0.00     0.031 A 
ATOM     36  C   UNL A   1      42.837  29.810  28.360  1.00  0.00     0.074 A 
ATOM     37  C   UNL A   1      42.050  27.492  28.019  1.00  0.00     0.049 A 
ATOM     38  N   UNL A   1      44.103  29.691  28.047  1.00  0.00    -0.248 NA
ATOM     39  C   UNL A   1      42.439  31.177  28.729  1.00  0.00     0.031 C 
ATOM     40  C   UNL A   1      41.088  26.391  27.944  1.00  0.00     0.029 A 
ATOM     41  N   UNL A   1      43.243  26.914  27.657  1.00  0.00    -0.354 N 
ATOM     42  C   UNL A   1      44.647  30.965  28.168  1.00  0.00     0.074 A 
ATOM     43  C   UNL A   1      43.563  31.851  28.536  1.00  0.00     0.031 C 
ATOM     44  C   UNL A   1      41.730  25.268  27.588  1.00  0.00     0.029 A 
ATOM     45  C   UNL A   1      43.142  25.572  27.376  1.00  0.00     0.049 A 
ATOM     46  H   UNL A   1      44.089  27.414  27.605  1.00  0.00     0.167 HD
ATOM     47  C   UNL A   1      45.934  31.359  28.010  1.00  0.00     0.037 A 
ATOM     48  C   UNL A   1      44.081  24.685  26.990  1.00  0.00     0.037 A 
ATOM     49  C   UNL A   1      47.016  30.470  27.672  1.00  0.00     0.049 A 
ATOM     50  C   UNL A   1      45.505  25.141  26.834  1.00  0.00     0.074 A 
ATOM     51  C   UNL A   1      48.362  30.764  27.536  1.00  0.00     0.029 A 
ATOM     52  N   UNL A   1      46.877  29.113  27.418  1.00  0.00    -0.354 N 
ATOM     53  N   UNL A   1      46.009  26.340  27.005  1.00  0.00    -0.248 NA
ATOM     54  C   UNL A   1      46.491  24.123  26.446  1.00  0.00     0.031 C 
ATOM     55  C   UNL A   1      49.032  29.590  27.171  1.00  0.00     0.029 A 
ATOM     56  C   UNL A   1      48.109  28.558  27.118  1.00  0.00     0.049 A 
ATOM     57  H   UNL A   1      46.026  28.617  27.449  1.00  0.00     0.167 HD
ATOM     58  C   UNL A   1      47.374  26.214  26.771  1.00  0.00     0.074 A 
ATOM     59  C   UNL A   1      47.618  24.821  26.455  1.00  0.00     0.031 C 
ATOM     60  C   UNL A   1      48.339  27.166  26.817  1.00  0.00     0.037 A 
BRANCH  47  61
ATOM     61  C   UNL A   1      46.243  32.818  28.206  1.00  0.00     0.058 A 
ATOM     62  C   UNL A   1      46.656  33.322  29.451  1.00  0.00     0.135 A 
ATOM     63  C   UNL A   1      46.148  33.722  27.136  1.00  0.00     0.135 A 
ATOM     64  F   UNL A   1      46.752  32.505  30.512  1.00  0.00    -0.206 F 
ATOM     65  C   UNL A   1      46.927  34.673  29.636  1.00  0.00     0.059 A 
ATOM     66  C   UNL A   1      46.440  35.074  27.291  1.00  0.00     0.059 A 
ATOM     67  F   UNL A   1      45.761  33.294  25.923  1.00  0.00    -0.206 F 
ATOM     68  C   UNL A   1      46.811  35.543  28.551  1.00  0.00     0.060 A 
BRANCH  68  69
ATOM     69  S   UNL A   1      47.153  37.297  28.809  1.00  0.00     0.124 S 
ATOM     70  O   UNL A   1      46.494  37.535  30.090  1.00  0.00    -0.237 OA
ATOM     71  O   UNL A   1      48.611  37.334  28.831  1.00  0.00    -0.237 OA
ATOM     72  O   UNL A   1      46.530  37.938  27.655  1.00  0.00    -0.744 OA
ENDBRANCH  68  69
ENDBRANCH  47  61
BRANCH  48  73
ATOM     73  C   UNL A   1      43.705  23.265  26.764  1.00  0.00     0.058 A 
ATOM     74  C   UNL A   1      43.375  22.429  27.841  1.00  0.00     0.135 A 
ATOM     75  C   UNL A   1      43.642  22.722  25.471  1.00  0.00     0.135 A 
ATOM     76  F   UNL A   1      43.426  22.901  29.096  1.00  0.00    -0.206 F 
ATOM     77  C   UNL A   1      43.007  21.103  27.648  1.00  0.00     0.059 A 
ATOM     78  C   UNL A   1      43.254  21.405  25.251  1.00  0.00     0.059 A 
ATOM     79  F   UNL A   1      43.932  23.486  24.407  1.00  0.00    -0.206 F 
ATOM     80  C   UNL A   1      42.945  20.600  26.347  1.00  0.00     0.060 A 
BRANCH  80  81
ATOM     81  S   UNL A   1      42.407  18.893  26.103  1.00  0.00     0.124 S 
ATOM     82  O   UNL A   1      43.332  18.438  25.071  1.00  0.00    -0.237 OA
ATOM     83  O   UNL A   1      42.597  18.317  27.430  1.00  0.00    -0.237 OA
ATOM     84  O   UNL A   1      41.015  19.038  25.685  1.00  0.00    -0.744 OA
ENDBRANCH  80  81
ENDBRANCH  48  73
BRANCH  60  85
ATOM     85  C   UNL A   1      49.754  26.730  26.559  1.00  0.00     0.058 A 
ATOM     86  C   UNL A   1      50.295  26.711  25.265  1.00  0.00     0.135 A 
ATOM     87  C   UNL A   1      50.592  26.375  27.628  1.00  0.00     0.135 A 
ATOM     88  F   UNL A   1      49.533  27.036  24.208  1.00  0.00    -0.206 F 
ATOM     89  C   UNL A   1      51.614  26.334  25.036  1.00  0.00     0.059 A 
ATOM     90  C   UNL A   1      51.921  26.017  27.425  1.00  0.00     0.059 A 
ATOM     91  F   UNL A   1      50.125  26.386  28.886  1.00  0.00    -0.206 F 
ATOM     92  C   UNL A   1      52.420  25.988  26.123  1.00  0.00     0.060 A 
BRANCH  92  93
ATOM     93  S   UNL A   1      54.141  25.533  25.820  1.00  0.00     0.124 S 
ATOM     94  O   UNL A   1      54.785  26.842  25.770  1.00  0.00    -0.237 OA
ATOM     95  O   UNL A   1      54.460  24.714  26.984  1.00  0.00    -0.237 OA
ATOM     96  O   UNL A   1      54.084  24.813  24.552  1.00  0.00    -0.744 OA
ENDBRANCH  92  93
ENDBRANCH  60  85
ENDBRANCH  34  35
ENDBRANCH  26  29
ENDBRANCH  24  25
ENDBRANCH  23  24
ENDBRANCH  22  23
ENDBRANCH   3  22
TORSDOF 21
ENDMDL
MODEL 2
REMARK VINA RESULT:      -9.8      6.674     12.020
REMARK SMILES C=CCN(CC(=O)NCCCNC(=O)c1ccc(-c2c3nc(c(-c4c(F)cc(S(=O)(=O)[O-])cc4F)c4ccc([nH]4)c(-c4c(F)cc(S(=O)(=O)[O-])cc4F)c4nc(c(-c5c(F)cc(S(=O)(=O)[O-])cc5F)c5ccc2[nH]5)C=C4)C=C3)cc1)C(=O)N1CCC[C@@H]1C(=O)OCC
REMARK SMILES IDX 6 1 7 2 8 3 5 5 4 6 3 7 2 8 1 9 81 10 82 11 83 12 84 13
REMARK SMILES IDX 87 14 85 15 86 16 88 17 89 18 90 19 91 20 92 21 9 22 10 23
REMARK SMILES IDX 11 24 12 25 13 26 14 28 15 29 16 30 80 31 17 32 79 33 18 34
REMARK SMILES IDX 19 35 20 36 73 37 21 38 78 39 72 40 74 41 22 42 77 43 71 44
REMARK SMILES IDX 70 45 23 47 57 48 36 49 56 50 37 51 40 52 55 53 75 54 38 55
REMARK SMILES IDX 39 56 54 58 76 59 41 60 24 61 25 62 34 63 26 64 27 65 33 66
REMARK SMILES IDX 35 67 28 68 29 69 30 70 31 71 32 72 58 73 59 74 68 75 60 76
REMARK SMILES IDX 61 77 67 78 69 79 62 80 63 81 64 82 65 83 66 84 42 85 43 86
REMARK SMILES IDX 52 87 44 88 45 89 51 90 53 91 46 92 47 93 48 94 49 95 50 96
REMARK H PARENT 8 4 12 27 74 46 40 57
REMARK Flexibility Score: inf
ROOT
ATOM      1  C   UNL A   1      36.677  23.180  25.715  1.00  0.00     0.239 C 
ATOM      2  O   UNL A   1      36.543  24.410  25.694  1.00  0.00    -0.273 OA
ATOM      3  N   UNL A   1      37.908  22.698  25.379  1.00  0.00    -0.354 N 
ATOM      4  H   UNL A   1      38.459  23.302  24.832  1.00  0.00     0.163 HD
ENDROOT
BRANCH   1   5
ATOM      5  C   UNL A   1      35.533  22.287  26.227  1.00  0.00     0.221 C 
BRANCH   5   6
ATOM      6  N   UNL A   1      34.348  22.166  25.371  1.00  0.00    -0.312 N 
BRANCH   6   7
ATOM      7  C   UNL A   1      34.335  21.091  24.383  1.00  0.00     0.149 C 
BRANCH   7   8
ATOM      8  C   UNL A   1      34.094  19.766  25.047  1.00  0.00    -0.013 C 
ATOM      9  C   UNL A   1      34.102  18.604  24.380  1.00  0.00     0.006 C 
ENDBRANCH   7   8
ENDBRANCH   6   7
BRANCH   6  10
ATOM     10  C   UNL A   1      33.150  22.839  25.585  1.00  0.00     0.321 C 
ATOM     11  O   UNL A   1      32.183  22.305  26.125  1.00  0.00    -0.248 OA
BRANCH  10  12
ATOM     12  N   UNL A   1      33.141  24.189  25.312  1.00  0.00    -0.311 N 
ATOM     13  C   UNL A   1      33.435  25.180  26.325  1.00  0.00     0.122 C 
ATOM     14  C   UNL A   1      33.779  24.634  24.069  1.00  0.00     0.197 C 
ATOM     15  C   UNL A   1      33.249  26.479  25.575  1.00  0.00     0.024 C 
ATOM     16  C   UNL A   1      33.836  26.170  24.196  1.00  0.00     0.039 C 
BRANCH  14  17
ATOM     17  C   UNL A   1      33.079  24.239  22.770  1.00  0.00     0.328 C 
ATOM     18  O   UNL A   1      32.256  23.331  22.707  1.00  0.00    -0.250 OA
BRANCH  17  19
ATOM     19  O   UNL A   1      33.587  24.894  21.687  1.00  0.00    -0.464 OA
BRANCH  19  20
ATOM     20  C   UNL A   1      32.631  25.528  20.823  1.00  0.00     0.229 C 
ATOM     21  C   UNL A   1      31.612  26.376  21.567  1.00  0.00     0.049 C 
ENDBRANCH  19  20
ENDBRANCH  17  19
ENDBRANCH  14  17
ENDBRANCH  10  12
ENDBRANCH   6  10
ENDBRANCH   5   6
ENDBRANCH   1   5
BRANCH   3  22
ATOM     22  C   UNL A   1      38.525  21.430  25.708  1.00  0.00     0.117 C 
BRANCH  22  23
ATOM     23  C   UNL A   1      39.906  21.545  26.347  1.00  0.00     0.042 C 
BRANCH  23  24
ATOM     24  C   UNL A   1      40.275  22.932  26.867  1.00  0.00     0.118 C 
BRANCH  24  25
ATOM     25  N   UNL A   1      41.296  23.587  26.067  1.00  0.00    -0.352 N 
ATOM     26  C   UNL A   1      41.839  24.846  26.128  1.00  0.00     0.251 C 
ATOM     27  H   UNL A   1      41.667  23.025  25.348  1.00  0.00     0.163 HD
ATOM     28  O   UNL A   1      42.567  25.205  25.203  1.00  0.00    -0.269 OA
BRANCH  26  29
ATOM     29  C   UNL A   1      41.577  25.774  27.255  1.00  0.00     0.039 A 
ATOM     30  C   UNL A   1      42.511  26.787  27.507  1.00  0.00     0.014 A 
ATOM     31  C   UNL A   1      40.491  25.618  28.120  1.00  0.00     0.014 A 
ATOM     32  C   UNL A   1      42.338  27.656  28.588  1.00  0.00     0.010 A 
ATOM     33  C   UNL A   1      40.278  26.531  29.156  1.00  0.00     0.010 A 
ATOM     34  C   UNL A   1      41.206  27.552  29.411  1.00  0.00    -0.014 A 
BRANCH  34  35
ATOM     35  C   UNL A   1      40.997  28.487  30.549  1.00  0.00     0.031 A 
ATOM     36  C   UNL A   1      41.849  28.387  31.786  1.00  0.00     0.074 A 
ATOM     37  C   UNL A   1      40.012  29.406  30.484  1.00  0.00     0.049 A 
ATOM     38  N   UNL A   1      41.789  29.088  32.890  1.00  0.00    -0.248 NA
ATOM     39  C   UNL A   1      42.890  27.348  31.795  1.00  0.00     0.031 C 
ATOM     40  C   UNL A   1      39.090  29.579  29.359  1.00  0.00     0.029 A 
ATOM     41  N   UNL A   1      39.619  30.365  31.385  1.00  0.00    -0.354 N 
ATOM     42  C   UNL A   1      42.769  28.567  33.728  1.00  0.00     0.074 A 
ATOM     43  C   UNL A   1      43.378  27.460  33.022  1.00  0.00     0.031 C 
ATOM     44  C   UNL A   1      38.258  30.597  29.625  1.00  0.00     0.029 A 
ATOM     45  C   UNL A   1      38.562  31.129  30.950  1.00  0.00     0.049 A 
ATOM     46  H   UNL A   1      40.053  30.492  32.259  1.00  0.00     0.167 HD
ATOM     47  C   UNL A   1      43.145  28.985  34.961  1.00  0.00     0.037 A 
ATOM     48  C   UNL A   1      37.910  32.145  31.551  1.00  0.00     0.037 A 
ATOM     49  C   UNL A   1      42.557  30.106  35.649  1.00  0.00     0.049 A 
ATOM     50  C   UNL A   1      38.353  32.601  32.914  1.00  0.00     0.074 A 
ATOM     51  C   UNL A   1      42.901  30.637  36.880  1.00  0.00     0.029 A 
ATOM     52  N   UNL A   1      41.505  30.869  35.165  1.00  0.00    -0.354 N 
ATOM     53  N   UNL A   1      39.318  32.129  33.667  1.00  0.00    -0.248 NA
ATOM     54  C   UNL A   1      37.628  33.735  33.504  1.00  0.00     0.031 C 
ATOM     55  C   UNL A   1      42.036  31.703  37.154  1.00  0.00     0.029 A 
ATOM     56  C   UNL A   1      41.180  31.860  36.076  1.00  0.00     0.049 A 
ATOM     57  H   UNL A   1      41.055  30.727  34.300  1.00  0.00     0.167 HD
ATOM     58  C   UNL A   1      39.333  32.925  34.807  1.00  0.00     0.074 A 
ATOM     59  C   UNL A   1      38.287  33.913  34.641  1.00  0.00     0.031 C 
ATOM     60  C   UNL A   1      40.143  32.846  35.892  1.00  0.00     0.037 A 
BRANCH  47  61
ATOM     61  C   UNL A   1      44.250  28.227  35.644  1.00  0.00     0.058 A 
ATOM     62  C   UNL A   1      45.602  28.556  35.444  1.00  0.00     0.135 A 
ATOM     63  C   UNL A   1      43.959  27.174  36.526  1.00  0.00     0.135 A 
ATOM     64  F   UNL A   1      45.938  29.545  34.601  1.00  0.00    -0.206 F 
ATOM     65  C   UNL A   1      46.624  27.845  36.064  1.00  0.00     0.059 A 
ATOM     66  C   UNL A   1      44.965  26.466  37.179  1.00  0.00     0.059 A 
ATOM     67  F   UNL A   1      42.685  26.819  36.757  1.00  0.00    -0.206 F 
ATOM     68  C   UNL A   1      46.295  26.798  36.926  1.00  0.00     0.060 A 
BRANCH  68  69
ATOM     69  S   UNL A   1      47.633  25.875  37.713  1.00  0.00     0.124 S 
ATOM     70  O   UNL A   1      47.784  24.747  36.800  1.00  0.00    -0.237 OA
ATOM     71  O   UNL A   1      48.727  26.842  37.710  1.00  0.00    -0.237 OA
ATOM     72  O   UNL A   1      47.093  25.550  39.029  1.00  0.00    -0.744 OA
ENDBRANCH  68  69
ENDBRANCH  47  61
BRANCH  48  73
ATOM     73  C   UNL A   1      36.793  32.824  30.845  1.00  0.00     0.058 A 
ATOM     74  C   UNL A   1      35.464  32.630  31.250  1.00  0.00     0.135 A 
ATOM     75  C   UNL A   1      37.029  33.698  29.772  1.00  0.00     0.135 A 
ATOM     76  F   UNL A   1      35.188  31.799  32.267  1.00  0.00    -0.206 F 
ATOM     77  C   UNL A   1      34.407  33.268  30.611  1.00  0.00     0.059 A 
ATOM     78  C   UNL A   1      35.991  34.365  29.132  1.00  0.00     0.059 A 
ATOM     79  F   UNL A   1      38.285  33.930  29.359  1.00  0.00    -0.206 F 
ATOM     80  C   UNL A   1      34.681  34.138  29.554  1.00  0.00     0.060 A 
BRANCH  80  81
ATOM     81  S   UNL A   1      33.306  35.009  28.771  1.00  0.00     0.124 S 
ATOM     82  O   UNL A   1      33.945  36.249  28.350  1.00  0.00    -0.237 OA
ATOM     83  O   UNL A   1      32.928  34.090  27.702  1.00  0.00    -0.237 OA
ATOM     84  O   UNL A   1      32.332  35.135  29.851  1.00  0.00    -0.744 OA
ENDBRANCH  80  81
ENDBRANCH  48  73
BRANCH  60  85
ATOM     85  C   UNL A   1      39.960  33.878  36.968  1.00  0.00     0.058 A 
ATOM     86  C   UNL A   1      40.586  35.132  36.902  1.00  0.00     0.135 A 
ATOM     87  C   UNL A   1      39.108  33.625  38.055  1.00  0.00     0.135 A 
ATOM     88  F   UNL A   1      41.415  35.421  35.886  1.00  0.00    -0.206 F 
ATOM     89  C   UNL A   1      40.390  36.093  37.887  1.00  0.00     0.059 A 
ATOM     90  C   UNL A   1      38.879  34.581  39.040  1.00  0.00     0.059 A 
ATOM     91  F   UNL A   1      38.479  32.445  38.160  1.00  0.00    -0.206 F 
ATOM     92  C   UNL A   1      39.534  35.809  38.953  1.00  0.00     0.060 A 
BRANCH  92  93
ATOM     93  S   UNL A   1      39.258  37.077  40.210  1.00  0.00     0.124 S 
ATOM     94  O   UNL A   1      38.516  38.081  39.454  1.00  0.00    -0.237 OA
ATOM     95  O   UNL A   1      38.496  36.355  41.223  1.00  0.00    -0.237 OA
ATOM     96  O   UNL A   1      40.609  37.461  40.606  1.00  0.00    -0.744 OA
ENDBRANCH  92  93
ENDBRANCH  60  85
ENDBRANCH  34  35
ENDBRANCH  26  29
ENDBRANCH  24  25
ENDBRANCH  23  24
ENDBRANCH  22  23
ENDBRANCH   3  22
TORSDOF 21
ENDMDL
MODEL 3
REMARK VINA RESULT:      -9.8      0.637      8.198
REMARK SMILES C=CCN(CC(=O)NCCCNC(=O)c1ccc(-c2c3nc(c(-c4c(F)cc(S(=O)(=O)[O-])cc4F)c4ccc([nH]4)c(-c4c(F)cc(S(=O)(=O)[O-])cc4F)c4nc(c(-c5c(F)cc(S(=O)(=O)[O-])cc5F)c5ccc2[nH]5)C=C4)C=C3)cc1)C(=O)N1CCC[C@@H]1C(=O)OCC
REMARK SMILES IDX 6 1 7 2 8 3 5 5 4 6 3 7 2 8 1 9 81 10 82 11 83 12 84 13
REMARK SMILES IDX 87 14 85 15 86 16 88 17 89 18 90 19 91 20 92 21 9 22 10 23
REMARK SMILES IDX 11 24 12 25 13 26 14 28 15 29 16 30 80 31 17 32 79 33 18 34
REMARK SMILES IDX 19 35 20 36 73 37 21 38 78 39 72 40 74 41 22 42 77 43 71 44
REMARK SMILES IDX 70 45 23 47 57 48 36 49 56 50 37 51 40 52 55 53 75 54 38 55
REMARK SMILES IDX 39 56 54 58 76 59 41 60 24 61 25 62 34 63 26 64 27 65 33 66
REMARK SMILES IDX 35 67 28 68 29 69 30 70 31 71 32 72 58 73 59 74 68 75 60 76
REMARK SMILES IDX 61 77 67 78 69 79 62 80 63 81 64 82 65 83 66 84 42 85 43 86
REMARK SMILES IDX 52 87 44 88 45 89 51 90 53 91 46 92 47 93 48 94 49 95 50 96
REMARK H PARENT 8 4 12 27 74 46 40 57
REMARK Flexibility Score: inf
ROOT
ATOM      1  C   UNL A   1      33.639  28.651  23.246  1.00  0.00     0.239 C 
ATOM      2  O   UNL A   1      34.530  28.589  22.389  1.00  0.00    -0.273 OA
ATOM      3  N   UNL A   1      34.049  28.782  24.540  1.00  0.00    -0.354 N 
ATOM      4  H   UNL A   1      34.966  28.475  24.722  1.00  0.00     0.163 HD
ENDROOT
BRANCH   1   5
ATOM      5  C   UNL A   1      32.161  28.710  22.820  1.00  0.00     0.221 C 
BRANCH   5   6
ATOM      6  N   UNL A   1      31.394  27.462  22.902  1.00  0.00    -0.312 N 
BRANCH   6   7
ATOM      7  C   UNL A   1      29.967  27.562  23.194  1.00  0.00     0.149 C 
BRANCH   7   8
ATOM      8  C   UNL A   1      29.533  29.000  23.215  1.00  0.00    -0.013 C 
ATOM      9  C   UNL A   1      28.362  29.415  22.714  1.00  0.00     0.006 C 
ENDBRANCH   7   8
ENDBRANCH   6   7
BRANCH   6  10
ATOM     10  C   UNL A   1      31.867  26.220  22.493  1.00  0.00     0.321 C 
ATOM     11  O   UNL A   1      32.510  26.069  21.455  1.00  0.00    -0.248 OA
BRANCH  10  12
ATOM     12  N   UNL A   1      31.726  25.179  23.385  1.00  0.00    -0.311 N 
ATOM     13  C   UNL A   1      30.541  24.349  23.416  1.00  0.00     0.122 C 
ATOM     14  C   UNL A   1      32.881  24.299  23.588  1.00  0.00     0.197 C 
ATOM     15  C   UNL A   1      30.830  23.411  24.566  1.00  0.00     0.024 C 
ATOM     16  C   UNL A   1      32.324  23.118  24.407  1.00  0.00     0.039 C 
BRANCH  14  17
ATOM     17  C   UNL A   1      34.084  24.914  24.302  1.00  0.00     0.328 C 
ATOM     18  O   UNL A   1      33.977  25.813  25.131  1.00  0.00    -0.250 OA
BRANCH  17  19
ATOM     19  O   UNL A   1      35.269  24.467  23.800  1.00  0.00    -0.464 OA
BRANCH  19  20
ATOM     20  C   UNL A   1      35.845  23.325  24.453  1.00  0.00     0.229 C 
ATOM     21  C   UNL A   1      36.784  22.527  23.561  1.00  0.00     0.049 C 
ENDBRANCH  19  20
ENDBRANCH  17  19
ENDBRANCH  14  17
ENDBRANCH  10  12
ENDBRANCH   6  10
ENDBRANCH   5   6
ENDBRANCH   1   5
BRANCH   3  22
ATOM     22  C   UNL A   1      33.337  29.306  25.687  1.00  0.00     0.117 C 
BRANCH  22  23
ATOM     23  C   UNL A   1      33.802  28.749  27.029  1.00  0.00     0.042 C 
BRANCH  23  24
ATOM     24  C   UNL A   1      35.199  29.177  27.469  1.00  0.00     0.118 C 
BRANCH  24  25
ATOM     25  N   UNL A   1      35.206  29.884  28.739  1.00  0.00    -0.352 N 
ATOM     26  C   UNL A   1      36.203  30.118  29.651  1.00  0.00     0.251 C 
ATOM     27  H   UNL A   1      34.333  30.264  28.992  1.00  0.00     0.163 HD
ATOM     28  O   UNL A   1      35.888  30.594  30.741  1.00  0.00    -0.269 OA
BRANCH  26  29
ATOM     29  C   UNL A   1      37.629  29.817  29.369  1.00  0.00     0.039 A 
ATOM     30  C   UNL A   1      38.075  29.913  28.045  1.00  0.00     0.014 A 
ATOM     31  C   UNL A   1      38.508  29.359  30.354  1.00  0.00     0.014 A 
ATOM     32  C   UNL A   1      39.395  29.591  27.719  1.00  0.00     0.010 A 
ATOM     33  C   UNL A   1      39.846  29.108  30.041  1.00  0.00     0.010 A 
ATOM     34  C   UNL A   1      40.303  29.207  28.719  1.00  0.00    -0.014 A 
BRANCH  34  35
ATOM     35  C   UNL A   1      41.717  28.887  28.388  1.00  0.00     0.031 A 
ATOM     36  C   UNL A   1      42.113  27.486  28.001  1.00  0.00     0.074 A 
ATOM     37  C   UNL A   1      42.655  29.851  28.472  1.00  0.00     0.049 A 
ATOM     38  N   UNL A   1      43.300  27.011  27.716  1.00  0.00    -0.248 NA
ATOM     39  C   UNL A   1      41.040  26.482  27.949  1.00  0.00     0.031 C 
ATOM     40  C   UNL A   1      42.410  31.237  28.876  1.00  0.00     0.029 A 
ATOM     41  N   UNL A   1      44.006  29.812  28.228  1.00  0.00    -0.354 N 
ATOM     42  C   UNL A   1      43.118  25.655  27.468  1.00  0.00     0.074 A 
ATOM     43  C   UNL A   1      41.715  25.373  27.681  1.00  0.00     0.031 C 
ATOM     44  C   UNL A   1      43.563  31.921  28.826  1.00  0.00     0.029 A 
ATOM     45  C   UNL A   1      44.636  31.019  28.421  1.00  0.00     0.049 A 
ATOM     46  H   UNL A   1      44.478  28.997  27.942  1.00  0.00     0.167 HD
ATOM     47  C   UNL A   1      44.031  24.733  27.075  1.00  0.00     0.037 A 
ATOM     48  C   UNL A   1      45.933  31.361  28.286  1.00  0.00     0.037 A 
ATOM     49  C   UNL A   1      45.422  25.022  26.835  1.00  0.00     0.049 A 
ATOM     50  C   UNL A   1      46.926  30.324  27.836  1.00  0.00     0.074 A 
ATOM     51  C   UNL A   1      46.414  24.167  26.389  1.00  0.00     0.029 A 
ATOM     52  N   UNL A   1      46.015  26.263  27.018  1.00  0.00    -0.354 N 
ATOM     53  N   UNL A   1      46.725  29.059  27.555  1.00  0.00    -0.248 NA
ATOM     54  C   UNL A   1      48.319  30.764  27.674  1.00  0.00     0.031 C 
ATOM     55  C   UNL A   1      47.616  24.883  26.331  1.00  0.00     0.029 A 
ATOM     56  C   UNL A   1      47.362  26.193  26.704  1.00  0.00     0.049 A 
ATOM     57  H   UNL A   1      45.548  27.073  27.326  1.00  0.00     0.167 HD
ATOM     58  C   UNL A   1      47.959  28.558  27.156  1.00  0.00     0.074 A 
ATOM     59  C   UNL A   1      48.899  29.659  27.225  1.00  0.00     0.031 C 
ATOM     60  C   UNL A   1      48.284  27.301  26.766  1.00  0.00     0.037 A 
BRANCH  47  61
ATOM     61  C   UNL A   1      43.550  23.322  26.876  1.00  0.00     0.058 A 
ATOM     62  C   UNL A   1      43.262  22.482  27.965  1.00  0.00     0.135 A 
ATOM     63  C   UNL A   1      43.350  22.807  25.585  1.00  0.00     0.135 A 
ATOM     64  F   UNL A   1      43.446  22.918  29.222  1.00  0.00    -0.206 F 
ATOM     65  C   UNL A   1      42.831  21.173  27.781  1.00  0.00     0.059 A 
ATOM     66  C   UNL A   1      42.894  21.508  25.377  1.00  0.00     0.059 A 
ATOM     67  F   UNL A   1      43.606  23.567  24.508  1.00  0.00    -0.206 F 
ATOM     68  C   UNL A   1      42.654  20.693  26.482  1.00  0.00     0.060 A 
BRANCH  68  69
ATOM     69  S   UNL A   1      42.108  18.987  26.259  1.00  0.00     0.124 S 
ATOM     70  O   UNL A   1      43.074  18.498  25.281  1.00  0.00    -0.237 OA
ATOM     71  O   UNL A   1      42.236  18.436  27.604  1.00  0.00    -0.237 OA
ATOM     72  O   UNL A   1      40.739  19.130  25.771  1.00  0.00    -0.744 OA
ENDBRANCH  68  69
ENDBRANCH  47  61
BRANCH  48  73
ATOM     73  C   UNL A   1      46.357  32.762  28.544  1.00  0.00     0.058 A 
ATOM     74  C   UNL A   1      46.799  33.156  29.816  1.00  0.00     0.135 A 
ATOM     75  C   UNL A   1      46.354  33.726  27.525  1.00  0.00     0.135 A 
ATOM     76  F   UNL A   1      46.814  32.270  30.824  1.00  0.00    -0.206 F 
ATOM     77  C   UNL A   1      47.213  34.458  30.073  1.00  0.00     0.059 A 
ATOM     78  C   UNL A   1      46.785  35.029  27.751  1.00  0.00     0.059 A 
ATOM     79  F   UNL A   1      45.956  33.394  26.287  1.00  0.00    -0.206 F 
ATOM     80  C   UNL A   1      47.206  35.388  29.031  1.00  0.00     0.060 A 
BRANCH  80  81
ATOM     81  S   UNL A   1      47.803  37.060  29.361  1.00  0.00     0.124 S 
ATOM     82  O   UNL A   1      47.261  37.309  30.691  1.00  0.00    -0.237 OA
ATOM     83  O   UNL A   1      49.250  36.892  29.281  1.00  0.00    -0.237 OA
ATOM     84  O   UNL A   1      47.211  37.845  28.280  1.00  0.00    -0.744 OA
ENDBRANCH  80  81
ENDBRANCH  48  73
BRANCH  60  85
ATOM     85  C   UNL A   1      49.705  27.054  26.342  1.00  0.00     0.058 A 
ATOM     86  C   UNL A   1      50.111  27.189  25.006  1.00  0.00     0.135 A 
ATOM     87  C   UNL A   1      50.681  26.725  27.296  1.00  0.00     0.135 A 
ATOM     88  F   UNL A   1      49.214  27.495  24.055  1.00  0.00    -0.206 F 
ATOM     89  C   UNL A   1      51.433  26.986  24.626  1.00  0.00     0.059 A 
ATOM     90  C   UNL A   1      52.014  26.540  26.942  1.00  0.00     0.059 A 
ATOM     91  F   UNL A   1      50.346  26.593  28.589  1.00  0.00    -0.206 F 
ATOM     92  C   UNL A   1      52.378  26.661  25.601  1.00  0.00     0.060 A 
BRANCH  92  93
ATOM     93  S   UNL A   1      54.099  26.434  25.103  1.00  0.00     0.124 S 
ATOM     94  O   UNL A   1      54.014  25.216  24.304  1.00  0.00    -0.237 OA
ATOM     95  O   UNL A   1      54.376  27.660  24.361  1.00  0.00    -0.237 OA
ATOM     96  O   UNL A   1      54.806  26.305  26.373  1.00  0.00    -0.744 OA
ENDBRANCH  92  93
ENDBRANCH  60  85
ENDBRANCH  34  35
ENDBRANCH  26  29
ENDBRANCH  24  25
ENDBRANCH  23  24
ENDBRANCH  22  23
ENDBRANCH   3  22
TORSDOF 21
ENDMDL
