MODEL 1
REMARK VINA RESULT:     -10.5      0.000      0.000
REMARK SMILES O=C(CN1C(=O)c2ccccc2[C@@H]1O)NCCCNC(=O)c1ccc(-c2c3nc(c(-c4c(F)cc(S(=O)(=O)[O-])cc4F)c4ccc([nH]4)c(-c4c(F)cc(S(=O)(=O)[O-])cc4F)c4nc(c(-c5c(F)cc(S(=O)(=O)[O-])cc5F)c5ccc2[nH]5)C=C4)C=C3)cc1
REMARK SMILES IDX 17 1 16 2 15 3 1 4 2 5 3 7 4 8 5 9 13 10 6 11 7 12 12 13
REMARK SMILES IDX 8 14 11 15 9 16 10 17 14 18 18 20 19 21 20 22 21 24 22 25
REMARK SMILES IDX 23 26 87 27 24 28 86 29 25 30 26 31 27 32 80 33 28 34 85 35
REMARK SMILES IDX 79 36 81 37 29 38 84 39 78 40 77 41 30 43 64 44 43 45 63 46
REMARK SMILES IDX 44 47 47 48 62 49 82 50 45 51 46 52 61 54 83 55 48 56 31 57
REMARK SMILES IDX 32 58 41 59 33 60 34 61 40 62 42 63 35 64 36 65 37 66 38 67
REMARK SMILES IDX 39 68 65 69 66 70 75 71 67 72 68 73 74 74 76 75 69 76 70 77
REMARK SMILES IDX 71 78 72 79 73 80 49 81 50 82 59 83 51 84 52 85 58 86 60 87
REMARK SMILES IDX 53 88 54 89 55 90 56 91 57 92
REMARK H PARENT 15 6 14 19 19 23 81 42 47 53
REMARK Flexibility Score: inf
ROOT
ATOM      1  C   UNL A   1      40.842  20.062  26.669  1.00  0.00     0.042 C 
ENDROOT
BRANCH   1   2
ATOM      2  C   UNL A   1      42.227  19.737  27.218  1.00  0.00     0.117 C 
BRANCH   2   3
ATOM      3  N   UNL A   1      43.270  20.460  26.526  1.00  0.00    -0.354 N 
ATOM      4  O   UNL A   1      43.423  19.170  24.624  1.00  0.00    -0.273 OA
ATOM      5  C   UNL A   1      43.771  20.145  25.283  1.00  0.00     0.239 C 
ATOM      6  H   UNL A   1      43.654  21.243  26.981  1.00  0.00     0.163 HD
BRANCH   5   7
ATOM      7  C   UNL A   1      44.820  21.154  24.785  1.00  0.00     0.222 C 
BRANCH   7   8
ATOM      8  N   UNL A   1      44.582  22.515  25.255  1.00  0.00    -0.299 N 
ATOM      9  C   UNL A   1      45.509  23.256  25.972  1.00  0.00     0.257 C 
ATOM     10  C   UNL A   1      43.647  23.384  24.582  1.00  0.00     0.247 C 
ATOM     11  O   UNL A   1      46.573  22.890  26.441  1.00  0.00    -0.269 OA
ATOM     12  C   UNL A   1      45.007  24.624  26.050  1.00  0.00     0.047 A 
ATOM     13  C   UNL A   1      43.901  24.715  25.209  1.00  0.00     0.014 A 
ATOM     14  C   UNL A   1      45.485  25.683  26.795  1.00  0.00     0.014 A 
ATOM     15  C   UNL A   1      43.250  25.926  25.061  1.00  0.00     0.009 A 
ATOM     16  C   UNL A   1      44.819  26.900  26.666  1.00  0.00     0.001 A 
ATOM     17  C   UNL A   1      43.717  27.023  25.798  1.00  0.00     0.001 A 
BRANCH  10  18
ATOM     18  O   UNL A   1      42.345  22.935  24.842  1.00  0.00    -0.369 OA
ATOM     19  H   UNL A   1      42.294  22.596  25.749  1.00  0.00     0.213 HD
ENDBRANCH  10  18
ENDBRANCH   7   8
ENDBRANCH   5   7
ENDBRANCH   2   3
ENDBRANCH   1   2
BRANCH   1  20
ATOM     20  C   UNL A   1      40.356  21.492  26.910  1.00  0.00     0.118 C 
BRANCH  20  21
ATOM     21  N   UNL A   1      39.289  21.908  26.014  1.00  0.00    -0.352 N 
ATOM     22  C   UNL A   1      38.647  23.120  25.897  1.00  0.00     0.251 C 
ATOM     23  H   UNL A   1      38.977  21.213  25.390  1.00  0.00     0.163 HD
ATOM     24  O   UNL A   1      37.674  23.212  25.152  1.00  0.00    -0.269 OA
BRANCH  22  25
ATOM     25  C   UNL A   1      39.092  24.308  26.669  1.00  0.00     0.039 A 
ATOM     26  C   UNL A   1      38.644  24.458  27.985  1.00  0.00     0.014 A 
ATOM     27  C   UNL A   1      39.898  25.301  26.103  1.00  0.00     0.014 A 
ATOM     28  C   UNL A   1      39.041  25.567  28.741  1.00  0.00     0.010 A 
ATOM     29  C   UNL A   1      40.364  26.360  26.886  1.00  0.00     0.010 A 
ATOM     30  C   UNL A   1      39.931  26.516  28.210  1.00  0.00    -0.014 A 
BRANCH  30  31
ATOM     31  C   UNL A   1      40.387  27.676  29.028  1.00  0.00     0.031 A 
ATOM     32  C   UNL A   1      41.747  27.670  29.681  1.00  0.00     0.074 A 
ATOM     33  C   UNL A   1      39.567  28.733  29.207  1.00  0.00     0.049 A 
ATOM     34  N   UNL A   1      42.316  28.591  30.419  1.00  0.00    -0.248 NA
ATOM     35  C   UNL A   1      42.568  26.462  29.501  1.00  0.00     0.031 C 
ATOM     36  C   UNL A   1      38.206  28.847  28.677  1.00  0.00     0.029 A 
ATOM     37  N   UNL A   1      39.757  29.916  29.880  1.00  0.00    -0.354 N 
ATOM     38  C   UNL A   1      43.552  28.073  30.793  1.00  0.00     0.074 A 
ATOM     39  C   UNL A   1      43.623  26.732  30.256  1.00  0.00     0.031 C 
ATOM     40  C   UNL A   1      37.700  30.043  29.015  1.00  0.00     0.029 A 
ATOM     41  C   UNL A   1      38.681  30.770  29.815  1.00  0.00     0.049 A 
ATOM     42  H   UNL A   1      40.587  30.131  30.365  1.00  0.00     0.167 HD
ATOM     43  C   UNL A   1      44.548  28.668  31.496  1.00  0.00     0.037 A 
ATOM     44  C   UNL A   1      38.501  32.000  30.337  1.00  0.00     0.037 A 
ATOM     45  C   UNL A   1      44.480  30.010  32.018  1.00  0.00     0.049 A 
ATOM     46  C   UNL A   1      39.623  32.640  31.111  1.00  0.00     0.074 A 
ATOM     47  C   UNL A   1      45.452  30.717  32.702  1.00  0.00     0.029 A 
ATOM     48  N   UNL A   1      43.377  30.846  31.919  1.00  0.00    -0.354 N 
ATOM     49  N   UNL A   1      40.808  32.158  31.401  1.00  0.00    -0.248 NA
ATOM     50  C   UNL A   1      39.386  33.998  31.617  1.00  0.00     0.031 C 
ATOM     51  C   UNL A   1      44.920  31.960  33.065  1.00  0.00     0.029 A 
ATOM     52  C   UNL A   1      43.639  32.054  32.546  1.00  0.00     0.049 A 
ATOM     53  H   UNL A   1      42.532  30.615  31.469  1.00  0.00     0.167 HD
ATOM     54  C   UNL A   1      41.474  33.169  32.087  1.00  0.00     0.074 A 
ATOM     55  C   UNL A   1      40.561  34.292  32.157  1.00  0.00     0.031 C 
ATOM     56  C   UNL A   1      42.727  33.170  32.608  1.00  0.00     0.037 A 
BRANCH  43  57
ATOM     57  C   UNL A   1      45.803  27.870  31.740  1.00  0.00     0.058 A 
ATOM     58  C   UNL A   1      45.963  27.070  32.884  1.00  0.00     0.135 A 
ATOM     59  C   UNL A   1      46.848  27.875  30.801  1.00  0.00     0.135 A 
ATOM     60  F   UNL A   1      45.004  27.034  33.824  1.00  0.00    -0.206 F 
ATOM     61  C   UNL A   1      47.121  26.331  33.103  1.00  0.00     0.059 A 
ATOM     62  C   UNL A   1      48.002  27.117  30.983  1.00  0.00     0.059 A 
ATOM     63  F   UNL A   1      46.753  28.619  29.688  1.00  0.00    -0.206 F 
ATOM     64  C   UNL A   1      48.136  26.361  32.147  1.00  0.00     0.060 A 
BRANCH  64  65
ATOM     65  S   UNL A   1      49.631  25.393  32.445  1.00  0.00     0.124 S 
ATOM     66  O   UNL A   1      49.148  24.398  33.398  1.00  0.00    -0.237 OA
ATOM     67  O   UNL A   1      49.947  24.891  31.112  1.00  0.00    -0.237 OA
ATOM     68  O   UNL A   1      50.570  26.372  32.982  1.00  0.00    -0.744 OA
ENDBRANCH  64  65
ENDBRANCH  43  57
BRANCH  44  69
ATOM     69  C   UNL A   1      37.217  32.723  30.117  1.00  0.00     0.058 A 
ATOM     70  C   UNL A   1      37.076  33.651  29.074  1.00  0.00     0.135 A 
ATOM     71  C   UNL A   1      36.108  32.502  30.947  1.00  0.00     0.135 A 
ATOM     72  F   UNL A   1      38.110  33.904  28.257  1.00  0.00    -0.206 F 
ATOM     73  C   UNL A   1      35.890  34.350  28.874  1.00  0.00     0.059 A 
ATOM     74  C   UNL A   1      34.900  33.166  30.748  1.00  0.00     0.059 A 
ATOM     75  F   UNL A   1      36.183  31.614  31.950  1.00  0.00    -0.206 F 
ATOM     76  C   UNL A   1      34.806  34.098  29.715  1.00  0.00     0.060 A 
BRANCH  76  77
ATOM     77  S   UNL A   1      33.257  34.980  29.421  1.00  0.00     0.124 S 
ATOM     78  O   UNL A   1      33.739  36.262  28.922  1.00  0.00    -0.237 OA
ATOM     79  O   UNL A   1      32.598  34.120  28.443  1.00  0.00    -0.237 OA
ATOM     80  O   UNL A   1      32.633  35.011  30.740  1.00  0.00    -0.744 OA
ENDBRANCH  76  77
ENDBRANCH  44  69
BRANCH  56  81
ATOM     81  C   UNL A   1      43.208  34.446  33.250  1.00  0.00     0.058 A 
ATOM     82  C   UNL A   1      43.102  34.677  34.631  1.00  0.00     0.135 A 
ATOM     83  C   UNL A   1      43.795  35.453  32.464  1.00  0.00     0.135 A 
ATOM     84  F   UNL A   1      42.550  33.750  35.430  1.00  0.00    -0.206 F 
ATOM     85  C   UNL A   1      43.508  35.880  35.202  1.00  0.00     0.059 A 
ATOM     86  C   UNL A   1      44.242  36.647  33.019  1.00  0.00     0.059 A 
ATOM     87  F   UNL A   1      43.939  35.281  31.140  1.00  0.00    -0.206 F 
ATOM     88  C   UNL A   1      44.072  36.861  34.385  1.00  0.00     0.060 A 
BRANCH  88  89
ATOM     89  S   UNL A   1      44.581  38.423  35.133  1.00  0.00     0.124 S 
ATOM     90  O   UNL A   1      46.011  38.437  34.844  1.00  0.00    -0.237 OA
ATOM     91  O   UNL A   1      43.777  39.396  34.401  1.00  0.00    -0.237 OA
ATOM     92  O   UNL A   1      44.227  38.258  36.540  1.00  0.00    -0.744 OA
ENDBRANCH  88  89
ENDBRANCH  56  81
ENDBRANCH  30  31
ENDBRANCH  22  25
ENDBRANCH  20  21
ENDBRANCH   1  20
TORSDOF 15
ENDMDL
MODEL 2
REMARK VINA RESULT:     -10.4      3.136      4.751
REMARK SMILES O=C(CN1C(=O)c2ccccc2[C@@H]1O)NCCCNC(=O)c1ccc(-c2c3nc(c(-c4c(F)cc(S(=O)(=O)[O-])cc4F)c4ccc([nH]4)c(-c4c(F)cc(S(=O)(=O)[O-])cc4F)c4nc(c(-c5c(F)cc(S(=O)(=O)[O-])cc5F)c5ccc2[nH]5)C=C4)C=C3)cc1
REMARK SMILES IDX 17 1 16 2 15 3 1 4 2 5 3 7 4 8 5 9 13 10 6 11 7 12 12 13
REMARK SMILES IDX 8 14 11 15 9 16 10 17 14 18 18 20 19 21 20 22 21 24 22 25
REMARK SMILES IDX 23 26 87 27 24 28 86 29 25 30 26 31 27 32 80 33 28 34 85 35
REMARK SMILES IDX 79 36 81 37 29 38 84 39 78 40 77 41 30 43 64 44 43 45 63 46
REMARK SMILES IDX 44 47 47 48 62 49 82 50 45 51 46 52 61 54 83 55 48 56 31 57
REMARK SMILES IDX 32 58 41 59 33 60 34 61 40 62 42 63 35 64 36 65 37 66 38 67
REMARK SMILES IDX 39 68 65 69 66 70 75 71 67 72 68 73 74 74 76 75 69 76 70 77
REMARK SMILES IDX 71 78 72 79 73 80 49 81 50 82 59 83 51 84 52 85 58 86 60 87
REMARK SMILES IDX 53 88 54 89 55 90 56 91 57 92
REMARK H PARENT 15 6 14 19 19 23 81 42 47 53
REMARK Flexibility Score: inf
ROOT
ATOM      1  C   UNL A   1      45.354  23.121  27.049  1.00  0.00     0.042 C 
ENDROOT
BRANCH   1   2
ATOM      2  C   UNL A   1      44.682  22.191  26.045  1.00  0.00     0.117 C 
BRANCH   2   3
ATOM      3  N   UNL A   1      43.403  21.713  26.518  1.00  0.00    -0.354 N 
ATOM      4  O   UNL A   1      43.144  19.894  25.130  1.00  0.00    -0.273 OA
ATOM      5  C   UNL A   1      42.744  20.599  26.051  1.00  0.00     0.239 C 
ATOM      6  H   UNL A   1      42.967  22.228  27.234  1.00  0.00     0.163 HD
BRANCH   5   7
ATOM      7  C   UNL A   1      41.439  20.309  26.813  1.00  0.00     0.222 C 
BRANCH   7   8
ATOM      8  N   UNL A   1      40.267  20.935  26.210  1.00  0.00    -0.299 N 
ATOM      9  C   UNL A   1      39.224  20.224  25.637  1.00  0.00     0.257 C 
ATOM     10  C   UNL A   1      39.823  22.244  26.625  1.00  0.00     0.247 C 
ATOM     11  O   UNL A   1      39.155  19.028  25.412  1.00  0.00    -0.269 OA
ATOM     12  C   UNL A   1      38.148  21.172  25.365  1.00  0.00     0.047 A 
ATOM     13  C   UNL A   1      38.490  22.381  25.966  1.00  0.00     0.014 A 
ATOM     14  C   UNL A   1      36.981  20.980  24.654  1.00  0.00     0.014 A 
ATOM     15  C   UNL A   1      37.619  23.452  25.898  1.00  0.00     0.009 A 
ATOM     16  C   UNL A   1      36.109  22.063  24.564  1.00  0.00     0.001 A 
ATOM     17  C   UNL A   1      36.421  23.286  25.190  1.00  0.00     0.001 A 
BRANCH  10  18
ATOM     18  O   UNL A   1      40.732  23.200  26.149  1.00  0.00    -0.369 OA
ATOM     19  H   UNL A   1      41.627  22.829  26.158  1.00  0.00     0.213 HD
ENDBRANCH  10  18
ENDBRANCH   7   8
ENDBRANCH   5   7
ENDBRANCH   2   3
ENDBRANCH   1   2
BRANCH   1  20
ATOM     20  C   UNL A   1      45.060  24.611  26.870  1.00  0.00     0.118 C 
BRANCH  20  21
ATOM     21  N   UNL A   1      44.058  24.894  25.856  1.00  0.00    -0.352 N 
ATOM     22  C   UNL A   1      42.910  25.650  25.926  1.00  0.00     0.251 C 
ATOM     23  H   UNL A   1      44.228  24.480  24.978  1.00  0.00     0.163 HD
ATOM     24  O   UNL A   1      42.132  25.646  24.974  1.00  0.00    -0.269 OA
BRANCH  22  25
ATOM     25  C   UNL A   1      42.583  26.449  27.134  1.00  0.00     0.039 A 
ATOM     26  C   UNL A   1      43.171  27.709  27.283  1.00  0.00     0.014 A 
ATOM     27  C   UNL A   1      41.750  25.959  28.144  1.00  0.00     0.014 A 
ATOM     28  C   UNL A   1      42.887  28.489  28.410  1.00  0.00     0.010 A 
ATOM     29  C   UNL A   1      41.399  26.773  29.224  1.00  0.00     0.010 A 
ATOM     30  C   UNL A   1      41.974  28.043  29.380  1.00  0.00    -0.014 A 
BRANCH  30  31
ATOM     31  C   UNL A   1      41.640  28.889  30.561  1.00  0.00     0.031 A 
ATOM     32  C   UNL A   1      42.463  28.808  31.823  1.00  0.00     0.074 A 
ATOM     33  C   UNL A   1      40.577  29.719  30.511  1.00  0.00     0.049 A 
ATOM     34  N   UNL A   1      42.327  29.473  32.944  1.00  0.00    -0.248 NA
ATOM     35  C   UNL A   1      43.569  27.838  31.838  1.00  0.00     0.031 C 
ATOM     36  C   UNL A   1      39.665  29.857  29.373  1.00  0.00     0.029 A 
ATOM     37  N   UNL A   1      40.084  30.608  31.436  1.00  0.00    -0.354 N 
ATOM     38  C   UNL A   1      43.322  28.999  33.793  1.00  0.00     0.074 A 
ATOM     39  C   UNL A   1      44.011  27.945  33.082  1.00  0.00     0.031 C 
ATOM     40  C   UNL A   1      38.748  30.797  29.653  1.00  0.00     0.029 A 
ATOM     41  C   UNL A   1      38.981  31.306  31.002  1.00  0.00     0.049 A 
ATOM     42  H   UNL A   1      40.484  30.732  32.328  1.00  0.00     0.167 HD
ATOM     43  C   UNL A   1      43.651  29.419  35.040  1.00  0.00     0.037 A 
ATOM     44  C   UNL A   1      38.239  32.248  31.616  1.00  0.00     0.037 A 
ATOM     45  C   UNL A   1      42.971  30.480  35.741  1.00  0.00     0.049 A 
ATOM     46  C   UNL A   1      38.625  32.700  33.000  1.00  0.00     0.074 A 
ATOM     47  C   UNL A   1      43.257  31.009  36.987  1.00  0.00     0.029 A 
ATOM     48  N   UNL A   1      41.866  31.169  35.261  1.00  0.00    -0.354 N 
ATOM     49  N   UNL A   1      39.609  32.284  33.762  1.00  0.00    -0.248 NA
ATOM     50  C   UNL A   1      37.808  33.763  33.601  1.00  0.00     0.031 C 
ATOM     51  C   UNL A   1      42.294  31.980  37.285  1.00  0.00     0.029 A 
ATOM     52  C   UNL A   1      41.449  32.105  36.195  1.00  0.00     0.049 A 
ATOM     53  H   UNL A   1      41.442  31.016  34.386  1.00  0.00     0.167 HD
ATOM     54  C   UNL A   1      39.553  33.061  34.915  1.00  0.00     0.074 A 
ATOM     55  C   UNL A   1      38.447  33.980  34.742  1.00  0.00     0.031 C 
ATOM     56  C   UNL A   1      40.349  33.021  36.014  1.00  0.00     0.037 A 
BRANCH  43  57
ATOM     57  C   UNL A   1      44.802  28.732  35.729  1.00  0.00     0.058 A 
ATOM     58  C   UNL A   1      46.127  29.174  35.579  1.00  0.00     0.135 A 
ATOM     59  C   UNL A   1      44.575  27.639  36.581  1.00  0.00     0.135 A 
ATOM     60  F   UNL A   1      46.408  30.206  34.767  1.00  0.00    -0.206 F 
ATOM     61  C   UNL A   1      47.185  28.539  36.221  1.00  0.00     0.059 A 
ATOM     62  C   UNL A   1      45.615  27.009  37.260  1.00  0.00     0.059 A 
ATOM     63  F   UNL A   1      43.330  27.171  36.765  1.00  0.00    -0.206 F 
ATOM     64  C   UNL A   1      46.920  27.457  37.060  1.00  0.00     0.060 A 
BRANCH  64  65
ATOM     65  S   UNL A   1      48.305  26.648  37.889  1.00  0.00     0.124 S 
ATOM     66  O   UNL A   1      48.122  25.260  37.474  1.00  0.00    -0.237 OA
ATOM     67  O   UNL A   1      49.456  27.334  37.312  1.00  0.00    -0.237 OA
ATOM     68  O   UNL A   1      48.063  26.918  39.302  1.00  0.00    -0.744 OA
ENDBRANCH  64  65
ENDBRANCH  43  57
BRANCH  44  69
ATOM     69  C   UNL A   1      37.073  32.855  30.915  1.00  0.00     0.058 A 
ATOM     70  C   UNL A   1      37.251  33.818  29.909  1.00  0.00     0.135 A 
ATOM     71  C   UNL A   1      35.758  32.485  31.237  1.00  0.00     0.135 A 
ATOM     72  F   UNL A   1      38.488  34.211  29.569  1.00  0.00    -0.206 F 
ATOM     73  C   UNL A   1      36.169  34.408  29.264  1.00  0.00     0.059 A 
ATOM     74  C   UNL A   1      34.661  33.038  30.584  1.00  0.00     0.059 A 
ATOM     75  F   UNL A   1      35.532  31.557  32.180  1.00  0.00    -0.206 F 
ATOM     76  C   UNL A   1      34.877  34.009  29.606  1.00  0.00     0.060 A 
BRANCH  76  77
ATOM     77  S   UNL A   1      33.480  34.752  28.733  1.00  0.00     0.124 S 
ATOM     78  O   UNL A   1      34.079  35.972  28.206  1.00  0.00    -0.237 OA
ATOM     79  O   UNL A   1      33.155  33.723  27.750  1.00  0.00    -0.237 OA
ATOM     80  O   UNL A   1      32.488  34.939  29.786  1.00  0.00    -0.744 OA
ENDBRANCH  76  77
ENDBRANCH  44  69
BRANCH  56  81
ATOM     81  C   UNL A   1      40.087  34.039  37.094  1.00  0.00     0.058 A 
ATOM     82  C   UNL A   1      39.188  33.803  38.146  1.00  0.00     0.135 A 
ATOM     83  C   UNL A   1      40.759  35.273  37.077  1.00  0.00     0.135 A 
ATOM     84  F   UNL A   1      38.517  32.641  38.213  1.00  0.00    -0.206 F 
ATOM     85  C   UNL A   1      38.922  34.772  39.109  1.00  0.00     0.059 A 
ATOM     86  C   UNL A   1      40.538  36.242  38.050  1.00  0.00     0.059 A 
ATOM     87  F   UNL A   1      41.644  35.549  36.105  1.00  0.00    -0.206 F 
ATOM     88  C   UNL A   1      39.600  35.991  39.049  1.00  0.00     0.060 A 
BRANCH  88  89
ATOM     89  S   UNL A   1      39.236  37.246  40.294  1.00  0.00     0.124 S 
ATOM     90  O   UNL A   1      38.428  38.192  39.532  1.00  0.00    -0.237 OA
ATOM     91  O   UNL A   1      38.523  36.479  41.311  1.00  0.00    -0.237 OA
ATOM     92  O   UNL A   1      40.557  37.725  40.691  1.00  0.00    -0.744 OA
ENDBRANCH  88  89
ENDBRANCH  56  81
ENDBRANCH  30  31
ENDBRANCH  22  25
ENDBRANCH  20  21
ENDBRANCH   1  20
TORSDOF 15
ENDMDL
MODEL 3
REMARK VINA RESULT:     -10.4      3.244      4.631
REMARK SMILES O=C(CN1C(=O)c2ccccc2[C@@H]1O)NCCCNC(=O)c1ccc(-c2c3nc(c(-c4c(F)cc(S(=O)(=O)[O-])cc4F)c4ccc([nH]4)c(-c4c(F)cc(S(=O)(=O)[O-])cc4F)c4nc(c(-c5c(F)cc(S(=O)(=O)[O-])cc5F)c5ccc2[nH]5)C=C4)C=C3)cc1
REMARK SMILES IDX 17 1 16 2 15 3 1 4 2 5 3 7 4 8 5 9 13 10 6 11 7 12 12 13
REMARK SMILES IDX 8 14 11 15 9 16 10 17 14 18 18 20 19 21 20 22 21 24 22 25
REMARK SMILES IDX 23 26 87 27 24 28 86 29 25 30 26 31 27 32 80 33 28 34 85 35
REMARK SMILES IDX 79 36 81 37 29 38 84 39 78 40 77 41 30 43 64 44 43 45 63 46
REMARK SMILES IDX 44 47 47 48 62 49 82 50 45 51 46 52 61 54 83 55 48 56 31 57
REMARK SMILES IDX 32 58 41 59 33 60 34 61 40 62 42 63 35 64 36 65 37 66 38 67
REMARK SMILES IDX 39 68 65 69 66 70 75 71 67 72 68 73 74 74 76 75 69 76 70 77
REMARK SMILES IDX 71 78 72 79 73 80 49 81 50 82 59 83 51 84 52 85 58 86 60 87
REMARK SMILES IDX 53 88 54 89 55 90 56 91 57 92
REMARK H PARENT 15 6 14 19 19 23 81 42 47 53
REMARK Flexibility Score: inf
ROOT
ATOM      1  C   UNL A   1      37.854  23.266  25.659  1.00  0.00     0.042 C 
ENDROOT
BRANCH   1   2
ATOM      2  C   UNL A   1      38.115  21.789  25.382  1.00  0.00     0.117 C 
BRANCH   2   3
ATOM      3  N   UNL A   1      39.241  21.285  26.136  1.00  0.00    -0.354 N 
ATOM      4  O   UNL A   1      39.301  19.130  25.327  1.00  0.00    -0.273 OA
ATOM      5  C   UNL A   1      39.763  20.016  26.038  1.00  0.00     0.239 C 
ATOM      6  H   UNL A   1      39.669  21.902  26.772  1.00  0.00     0.163 HD
BRANCH   5   7
ATOM      7  C   UNL A   1      41.011  19.811  26.915  1.00  0.00     0.222 C 
BRANCH   7   8
ATOM      8  N   UNL A   1      42.263  19.956  26.180  1.00  0.00    -0.299 N 
ATOM      9  C   UNL A   1      42.843  21.179  25.880  1.00  0.00     0.257 C 
ATOM     10  C   UNL A   1      43.257  18.910  26.185  1.00  0.00     0.247 C 
ATOM     11  O   UNL A   1      42.380  22.296  26.035  1.00  0.00    -0.269 OA
ATOM     12  C   UNL A   1      44.180  20.912  25.359  1.00  0.00     0.047 A 
ATOM     13  C   UNL A   1      44.443  19.559  25.551  1.00  0.00     0.014 A 
ATOM     14  C   UNL A   1      45.074  21.785  24.772  1.00  0.00     0.014 A 
ATOM     15  C   UNL A   1      45.671  19.039  25.181  1.00  0.00     0.009 A 
ATOM     16  C   UNL A   1      46.303  21.262  24.377  1.00  0.00     0.001 A 
ATOM     17  C   UNL A   1      46.603  19.902  24.589  1.00  0.00     0.001 A 
BRANCH  10  18
ATOM     18  O   UNL A   1      42.787  17.837  25.415  1.00  0.00    -0.369 OA
ATOM     19  H   UNL A   1      43.516  17.469  24.893  1.00  0.00     0.213 HD
ENDBRANCH  10  18
ENDBRANCH   7   8
ENDBRANCH   5   7
ENDBRANCH   2   3
ENDBRANCH   1   2
BRANCH   1  20
ATOM     20  C   UNL A   1      38.875  23.959  26.563  1.00  0.00     0.118 C 
BRANCH  20  21
ATOM     21  N   UNL A   1      40.097  24.348  25.879  1.00  0.00    -0.352 N 
ATOM     22  C   UNL A   1      40.961  25.390  26.124  1.00  0.00     0.251 C 
ATOM     23  H   UNL A   1      40.348  23.773  25.119  1.00  0.00     0.163 HD
ATOM     24  O   UNL A   1      41.873  25.611  25.330  1.00  0.00    -0.269 OA
BRANCH  22  25
ATOM     25  C   UNL A   1      40.800  26.264  27.314  1.00  0.00     0.039 A 
ATOM     26  C   UNL A   1      41.571  27.428  27.399  1.00  0.00     0.014 A 
ATOM     27  C   UNL A   1      39.944  25.933  28.367  1.00  0.00     0.014 A 
ATOM     28  C   UNL A   1      41.447  28.274  28.507  1.00  0.00     0.010 A 
ATOM     29  C   UNL A   1      39.756  26.822  29.429  1.00  0.00     0.010 A 
ATOM     30  C   UNL A   1      40.515  27.996  29.522  1.00  0.00    -0.014 A 
BRANCH  30  31
ATOM     31  C   UNL A   1      40.353  28.918  30.682  1.00  0.00     0.031 A 
ATOM     32  C   UNL A   1      41.215  28.765  31.912  1.00  0.00     0.074 A 
ATOM     33  C   UNL A   1      39.411  29.883  30.645  1.00  0.00     0.049 A 
ATOM     34  N   UNL A   1      41.222  29.477  33.011  1.00  0.00    -0.248 NA
ATOM     35  C   UNL A   1      42.179  27.654  31.917  1.00  0.00     0.031 C 
ATOM     36  C   UNL A   1      38.474  30.108  29.541  1.00  0.00     0.029 A 
ATOM     37  N   UNL A   1      39.086  30.859  31.556  1.00  0.00    -0.354 N 
ATOM     38  C   UNL A   1      42.182  28.899  33.836  1.00  0.00     0.074 A 
ATOM     39  C   UNL A   1      42.689  27.739  33.137  1.00  0.00     0.031 C 
ATOM     40  C   UNL A   1      37.707  31.173  29.823  1.00  0.00     0.029 A 
ATOM     41  C   UNL A   1      38.068  31.687  31.142  1.00  0.00     0.049 A 
ATOM     42  H   UNL A   1      39.539  30.956  32.425  1.00  0.00     0.167 HD
ATOM     43  C   UNL A   1      42.621  29.310  35.051  1.00  0.00     0.037 A 
ATOM     44  C   UNL A   1      37.489  32.742  31.750  1.00  0.00     0.037 A 
ATOM     45  C   UNL A   1      42.124  30.475  35.739  1.00  0.00     0.049 A 
ATOM     46  C   UNL A   1      37.996  33.180  33.098  1.00  0.00     0.074 A 
ATOM     47  C   UNL A   1      42.535  31.000  36.952  1.00  0.00     0.029 A 
ATOM     48  N   UNL A   1      41.101  31.294  35.280  1.00  0.00    -0.354 N 
ATOM     49  N   UNL A   1      38.948  32.657  33.834  1.00  0.00    -0.248 NA
ATOM     50  C   UNL A   1      37.359  34.363  33.691  1.00  0.00     0.031 C 
ATOM     51  C   UNL A   1      41.727  32.102  37.252  1.00  0.00     0.029 A 
ATOM     52  C   UNL A   1      40.857  32.307  36.194  1.00  0.00     0.049 A 
ATOM     53  H   UNL A   1      40.620  31.172  34.429  1.00  0.00     0.167 HD
ATOM     54  C   UNL A   1      39.051  33.472  34.958  1.00  0.00     0.074 A 
ATOM     55  C   UNL A   1      38.073  34.527  34.797  1.00  0.00     0.031 C 
ATOM     56  C   UNL A   1      39.884  33.358  36.024  1.00  0.00     0.037 A 
BRANCH  43  57
ATOM     57  C   UNL A   1      43.699  28.494  35.718  1.00  0.00     0.058 A 
ATOM     58  C   UNL A   1      45.064  28.748  35.499  1.00  0.00     0.135 A 
ATOM     59  C   UNL A   1      43.366  27.468  36.617  1.00  0.00     0.135 A 
ATOM     60  F   UNL A   1      45.444  29.708  34.641  1.00  0.00    -0.206 F 
ATOM     61  C   UNL A   1      46.055  27.996  36.120  1.00  0.00     0.059 A 
ATOM     62  C   UNL A   1      44.341  26.724  37.276  1.00  0.00     0.059 A 
ATOM     63  F   UNL A   1      42.079  27.179  36.867  1.00  0.00    -0.206 F 
ATOM     64  C   UNL A   1      45.685  26.985  37.008  1.00  0.00     0.060 A 
BRANCH  64  65
ATOM     65  S   UNL A   1      46.985  26.021  37.808  1.00  0.00     0.124 S 
ATOM     66  O   UNL A   1      47.220  26.800  39.020  1.00  0.00    -0.237 OA
ATOM     67  O   UNL A   1      46.338  24.728  38.002  1.00  0.00    -0.237 OA
ATOM     68  O   UNL A   1      48.070  26.035  36.833  1.00  0.00    -0.744 OA
ENDBRANCH  64  65
ENDBRANCH  43  57
BRANCH  44  69
ATOM     69  C   UNL A   1      36.385  33.479  31.074  1.00  0.00     0.058 A 
ATOM     70  C   UNL A   1      35.063  33.394  31.539  1.00  0.00     0.135 A 
ATOM     71  C   UNL A   1      36.629  34.282  29.949  1.00  0.00     0.135 A 
ATOM     72  F   UNL A   1      34.776  32.634  32.607  1.00  0.00    -0.206 F 
ATOM     73  C   UNL A   1      34.021  34.059  30.902  1.00  0.00     0.059 A 
ATOM     74  C   UNL A   1      35.608  34.982  29.314  1.00  0.00     0.059 A 
ATOM     75  F   UNL A   1      37.877  34.411  29.472  1.00  0.00    -0.206 F 
ATOM     76  C   UNL A   1      34.304  34.853  29.791  1.00  0.00     0.060 A 
BRANCH  76  77
ATOM     77  S   UNL A   1      32.949  35.746  28.996  1.00  0.00     0.124 S 
ATOM     78  O   UNL A   1      32.357  34.703  28.166  1.00  0.00    -0.237 OA
ATOM     79  O   UNL A   1      32.156  36.178  30.142  1.00  0.00    -0.237 OA
ATOM     80  O   UNL A   1      33.631  36.816  28.275  1.00  0.00    -0.744 OA
ENDBRANCH  76  77
ENDBRANCH  44  69
BRANCH  56  81
ATOM     81  C   UNL A   1      39.812  34.436  37.075  1.00  0.00     0.058 A 
ATOM     82  C   UNL A   1      40.534  35.636  36.968  1.00  0.00     0.135 A 
ATOM     83  C   UNL A   1      38.997  34.265  38.206  1.00  0.00     0.135 A 
ATOM     84  F   UNL A   1      41.329  35.854  35.909  1.00  0.00    -0.206 F 
ATOM     85  C   UNL A   1      40.494  36.602  37.970  1.00  0.00     0.059 A 
ATOM     86  C   UNL A   1      38.912  35.233  39.202  1.00  0.00     0.059 A 
ATOM     87  F   UNL A   1      38.270  33.145  38.354  1.00  0.00    -0.206 F 
ATOM     88  C   UNL A   1      39.683  36.387  39.086  1.00  0.00     0.060 A 
BRANCH  88  89
ATOM     89  S   UNL A   1      39.650  37.639  40.386  1.00  0.00     0.124 S 
ATOM     90  O   UNL A   1      38.892  38.709  39.747  1.00  0.00    -0.237 OA
ATOM     91  O   UNL A   1      38.970  36.942  41.473  1.00  0.00    -0.237 OA
ATOM     92  O   UNL A   1      41.063  37.925  40.620  1.00  0.00    -0.744 OA
ENDBRANCH  88  89
ENDBRANCH  56  81
ENDBRANCH  30  31
ENDBRANCH  22  25
ENDBRANCH  20  21
ENDBRANCH   1  20
TORSDOF 15
ENDMDL
