MODEL 1
REMARK VINA RESULT:     -12.1      0.000      0.000
REMARK SMILES O=C(NCCCNC(=O)c1cccc2cccc(C(=O)NC3COC3)c12)c1ccc(-c2c3nc(c(-c4c(F)cc(S(=O)(=O)[O-])cc4F)c4ccc([nH]4)c(-c4c(F)cc(S(=O)(=O)[O-])cc4F)c4nc(c(-c5c(F)cc(S(=O)(=O)[O-])cc5F)c5ccc2[nH]5)C=C4)C=C3)cc1
REMARK SMILES IDX 4 1 3 2 1 3 2 4 27 6 28 7 92 8 29 9 91 10 30 11 31 12 32 13
REMARK SMILES IDX 85 14 33 15 90 16 84 17 86 18 34 19 89 20 83 21 82 22 35 24
REMARK SMILES IDX 69 25 48 26 68 27 49 28 52 29 67 30 87 31 50 32 51 33 66 35
REMARK SMILES IDX 88 36 53 37 36 38 37 39 46 40 38 41 39 42 45 43 47 44 40 45
REMARK SMILES IDX 41 46 42 47 43 48 44 49 70 50 71 51 80 52 72 53 73 54 79 55
REMARK SMILES IDX 81 56 74 57 75 58 76 59 77 60 78 61 54 62 55 63 64 64 56 65
REMARK SMILES IDX 57 66 63 67 65 68 58 69 59 70 60 71 61 72 62 73 5 74 6 75
REMARK SMILES IDX 7 76 8 77 9 79 10 80 11 81 26 82 12 83 14 84 18 85 13 86
REMARK SMILES IDX 15 87 17 88 16 89 19 90 20 91 21 92 22 94 23 95 25 96 24 97
REMARK H PARENT 3 5 86 23 52 34 7 78 21 93
REMARK Flexibility Score: inf
ROOT
ATOM      1  C   UNL A   1      34.094  28.028  26.873  1.00  0.00     0.118 C 
ENDROOT
BRANCH   1   2
ATOM      2  N   UNL A   1      33.723  29.356  27.374  1.00  0.00    -0.352 N 
ATOM      3  O   UNL A   1      34.000  31.408  28.279  1.00  0.00    -0.269 OA
ATOM      4  C   UNL A   1      34.503  30.344  27.996  1.00  0.00     0.251 C 
ATOM      5  H   UNL A   1      32.776  29.593  27.253  1.00  0.00     0.163 HD
BRANCH   4   6
ATOM      6  C   UNL A   1      35.933  30.082  28.351  1.00  0.00     0.039 A 
ATOM      7  C   UNL A   1      36.936  30.323  27.425  1.00  0.00     0.014 A 
ATOM      8  C   UNL A   1      36.287  29.577  29.615  1.00  0.00     0.014 A 
ATOM      9  C   UNL A   1      38.212  29.824  27.632  1.00  0.00     0.010 A 
ATOM     10  C   UNL A   1      37.619  29.207  29.884  1.00  0.00     0.010 A 
ATOM     11  C   UNL A   1      38.585  29.284  28.872  1.00  0.00    -0.014 A 
BRANCH  11  12
ATOM     12  C   UNL A   1      40.018  28.923  29.061  1.00  0.00     0.031 A 
ATOM     13  C   UNL A   1      40.572  27.601  28.606  1.00  0.00     0.074 A 
ATOM     14  C   UNL A   1      40.837  29.872  29.565  1.00  0.00     0.049 A 
ATOM     15  N   UNL A   1      41.808  27.173  28.656  1.00  0.00    -0.248 NA
ATOM     16  C   UNL A   1      39.630  26.630  28.027  1.00  0.00     0.031 C 
ATOM     17  C   UNL A   1      40.399  31.191  30.038  1.00  0.00     0.029 A 
ATOM     18  N   UNL A   1      42.197  29.906  29.729  1.00  0.00    -0.354 N 
ATOM     19  C   UNL A   1      41.791  25.878  28.148  1.00  0.00     0.074 A 
ATOM     20  C   UNL A   1      40.418  25.585  27.796  1.00  0.00     0.031 C 
ATOM     21  C   UNL A   1      41.467  31.927  30.364  1.00  0.00     0.029 A 
ATOM     22  C   UNL A   1      42.658  31.101  30.235  1.00  0.00     0.049 A 
ATOM     23  H   UNL A   1      42.787  29.150  29.506  1.00  0.00     0.167 HD
ATOM     24  C   UNL A   1      42.830  25.020  27.998  1.00  0.00     0.037 A 
ATOM     25  C   UNL A   1      43.895  31.480  30.602  1.00  0.00     0.037 A 
ATOM     26  C   UNL A   1      44.196  25.348  28.328  1.00  0.00     0.049 A 
ATOM     27  C   UNL A   1      45.015  30.497  30.445  1.00  0.00     0.074 A 
ATOM     28  C   UNL A   1      45.329  24.566  28.172  1.00  0.00     0.029 A 
ATOM     29  N   UNL A   1      44.616  26.548  28.884  1.00  0.00    -0.354 N 
ATOM     30  N   UNL A   1      44.979  29.288  29.940  1.00  0.00    -0.248 NA
ATOM     31  C   UNL A   1      46.338  30.918  30.919  1.00  0.00     0.031 C 
ATOM     32  C   UNL A   1      46.422  25.270  28.687  1.00  0.00     0.029 A 
ATOM     33  C   UNL A   1      45.983  26.515  29.110  1.00  0.00     0.049 A 
ATOM     34  H   UNL A   1      44.029  27.311  29.088  1.00  0.00     0.167 HD
ATOM     35  C   UNL A   1      46.277  28.803  30.032  1.00  0.00     0.074 A 
ATOM     36  C   UNL A   1      47.078  29.864  30.608  1.00  0.00     0.031 C 
ATOM     37  C   UNL A   1      46.759  27.585  29.684  1.00  0.00     0.037 A 
BRANCH  24  38
ATOM     38  C   UNL A   1      42.553  23.630  27.483  1.00  0.00     0.058 A 
ATOM     39  C   UNL A   1      42.588  23.320  26.115  1.00  0.00     0.135 A 
ATOM     40  C   UNL A   1      42.361  22.571  28.387  1.00  0.00     0.135 A 
ATOM     41  F   UNL A   1      42.755  24.292  25.205  1.00  0.00    -0.206 F 
ATOM     42  C   UNL A   1      42.446  22.010  25.663  1.00  0.00     0.059 A 
ATOM     43  C   UNL A   1      42.240  21.251  27.959  1.00  0.00     0.059 A 
ATOM     44  F   UNL A   1      42.318  22.809  29.707  1.00  0.00    -0.206 F 
ATOM     45  C   UNL A   1      42.281  20.980  26.593  1.00  0.00     0.060 A 
BRANCH  45  46
ATOM     46  S   UNL A   1      42.153  19.282  25.990  1.00  0.00     0.124 S 
ATOM     47  O   UNL A   1      42.613  18.524  27.150  1.00  0.00    -0.237 OA
ATOM     48  O   UNL A   1      40.731  19.168  25.683  1.00  0.00    -0.237 OA
ATOM     49  O   UNL A   1      43.045  19.261  24.835  1.00  0.00    -0.744 OA
ENDBRANCH  45  46
ENDBRANCH  24  38
BRANCH  25  50
ATOM     50  C   UNL A   1      44.114  32.817  31.219  1.00  0.00     0.058 A 
ATOM     51  C   UNL A   1      44.037  33.007  32.605  1.00  0.00     0.135 A 
ATOM     52  C   UNL A   1      44.405  33.939  30.422  1.00  0.00     0.135 A 
ATOM     53  F   UNL A   1      43.761  31.970  33.411  1.00  0.00    -0.206 F 
ATOM     54  C   UNL A   1      44.208  34.263  33.177  1.00  0.00     0.059 A 
ATOM     55  C   UNL A   1      44.619  35.195  30.973  1.00  0.00     0.059 A 
ATOM     56  F   UNL A   1      44.512  33.810  29.090  1.00  0.00    -0.206 F 
ATOM     57  C   UNL A   1      44.497  35.352  32.352  1.00  0.00     0.060 A 
BRANCH  57  58
ATOM     58  S   UNL A   1      44.723  36.978  33.100  1.00  0.00     0.124 S 
ATOM     59  O   UNL A   1      45.555  36.655  34.253  1.00  0.00    -0.237 OA
ATOM     60  O   UNL A   1      45.378  37.721  32.028  1.00  0.00    -0.237 OA
ATOM     61  O   UNL A   1      43.359  37.401  33.403  1.00  0.00    -0.744 OA
ENDBRANCH  57  58
ENDBRANCH  25  50
BRANCH  37  62
ATOM     62  C   UNL A   1      48.227  27.354  29.899  1.00  0.00     0.058 A 
ATOM     63  C   UNL A   1      48.719  26.829  31.104  1.00  0.00     0.135 A 
ATOM     64  C   UNL A   1      49.148  27.635  28.878  1.00  0.00     0.135 A 
ATOM     65  F   UNL A   1      47.880  26.556  32.115  1.00  0.00    -0.206 F 
ATOM     66  C   UNL A   1      50.079  26.619  31.301  1.00  0.00     0.059 A 
ATOM     67  C   UNL A   1      50.509  27.404  29.041  1.00  0.00     0.059 A 
ATOM     68  F   UNL A   1      48.726  28.133  27.704  1.00  0.00    -0.206 F 
ATOM     69  C   UNL A   1      50.966  26.907  30.261  1.00  0.00     0.060 A 
BRANCH  69  70
ATOM     70  S   UNL A   1      52.725  26.604  30.520  1.00  0.00     0.124 S 
ATOM     71  O   UNL A   1      53.176  26.315  29.163  1.00  0.00    -0.237 OA
ATOM     72  O   UNL A   1      53.180  27.870  31.084  1.00  0.00    -0.237 OA
ATOM     73  O   UNL A   1      52.743  25.471  31.441  1.00  0.00    -0.744 OA
ENDBRANCH  69  70
ENDBRANCH  37  62
ENDBRANCH  11  12
ENDBRANCH   4   6
ENDBRANCH   1   2
BRANCH   1  74
ATOM     74  C   UNL A   1      33.038  27.171  26.113  1.00  0.00     0.042 C 
BRANCH  74  75
ATOM     75  C   UNL A   1      31.811  26.591  26.907  1.00  0.00     0.118 C 
BRANCH  75  76
ATOM     76  N   UNL A   1      31.010  25.312  26.466  1.00  0.00    -0.352 N 
ATOM     77  C   UNL A   1      31.331  23.887  26.345  1.00  0.00     0.251 C 
ATOM     78  H   UNL A   1      30.080  25.515  26.214  1.00  0.00     0.163 HD
ATOM     79  O   UNL A   1      30.834  23.148  27.203  1.00  0.00    -0.269 OA
BRANCH  77  80
ATOM     80  C   UNL A   1      31.942  23.098  25.076  1.00  0.00     0.048 A 
ATOM     81  C   UNL A   1      31.368  22.434  23.970  1.00  0.00     0.014 A 
ATOM     82  C   UNL A   1      33.289  23.183  24.942  1.00  0.00     0.007 A 
ATOM     83  C   UNL A   1      32.131  21.952  22.873  1.00  0.00     0.001 A 
ATOM     84  C   UNL A   1      34.005  23.114  23.726  1.00  0.00    -0.017 A 
ATOM     85  C   UNL A   1      33.976  23.066  26.085  1.00  0.00     0.048 A 
ATOM     86  C   UNL A   1      33.425  22.402  22.686  1.00  0.00     0.009 A 
ATOM     87  C   UNL A   1      35.275  23.688  23.680  1.00  0.00     0.009 A 
ATOM     88  C   UNL A   1      35.236  23.698  26.092  1.00  0.00     0.014 A 
ATOM     89  C   UNL A   1      35.832  24.118  24.880  1.00  0.00     0.001 A 
BRANCH  85  90
ATOM     90  C   UNL A   1      33.516  21.921  26.987  1.00  0.00     0.252 C 
ATOM     91  O   UNL A   1      33.567  22.228  28.188  1.00  0.00    -0.269 OA
ATOM     92  N   UNL A   1      33.114  20.528  26.694  1.00  0.00    -0.345 N 
ATOM     93  H   UNL A   1      32.992  20.087  27.565  1.00  0.00     0.164 HD
BRANCH  92  94
ATOM     94  C   UNL A   1      32.784  19.400  25.562  1.00  0.00     0.134 C 
ATOM     95  C   UNL A   1      33.981  19.025  24.542  1.00  0.00     0.187 C 
ATOM     96  C   UNL A   1      32.809  17.778  25.579  1.00  0.00     0.187 C 
ATOM     97  O   UNL A   1      33.243  17.813  24.178  1.00  0.00    -0.377 OA
ENDBRANCH  92  94
ENDBRANCH  85  90
ENDBRANCH  77  80
ENDBRANCH  75  76
ENDBRANCH  74  75
ENDBRANCH   1  74
TORSDOF 15
ENDMDL
MODEL 2
REMARK VINA RESULT:     -12.0      1.170      1.824
REMARK SMILES O=C(NCCCNC(=O)c1cccc2cccc(C(=O)NC3COC3)c12)c1ccc(-c2c3nc(c(-c4c(F)cc(S(=O)(=O)[O-])cc4F)c4ccc([nH]4)c(-c4c(F)cc(S(=O)(=O)[O-])cc4F)c4nc(c(-c5c(F)cc(S(=O)(=O)[O-])cc5F)c5ccc2[nH]5)C=C4)C=C3)cc1
REMARK SMILES IDX 4 1 3 2 1 3 2 4 27 6 28 7 92 8 29 9 91 10 30 11 31 12 32 13
REMARK SMILES IDX 85 14 33 15 90 16 84 17 86 18 34 19 89 20 83 21 82 22 35 24
REMARK SMILES IDX 69 25 48 26 68 27 49 28 52 29 67 30 87 31 50 32 51 33 66 35
REMARK SMILES IDX 88 36 53 37 36 38 37 39 46 40 38 41 39 42 45 43 47 44 40 45
REMARK SMILES IDX 41 46 42 47 43 48 44 49 70 50 71 51 80 52 72 53 73 54 79 55
REMARK SMILES IDX 81 56 74 57 75 58 76 59 77 60 78 61 54 62 55 63 64 64 56 65
REMARK SMILES IDX 57 66 63 67 65 68 58 69 59 70 60 71 61 72 62 73 5 74 6 75
REMARK SMILES IDX 7 76 8 77 9 79 10 80 11 81 26 82 12 83 14 84 18 85 13 86
REMARK SMILES IDX 15 87 17 88 16 89 19 90 20 91 21 92 22 94 23 95 25 96 24 97
REMARK H PARENT 3 5 86 23 52 34 7 78 21 93
REMARK Flexibility Score: inf
ROOT
ATOM      1  C   UNL A   1      33.995  27.897  26.602  1.00  0.00     0.118 C 
ENDROOT
BRANCH   1   2
ATOM      2  N   UNL A   1      33.583  29.210  27.111  1.00  0.00    -0.352 N 
ATOM      3  O   UNL A   1      33.792  31.253  28.054  1.00  0.00    -0.269 OA
ATOM      4  C   UNL A   1      34.324  30.203  27.772  1.00  0.00     0.251 C 
ATOM      5  H   UNL A   1      32.635  29.430  26.965  1.00  0.00     0.163 HD
BRANCH   4   6
ATOM      6  C   UNL A   1      35.748  29.963  28.166  1.00  0.00     0.039 A 
ATOM      7  C   UNL A   1      36.773  30.236  27.274  1.00  0.00     0.014 A 
ATOM      8  C   UNL A   1      36.073  29.448  29.433  1.00  0.00     0.014 A 
ATOM      9  C   UNL A   1      38.051  29.759  27.513  1.00  0.00     0.010 A 
ATOM     10  C   UNL A   1      37.403  29.100  29.738  1.00  0.00     0.010 A 
ATOM     11  C   UNL A   1      38.398  29.209  28.757  1.00  0.00    -0.014 A 
BRANCH  11  12
ATOM     12  C   UNL A   1      39.831  28.873  28.984  1.00  0.00     0.031 A 
ATOM     13  C   UNL A   1      40.420  27.561  28.546  1.00  0.00     0.074 A 
ATOM     14  C   UNL A   1      40.620  29.836  29.509  1.00  0.00     0.049 A 
ATOM     15  N   UNL A   1      41.661  27.153  28.629  1.00  0.00    -0.248 NA
ATOM     16  C   UNL A   1      39.510  26.573  27.942  1.00  0.00     0.031 C 
ATOM     17  C   UNL A   1      40.147  31.148  29.969  1.00  0.00     0.029 A 
ATOM     18  N   UNL A   1      41.974  29.893  29.708  1.00  0.00    -0.354 N 
ATOM     19  C   UNL A   1      41.680  25.858  28.122  1.00  0.00     0.074 A 
ATOM     20  C   UNL A   1      40.322  25.542  27.734  1.00  0.00     0.031 C 
ATOM     21  C   UNL A   1      41.193  31.902  30.322  1.00  0.00     0.029 A 
ATOM     22  C   UNL A   1      42.401  31.096  30.226  1.00  0.00     0.049 A 
ATOM     23  H   UNL A   1      42.583  29.148  29.503  1.00  0.00     0.167 HD
ATOM     24  C   UNL A   1      42.737  25.018  28.001  1.00  0.00     0.037 A 
ATOM     25  C   UNL A   1      43.622  31.498  30.625  1.00  0.00     0.037 A 
ATOM     26  C   UNL A   1      44.088  25.370  28.367  1.00  0.00     0.049 A 
ATOM     27  C   UNL A   1      44.762  30.534  30.499  1.00  0.00     0.074 A 
ATOM     28  C   UNL A   1      45.237  24.607  28.242  1.00  0.00     0.029 A 
ATOM     29  N   UNL A   1      44.472  26.577  28.933  1.00  0.00    -0.354 N 
ATOM     30  N   UNL A   1      44.760  29.323  29.995  1.00  0.00    -0.248 NA
ATOM     31  C   UNL A   1      46.064  30.978  31.008  1.00  0.00     0.031 C 
ATOM     32  C   UNL A   1      46.304  25.331  28.786  1.00  0.00     0.029 A 
ATOM     33  C   UNL A   1      45.833  26.568  29.195  1.00  0.00     0.049 A 
ATOM     34  H   UNL A   1      43.867  27.330  29.120  1.00  0.00     0.167 HD
ATOM     35  C   UNL A   1      46.063  28.861  30.122  1.00  0.00     0.074 A 
ATOM     36  C   UNL A   1      46.830  29.936  30.717  1.00  0.00     0.031 C 
ATOM     37  C   UNL A   1      46.575  27.651  29.788  1.00  0.00     0.037 A 
BRANCH  24  38
ATOM     38  C   UNL A   1      42.498  23.624  27.480  1.00  0.00     0.058 A 
ATOM     39  C   UNL A   1      42.541  23.320  26.111  1.00  0.00     0.135 A 
ATOM     40  C   UNL A   1      42.335  22.556  28.380  1.00  0.00     0.135 A 
ATOM     41  F   UNL A   1      42.682  24.300  25.205  1.00  0.00    -0.206 F 
ATOM     42  C   UNL A   1      42.434  22.008  25.654  1.00  0.00     0.059 A 
ATOM     43  C   UNL A   1      42.249  21.235  27.947  1.00  0.00     0.059 A 
ATOM     44  F   UNL A   1      42.285  22.788  29.701  1.00  0.00    -0.206 F 
ATOM     45  C   UNL A   1      42.297  20.971  26.579  1.00  0.00     0.060 A 
BRANCH  45  46
ATOM     46  S   UNL A   1      42.216  19.272  25.970  1.00  0.00     0.124 S 
ATOM     47  O   UNL A   1      42.721  18.525  27.118  1.00  0.00    -0.237 OA
ATOM     48  O   UNL A   1      40.793  19.112  25.687  1.00  0.00    -0.237 OA
ATOM     49  O   UNL A   1      43.087  19.287  24.799  1.00  0.00    -0.744 OA
ENDBRANCH  45  46
ENDBRANCH  24  38
BRANCH  25  50
ATOM     50  C   UNL A   1      43.800  32.838  31.246  1.00  0.00     0.058 A 
ATOM     51  C   UNL A   1      43.768  33.013  32.636  1.00  0.00     0.135 A 
ATOM     52  C   UNL A   1      44.008  33.979  30.450  1.00  0.00     0.135 A 
ATOM     53  F   UNL A   1      43.574  31.958  33.442  1.00  0.00    -0.206 F 
ATOM     54  C   UNL A   1      43.902  34.272  33.213  1.00  0.00     0.059 A 
ATOM     55  C   UNL A   1      44.183  35.239  31.004  1.00  0.00     0.059 A 
ATOM     56  F   UNL A   1      44.069  33.865  29.114  1.00  0.00    -0.206 F 
ATOM     57  C   UNL A   1      44.107  35.379  32.388  1.00  0.00     0.060 A 
BRANCH  57  58
ATOM     58  S   UNL A   1      44.285  37.008  33.143  1.00  0.00     0.124 S 
ATOM     59  O   UNL A   1      43.077  37.087  33.955  1.00  0.00    -0.237 OA
ATOM     60  O   UNL A   1      45.540  36.872  33.876  1.00  0.00    -0.237 OA
ATOM     61  O   UNL A   1      44.334  37.907  31.993  1.00  0.00    -0.744 OA
ENDBRANCH  57  58
ENDBRANCH  25  50
BRANCH  37  62
ATOM     62  C   UNL A   1      48.041  27.445  30.042  1.00  0.00     0.058 A 
ATOM     63  C   UNL A   1      48.504  26.855  31.228  1.00  0.00     0.135 A 
ATOM     64  C   UNL A   1      48.988  27.819  29.077  1.00  0.00     0.135 A 
ATOM     65  F   UNL A   1      47.638  26.493  32.188  1.00  0.00    -0.206 F 
ATOM     66  C   UNL A   1      49.862  26.669  31.462  1.00  0.00     0.059 A 
ATOM     67  C   UNL A   1      50.349  27.613  29.275  1.00  0.00     0.059 A 
ATOM     68  F   UNL A   1      48.595  28.382  27.923  1.00  0.00    -0.206 F 
ATOM     69  C   UNL A   1      50.777  27.049  30.478  1.00  0.00     0.060 A 
BRANCH  69  70
ATOM     70  S   UNL A   1      52.533  26.776  30.782  1.00  0.00     0.124 S 
ATOM     71  O   UNL A   1      52.949  28.078  31.292  1.00  0.00    -0.237 OA
ATOM     72  O   UNL A   1      52.516  25.689  31.755  1.00  0.00    -0.237 OA
ATOM     73  O   UNL A   1      53.055  26.423  29.465  1.00  0.00    -0.744 OA
ENDBRANCH  69  70
ENDBRANCH  37  62
ENDBRANCH  11  12
ENDBRANCH   4   6
ENDBRANCH   1   2
BRANCH   1  74
ATOM     74  C   UNL A   1      32.919  26.914  26.051  1.00  0.00     0.042 C 
BRANCH  74  75
ATOM     75  C   UNL A   1      32.824  26.677  24.500  1.00  0.00     0.118 C 
BRANCH  75  76
ATOM     76  N   UNL A   1      33.887  25.867  23.673  1.00  0.00    -0.352 N 
ATOM     77  C   UNL A   1      33.988  24.483  23.200  1.00  0.00     0.251 C 
ATOM     78  H   UNL A   1      34.664  26.414  23.413  1.00  0.00     0.163 HD
ATOM     79  O   UNL A   1      33.823  24.315  21.986  1.00  0.00    -0.269 OA
BRANCH  77  80
ATOM     80  C   UNL A   1      34.617  23.204  23.958  1.00  0.00     0.048 A 
ATOM     81  C   UNL A   1      35.764  22.408  23.744  1.00  0.00     0.014 A 
ATOM     82  C   UNL A   1      34.015  22.877  25.128  1.00  0.00     0.007 A 
ATOM     83  C   UNL A   1      36.207  21.422  24.664  1.00  0.00     0.001 A 
ATOM     84  C   UNL A   1      34.635  22.242  26.227  1.00  0.00    -0.017 A 
ATOM     85  C   UNL A   1      32.678  22.941  25.110  1.00  0.00     0.048 A 
ATOM     86  C   UNL A   1      35.723  21.425  25.959  1.00  0.00     0.009 A 
ATOM     87  C   UNL A   1      34.062  22.409  27.488  1.00  0.00     0.009 A 
ATOM     88  C   UNL A   1      32.075  23.179  26.361  1.00  0.00     0.014 A 
ATOM     89  C   UNL A   1      32.816  23.024  27.554  1.00  0.00     0.001 A 
BRANCH  85  90
ATOM     90  C   UNL A   1      32.029  22.303  23.882  1.00  0.00     0.252 C 
ATOM     91  O   UNL A   1      31.226  23.071  23.330  1.00  0.00    -0.269 OA
ATOM     92  N   UNL A   1      32.124  20.945  23.304  1.00  0.00    -0.345 N 
ATOM     93  H   UNL A   1      31.467  20.910  22.572  1.00  0.00     0.164 HD
BRANCH  92  94
ATOM     94  C   UNL A   1      32.839  19.479  23.344  1.00  0.00     0.134 C 
ATOM     95  C   UNL A   1      32.484  18.533  24.607  1.00  0.00     0.187 C 
ATOM     96  C   UNL A   1      32.472  18.052  22.665  1.00  0.00     0.187 C 
ATOM     97  O   UNL A   1      33.016  17.393  23.858  1.00  0.00    -0.377 OA
ENDBRANCH  92  94
ENDBRANCH  85  90
ENDBRANCH  77  80
ENDBRANCH  75  76
ENDBRANCH  74  75
ENDBRANCH   1  74
TORSDOF 15
ENDMDL
MODEL 3
REMARK VINA RESULT:     -12.0      1.273      2.213
REMARK SMILES O=C(NCCCNC(=O)c1cccc2cccc(C(=O)NC3COC3)c12)c1ccc(-c2c3nc(c(-c4c(F)cc(S(=O)(=O)[O-])cc4F)c4ccc([nH]4)c(-c4c(F)cc(S(=O)(=O)[O-])cc4F)c4nc(c(-c5c(F)cc(S(=O)(=O)[O-])cc5F)c5ccc2[nH]5)C=C4)C=C3)cc1
REMARK SMILES IDX 4 1 3 2 1 3 2 4 27 6 28 7 92 8 29 9 91 10 30 11 31 12 32 13
REMARK SMILES IDX 85 14 33 15 90 16 84 17 86 18 34 19 89 20 83 21 82 22 35 24
REMARK SMILES IDX 69 25 48 26 68 27 49 28 52 29 67 30 87 31 50 32 51 33 66 35
REMARK SMILES IDX 88 36 53 37 36 38 37 39 46 40 38 41 39 42 45 43 47 44 40 45
REMARK SMILES IDX 41 46 42 47 43 48 44 49 70 50 71 51 80 52 72 53 73 54 79 55
REMARK SMILES IDX 81 56 74 57 75 58 76 59 77 60 78 61 54 62 55 63 64 64 56 65
REMARK SMILES IDX 57 66 63 67 65 68 58 69 59 70 60 71 61 72 62 73 5 74 6 75
REMARK SMILES IDX 7 76 8 77 9 79 10 80 11 81 26 82 12 83 14 84 18 85 13 86
REMARK SMILES IDX 15 87 17 88 16 89 19 90 20 91 21 92 22 94 23 95 25 96 24 97
REMARK H PARENT 3 5 86 23 52 34 7 78 21 93
REMARK Flexibility Score: inf
ROOT
ATOM      1  C   UNL A   1      34.077  28.007  26.470  1.00  0.00     0.118 C 
ENDROOT
BRANCH   1   2
ATOM      2  N   UNL A   1      33.638  29.275  27.065  1.00  0.00    -0.352 N 
ATOM      3  O   UNL A   1      33.807  31.251  28.148  1.00  0.00    -0.269 OA
ATOM      4  C   UNL A   1      34.359  30.233  27.797  1.00  0.00     0.251 C 
ATOM      5  H   UNL A   1      32.688  29.488  26.930  1.00  0.00     0.163 HD
BRANCH   4   6
ATOM      6  C   UNL A   1      35.785  29.992  28.182  1.00  0.00     0.039 A 
ATOM      7  C   UNL A   1      36.802  30.232  27.271  1.00  0.00     0.014 A 
ATOM      8  C   UNL A   1      36.121  29.508  29.458  1.00  0.00     0.014 A 
ATOM      9  C   UNL A   1      38.079  29.750  27.508  1.00  0.00     0.010 A 
ATOM     10  C   UNL A   1      37.452  29.157  29.757  1.00  0.00     0.010 A 
ATOM     11  C   UNL A   1      38.435  29.231  28.762  1.00  0.00    -0.014 A 
BRANCH  11  12
ATOM     12  C   UNL A   1      39.868  28.889  28.983  1.00  0.00     0.031 A 
ATOM     13  C   UNL A   1      40.449  27.574  28.542  1.00  0.00     0.074 A 
ATOM     14  C   UNL A   1      40.664  29.849  29.502  1.00  0.00     0.049 A 
ATOM     15  N   UNL A   1      41.689  27.161  28.619  1.00  0.00    -0.248 NA
ATOM     16  C   UNL A   1      39.532  26.590  27.944  1.00  0.00     0.031 C 
ATOM     17  C   UNL A   1      40.199  31.163  29.963  1.00  0.00     0.029 A 
ATOM     18  N   UNL A   1      42.020  29.901  29.695  1.00  0.00    -0.354 N 
ATOM     19  C   UNL A   1      41.700  25.866  28.113  1.00  0.00     0.074 A 
ATOM     20  C   UNL A   1      40.339  25.555  27.733  1.00  0.00     0.031 C 
ATOM     21  C   UNL A   1      41.251  31.913  30.311  1.00  0.00     0.029 A 
ATOM     22  C   UNL A   1      42.454  31.102  30.209  1.00  0.00     0.049 A 
ATOM     23  H   UNL A   1      42.624  29.152  29.486  1.00  0.00     0.167 HD
ATOM     24  C   UNL A   1      42.752  25.021  27.987  1.00  0.00     0.037 A 
ATOM     25  C   UNL A   1      43.679  31.498  30.601  1.00  0.00     0.037 A 
ATOM     26  C   UNL A   1      44.107  25.367  28.346  1.00  0.00     0.049 A 
ATOM     27  C   UNL A   1      44.815  30.529  30.470  1.00  0.00     0.074 A 
ATOM     28  C   UNL A   1      45.252  24.599  28.215  1.00  0.00     0.029 A 
ATOM     29  N   UNL A   1      44.499  26.573  28.908  1.00  0.00    -0.354 N 
ATOM     30  N   UNL A   1      44.805  29.319  29.967  1.00  0.00    -0.248 NA
ATOM     31  C   UNL A   1      46.121  30.968  30.972  1.00  0.00     0.031 C 
ATOM     32  C   UNL A   1      46.325  25.318  28.753  1.00  0.00     0.029 A 
ATOM     33  C   UNL A   1      45.861  26.558  29.164  1.00  0.00     0.049 A 
ATOM     34  H   UNL A   1      43.898  27.329  29.098  1.00  0.00     0.167 HD
ATOM     35  C   UNL A   1      46.106  28.851  30.088  1.00  0.00     0.074 A 
ATOM     36  C   UNL A   1      46.881  29.923  30.678  1.00  0.00     0.031 C 
ATOM     37  C   UNL A   1      46.612  27.639  29.752  1.00  0.00     0.037 A 
BRANCH  24  38
ATOM     38  C   UNL A   1      42.505  23.627  27.469  1.00  0.00     0.058 A 
ATOM     39  C   UNL A   1      42.547  23.320  26.101  1.00  0.00     0.135 A 
ATOM     40  C   UNL A   1      42.334  22.562  28.371  1.00  0.00     0.135 A 
ATOM     41  F   UNL A   1      42.695  24.297  25.192  1.00  0.00    -0.206 F 
ATOM     42  C   UNL A   1      42.432  22.008  25.645  1.00  0.00     0.059 A 
ATOM     43  C   UNL A   1      42.239  21.240  27.940  1.00  0.00     0.059 A 
ATOM     44  F   UNL A   1      42.284  22.796  29.691  1.00  0.00    -0.206 F 
ATOM     45  C   UNL A   1      42.287  20.974  26.573  1.00  0.00     0.060 A 
BRANCH  45  46
ATOM     46  S   UNL A   1      42.195  19.274  25.966  1.00  0.00     0.124 S 
ATOM     47  O   UNL A   1      43.079  19.329  24.806  1.00  0.00    -0.237 OA
ATOM     48  O   UNL A   1      42.693  18.510  27.107  1.00  0.00    -0.237 OA
ATOM     49  O   UNL A   1      40.778  19.095  25.666  1.00  0.00    -0.744 OA
ENDBRANCH  45  46
ENDBRANCH  24  38
BRANCH  25  50
ATOM     50  C   UNL A   1      43.867  32.839  31.220  1.00  0.00     0.058 A 
ATOM     51  C   UNL A   1      43.695  33.042  32.596  1.00  0.00     0.135 A 
ATOM     52  C   UNL A   1      44.224  33.950  30.436  1.00  0.00     0.135 A 
ATOM     53  F   UNL A   1      43.355  32.015  33.389  1.00  0.00    -0.206 F 
ATOM     54  C   UNL A   1      43.839  34.302  33.168  1.00  0.00     0.059 A 
ATOM     55  C   UNL A   1      44.411  35.209  30.989  1.00  0.00     0.059 A 
ATOM     56  F   UNL A   1      44.422  33.808  29.116  1.00  0.00    -0.206 F 
ATOM     57  C   UNL A   1      44.195  35.380  32.355  1.00  0.00     0.060 A 
BRANCH  57  58
ATOM     58  S   UNL A   1      44.384  37.011  33.103  1.00  0.00     0.124 S 
ATOM     59  O   UNL A   1      43.216  37.070  33.973  1.00  0.00    -0.237 OA
ATOM     60  O   UNL A   1      45.676  36.894  33.773  1.00  0.00    -0.237 OA
ATOM     61  O   UNL A   1      44.363  37.912  31.954  1.00  0.00    -0.744 OA
ENDBRANCH  57  58
ENDBRANCH  25  50
BRANCH  37  62
ATOM     62  C   UNL A   1      48.077  27.427  29.998  1.00  0.00     0.058 A 
ATOM     63  C   UNL A   1      48.544  26.822  31.176  1.00  0.00     0.135 A 
ATOM     64  C   UNL A   1      49.023  27.809  29.035  1.00  0.00     0.135 A 
ATOM     65  F   UNL A   1      47.680  26.451  32.134  1.00  0.00    -0.206 F 
ATOM     66  C   UNL A   1      49.902  26.630  31.402  1.00  0.00     0.059 A 
ATOM     67  C   UNL A   1      50.383  27.598  29.226  1.00  0.00     0.059 A 
ATOM     68  F   UNL A   1      48.626  28.387  27.889  1.00  0.00    -0.206 F 
ATOM     69  C   UNL A   1      50.814  27.019  30.420  1.00  0.00     0.060 A 
BRANCH  69  70
ATOM     70  S   UNL A   1      52.571  26.739  30.714  1.00  0.00     0.124 S 
ATOM     71  O   UNL A   1      53.045  26.411  29.374  1.00  0.00    -0.237 OA
ATOM     72  O   UNL A   1      53.007  28.026  31.244  1.00  0.00    -0.237 OA
ATOM     73  O   UNL A   1      52.583  25.636  31.671  1.00  0.00    -0.744 OA
ENDBRANCH  69  70
ENDBRANCH  37  62
ENDBRANCH  11  12
ENDBRANCH   4   6
ENDBRANCH   1   2
BRANCH   1  74
ATOM     74  C   UNL A   1      34.017  27.825  24.924  1.00  0.00     0.042 C 
BRANCH  74  75
ATOM     75  C   UNL A   1      32.714  27.230  24.275  1.00  0.00     0.118 C 
BRANCH  75  76
ATOM     76  N   UNL A   1      32.543  25.715  23.888  1.00  0.00    -0.352 N 
ATOM     77  C   UNL A   1      32.126  24.509  24.610  1.00  0.00     0.251 C 
ATOM     78  H   UNL A   1      32.768  25.536  22.947  1.00  0.00     0.163 HD
ATOM     79  O   UNL A   1      31.005  24.072  24.325  1.00  0.00    -0.269 OA
BRANCH  77  80
ATOM     80  C   UNL A   1      33.034  23.479  25.457  1.00  0.00     0.048 A 
ATOM     81  C   UNL A   1      33.742  23.575  26.676  1.00  0.00     0.014 A 
ATOM     82  C   UNL A   1      33.034  22.203  24.999  1.00  0.00     0.007 A 
ATOM     83  C   UNL A   1      34.341  22.458  27.315  1.00  0.00     0.001 A 
ATOM     84  C   UNL A   1      33.227  21.043  25.782  1.00  0.00    -0.017 A 
ATOM     85  C   UNL A   1      33.107  22.083  23.668  1.00  0.00     0.048 A 
ATOM     86  C   UNL A   1      33.978  21.177  26.941  1.00  0.00     0.009 A 
ATOM     87  C   UNL A   1      32.729  19.834  25.297  1.00  0.00     0.009 A 
ATOM     88  C   UNL A   1      32.548  20.902  23.142  1.00  0.00     0.014 A 
ATOM     89  C   UNL A   1      32.248  19.812  23.992  1.00  0.00     0.001 A 
BRANCH  85  90
ATOM     90  C   UNL A   1      34.159  22.975  23.008  1.00  0.00     0.252 C 
ATOM     91  O   UNL A   1      33.679  23.656  22.088  1.00  0.00    -0.269 OA
ATOM     92  N   UNL A   1      35.618  23.104  23.212  1.00  0.00    -0.345 N 
ATOM     93  H   UNL A   1      35.941  23.717  22.513  1.00  0.00     0.164 HD
BRANCH  92  94
ATOM     94  C   UNL A   1      36.929  22.679  24.086  1.00  0.00     0.134 C 
ATOM     95  C   UNL A   1      37.197  23.515  25.444  1.00  0.00     0.187 C 
ATOM     96  C   UNL A   1      37.189  21.529  25.199  1.00  0.00     0.187 C 
ATOM     97  O   UNL A   1      38.107  22.452  25.876  1.00  0.00    -0.377 OA
ENDBRANCH  92  94
ENDBRANCH  85  90
ENDBRANCH  77  80
ENDBRANCH  75  76
ENDBRANCH  74  75
ENDBRANCH   1  74
TORSDOF 15
ENDMDL
