MODEL 1
REMARK VINA RESULT:     -13.6      0.000      0.000
REMARK SMILES O=C(NCCCNC(=O)c1cc(S(=O)(=O)ON2C(=O)c3cccc4cccc(c34)C2=O)ccc1Br)c1ccc(-c2c3nc(c(-c4c(F)cc(S(=O)(=O)[O-])cc4F)c4ccc([nH]4)c(-c4c(F)cc(S(=O)(=O)[O-])cc4F)c4nc(c(-c5c(F)cc(S(=O)(=O)[O-])cc5F)c5ccc2[nH]5)C=C4)C=C3)cc1
REMARK SMILES IDX 5 1 4 2 3 3 1 4 2 5 36 7 37 8 101 9 38 10 100 11 39 12 40 13
REMARK SMILES IDX 41 14 94 15 42 16 99 17 93 18 95 19 43 20 98 21 92 22 91 23
REMARK SMILES IDX 44 25 78 26 57 27 77 28 58 29 61 30 76 31 96 32 59 33 60 34
REMARK SMILES IDX 75 36 97 37 62 38 45 39 46 40 55 41 47 42 48 43 54 44 56 45
REMARK SMILES IDX 49 46 50 47 51 48 52 49 53 50 79 51 80 52 89 53 81 54 82 55
REMARK SMILES IDX 88 56 90 57 83 58 84 59 85 60 86 61 87 62 63 63 64 64 73 65
REMARK SMILES IDX 65 66 66 67 72 68 74 69 67 70 68 71 69 72 70 73 71 74 6 75
REMARK SMILES IDX 7 76 8 77 9 79 10 80 11 81 34 82 12 83 33 84 35 85 32 86
REMARK SMILES IDX 13 87 14 88 15 89 16 90 17 91 18 92 30 93 19 94 20 95 28 96
REMARK SMILES IDX 31 97 21 98 29 99 27 100 22 101 24 102 26 103 23 104 25 105
REMARK H PARENT 3 6 95 24 61 35 7 78
REMARK Flexibility Score: inf
ROOT
ATOM      1  C   UNL A   1      37.811  22.752  25.743  1.00  0.00     0.042 C 
ENDROOT
BRANCH   1   2
ATOM      2  C   UNL A   1      38.563  23.810  26.541  1.00  0.00     0.118 C 
BRANCH   2   3
ATOM      3  N   UNL A   1      39.937  24.006  26.091  1.00  0.00    -0.352 N 
ATOM      4  O   UNL A   1      41.926  25.010  25.794  1.00  0.00    -0.269 OA
ATOM      5  C   UNL A   1      40.873  24.958  26.426  1.00  0.00     0.251 C 
ATOM      6  H   UNL A   1      40.248  23.342  25.435  1.00  0.00     0.163 HD
BRANCH   5   7
ATOM      7  C   UNL A   1      40.614  25.936  27.507  1.00  0.00     0.039 A 
ATOM      8  C   UNL A   1      41.306  27.144  27.569  1.00  0.00     0.014 A 
ATOM      9  C   UNL A   1      39.642  25.648  28.473  1.00  0.00     0.014 A 
ATOM     10  C   UNL A   1      41.180  27.958  28.688  1.00  0.00     0.010 A 
ATOM     11  C   UNL A   1      39.433  26.528  29.542  1.00  0.00     0.010 A 
ATOM     12  C   UNL A   1      40.238  27.667  29.688  1.00  0.00    -0.014 A 
BRANCH  12  13
ATOM     13  C   UNL A   1      40.110  28.588  30.850  1.00  0.00     0.031 A 
ATOM     14  C   UNL A   1      41.049  28.499  32.026  1.00  0.00     0.074 A 
ATOM     15  C   UNL A   1      39.172  29.556  30.811  1.00  0.00     0.049 A 
ATOM     16  N   UNL A   1      41.118  29.269  33.083  1.00  0.00    -0.248 NA
ATOM     17  C   UNL A   1      42.028  27.401  32.025  1.00  0.00     0.031 C 
ATOM     18  C   UNL A   1      38.192  29.735  29.735  1.00  0.00     0.029 A 
ATOM     19  N   UNL A   1      38.909  30.592  31.670  1.00  0.00    -0.354 N 
ATOM     20  C   UNL A   1      42.122  28.734  33.884  1.00  0.00     0.074 A 
ATOM     21  C   UNL A   1      42.622  27.561  33.200  1.00  0.00     0.031 C 
ATOM     22  C   UNL A   1      37.488  30.852  29.961  1.00  0.00     0.029 A 
ATOM     23  C   UNL A   1      37.918  31.435  31.226  1.00  0.00     0.049 A 
ATOM     24  H   UNL A   1      39.383  30.719  32.523  1.00  0.00     0.167 HD
ATOM     25  C   UNL A   1      42.590  29.185  35.074  1.00  0.00     0.037 A 
ATOM     26  C   UNL A   1      37.408  32.555  31.773  1.00  0.00     0.037 A 
ATOM     27  C   UNL A   1      42.113  30.375  35.733  1.00  0.00     0.049 A 
ATOM     28  C   UNL A   1      37.954  33.041  33.084  1.00  0.00     0.074 A 
ATOM     29  C   UNL A   1      42.556  30.940  36.916  1.00  0.00     0.029 A 
ATOM     30  N   UNL A   1      41.089  31.184  35.265  1.00  0.00    -0.354 N 
ATOM     31  N   UNL A   1      38.923  32.535  33.809  1.00  0.00    -0.248 NA
ATOM     32  C   UNL A   1      37.334  34.243  33.655  1.00  0.00     0.031 C 
ATOM     33  C   UNL A   1      41.773  32.069  37.184  1.00  0.00     0.029 A 
ATOM     34  C   UNL A   1      40.871  32.233  36.146  1.00  0.00     0.049 A 
ATOM     35  H   UNL A   1      40.588  31.037  34.430  1.00  0.00     0.167 HD
ATOM     36  C   UNL A   1      39.040  33.368  34.916  1.00  0.00     0.074 A 
ATOM     37  C   UNL A   1      38.054  34.418  34.754  1.00  0.00     0.031 C 
ATOM     38  C   UNL A   1      39.886  33.270  35.971  1.00  0.00     0.037 A 
BRANCH  25  39
ATOM     39  C   UNL A   1      43.660  28.377  35.756  1.00  0.00     0.058 A 
ATOM     40  C   UNL A   1      43.352  27.358  36.672  1.00  0.00     0.135 A 
ATOM     41  C   UNL A   1      45.015  28.603  35.464  1.00  0.00     0.135 A 
ATOM     42  F   UNL A   1      42.074  27.108  37.000  1.00  0.00    -0.206 F 
ATOM     43  C   UNL A   1      44.350  26.613  37.295  1.00  0.00     0.059 A 
ATOM     44  C   UNL A   1      46.028  27.854  36.056  1.00  0.00     0.059 A 
ATOM     45  F   UNL A   1      45.367  29.562  34.592  1.00  0.00    -0.206 F 
ATOM     46  C   UNL A   1      45.686  26.872  36.983  1.00  0.00     0.060 A 
BRANCH  46  47
ATOM     47  S   UNL A   1      46.970  25.904  37.806  1.00  0.00     0.124 S 
ATOM     48  O   UNL A   1      46.176  24.899  38.504  1.00  0.00    -0.237 OA
ATOM     49  O   UNL A   1      47.764  25.414  36.682  1.00  0.00    -0.237 OA
ATOM     50  O   UNL A   1      47.638  26.882  38.659  1.00  0.00    -0.744 OA
ENDBRANCH  46  47
ENDBRANCH  25  39
BRANCH  26  51
ATOM     51  C   UNL A   1      36.330  33.295  31.068  1.00  0.00     0.058 A 
ATOM     52  C   UNL A   1      35.017  33.299  31.559  1.00  0.00     0.135 A 
ATOM     53  C   UNL A   1      36.599  34.040  29.908  1.00  0.00     0.135 A 
ATOM     54  F   UNL A   1      34.712  32.598  32.661  1.00  0.00    -0.206 F 
ATOM     55  C   UNL A   1      34.004  34.008  30.922  1.00  0.00     0.059 A 
ATOM     56  C   UNL A   1      35.609  34.778  29.269  1.00  0.00     0.059 A 
ATOM     57  F   UNL A   1      37.844  34.082  29.409  1.00  0.00    -0.206 F 
ATOM     58  C   UNL A   1      34.312  34.749  29.779  1.00  0.00     0.060 A 
BRANCH  58  59
ATOM     59  S   UNL A   1      33.005  35.715  28.991  1.00  0.00     0.124 S 
ATOM     60  O   UNL A   1      32.359  34.709  28.157  1.00  0.00    -0.237 OA
ATOM     61  O   UNL A   1      32.235  36.186  30.137  1.00  0.00    -0.237 OA
ATOM     62  O   UNL A   1      33.744  36.752  28.274  1.00  0.00    -0.744 OA
ENDBRANCH  58  59
ENDBRANCH  26  51
BRANCH  38  63
ATOM     63  C   UNL A   1      39.797  34.344  37.017  1.00  0.00     0.058 A 
ATOM     64  C   UNL A   1      40.447  35.578  36.864  1.00  0.00     0.135 A 
ATOM     65  C   UNL A   1      39.035  34.141  38.180  1.00  0.00     0.135 A 
ATOM     66  F   UNL A   1      41.194  35.816  35.775  1.00  0.00    -0.206 F 
ATOM     67  C   UNL A   1      40.370  36.565  37.841  1.00  0.00     0.059 A 
ATOM     68  C   UNL A   1      38.924  35.124  39.159  1.00  0.00     0.059 A 
ATOM     69  F   UNL A   1      38.386  32.981  38.370  1.00  0.00    -0.206 F 
ATOM     70  C   UNL A   1      39.609  36.326  38.987  1.00  0.00     0.060 A 
BRANCH  70  71
ATOM     71  S   UNL A   1      39.504  37.618  40.245  1.00  0.00     0.124 S 
ATOM     72  O   UNL A   1      38.935  36.885  41.370  1.00  0.00    -0.237 OA
ATOM     73  O   UNL A   1      40.897  38.028  40.393  1.00  0.00    -0.237 OA
ATOM     74  O   UNL A   1      38.628  38.613  39.633  1.00  0.00    -0.744 OA
ENDBRANCH  70  71
ENDBRANCH  38  63
ENDBRANCH  12  13
ENDBRANCH   5   7
ENDBRANCH   2   3
ENDBRANCH   1   2
BRANCH   1  75
ATOM     75  C   UNL A   1      36.309  22.978  25.650  1.00  0.00     0.118 C 
BRANCH  75  76
ATOM     76  N   UNL A   1      35.565  22.310  26.707  1.00  0.00    -0.352 N 
ATOM     77  C   UNL A   1      34.292  21.805  26.690  1.00  0.00     0.252 C 
ATOM     78  H   UNL A   1      36.046  22.206  27.559  1.00  0.00     0.163 HD
ATOM     79  O   UNL A   1      33.811  21.284  27.691  1.00  0.00    -0.269 OA
BRANCH  77  80
ATOM     80  C   UNL A   1      33.455  21.953  25.487  1.00  0.00     0.055 A 
ATOM     81  C   UNL A   1      32.738  23.148  25.377  1.00  0.00     0.038 A 
ATOM     82  C   UNL A   1      33.319  20.965  24.507  1.00  0.00     0.030 A 
ATOM     83  C   UNL A   1      31.926  23.371  24.258  1.00  0.00     0.097 A 
ATOM     84  C   UNL A   1      32.528  21.214  23.375  1.00  0.00     0.018 A 
ATOM     85  Br  UNL A   1      34.128  19.253  24.657  1.00  0.00    -0.050 Br
ATOM     86  C   UNL A   1      31.832  22.422  23.241  1.00  0.00     0.024 A 
BRANCH  83  87
ATOM     87  S   UNL A   1      31.069  24.933  24.194  1.00  0.00     0.318 S 
ATOM     88  O   UNL A   1      30.051  24.753  23.180  1.00  0.00    -0.192 OA
ATOM     89  O   UNL A   1      30.783  25.210  25.590  1.00  0.00    -0.192 OA
BRANCH  87  90
ATOM     90  O   UNL A   1      32.163  26.018  23.658  1.00  0.00    -0.134 OA
BRANCH  90  91
ATOM     91  N   UNL A   1      32.262  27.288  24.296  1.00  0.00    -0.127 N 
ATOM     92  C   UNL A   1      31.379  28.320  24.049  1.00  0.00     0.286 C 
ATOM     93  C   UNL A   1      33.356  27.319  25.159  1.00  0.00     0.286 C 
ATOM     94  O   UNL A   1      30.508  28.359  23.190  1.00  0.00    -0.266 OA
ATOM     95  C   UNL A   1      31.511  29.508  24.922  1.00  0.00     0.051 A 
ATOM     96  C   UNL A   1      33.498  28.551  25.979  1.00  0.00     0.051 A 
ATOM     97  O   UNL A   1      34.174  26.410  25.285  1.00  0.00    -0.266 OA
ATOM     98  C   UNL A   1      30.569  30.540  24.817  1.00  0.00     0.014 A 
ATOM     99  C   UNL A   1      32.558  29.581  25.847  1.00  0.00     0.007 A 
ATOM    100  C   UNL A   1      34.546  28.659  26.902  1.00  0.00     0.014 A 
ATOM    101  C   UNL A   1      30.663  31.658  25.639  1.00  0.00     0.001 A 
ATOM    102  C   UNL A   1      32.661  30.728  26.672  1.00  0.00    -0.017 A 
ATOM    103  C   UNL A   1      34.654  29.794  27.706  1.00  0.00     0.001 A 
ATOM    104  C   UNL A   1      31.705  31.751  26.559  1.00  0.00     0.009 A 
ATOM    105  C   UNL A   1      33.714  30.819  27.594  1.00  0.00     0.009 A 
ENDBRANCH  90  91
ENDBRANCH  87  90
ENDBRANCH  83  87
ENDBRANCH  77  80
ENDBRANCH  75  76
ENDBRANCH   1  75
TORSDOF 16
ENDMDL
MODEL 2
REMARK VINA RESULT:     -13.4      6.557     12.070
REMARK SMILES O=C(NCCCNC(=O)c1cc(S(=O)(=O)ON2C(=O)c3cccc4cccc(c34)C2=O)ccc1Br)c1ccc(-c2c3nc(c(-c4c(F)cc(S(=O)(=O)[O-])cc4F)c4ccc([nH]4)c(-c4c(F)cc(S(=O)(=O)[O-])cc4F)c4nc(c(-c5c(F)cc(S(=O)(=O)[O-])cc5F)c5ccc2[nH]5)C=C4)C=C3)cc1
REMARK SMILES IDX 5 1 4 2 3 3 1 4 2 5 36 7 37 8 101 9 38 10 100 11 39 12 40 13
REMARK SMILES IDX 41 14 94 15 42 16 99 17 93 18 95 19 43 20 98 21 92 22 91 23
REMARK SMILES IDX 44 25 78 26 57 27 77 28 58 29 61 30 76 31 96 32 59 33 60 34
REMARK SMILES IDX 75 36 97 37 62 38 45 39 46 40 55 41 47 42 48 43 54 44 56 45
REMARK SMILES IDX 49 46 50 47 51 48 52 49 53 50 79 51 80 52 89 53 81 54 82 55
REMARK SMILES IDX 88 56 90 57 83 58 84 59 85 60 86 61 87 62 63 63 64 64 73 65
REMARK SMILES IDX 65 66 66 67 72 68 74 69 67 70 68 71 69 72 70 73 71 74 6 75
REMARK SMILES IDX 7 76 8 77 9 79 10 80 11 81 34 82 12 83 33 84 35 85 32 86
REMARK SMILES IDX 13 87 14 88 15 89 16 90 17 91 18 92 30 93 19 94 20 95 28 96
REMARK SMILES IDX 31 97 21 98 29 99 27 100 22 101 24 102 26 103 23 104 25 105
REMARK H PARENT 3 6 95 24 61 35 7 78
REMARK Flexibility Score: inf
ROOT
ATOM      1  C   UNL A   1      33.622  28.695  27.268  1.00  0.00     0.042 C 
ENDROOT
BRANCH   1   2
ATOM      2  C   UNL A   1      34.978  29.362  27.465  1.00  0.00     0.118 C 
BRANCH   2   3
ATOM      3  N   UNL A   1      35.116  30.018  28.761  1.00  0.00    -0.352 N 
ATOM      4  O   UNL A   1      36.030  30.608  30.728  1.00  0.00    -0.269 OA
ATOM      5  C   UNL A   1      36.196  30.134  29.606  1.00  0.00     0.251 C 
ATOM      6  H   UNL A   1      34.296  30.454  29.086  1.00  0.00     0.163 HD
BRANCH   5   7
ATOM      7  C   UNL A   1      37.540  29.666  29.197  1.00  0.00     0.039 A 
ATOM      8  C   UNL A   1      38.422  29.108  30.121  1.00  0.00     0.014 A 
ATOM      9  C   UNL A   1      37.922  29.769  27.854  1.00  0.00     0.014 A 
ATOM     10  C   UNL A   1      39.737  28.847  29.753  1.00  0.00     0.010 A 
ATOM     11  C   UNL A   1      39.213  29.397  27.462  1.00  0.00     0.010 A 
ATOM     12  C   UNL A   1      40.151  28.981  28.418  1.00  0.00    -0.014 A 
BRANCH  12  13
ATOM     13  C   UNL A   1      41.559  28.653  28.062  1.00  0.00     0.031 A 
ATOM     14  C   UNL A   1      42.651  29.688  28.160  1.00  0.00     0.074 A 
ATOM     15  C   UNL A   1      41.861  27.389  27.706  1.00  0.00     0.049 A 
ATOM     16  N   UNL A   1      43.937  29.548  27.956  1.00  0.00    -0.248 NA
ATOM     17  C   UNL A   1      42.252  31.057  28.521  1.00  0.00     0.031 C 
ATOM     18  C   UNL A   1      40.889  26.302  27.557  1.00  0.00     0.029 A 
ATOM     19  N   UNL A   1      43.066  26.790  27.441  1.00  0.00    -0.354 N 
ATOM     20  C   UNL A   1      44.495  30.810  28.133  1.00  0.00     0.074 A 
ATOM     21  C   UNL A   1      43.404  31.709  28.442  1.00  0.00     0.031 C 
ATOM     22  C   UNL A   1      41.540  25.159  27.302  1.00  0.00     0.029 A 
ATOM     23  C   UNL A   1      42.967  25.439  27.205  1.00  0.00     0.049 A 
ATOM     24  H   UNL A   1      43.919  27.281  27.421  1.00  0.00     0.167 HD
ATOM     25  C   UNL A   1      45.797  31.181  28.055  1.00  0.00     0.037 A 
ATOM     26  C   UNL A   1      43.918  24.524  26.938  1.00  0.00     0.037 A 
ATOM     27  C   UNL A   1      46.883  30.273  27.783  1.00  0.00     0.049 A 
ATOM     28  C   UNL A   1      45.353  24.959  26.871  1.00  0.00     0.074 A 
ATOM     29  C   UNL A   1      48.239  30.545  27.730  1.00  0.00     0.029 A 
ATOM     30  N   UNL A   1      46.738  28.920  27.520  1.00  0.00    -0.354 N 
ATOM     31  N   UNL A   1      45.860  26.151  27.070  1.00  0.00    -0.248 NA
ATOM     32  C   UNL A   1      46.342  23.928  26.536  1.00  0.00     0.031 C 
ATOM     33  C   UNL A   1      48.911  29.364  27.397  1.00  0.00     0.029 A 
ATOM     34  C   UNL A   1      47.978  28.346  27.285  1.00  0.00     0.049 A 
ATOM     35  H   UNL A   1      45.881  28.435  27.503  1.00  0.00     0.167 HD
ATOM     36  C   UNL A   1      47.233  26.011  26.901  1.00  0.00     0.074 A 
ATOM     37  C   UNL A   1      47.475  24.613  26.600  1.00  0.00     0.031 C 
ATOM     38  C   UNL A   1      48.203  26.954  26.986  1.00  0.00     0.037 A 
BRANCH  25  39
ATOM     39  C   UNL A   1      46.120  32.638  28.244  1.00  0.00     0.058 A 
ATOM     40  C   UNL A   1      46.011  33.567  27.197  1.00  0.00     0.135 A 
ATOM     41  C   UNL A   1      46.514  33.120  29.504  1.00  0.00     0.135 A 
ATOM     42  F   UNL A   1      45.652  33.160  25.968  1.00  0.00    -0.206 F 
ATOM     43  C   UNL A   1      46.309  34.914  27.384  1.00  0.00     0.059 A 
ATOM     44  C   UNL A   1      46.794  34.466  29.719  1.00  0.00     0.059 A 
ATOM     45  F   UNL A   1      46.632  32.277  30.543  1.00  0.00    -0.206 F 
ATOM     46  C   UNL A   1      46.704  35.353  28.649  1.00  0.00     0.060 A 
BRANCH  46  47
ATOM     47  S   UNL A   1      47.096  37.102  28.874  1.00  0.00     0.124 S 
ATOM     48  O   UNL A   1      46.110  37.495  29.874  1.00  0.00    -0.237 OA
ATOM     49  O   UNL A   1      48.481  37.056  29.336  1.00  0.00    -0.237 OA
ATOM     50  O   UNL A   1      46.902  37.668  27.543  1.00  0.00    -0.744 OA
ENDBRANCH  46  47
ENDBRANCH  25  39
BRANCH  26  51
ATOM     51  C   UNL A   1      43.535  23.103  26.729  1.00  0.00     0.058 A 
ATOM     52  C   UNL A   1      43.559  22.530  25.450  1.00  0.00     0.135 A 
ATOM     53  C   UNL A   1      43.170  22.283  27.809  1.00  0.00     0.135 A 
ATOM     54  F   UNL A   1      43.896  23.276  24.387  1.00  0.00    -0.206 F 
ATOM     55  C   UNL A   1      43.226  21.195  25.244  1.00  0.00     0.059 A 
ATOM     56  C   UNL A   1      42.860  20.939  27.632  1.00  0.00     0.059 A 
ATOM     57  F   UNL A   1      43.150  22.781  29.055  1.00  0.00    -0.206 F 
ATOM     58  C   UNL A   1      42.883  20.406  26.344  1.00  0.00     0.060 A 
BRANCH  58  59
ATOM     59  S   UNL A   1      42.511  18.659  26.079  1.00  0.00     0.124 S 
ATOM     60  O   UNL A   1      43.432  18.324  24.999  1.00  0.00    -0.237 OA
ATOM     61  O   UNL A   1      42.814  18.077  27.382  1.00  0.00    -0.237 OA
ATOM     62  O   UNL A   1      41.095  18.670  25.721  1.00  0.00    -0.744 OA
ENDBRANCH  58  59
ENDBRANCH  26  51
BRANCH  38  63
ATOM     63  C   UNL A   1      49.618  26.496  26.775  1.00  0.00     0.058 A 
ATOM     64  C   UNL A   1      50.437  26.116  27.849  1.00  0.00     0.135 A 
ATOM     65  C   UNL A   1      50.154  26.419  25.479  1.00  0.00     0.135 A 
ATOM     66  F   UNL A   1      49.974  26.181  29.107  1.00  0.00    -0.206 F 
ATOM     67  C   UNL A   1      51.750  25.703  27.649  1.00  0.00     0.059 A 
ATOM     68  C   UNL A   1      51.456  25.985  25.254  1.00  0.00     0.059 A 
ATOM     69  F   UNL A   1      49.408  26.762  24.417  1.00  0.00    -0.206 F 
ATOM     70  C   UNL A   1      52.252  25.645  26.347  1.00  0.00     0.060 A 
BRANCH  70  71
ATOM     71  S   UNL A   1      53.954  25.095  26.096  1.00  0.00     0.124 S 
ATOM     72  O   UNL A   1      54.454  26.106  25.172  1.00  0.00    -0.237 OA
ATOM     73  O   UNL A   1      54.503  25.142  27.447  1.00  0.00    -0.237 OA
ATOM     74  O   UNL A   1      53.796  23.755  25.538  1.00  0.00    -0.744 OA
ENDBRANCH  70  71
ENDBRANCH  38  63
ENDBRANCH  12  13
ENDBRANCH   5   7
ENDBRANCH   2   3
ENDBRANCH   1   2
BRANCH   1  75
ATOM     75  C   UNL A   1      32.707  29.400  26.278  1.00  0.00     0.118 C 
BRANCH  75  76
ATOM     76  N   UNL A   1      33.308  29.566  24.964  1.00  0.00    -0.352 N 
ATOM     77  C   UNL A   1      32.970  28.982  23.772  1.00  0.00     0.252 C 
ATOM     78  H   UNL A   1      34.071  30.188  24.926  1.00  0.00     0.163 HD
ATOM     79  O   UNL A   1      33.606  29.227  22.751  1.00  0.00    -0.269 OA
BRANCH  77  80
ATOM     80  C   UNL A   1      31.882  27.992  23.717  1.00  0.00     0.055 A 
ATOM     81  C   UNL A   1      32.271  26.650  23.675  1.00  0.00     0.038 A 
ATOM     82  C   UNL A   1      30.526  28.327  23.665  1.00  0.00     0.030 A 
ATOM     83  C   UNL A   1      31.297  25.645  23.631  1.00  0.00     0.097 A 
ATOM     84  C   UNL A   1      29.559  27.310  23.654  1.00  0.00     0.018 A 
ATOM     85  Br  UNL A   1      29.916  30.123  23.556  1.00  0.00    -0.050 Br
ATOM     86  C   UNL A   1      29.939  25.962  23.644  1.00  0.00     0.024 A 
BRANCH  83  87
ATOM     87  S   UNL A   1      31.888  23.963  23.602  1.00  0.00     0.318 S 
ATOM     88  O   UNL A   1      30.703  23.161  23.381  1.00  0.00    -0.192 OA
ATOM     89  O   UNL A   1      33.010  24.023  22.683  1.00  0.00    -0.192 OA
BRANCH  87  90
ATOM     90  O   UNL A   1      32.455  23.666  25.103  1.00  0.00    -0.134 OA
BRANCH  90  91
ATOM     91  N   UNL A   1      33.680  22.956  25.262  1.00  0.00    -0.127 N 
ATOM     92  C   UNL A   1      33.790  21.596  25.049  1.00  0.00     0.286 C 
ATOM     93  C   UNL A   1      34.698  23.819  25.664  1.00  0.00     0.286 C 
ATOM     94  O   UNL A   1      32.880  20.804  24.842  1.00  0.00    -0.266 OA
ATOM     95  C   UNL A   1      35.162  21.045  25.082  1.00  0.00     0.051 A 
ATOM     96  C   UNL A   1      36.056  23.222  25.748  1.00  0.00     0.051 A 
ATOM     97  O   UNL A   1      34.542  25.009  25.933  1.00  0.00    -0.266 OA
ATOM     98  C   UNL A   1      35.365  19.699  24.748  1.00  0.00     0.014 A 
ATOM     99  C   UNL A   1      36.238  21.870  25.429  1.00  0.00     0.007 A 
ATOM    100  C   UNL A   1      37.150  24.020  26.107  1.00  0.00     0.014 A 
ATOM    101  C   UNL A   1      36.648  19.164  24.754  1.00  0.00     0.001 A 
ATOM    102  C   UNL A   1      37.542  21.318  25.451  1.00  0.00    -0.017 A 
ATOM    103  C   UNL A   1      38.432  23.473  26.141  1.00  0.00     0.001 A 
ATOM    104  C   UNL A   1      37.730  19.969  25.106  1.00  0.00     0.009 A 
ATOM    105  C   UNL A   1      38.627  22.132  25.809  1.00  0.00     0.009 A 
ENDBRANCH  90  91
ENDBRANCH  87  90
ENDBRANCH  83  87
ENDBRANCH  77  80
ENDBRANCH  75  76
ENDBRANCH   1  75
TORSDOF 16
ENDMDL
MODEL 3
REMARK VINA RESULT:     -13.2      5.959     10.842
REMARK SMILES O=C(NCCCNC(=O)c1cc(S(=O)(=O)ON2C(=O)c3cccc4cccc(c34)C2=O)ccc1Br)c1ccc(-c2c3nc(c(-c4c(F)cc(S(=O)(=O)[O-])cc4F)c4ccc([nH]4)c(-c4c(F)cc(S(=O)(=O)[O-])cc4F)c4nc(c(-c5c(F)cc(S(=O)(=O)[O-])cc5F)c5ccc2[nH]5)C=C4)C=C3)cc1
REMARK SMILES IDX 5 1 4 2 3 3 1 4 2 5 36 7 37 8 101 9 38 10 100 11 39 12 40 13
REMARK SMILES IDX 41 14 94 15 42 16 99 17 93 18 95 19 43 20 98 21 92 22 91 23
REMARK SMILES IDX 44 25 78 26 57 27 77 28 58 29 61 30 76 31 96 32 59 33 60 34
REMARK SMILES IDX 75 36 97 37 62 38 45 39 46 40 55 41 47 42 48 43 54 44 56 45
REMARK SMILES IDX 49 46 50 47 51 48 52 49 53 50 79 51 80 52 89 53 81 54 82 55
REMARK SMILES IDX 88 56 90 57 83 58 84 59 85 60 86 61 87 62 63 63 64 64 73 65
REMARK SMILES IDX 65 66 66 67 72 68 74 69 67 70 68 71 69 72 70 73 71 74 6 75
REMARK SMILES IDX 7 76 8 77 9 79 10 80 11 81 34 82 12 83 33 84 35 85 32 86
REMARK SMILES IDX 13 87 14 88 15 89 16 90 17 91 18 92 30 93 19 94 20 95 28 96
REMARK SMILES IDX 31 97 21 98 29 99 27 100 22 101 24 102 26 103 23 104 25 105
REMARK H PARENT 3 6 95 24 61 35 7 78
REMARK Flexibility Score: inf
ROOT
ATOM      1  C   UNL A   1      33.318  28.340  26.529  1.00  0.00     0.042 C 
ENDROOT
BRANCH   1   2
ATOM      2  C   UNL A   1      34.648  28.620  27.219  1.00  0.00     0.118 C 
BRANCH   2   3
ATOM      3  N   UNL A   1      34.611  29.787  28.095  1.00  0.00    -0.352 N 
ATOM      4  O   UNL A   1      35.270  31.259  29.660  1.00  0.00    -0.269 OA
ATOM      5  C   UNL A   1      35.582  30.358  28.884  1.00  0.00     0.251 C 
ATOM      6  H   UNL A   1      33.740  30.245  28.125  1.00  0.00     0.163 HD
BRANCH   5   7
ATOM      7  C   UNL A   1      36.984  29.881  28.836  1.00  0.00     0.039 A 
ATOM      8  C   UNL A   1      37.581  29.284  29.944  1.00  0.00     0.014 A 
ATOM      9  C   UNL A   1      37.712  30.017  27.648  1.00  0.00     0.014 A 
ATOM     10  C   UNL A   1      38.944  29.014  29.934  1.00  0.00     0.010 A 
ATOM     11  C   UNL A   1      39.059  29.637  27.605  1.00  0.00     0.010 A 
ATOM     12  C   UNL A   1      39.703  29.180  28.764  1.00  0.00    -0.014 A 
BRANCH  12  13
ATOM     13  C   UNL A   1      41.152  28.841  28.789  1.00  0.00     0.031 A 
ATOM     14  C   UNL A   1      41.645  27.486  28.349  1.00  0.00     0.074 A 
ATOM     15  C   UNL A   1      42.035  29.791  29.154  1.00  0.00     0.049 A 
ATOM     16  N   UNL A   1      42.877  27.054  28.242  1.00  0.00    -0.248 NA
ATOM     17  C   UNL A   1      40.631  26.482  27.994  1.00  0.00     0.031 C 
ATOM     18  C   UNL A   1      41.680  31.136  29.618  1.00  0.00     0.029 A 
ATOM     19  N   UNL A   1      43.407  29.793  29.161  1.00  0.00    -0.354 N 
ATOM     20  C   UNL A   1      42.786  25.726  27.839  1.00  0.00     0.074 A 
ATOM     21  C   UNL A   1      41.376  25.415  27.739  1.00  0.00     0.031 C 
ATOM     22  C   UNL A   1      42.799  31.853  29.792  1.00  0.00     0.029 A 
ATOM     23  C   UNL A   1      43.952  31.005  29.515  1.00  0.00     0.049 A 
ATOM     24  H   UNL A   1      43.948  29.003  28.934  1.00  0.00     0.167 HD
ATOM     25  C   UNL A   1      43.786  24.850  27.569  1.00  0.00     0.037 A 
ATOM     26  C   UNL A   1      45.237  31.394  29.609  1.00  0.00     0.037 A 
ATOM     27  C   UNL A   1      45.188  25.177  27.634  1.00  0.00     0.049 A 
ATOM     28  C   UNL A   1      46.324  30.409  29.290  1.00  0.00     0.074 A 
ATOM     29  C   UNL A   1      46.274  24.373  27.333  1.00  0.00     0.029 A 
ATOM     30  N   UNL A   1      45.699  26.405  28.026  1.00  0.00    -0.354 N 
ATOM     31  N   UNL A   1      46.215  29.168  28.884  1.00  0.00    -0.248 NA
ATOM     32  C   UNL A   1      47.707  30.875  29.449  1.00  0.00     0.031 C 
ATOM     33  C   UNL A   1      47.443  25.102  27.580  1.00  0.00     0.029 A 
ATOM     34  C   UNL A   1      47.085  26.375  27.993  1.00  0.00     0.049 A 
ATOM     35  H   UNL A   1      45.158  27.185  28.289  1.00  0.00     0.167 HD
ATOM     36  C   UNL A   1      47.516  28.707  28.722  1.00  0.00     0.074 A 
ATOM     37  C   UNL A   1      48.394  29.811  29.059  1.00  0.00     0.031 C 
ATOM     38  C   UNL A   1      47.945  27.481  28.332  1.00  0.00     0.037 A 
BRANCH  25  39
ATOM     39  C   UNL A   1      43.401  23.444  27.197  1.00  0.00     0.058 A 
ATOM     40  C   UNL A   1      42.955  22.517  28.152  1.00  0.00     0.135 A 
ATOM     41  C   UNL A   1      43.448  23.027  25.856  1.00  0.00     0.135 A 
ATOM     42  F   UNL A   1      42.904  22.857  29.450  1.00  0.00    -0.206 F 
ATOM     43  C   UNL A   1      42.598  21.219  27.796  1.00  0.00     0.059 A 
ATOM     44  C   UNL A   1      43.072  21.741  25.474  1.00  0.00     0.059 A 
ATOM     45  F   UNL A   1      43.863  23.873  24.899  1.00  0.00    -0.206 F 
ATOM     46  C   UNL A   1      42.664  20.840  26.455  1.00  0.00     0.060 A 
BRANCH  46  47
ATOM     47  S   UNL A   1      42.206  19.150  26.009  1.00  0.00     0.124 S 
ATOM     48  O   UNL A   1      43.006  18.939  24.808  1.00  0.00    -0.237 OA
ATOM     49  O   UNL A   1      42.620  18.391  27.186  1.00  0.00    -0.237 OA
ATOM     50  O   UNL A   1      40.765  19.233  25.798  1.00  0.00    -0.744 OA
ENDBRANCH  46  47
ENDBRANCH  25  39
BRANCH  26  51
ATOM     51  C   UNL A   1      45.557  32.788  30.012  1.00  0.00     0.058 A 
ATOM     52  C   UNL A   1      45.723  33.130  31.361  1.00  0.00     0.135 A 
ATOM     53  C   UNL A   1      45.737  33.799  29.053  1.00  0.00     0.135 A 
ATOM     54  F   UNL A   1      45.557  32.200  32.314  1.00  0.00    -0.206 F 
ATOM     55  C   UNL A   1      46.047  34.426  31.750  1.00  0.00     0.059 A 
ATOM     56  C   UNL A   1      46.088  35.094  29.415  1.00  0.00     0.059 A 
ATOM     57  F   UNL A   1      45.606  33.517  27.747  1.00  0.00    -0.206 F 
ATOM     58  C   UNL A   1      46.232  35.400  30.767  1.00  0.00     0.060 A 
BRANCH  58  59
ATOM     59  S   UNL A   1      46.711  37.066  31.274  1.00  0.00     0.124 S 
ATOM     60  O   UNL A   1      45.430  37.627  31.687  1.00  0.00    -0.237 OA
ATOM     61  O   UNL A   1      47.667  36.801  32.344  1.00  0.00    -0.237 OA
ATOM     62  O   UNL A   1      47.286  37.632  30.057  1.00  0.00    -0.744 OA
ENDBRANCH  58  59
ENDBRANCH  26  51
BRANCH  38  63
ATOM     63  C   UNL A   1      49.429  27.281  28.224  1.00  0.00     0.058 A 
ATOM     64  C   UNL A   1      50.184  26.776  29.294  1.00  0.00     0.135 A 
ATOM     65  C   UNL A   1      50.101  27.582  27.028  1.00  0.00     0.135 A 
ATOM     66  F   UNL A   1      49.589  26.482  30.461  1.00  0.00    -0.206 F 
ATOM     67  C   UNL A   1      51.560  26.604  29.192  1.00  0.00     0.059 A 
ATOM     68  C   UNL A   1      51.474  27.394  26.897  1.00  0.00     0.059 A 
ATOM     69  F   UNL A   1      49.423  28.060  25.973  1.00  0.00    -0.206 F 
ATOM     70  C   UNL A   1      52.197  26.920  27.990  1.00  0.00     0.060 A 
BRANCH  70  71
ATOM     71  S   UNL A   1      53.982  26.680  27.863  1.00  0.00     0.124 S 
ATOM     72  O   UNL A   1      54.359  27.762  26.960  1.00  0.00    -0.237 OA
ATOM     73  O   UNL A   1      54.420  26.828  29.247  1.00  0.00    -0.237 OA
ATOM     74  O   UNL A   1      54.104  25.332  27.316  1.00  0.00    -0.744 OA
ENDBRANCH  70  71
ENDBRANCH  38  63
ENDBRANCH  12  13
ENDBRANCH   5   7
ENDBRANCH   2   3
ENDBRANCH   1   2
BRANCH   1  75
ATOM     75  C   UNL A   1      32.722  29.533  25.799  1.00  0.00     0.118 C 
BRANCH  75  76
ATOM     76  N   UNL A   1      33.170  29.641  24.419  1.00  0.00    -0.352 N 
ATOM     77  C   UNL A   1      32.721  28.985  23.304  1.00  0.00     0.252 C 
ATOM     78  H   UNL A   1      33.904  30.278  24.264  1.00  0.00     0.163 HD
ATOM     79  O   UNL A   1      33.235  29.187  22.208  1.00  0.00    -0.269 OA
BRANCH  77  80
ATOM     80  C   UNL A   1      31.665  27.966  23.421  1.00  0.00     0.055 A 
ATOM     81  C   UNL A   1      32.085  26.634  23.390  1.00  0.00     0.038 A 
ATOM     82  C   UNL A   1      30.302  28.266  23.518  1.00  0.00     0.030 A 
ATOM     83  C   UNL A   1      31.143  25.604  23.506  1.00  0.00     0.097 A 
ATOM     84  C   UNL A   1      29.372  27.226  23.666  1.00  0.00     0.018 A 
ATOM     85  Br  UNL A   1      29.631  30.039  23.407  1.00  0.00    -0.050 Br
ATOM     86  C   UNL A   1      29.788  25.888  23.668  1.00  0.00     0.024 A 
BRANCH  83  87
ATOM     87  S   UNL A   1      31.776  23.937  23.477  1.00  0.00     0.318 S 
ATOM     88  O   UNL A   1      30.614  23.107  23.240  1.00  0.00    -0.192 OA
ATOM     89  O   UNL A   1      32.906  24.029  22.571  1.00  0.00    -0.192 OA
BRANCH  87  90
ATOM     90  O   UNL A   1      32.333  23.649  24.983  1.00  0.00    -0.134 OA
BRANCH  90  91
ATOM     91  N   UNL A   1      33.528  22.892  25.156  1.00  0.00    -0.127 N 
ATOM     92  C   UNL A   1      33.577  21.522  24.984  1.00  0.00     0.286 C 
ATOM     93  C   UNL A   1      34.585  23.721  25.524  1.00  0.00     0.286 C 
ATOM     94  O   UNL A   1      32.631  20.765  24.808  1.00  0.00    -0.266 OA
ATOM     95  C   UNL A   1      34.924  20.913  25.024  1.00  0.00     0.051 A 
ATOM     96  C   UNL A   1      35.917  23.068  25.616  1.00  0.00     0.051 A 
ATOM     97  O   UNL A   1      34.484  24.924  25.756  1.00  0.00    -0.266 OA
ATOM     98  C   UNL A   1      35.066  19.549  24.731  1.00  0.00     0.014 A 
ATOM     99  C   UNL A   1      36.038  21.700  25.338  1.00  0.00     0.007 A 
ATOM    100  C   UNL A   1      37.048  23.828  25.943  1.00  0.00     0.014 A 
ATOM    101  C   UNL A   1      36.324  18.959  24.745  1.00  0.00     0.001 A 
ATOM    102  C   UNL A   1      37.317  21.092  25.368  1.00  0.00    -0.017 A 
ATOM    103  C   UNL A   1      38.306  23.226  25.985  1.00  0.00     0.001 A 
ATOM    104  C   UNL A   1      37.443  19.727  25.064  1.00  0.00     0.009 A 
ATOM    105  C   UNL A   1      38.439  21.868  25.694  1.00  0.00     0.009 A 
ENDBRANCH  90  91
ENDBRANCH  87  90
ENDBRANCH  83  87
ENDBRANCH  77  80
ENDBRANCH  75  76
ENDBRANCH   1  75
TORSDOF 16
ENDMDL
