MODEL 1
REMARK VINA RESULT:     -10.2      0.000      0.000
REMARK SMILES CC(C)[C@@H](CC(=O)NCCCNC(=O)c1ccc(-c2c3nc(c(-c4c(F)cc(S(=O)(=O)[O-])cc4F)c4ccc([nH]4)c(-c4c(F)cc(S(=O)(=O)[O-])cc4F)c4nc(c(-c5c(F)cc(S(=O)(=O)[O-])cc5F)c5ccc2[nH]5)C=C4)C=C3)cc1)NC(=O)OCc1ccccc1
REMARK SMILES IDX 9 1 8 2 6 3 7 4 5 6 4 7 2 8 1 9 3 10 81 11 82 12 83 14 84 15
REMARK SMILES IDX 85 16 86 17 87 18 91 19 88 20 90 21 89 22 10 23 11 24 12 25
REMARK SMILES IDX 13 26 14 28 15 29 16 30 80 31 17 32 79 33 18 34 19 35 20 36
REMARK SMILES IDX 73 37 21 38 78 39 72 40 74 41 22 42 77 43 71 44 70 45 23 47
REMARK SMILES IDX 57 48 36 49 56 50 37 51 40 52 55 53 75 54 38 55 39 56 54 58
REMARK SMILES IDX 76 59 41 60 24 61 25 62 34 63 26 64 27 65 33 66 35 67 28 68
REMARK SMILES IDX 29 69 30 70 31 71 32 72 58 73 59 74 68 75 60 76 61 77 67 78
REMARK SMILES IDX 69 79 62 80 63 81 64 82 65 83 66 84 42 85 43 86 52 87 44 88
REMARK SMILES IDX 45 89 51 90 53 91 46 92 47 93 48 94 49 95 50 96
REMARK H PARENT 8 5 81 13 12 27 74 46 40 57
REMARK Flexibility Score: inf
ROOT
ATOM      1  C   UNL A   1      33.092  28.445  24.748  1.00  0.00     0.117 C 
ENDROOT
BRANCH   1   2
ATOM      2  N   UNL A   1      33.500  28.064  23.410  1.00  0.00    -0.356 N 
ATOM      3  C   UNL A   1      33.126  27.010  22.638  1.00  0.00     0.222 C 
ATOM      4  O   UNL A   1      33.705  26.863  21.559  1.00  0.00    -0.275 OA
ATOM      5  H   UNL A   1      34.154  28.669  22.991  1.00  0.00     0.163 HD
BRANCH   3   6
ATOM      6  C   UNL A   1      32.016  26.059  23.056  1.00  0.00     0.125 C 
BRANCH   6   7
ATOM      7  C   UNL A   1      32.413  24.846  23.929  1.00  0.00     0.097 C 
BRANCH   7   8
ATOM      8  C   UNL A   1      32.471  23.493  23.176  1.00  0.00     0.006 C 
ATOM      9  C   UNL A   1      33.883  23.087  22.750  1.00  0.00     0.009 C 
ATOM     10  C   UNL A   1      31.802  22.313  23.888  1.00  0.00     0.009 C 
ENDBRANCH   7   8
BRANCH   7  11
ATOM     11  N   UNL A   1      31.558  24.742  25.106  1.00  0.00    -0.318 N 
ATOM     12  C   UNL A   1      31.954  24.385  26.362  1.00  0.00     0.407 C 
ATOM     13  H   UNL A   1      30.603  24.950  24.983  1.00  0.00     0.167 HD
ATOM     14  O   UNL A   1      31.147  24.131  27.242  1.00  0.00    -0.225 OA
BRANCH  12  15
ATOM     15  O   UNL A   1      33.302  24.399  26.497  1.00  0.00    -0.445 OA
BRANCH  15  16
ATOM     16  C   UNL A   1      33.888  23.156  26.898  1.00  0.00     0.270 C 
BRANCH  16  17
ATOM     17  C   UNL A   1      35.127  22.788  26.108  1.00  0.00    -0.011 A 
ATOM     18  C   UNL A   1      35.345  21.441  25.782  1.00  0.00     0.007 A 
ATOM     19  C   UNL A   1      36.088  23.736  25.723  1.00  0.00     0.007 A 
ATOM     20  C   UNL A   1      36.519  21.049  25.137  1.00  0.00     0.000 A 
ATOM     21  C   UNL A   1      37.270  23.340  25.096  1.00  0.00     0.000 A 
ATOM     22  C   UNL A   1      37.487  21.996  24.809  1.00  0.00     0.000 A 
ENDBRANCH  16  17
ENDBRANCH  15  16
ENDBRANCH  12  15
ENDBRANCH   7  11
ENDBRANCH   6   7
ENDBRANCH   3   6
ENDBRANCH   1   2
BRANCH   1  23
ATOM     23  C   UNL A   1      34.089  27.932  25.783  1.00  0.00     0.042 C 
BRANCH  23  24
ATOM     24  C   UNL A   1      33.691  28.183  27.219  1.00  0.00     0.118 C 
BRANCH  24  25
ATOM     25  N   UNL A   1      33.549  29.596  27.505  1.00  0.00    -0.352 N 
ATOM     26  C   UNL A   1      34.438  30.468  28.085  1.00  0.00     0.251 C 
ATOM     27  H   UNL A   1      32.686  29.991  27.243  1.00  0.00     0.163 HD
ATOM     28  O   UNL A   1      34.027  31.568  28.448  1.00  0.00    -0.269 OA
BRANCH  26  29
ATOM     29  C   UNL A   1      35.860  30.098  28.287  1.00  0.00     0.039 A 
ATOM     30  C   UNL A   1      36.274  29.702  29.562  1.00  0.00     0.014 A 
ATOM     31  C   UNL A   1      36.803  30.192  27.259  1.00  0.00     0.014 A 
ATOM     32  C   UNL A   1      37.616  29.395  29.794  1.00  0.00     0.010 A 
ATOM     33  C   UNL A   1      38.108  29.756  27.458  1.00  0.00     0.010 A 
ATOM     34  C   UNL A   1      38.545  29.407  28.741  1.00  0.00    -0.014 A 
BRANCH  34  35
ATOM     35  C   UNL A   1      39.987  29.151  28.983  1.00  0.00     0.031 A 
ATOM     36  C   UNL A   1      40.577  27.803  28.649  1.00  0.00     0.074 A 
ATOM     37  C   UNL A   1      40.760  30.119  29.513  1.00  0.00     0.049 A 
ATOM     38  N   UNL A   1      41.808  27.380  28.792  1.00  0.00    -0.248 NA
ATOM     39  C   UNL A   1      39.658  26.783  28.115  1.00  0.00     0.031 C 
ATOM     40  C   UNL A   1      40.291  31.442  29.932  1.00  0.00     0.029 A 
ATOM     41  N   UNL A   1      42.103  30.141  29.789  1.00  0.00    -0.354 N 
ATOM     42  C   UNL A   1      41.802  26.053  28.375  1.00  0.00     0.074 A 
ATOM     43  C   UNL A   1      40.435  25.714  28.057  1.00  0.00     0.031 C 
ATOM     44  C   UNL A   1      41.335  32.157  30.379  1.00  0.00     0.029 A 
ATOM     45  C   UNL A   1      42.538  31.334  30.315  1.00  0.00     0.049 A 
ATOM     46  H   UNL A   1      42.699  29.375  29.627  1.00  0.00     0.167 HD
ATOM     47  C   UNL A   1      42.847  25.203  28.231  1.00  0.00     0.037 A 
ATOM     48  C   UNL A   1      43.769  31.721  30.702  1.00  0.00     0.037 A 
ATOM     49  C   UNL A   1      44.209  25.556  28.532  1.00  0.00     0.049 A 
ATOM     50  C   UNL A   1      44.918  30.765  30.528  1.00  0.00     0.074 A 
ATOM     51  C   UNL A   1      45.351  24.789  28.387  1.00  0.00     0.029 A 
ATOM     52  N   UNL A   1      44.613  26.783  29.038  1.00  0.00    -0.354 N 
ATOM     53  N   UNL A   1      44.906  29.533  30.075  1.00  0.00    -0.248 NA
ATOM     54  C   UNL A   1      46.250  31.255  30.900  1.00  0.00     0.031 C 
ATOM     55  C   UNL A   1      46.438  25.534  28.855  1.00  0.00     0.029 A 
ATOM     56  C   UNL A   1      45.984  26.790  29.229  1.00  0.00     0.049 A 
ATOM     57  H   UNL A   1      44.012  27.538  29.235  1.00  0.00     0.167 HD
ATOM     58  C   UNL A   1      46.231  29.111  30.079  1.00  0.00     0.074 A 
ATOM     59  C   UNL A   1      47.018  30.227  30.564  1.00  0.00     0.031 C 
ATOM     60  C   UNL A   1      46.751  27.913  29.711  1.00  0.00     0.037 A 
BRANCH  47  61
ATOM     61  C   UNL A   1      42.552  23.816  27.718  1.00  0.00     0.058 A 
ATOM     62  C   UNL A   1      42.479  23.537  26.342  1.00  0.00     0.135 A 
ATOM     63  C   UNL A   1      42.351  22.749  28.608  1.00  0.00     0.135 A 
ATOM     64  F   UNL A   1      42.646  24.520  25.441  1.00  0.00    -0.206 F 
ATOM     65  C   UNL A   1      42.179  22.263  25.869  1.00  0.00     0.059 A 
ATOM     66  C   UNL A   1      42.086  21.458  28.156  1.00  0.00     0.059 A 
ATOM     67  F   UNL A   1      42.407  22.954  29.933  1.00  0.00    -0.206 F 
ATOM     68  C   UNL A   1      41.983  21.230  26.785  1.00  0.00     0.060 A 
BRANCH  68  69
ATOM     69  S   UNL A   1      41.594  19.584  26.153  1.00  0.00     0.124 S 
ATOM     70  O   UNL A   1      41.935  18.745  27.299  1.00  0.00    -0.237 OA
ATOM     71  O   UNL A   1      40.171  19.695  25.852  1.00  0.00    -0.237 OA
ATOM     72  O   UNL A   1      42.470  19.447  24.994  1.00  0.00    -0.744 OA
ENDBRANCH  68  69
ENDBRANCH  47  61
BRANCH  48  73
ATOM     73  C   UNL A   1      43.974  33.083  31.263  1.00  0.00     0.058 A 
ATOM     74  C   UNL A   1      44.112  34.204  30.430  1.00  0.00     0.135 A 
ATOM     75  C   UNL A   1      44.006  33.296  32.651  1.00  0.00     0.135 A 
ATOM     76  F   UNL A   1      44.090  34.054  29.096  1.00  0.00    -0.206 F 
ATOM     77  C   UNL A   1      44.291  35.482  30.949  1.00  0.00     0.059 A 
ATOM     78  C   UNL A   1      44.154  34.568  33.194  1.00  0.00     0.059 A 
ATOM     79  F   UNL A   1      43.860  32.262  33.493  1.00  0.00    -0.206 F 
ATOM     80  C   UNL A   1      44.305  35.655  32.335  1.00  0.00     0.060 A 
BRANCH  80  81
ATOM     81  S   UNL A   1      44.481  37.325  32.998  1.00  0.00     0.124 S 
ATOM     82  O   UNL A   1      45.636  37.174  33.875  1.00  0.00    -0.237 OA
ATOM     83  O   UNL A   1      44.696  38.113  31.788  1.00  0.00    -0.237 OA
ATOM     84  O   UNL A   1      43.205  37.555  33.669  1.00  0.00    -0.744 OA
ENDBRANCH  80  81
ENDBRANCH  48  73
BRANCH  60  85
ATOM     85  C   UNL A   1      48.247  27.761  29.773  1.00  0.00     0.058 A 
ATOM     86  C   UNL A   1      48.899  27.274  30.917  1.00  0.00     0.135 A 
ATOM     87  C   UNL A   1      49.035  28.076  28.653  1.00  0.00     0.135 A 
ATOM     88  F   UNL A   1      48.195  26.960  32.016  1.00  0.00    -0.206 F 
ATOM     89  C   UNL A   1      50.284  27.146  30.963  1.00  0.00     0.059 A 
ATOM     90  C   UNL A   1      50.417  27.920  28.665  1.00  0.00     0.059 A 
ATOM     91  F   UNL A   1      48.462  28.530  27.527  1.00  0.00    -0.206 F 
ATOM     92  C   UNL A   1      51.034  27.472  29.832  1.00  0.00     0.060 A 
BRANCH  92  93
ATOM     93  S   UNL A   1      52.828  27.292  29.903  1.00  0.00     0.124 S 
ATOM     94  O   UNL A   1      53.213  28.483  30.652  1.00  0.00    -0.237 OA
ATOM     95  O   UNL A   1      52.986  26.022  30.605  1.00  0.00    -0.237 OA
ATOM     96  O   UNL A   1      53.225  27.279  28.498  1.00  0.00    -0.744 OA
ENDBRANCH  92  93
ENDBRANCH  60  85
ENDBRANCH  34  35
ENDBRANCH  26  29
ENDBRANCH  24  25
ENDBRANCH  23  24
ENDBRANCH   1  23
TORSDOF 19
ENDMDL
MODEL 2
REMARK VINA RESULT:     -10.2      1.408      8.451
REMARK SMILES CC(C)[C@@H](CC(=O)NCCCNC(=O)c1ccc(-c2c3nc(c(-c4c(F)cc(S(=O)(=O)[O-])cc4F)c4ccc([nH]4)c(-c4c(F)cc(S(=O)(=O)[O-])cc4F)c4nc(c(-c5c(F)cc(S(=O)(=O)[O-])cc5F)c5ccc2[nH]5)C=C4)C=C3)cc1)NC(=O)OCc1ccccc1
REMARK SMILES IDX 9 1 8 2 6 3 7 4 5 6 4 7 2 8 1 9 3 10 81 11 82 12 83 14 84 15
REMARK SMILES IDX 85 16 86 17 87 18 91 19 88 20 90 21 89 22 10 23 11 24 12 25
REMARK SMILES IDX 13 26 14 28 15 29 16 30 80 31 17 32 79 33 18 34 19 35 20 36
REMARK SMILES IDX 73 37 21 38 78 39 72 40 74 41 22 42 77 43 71 44 70 45 23 47
REMARK SMILES IDX 57 48 36 49 56 50 37 51 40 52 55 53 75 54 38 55 39 56 54 58
REMARK SMILES IDX 76 59 41 60 24 61 25 62 34 63 26 64 27 65 33 66 35 67 28 68
REMARK SMILES IDX 29 69 30 70 31 71 32 72 58 73 59 74 68 75 60 76 61 77 67 78
REMARK SMILES IDX 69 79 62 80 63 81 64 82 65 83 66 84 42 85 43 86 52 87 44 88
REMARK SMILES IDX 45 89 51 90 53 91 46 92 47 93 48 94 49 95 50 96
REMARK H PARENT 8 5 81 13 12 27 74 46 40 57
REMARK Flexibility Score: inf
ROOT
ATOM      1  C   UNL A   1      31.767  27.853  26.335  1.00  0.00     0.117 C 
ENDROOT
BRANCH   1   2
ATOM      2  N   UNL A   1      31.001  26.693  26.745  1.00  0.00    -0.356 N 
ATOM      3  C   UNL A   1      30.729  25.535  26.086  1.00  0.00     0.222 C 
ATOM      4  O   UNL A   1      29.960  24.740  26.633  1.00  0.00    -0.275 OA
ATOM      5  H   UNL A   1      30.615  26.753  27.649  1.00  0.00     0.163 HD
BRANCH   3   6
ATOM      6  C   UNL A   1      31.364  25.202  24.746  1.00  0.00     0.125 C 
BRANCH   6   7
ATOM      7  C   UNL A   1      32.466  24.118  24.734  1.00  0.00     0.097 C 
BRANCH   7   8
ATOM      8  C   UNL A   1      33.578  24.332  23.678  1.00  0.00     0.006 C 
ATOM      9  C   UNL A   1      33.525  23.335  22.519  1.00  0.00     0.009 C 
ATOM     10  C   UNL A   1      33.687  25.753  23.114  1.00  0.00     0.009 C 
ENDBRANCH   7   8
BRANCH   7  11
ATOM     11  N   UNL A   1      31.889  22.783  24.610  1.00  0.00    -0.318 N 
ATOM     12  C   UNL A   1      32.085  21.737  25.464  1.00  0.00     0.407 C 
ATOM     13  H   UNL A   1      31.302  22.622  23.836  1.00  0.00     0.167 HD
ATOM     14  O   UNL A   1      31.729  20.604  25.183  1.00  0.00    -0.225 OA
BRANCH  12  15
ATOM     15  O   UNL A   1      32.659  22.126  26.628  1.00  0.00    -0.445 OA
BRANCH  15  16
ATOM     16  C   UNL A   1      33.894  21.477  26.946  1.00  0.00     0.270 C 
BRANCH  16  17
ATOM     17  C   UNL A   1      35.078  22.016  26.171  1.00  0.00    -0.011 A 
ATOM     18  C   UNL A   1      35.682  21.198  25.205  1.00  0.00     0.007 A 
ATOM     19  C   UNL A   1      35.623  23.288  26.408  1.00  0.00     0.007 A 
ATOM     20  C   UNL A   1      36.831  21.622  24.535  1.00  0.00     0.000 A 
ATOM     21  C   UNL A   1      36.782  23.702  25.753  1.00  0.00     0.000 A 
ATOM     22  C   UNL A   1      37.389  22.866  24.821  1.00  0.00     0.000 A 
ENDBRANCH  16  17
ENDBRANCH  15  16
ENDBRANCH  12  15
ENDBRANCH   7  11
ENDBRANCH   6   7
ENDBRANCH   3   6
ENDBRANCH   1   2
BRANCH   1  23
ATOM     23  C   UNL A   1      33.199  27.767  26.856  1.00  0.00     0.042 C 
BRANCH  23  24
ATOM     24  C   UNL A   1      34.105  28.885  26.394  1.00  0.00     0.118 C 
BRANCH  24  25
ATOM     25  N   UNL A   1      33.924  30.090  27.178  1.00  0.00    -0.352 N 
ATOM     26  C   UNL A   1      34.730  30.638  28.145  1.00  0.00     0.251 C 
ATOM     27  H   UNL A   1      33.098  30.592  26.988  1.00  0.00     0.163 HD
ATOM     28  O   UNL A   1      34.274  31.536  28.848  1.00  0.00    -0.269 OA
BRANCH  26  29
ATOM     29  C   UNL A   1      36.117  30.157  28.355  1.00  0.00     0.039 A 
ATOM     30  C   UNL A   1      36.461  29.628  29.602  1.00  0.00     0.014 A 
ATOM     31  C   UNL A   1      37.099  30.273  27.366  1.00  0.00     0.014 A 
ATOM     32  C   UNL A   1      37.772  29.213  29.845  1.00  0.00     0.010 A 
ATOM     33  C   UNL A   1      38.365  29.735  27.564  1.00  0.00     0.010 A 
ATOM     34  C   UNL A   1      38.735  29.250  28.823  1.00  0.00    -0.014 A 
BRANCH  34  35
ATOM     35  C   UNL A   1      40.149  28.878  29.084  1.00  0.00     0.031 A 
ATOM     36  C   UNL A   1      41.074  29.866  29.751  1.00  0.00     0.074 A 
ATOM     37  C   UNL A   1      40.603  27.667  28.710  1.00  0.00     0.049 A 
ATOM     38  N   UNL A   1      42.340  29.737  30.058  1.00  0.00    -0.248 NA
ATOM     39  C   UNL A   1      40.514  31.187  30.088  1.00  0.00     0.031 C 
ATOM     40  C   UNL A   1      39.819  26.651  28.004  1.00  0.00     0.029 A 
ATOM     41  N   UNL A   1      41.832  27.083  28.872  1.00  0.00    -0.354 N 
ATOM     42  C   UNL A   1      42.722  30.954  30.612  1.00  0.00     0.074 A 
ATOM     43  C   UNL A   1      41.582  31.837  30.521  1.00  0.00     0.031 C 
ATOM     44  C   UNL A   1      40.576  25.557  27.825  1.00  0.00     0.029 A 
ATOM     45  C   UNL A   1      41.908  25.806  28.367  1.00  0.00     0.049 A 
ATOM     46  H   UNL A   1      42.591  27.535  29.308  1.00  0.00     0.167 HD
ATOM     47  C   UNL A   1      43.901  31.296  31.184  1.00  0.00     0.037 A 
ATOM     48  C   UNL A   1      42.936  24.935  28.345  1.00  0.00     0.037 A 
ATOM     49  C   UNL A   1      45.024  30.402  31.288  1.00  0.00     0.049 A 
ATOM     50  C   UNL A   1      44.236  25.331  28.990  1.00  0.00     0.074 A 
ATOM     51  C   UNL A   1      46.254  30.628  31.880  1.00  0.00     0.029 A 
ATOM     52  N   UNL A   1      45.053  29.108  30.787  1.00  0.00    -0.354 N 
ATOM     53  N   UNL A   1      44.562  26.465  29.565  1.00  0.00    -0.248 NA
ATOM     54  C   UNL A   1      45.304  24.324  29.001  1.00  0.00     0.031 C 
ATOM     55  C   UNL A   1      47.043  29.489  31.692  1.00  0.00     0.029 A 
ATOM     56  C   UNL A   1      46.284  28.528  31.041  1.00  0.00     0.049 A 
ATOM     57  H   UNL A   1      44.307  28.667  30.319  1.00  0.00     0.167 HD
ATOM     58  C   UNL A   1      45.861  26.298  30.032  1.00  0.00     0.074 A 
ATOM     59  C   UNL A   1      46.253  24.946  29.687  1.00  0.00     0.031 C 
ATOM     60  C   UNL A   1      46.655  27.179  30.691  1.00  0.00     0.037 A 
BRANCH  47  61
ATOM     61  C   UNL A   1      44.027  32.689  31.745  1.00  0.00     0.058 A 
ATOM     62  C   UNL A   1      43.717  32.977  33.085  1.00  0.00     0.135 A 
ATOM     63  C   UNL A   1      44.473  33.750  30.940  1.00  0.00     0.135 A 
ATOM     64  F   UNL A   1      43.268  32.009  33.900  1.00  0.00    -0.206 F 
ATOM     65  C   UNL A   1      43.806  34.270  33.595  1.00  0.00     0.059 A 
ATOM     66  C   UNL A   1      44.605  35.044  31.439  1.00  0.00     0.059 A 
ATOM     67  F   UNL A   1      44.783  33.536  29.652  1.00  0.00    -0.206 F 
ATOM     68  C   UNL A   1      44.250  35.296  32.763  1.00  0.00     0.060 A 
BRANCH  68  69
ATOM     69  S   UNL A   1      44.358  36.966  33.441  1.00  0.00     0.124 S 
ATOM     70  O   UNL A   1      43.023  37.483  33.155  1.00  0.00    -0.237 OA
ATOM     71  O   UNL A   1      44.651  36.712  34.847  1.00  0.00    -0.237 OA
ATOM     72  O   UNL A   1      45.442  37.575  32.676  1.00  0.00    -0.744 OA
ENDBRANCH  68  69
ENDBRANCH  47  61
BRANCH  48  73
ATOM     73  C   UNL A   1      42.759  23.600  27.714  1.00  0.00     0.058 A 
ATOM     74  C   UNL A   1      42.928  23.416  26.334  1.00  0.00     0.135 A 
ATOM     75  C   UNL A   1      42.447  22.470  28.489  1.00  0.00     0.135 A 
ATOM     76  F   UNL A   1      43.225  24.463  25.549  1.00  0.00    -0.206 F 
ATOM     77  C   UNL A   1      42.776  22.167  25.740  1.00  0.00     0.059 A 
ATOM     78  C   UNL A   1      42.321  21.206  27.922  1.00  0.00     0.059 A 
ATOM     79  F   UNL A   1      42.294  22.586  29.817  1.00  0.00    -0.206 F 
ATOM     80  C   UNL A   1      42.478  21.065  26.545  1.00  0.00     0.060 A 
BRANCH  80  81
ATOM     81  S   UNL A   1      42.341  19.439  25.772  1.00  0.00     0.124 S 
ATOM     82  O   UNL A   1      42.706  18.557  26.875  1.00  0.00    -0.237 OA
ATOM     83  O   UNL A   1      40.939  19.410  25.369  1.00  0.00    -0.237 OA
ATOM     84  O   UNL A   1      43.300  19.507  24.674  1.00  0.00    -0.744 OA
ENDBRANCH  80  81
ENDBRANCH  48  73
BRANCH  60  85
ATOM     85  C   UNL A   1      48.012  26.694  31.125  1.00  0.00     0.058 A 
ATOM     86  C   UNL A   1      48.228  26.111  32.384  1.00  0.00     0.135 A 
ATOM     87  C   UNL A   1      49.107  26.785  30.249  1.00  0.00     0.135 A 
ATOM     88  F   UNL A   1      47.218  26.001  33.261  1.00  0.00    -0.206 F 
ATOM     89  C   UNL A   1      49.489  25.674  32.774  1.00  0.00     0.059 A 
ATOM     90  C   UNL A   1      50.369  26.320  30.606  1.00  0.00     0.059 A 
ATOM     91  F   UNL A   1      48.954  27.319  29.027  1.00  0.00    -0.206 F 
ATOM     92  C   UNL A   1      50.554  25.784  31.879  1.00  0.00     0.060 A 
BRANCH  92  93
ATOM     93  S   UNL A   1      52.183  25.205  32.395  1.00  0.00     0.124 S 
ATOM     94  O   UNL A   1      52.013  23.758  32.336  1.00  0.00    -0.237 OA
ATOM     95  O   UNL A   1      53.055  25.783  31.377  1.00  0.00    -0.237 OA
ATOM     96  O   UNL A   1      52.336  25.766  33.734  1.00  0.00    -0.744 OA
ENDBRANCH  92  93
ENDBRANCH  60  85
ENDBRANCH  34  35
ENDBRANCH  26  29
ENDBRANCH  24  25
ENDBRANCH  23  24
ENDBRANCH   1  23
TORSDOF 19
ENDMDL
MODEL 3
REMARK VINA RESULT:     -10.1      3.058      8.492
REMARK SMILES CC(C)[C@@H](CC(=O)NCCCNC(=O)c1ccc(-c2c3nc(c(-c4c(F)cc(S(=O)(=O)[O-])cc4F)c4ccc([nH]4)c(-c4c(F)cc(S(=O)(=O)[O-])cc4F)c4nc(c(-c5c(F)cc(S(=O)(=O)[O-])cc5F)c5ccc2[nH]5)C=C4)C=C3)cc1)NC(=O)OCc1ccccc1
REMARK SMILES IDX 9 1 8 2 6 3 7 4 5 6 4 7 2 8 1 9 3 10 81 11 82 12 83 14 84 15
REMARK SMILES IDX 85 16 86 17 87 18 91 19 88 20 90 21 89 22 10 23 11 24 12 25
REMARK SMILES IDX 13 26 14 28 15 29 16 30 80 31 17 32 79 33 18 34 19 35 20 36
REMARK SMILES IDX 73 37 21 38 78 39 72 40 74 41 22 42 77 43 71 44 70 45 23 47
REMARK SMILES IDX 57 48 36 49 56 50 37 51 40 52 55 53 75 54 38 55 39 56 54 58
REMARK SMILES IDX 76 59 41 60 24 61 25 62 34 63 26 64 27 65 33 66 35 67 28 68
REMARK SMILES IDX 29 69 30 70 31 71 32 72 58 73 59 74 68 75 60 76 61 77 67 78
REMARK SMILES IDX 69 79 62 80 63 81 64 82 65 83 66 84 42 85 43 86 52 87 44 88
REMARK SMILES IDX 45 89 51 90 53 91 46 92 47 93 48 94 49 95 50 96
REMARK H PARENT 8 5 81 13 12 27 74 46 40 57
REMARK Flexibility Score: inf
ROOT
ATOM      1  C   UNL A   1      32.915  28.193  24.306  1.00  0.00     0.117 C 
ENDROOT
BRANCH   1   2
ATOM      2  N   UNL A   1      33.302  27.745  22.983  1.00  0.00    -0.356 N 
ATOM      3  C   UNL A   1      33.006  26.598  22.317  1.00  0.00     0.222 C 
ATOM      4  O   UNL A   1      33.551  26.420  21.225  1.00  0.00    -0.275 OA
ATOM      5  H   UNL A   1      33.873  28.374  22.486  1.00  0.00     0.163 HD
BRANCH   3   6
ATOM      6  C   UNL A   1      32.018  25.580  22.864  1.00  0.00     0.125 C 
BRANCH   6   7
ATOM      7  C   UNL A   1      32.537  24.595  23.936  1.00  0.00     0.097 C 
BRANCH   7   8
ATOM      8  C   UNL A   1      32.841  23.168  23.416  1.00  0.00     0.006 C 
ATOM      9  C   UNL A   1      31.599  22.285  23.280  1.00  0.00     0.009 C 
ATOM     10  C   UNL A   1      33.652  23.099  22.117  1.00  0.00     0.009 C 
ENDBRANCH   7   8
BRANCH   7  11
ATOM     11  N   UNL A   1      31.635  24.542  25.082  1.00  0.00    -0.318 N 
ATOM     12  C   UNL A   1      31.991  24.311  26.379  1.00  0.00     0.407 C 
ATOM     13  H   UNL A   1      30.677  24.688  24.903  1.00  0.00     0.167 HD
ATOM     14  O   UNL A   1      31.159  24.086  27.243  1.00  0.00    -0.225 OA
BRANCH  12  15
ATOM     15  O   UNL A   1      33.329  24.407  26.568  1.00  0.00    -0.445 OA
BRANCH  15  16
ATOM     16  C   UNL A   1      33.973  23.204  26.999  1.00  0.00     0.270 C 
BRANCH  16  17
ATOM     17  C   UNL A   1      35.085  22.749  26.077  1.00  0.00    -0.011 A 
ATOM     18  C   UNL A   1      35.215  21.380  25.800  1.00  0.00     0.007 A 
ATOM     19  C   UNL A   1      36.017  23.637  25.518  1.00  0.00     0.007 A 
ATOM     20  C   UNL A   1      36.280  20.910  25.030  1.00  0.00     0.000 A 
ATOM     21  C   UNL A   1      37.092  23.165  24.766  1.00  0.00     0.000 A 
ATOM     22  C   UNL A   1      37.227  21.801  24.527  1.00  0.00     0.000 A 
ENDBRANCH  16  17
ENDBRANCH  15  16
ENDBRANCH  12  15
ENDBRANCH   7  11
ENDBRANCH   6   7
ENDBRANCH   3   6
ENDBRANCH   1   2
BRANCH   1  23
ATOM     23  C   UNL A   1      33.891  27.675  25.359  1.00  0.00     0.042 C 
BRANCH  23  24
ATOM     24  C   UNL A   1      33.635  28.185  26.759  1.00  0.00     0.118 C 
BRANCH  24  25
ATOM     25  N   UNL A   1      33.560  29.631  26.805  1.00  0.00    -0.352 N 
ATOM     26  C   UNL A   1      34.362  30.532  27.461  1.00  0.00     0.251 C 
ATOM     27  H   UNL A   1      32.821  30.027  26.288  1.00  0.00     0.163 HD
ATOM     28  O   UNL A   1      33.979  31.695  27.558  1.00  0.00    -0.269 OA
BRANCH  26  29
ATOM     29  C   UNL A   1      35.657  30.120  28.056  1.00  0.00     0.039 A 
ATOM     30  C   UNL A   1      35.663  29.605  29.355  1.00  0.00     0.014 A 
ATOM     31  C   UNL A   1      36.869  30.286  27.380  1.00  0.00     0.014 A 
ATOM     32  C   UNL A   1      36.872  29.255  29.960  1.00  0.00     0.010 A 
ATOM     33  C   UNL A   1      38.054  29.811  27.930  1.00  0.00     0.010 A 
ATOM     34  C   UNL A   1      38.079  29.343  29.248  1.00  0.00    -0.014 A 
BRANCH  34  35
ATOM     35  C   UNL A   1      39.380  29.041  29.897  1.00  0.00     0.031 A 
ATOM     36  C   UNL A   1      39.809  29.820  31.116  1.00  0.00     0.074 A 
ATOM     37  C   UNL A   1      40.178  28.083  29.386  1.00  0.00     0.049 A 
ATOM     38  N   UNL A   1      40.907  29.713  31.822  1.00  0.00    -0.248 NA
ATOM     39  C   UNL A   1      38.902  30.881  31.587  1.00  0.00     0.031 C 
ATOM     40  C   UNL A   1      39.898  27.305  28.178  1.00  0.00     0.029 A 
ATOM     41  N   UNL A   1      41.385  27.600  29.819  1.00  0.00    -0.354 N 
ATOM     42  C   UNL A   1      40.821  30.694  32.805  1.00  0.00     0.074 A 
ATOM     43  C   UNL A   1      39.610  31.440  32.555  1.00  0.00     0.031 C 
ATOM     44  C   UNL A   1      40.888  26.419  27.987  1.00  0.00     0.029 A 
ATOM     45  C   UNL A   1      41.890  26.591  29.033  1.00  0.00     0.049 A 
ATOM     46  H   UNL A   1      41.849  27.943  30.618  1.00  0.00     0.167 HD
ATOM     47  C   UNL A   1      41.653  30.927  33.848  1.00  0.00     0.037 A 
ATOM     48  C   UNL A   1      43.031  25.884  29.145  1.00  0.00     0.037 A 
ATOM     49  C   UNL A   1      42.848  30.165  34.100  1.00  0.00     0.049 A 
ATOM     50  C   UNL A   1      43.941  26.154  30.313  1.00  0.00     0.074 A 
ATOM     51  C   UNL A   1      43.744  30.288  35.146  1.00  0.00     0.029 A 
ATOM     52  N   UNL A   1      43.311  29.134  33.295  1.00  0.00    -0.354 N 
ATOM     53  N   UNL A   1      43.814  27.044  31.270  1.00  0.00    -0.248 NA
ATOM     54  C   UNL A   1      45.137  25.313  30.430  1.00  0.00     0.031 C 
ATOM     55  C   UNL A   1      44.777  29.366  34.945  1.00  0.00     0.029 A 
ATOM     56  C   UNL A   1      44.490  28.622  33.810  1.00  0.00     0.049 A 
ATOM     57  H   UNL A   1      42.867  28.814  32.476  1.00  0.00     0.167 HD
ATOM     58  C   UNL A   1      44.899  26.851  32.118  1.00  0.00     0.074 A 
ATOM     59  C   UNL A   1      45.660  25.747  31.568  1.00  0.00     0.031 C 
ATOM     60  C   UNL A   1      45.233  27.520  33.250  1.00  0.00     0.037 A 
BRANCH  47  61
ATOM     61  C   UNL A   1      41.292  32.045  34.792  1.00  0.00     0.058 A 
ATOM     62  C   UNL A   1      41.815  33.341  34.638  1.00  0.00     0.135 A 
ATOM     63  C   UNL A   1      40.404  31.827  35.858  1.00  0.00     0.135 A 
ATOM     64  F   UNL A   1      42.682  33.608  33.648  1.00  0.00    -0.206 F 
ATOM     65  C   UNL A   1      41.504  34.366  35.527  1.00  0.00     0.059 A 
ATOM     66  C   UNL A   1      40.050  32.846  36.738  1.00  0.00     0.059 A 
ATOM     67  F   UNL A   1      39.874  30.610  36.056  1.00  0.00    -0.206 F 
ATOM     68  C   UNL A   1      40.620  34.108  36.575  1.00  0.00     0.060 A 
BRANCH  68  69
ATOM     69  S   UNL A   1      40.229  35.449  37.719  1.00  0.00     0.124 S 
ATOM     70  O   UNL A   1      41.475  35.561  38.472  1.00  0.00    -0.237 OA
ATOM     71  O   UNL A   1      39.934  36.554  36.813  1.00  0.00    -0.237 OA
ATOM     72  O   UNL A   1      39.088  34.934  38.470  1.00  0.00    -0.744 OA
ENDBRANCH  68  69
ENDBRANCH  47  61
BRANCH  48  73
ATOM     73  C   UNL A   1      43.356  24.840  28.137  1.00  0.00     0.058 A 
ATOM     74  C   UNL A   1      44.087  25.145  26.978  1.00  0.00     0.135 A 
ATOM     75  C   UNL A   1      42.966  23.504  28.328  1.00  0.00     0.135 A 
ATOM     76  F   UNL A   1      44.481  26.406  26.747  1.00  0.00    -0.206 F 
ATOM     77  C   UNL A   1      44.404  24.170  26.038  1.00  0.00     0.059 A 
ATOM     78  C   UNL A   1      43.298  22.506  27.418  1.00  0.00     0.059 A 
ATOM     79  F   UNL A   1      42.282  23.154  29.429  1.00  0.00    -0.206 F 
ATOM     80  C   UNL A   1      44.009  22.850  26.270  1.00  0.00     0.060 A 
BRANCH  80  81
ATOM     81  S   UNL A   1      44.477  21.583  25.072  1.00  0.00     0.124 S 
ATOM     82  O   UNL A   1      45.847  21.287  25.475  1.00  0.00    -0.237 OA
ATOM     83  O   UNL A   1      43.494  20.537  25.335  1.00  0.00    -0.237 OA
ATOM     84  O   UNL A   1      44.330  22.263  23.789  1.00  0.00    -0.744 OA
ENDBRANCH  80  81
ENDBRANCH  48  73
BRANCH  60  85
ATOM     85  C   UNL A   1      46.450  27.047  33.998  1.00  0.00     0.058 A 
ATOM     86  C   UNL A   1      47.724  27.589  33.766  1.00  0.00     0.135 A 
ATOM     87  C   UNL A   1      46.329  26.059  34.989  1.00  0.00     0.135 A 
ATOM     88  F   UNL A   1      47.897  28.534  32.829  1.00  0.00    -0.206 F 
ATOM     89  C   UNL A   1      48.842  27.137  34.460  1.00  0.00     0.059 A 
ATOM     90  C   UNL A   1      47.427  25.619  35.721  1.00  0.00     0.059 A 
ATOM     91  F   UNL A   1      45.131  25.518  35.264  1.00  0.00    -0.206 F 
ATOM     92  C   UNL A   1      48.683  26.152  35.435  1.00  0.00     0.060 A 
BRANCH  92  93
ATOM     93  S   UNL A   1      50.140  25.581  36.334  1.00  0.00     0.124 S 
ATOM     94  O   UNL A   1      51.156  25.594  35.286  1.00  0.00    -0.237 OA
ATOM     95  O   UNL A   1      50.285  26.599  37.370  1.00  0.00    -0.237 OA
ATOM     96  O   UNL A   1      49.749  24.258  36.813  1.00  0.00    -0.744 OA
ENDBRANCH  92  93
ENDBRANCH  60  85
ENDBRANCH  34  35
ENDBRANCH  26  29
ENDBRANCH  24  25
ENDBRANCH  23  24
ENDBRANCH   1  23
TORSDOF 19
ENDMDL
