MODEL 1
REMARK VINA RESULT:     -12.0      0.000      0.000
REMARK SMILES Cc1nn(C)cc1-c1ccnc2nc(CCC(=O)NCCCNC(=O)c3ccc(-c4c5nc(c(-c6c(F)cc(S(=O)(=O)[O-])cc6F)c6ccc([nH]6)c(-c6c(F)cc(S(=O)(=O)[O-])cc6F)c6nc(c(-c7c(F)cc(S(=O)(=O)[O-])cc7F)c7ccc4[nH]7)C=C6)C=C5)cc3)nn12
REMARK SMILES IDX 21 1 20 2 19 3 17 4 18 5 16 7 15 8 14 9 8 10 9 11 93 12
REMARK SMILES IDX 10 13 12 14 92 15 11 16 13 17 7 18 1 19 2 20 3 21 4 22 6 23
REMARK SMILES IDX 5 24 22 25 23 26 24 27 25 29 26 30 27 31 91 32 28 33 90 34
REMARK SMILES IDX 29 35 30 36 31 37 84 38 32 39 89 40 83 41 85 42 33 43 88 44
REMARK SMILES IDX 82 45 81 46 34 48 68 49 47 50 67 51 48 52 51 53 66 54 86 55
REMARK SMILES IDX 49 56 50 57 65 59 87 60 52 61 35 62 36 63 45 64 37 65 38 66
REMARK SMILES IDX 44 67 46 68 39 69 40 70 41 71 42 72 43 73 69 74 70 75 79 76
REMARK SMILES IDX 71 77 72 78 78 79 80 80 73 81 74 82 75 83 76 84 77 85 53 86
REMARK SMILES IDX 54 87 63 88 55 89 56 90 62 91 64 92 57 93 58 94 59 95 60 96
REMARK SMILES IDX 61 97
REMARK H PARENT 19 6 23 28 85 47 51 58
REMARK Flexibility Score: inf
ROOT
ATOM      1  C   UNL A   1      40.732  21.377  27.259  1.00  0.00     0.042 C 
ENDROOT
BRANCH   1   2
ATOM      2  C   UNL A   1      39.657  21.485  26.156  1.00  0.00     0.117 C 
BRANCH   2   3
ATOM      3  N   UNL A   1      38.737  22.605  26.428  1.00  0.00    -0.356 N 
ATOM      4  C   UNL A   1      37.702  23.155  25.731  1.00  0.00     0.220 C 
ATOM      5  O   UNL A   1      37.204  24.195  26.175  1.00  0.00    -0.275 OA
ATOM      6  H   UNL A   1      38.907  23.048  27.291  1.00  0.00     0.163 HD
BRANCH   4   7
ATOM      7  C   UNL A   1      37.118  22.511  24.495  1.00  0.00     0.108 C 
BRANCH   7   8
ATOM      8  C   UNL A   1      35.679  22.053  24.703  1.00  0.00     0.089 C 
BRANCH   8   9
ATOM      9  C   UNL A   1      34.723  22.961  24.036  1.00  0.00     0.153 A 
ATOM     10  C   UNL A   1      32.505  25.636  23.793  1.00  0.00     0.081 A 
ATOM     11  C   UNL A   1      32.060  26.152  22.632  1.00  0.00     0.049 A 
ATOM     12  N   UNL A   1      33.344  24.508  23.714  1.00  0.00    -0.196 N 
ATOM     13  C   UNL A   1      32.566  25.541  21.375  1.00  0.00     0.117 A 
ATOM     14  C   UNL A   1      33.766  23.991  22.473  1.00  0.00     0.252 A 
ATOM     15  N   UNL A   1      33.975  23.832  24.709  1.00  0.00    -0.149 NA
ATOM     16  N   UNL A   1      33.371  24.531  21.286  1.00  0.00    -0.220 NA
ATOM     17  N   UNL A   1      34.635  23.027  22.679  1.00  0.00    -0.194 NA
BRANCH  10  18
ATOM     18  C   UNL A   1      32.316  26.298  25.052  1.00  0.00     0.041 A 
ATOM     19  C   UNL A   1      29.987  25.593  25.949  1.00  0.00     0.069 C 
ATOM     20  C   UNL A   1      31.280  26.303  26.014  1.00  0.00     0.069 A 
ATOM     21  N   UNL A   1      31.543  27.131  27.047  1.00  0.00    -0.178 NA
ATOM     22  N   UNL A   1      32.736  27.657  26.747  1.00  0.00    -0.275 N 
ATOM     23  C   UNL A   1      33.171  27.250  25.531  1.00  0.00     0.119 A 
ATOM     24  C   UNL A   1      33.362  28.681  27.551  1.00  0.00     0.173 C 
ENDBRANCH  10  18
ENDBRANCH   8   9
ENDBRANCH   7   8
ENDBRANCH   4   7
ENDBRANCH   2   3
ENDBRANCH   1   2
BRANCH   1  25
ATOM     25  C   UNL A   1      42.220  21.752  26.997  1.00  0.00     0.118 C 
BRANCH  25  26
ATOM     26  N   UNL A   1      42.470  22.879  26.061  1.00  0.00    -0.352 N 
ATOM     27  C   UNL A   1      42.606  24.253  25.928  1.00  0.00     0.251 C 
ATOM     28  H   UNL A   1      42.589  22.490  25.164  1.00  0.00     0.163 HD
ATOM     29  O   UNL A   1      43.063  24.555  24.813  1.00  0.00    -0.269 OA
BRANCH  27  30
ATOM     30  C   UNL A   1      42.225  25.446  26.796  1.00  0.00     0.039 A 
ATOM     31  C   UNL A   1      41.173  25.233  27.721  1.00  0.00     0.014 A 
ATOM     32  C   UNL A   1      42.735  26.737  26.820  1.00  0.00     0.014 A 
ATOM     33  C   UNL A   1      40.786  26.178  28.718  1.00  0.00     0.010 A 
ATOM     34  C   UNL A   1      42.407  27.663  27.888  1.00  0.00     0.010 A 
ATOM     35  C   UNL A   1      41.461  27.393  28.904  1.00  0.00    -0.014 A 
BRANCH  35  36
ATOM     36  C   UNL A   1      41.179  28.283  30.141  1.00  0.00     0.031 A 
ATOM     37  C   UNL A   1      41.986  28.203  31.444  1.00  0.00     0.074 A 
ATOM     38  C   UNL A   1      40.159  29.189  30.171  1.00  0.00     0.049 A 
ATOM     39  N   UNL A   1      41.863  28.916  32.549  1.00  0.00    -0.248 NA
ATOM     40  C   UNL A   1      43.037  27.186  31.528  1.00  0.00     0.031 C 
ATOM     41  C   UNL A   1      39.179  29.413  29.108  1.00  0.00     0.029 A 
ATOM     42  N   UNL A   1      39.761  30.098  31.148  1.00  0.00    -0.354 N 
ATOM     43  C   UNL A   1      42.796  28.416  33.458  1.00  0.00     0.074 A 
ATOM     44  C   UNL A   1      43.433  27.298  32.791  1.00  0.00     0.031 C 
ATOM     45  C   UNL A   1      38.331  30.394  29.465  1.00  0.00     0.029 A 
ATOM     46  C   UNL A   1      38.674  30.881  30.800  1.00  0.00     0.049 A 
ATOM     47  H   UNL A   1      40.217  30.178  32.016  1.00  0.00     0.167 HD
ATOM     48  C   UNL A   1      43.140  28.841  34.708  1.00  0.00     0.037 A 
ATOM     49  C   UNL A   1      38.012  31.879  31.437  1.00  0.00     0.037 A 
ATOM     50  C   UNL A   1      42.586  29.975  35.412  1.00  0.00     0.049 A 
ATOM     51  C   UNL A   1      38.425  32.364  32.811  1.00  0.00     0.074 A 
ATOM     52  C   UNL A   1      42.986  30.504  36.633  1.00  0.00     0.029 A 
ATOM     53  N   UNL A   1      41.522  30.750  34.988  1.00  0.00    -0.354 N 
ATOM     54  N   UNL A   1      39.401  31.945  33.576  1.00  0.00    -0.248 NA
ATOM     55  C   UNL A   1      37.648  33.471  33.403  1.00  0.00     0.031 C 
ATOM     56  C   UNL A   1      42.140  31.568  36.966  1.00  0.00     0.029 A 
ATOM     57  C   UNL A   1      41.244  31.737  35.928  1.00  0.00     0.049 A 
ATOM     58  H   UNL A   1      41.032  30.621  34.143  1.00  0.00     0.167 HD
ATOM     59  C   UNL A   1      39.380  32.761  34.708  1.00  0.00     0.074 A 
ATOM     60  C   UNL A   1      38.301  33.703  34.534  1.00  0.00     0.031 C 
ATOM     61  C   UNL A   1      40.197  32.719  35.788  1.00  0.00     0.037 A 
BRANCH  48  62
ATOM     62  C   UNL A   1      44.239  28.084  35.421  1.00  0.00     0.058 A 
ATOM     63  C   UNL A   1      43.947  26.994  36.258  1.00  0.00     0.135 A 
ATOM     64  C   UNL A   1      45.594  28.397  35.210  1.00  0.00     0.135 A 
ATOM     65  F   UNL A   1      42.673  26.639  36.486  1.00  0.00    -0.206 F 
ATOM     66  C   UNL A   1      44.952  26.285  36.909  1.00  0.00     0.059 A 
ATOM     67  C   UNL A   1      46.617  27.677  35.823  1.00  0.00     0.059 A 
ATOM     68  F   UNL A   1      45.936  29.406  34.392  1.00  0.00    -0.206 F 
ATOM     69  C   UNL A   1      46.283  26.639  36.691  1.00  0.00     0.060 A 
BRANCH  69  70
ATOM     70  S   UNL A   1      47.572  25.726  37.566  1.00  0.00     0.124 S 
ATOM     71  O   UNL A   1      47.080  24.351  37.446  1.00  0.00    -0.237 OA
ATOM     72  O   UNL A   1      48.764  26.035  36.775  1.00  0.00    -0.237 OA
ATOM     73  O   UNL A   1      47.546  26.287  38.904  1.00  0.00    -0.744 OA
ENDBRANCH  69  70
ENDBRANCH  48  62
BRANCH  49  74
ATOM     74  C   UNL A   1      36.863  32.568  30.769  1.00  0.00     0.058 A 
ATOM     75  C   UNL A   1      37.082  33.595  29.836  1.00  0.00     0.135 A 
ATOM     76  C   UNL A   1      35.533  32.259  31.091  1.00  0.00     0.135 A 
ATOM     77  F   UNL A   1      38.335  33.951  29.515  1.00  0.00    -0.206 F 
ATOM     78  C   UNL A   1      36.029  34.302  29.261  1.00  0.00     0.059 A 
ATOM     79  C   UNL A   1      34.461  32.933  30.508  1.00  0.00     0.059 A 
ATOM     80  F   UNL A   1      35.265  31.286  31.976  1.00  0.00    -0.206 F 
ATOM     81  C   UNL A   1      34.719  33.961  29.601  1.00  0.00     0.060 A 
BRANCH  81  82
ATOM     82  S   UNL A   1      33.361  34.849  28.807  1.00  0.00     0.124 S 
ATOM     83  O   UNL A   1      32.824  33.831  27.912  1.00  0.00    -0.237 OA
ATOM     84  O   UNL A   1      32.521  35.202  29.948  1.00  0.00    -0.237 OA
ATOM     85  O   UNL A   1      34.030  35.973  28.160  1.00  0.00    -0.744 OA
ENDBRANCH  81  82
ENDBRANCH  49  74
BRANCH  61  86
ATOM     86  C   UNL A   1      40.027  33.755  36.875  1.00  0.00     0.058 A 
ATOM     87  C   UNL A   1      40.708  34.985  36.858  1.00  0.00     0.135 A 
ATOM     88  C   UNL A   1      39.115  33.543  37.925  1.00  0.00     0.135 A 
ATOM     89  F   UNL A   1      41.597  35.249  35.887  1.00  0.00    -0.206 F 
ATOM     90  C   UNL A   1      40.503  35.952  37.841  1.00  0.00     0.059 A 
ATOM     91  C   UNL A   1      38.875  34.506  38.904  1.00  0.00     0.059 A 
ATOM     92  F   UNL A   1      38.427  32.392  37.998  1.00  0.00    -0.206 F 
ATOM     93  C   UNL A   1      39.580  35.707  38.860  1.00  0.00     0.060 A 
BRANCH  93  94
ATOM     94  S   UNL A   1      39.290  36.989  40.103  1.00  0.00     0.124 S 
ATOM     95  O   UNL A   1      38.500  36.267  41.095  1.00  0.00    -0.237 OA
ATOM     96  O   UNL A   1      40.645  37.344  40.509  1.00  0.00    -0.237 OA
ATOM     97  O   UNL A   1      38.572  38.023  39.364  1.00  0.00    -0.744 OA
ENDBRANCH  93  94
ENDBRANCH  61  86
ENDBRANCH  35  36
ENDBRANCH  27  30
ENDBRANCH  25  26
ENDBRANCH   1  25
TORSDOF 16
ENDMDL
MODEL 2
REMARK VINA RESULT:     -12.0      0.992      2.205
REMARK SMILES Cc1nn(C)cc1-c1ccnc2nc(CCC(=O)NCCCNC(=O)c3ccc(-c4c5nc(c(-c6c(F)cc(S(=O)(=O)[O-])cc6F)c6ccc([nH]6)c(-c6c(F)cc(S(=O)(=O)[O-])cc6F)c6nc(c(-c7c(F)cc(S(=O)(=O)[O-])cc7F)c7ccc4[nH]7)C=C6)C=C5)cc3)nn12
REMARK SMILES IDX 21 1 20 2 19 3 17 4 18 5 16 7 15 8 14 9 8 10 9 11 93 12
REMARK SMILES IDX 10 13 12 14 92 15 11 16 13 17 7 18 1 19 2 20 3 21 4 22 6 23
REMARK SMILES IDX 5 24 22 25 23 26 24 27 25 29 26 30 27 31 91 32 28 33 90 34
REMARK SMILES IDX 29 35 30 36 31 37 84 38 32 39 89 40 83 41 85 42 33 43 88 44
REMARK SMILES IDX 82 45 81 46 34 48 68 49 47 50 67 51 48 52 51 53 66 54 86 55
REMARK SMILES IDX 49 56 50 57 65 59 87 60 52 61 35 62 36 63 45 64 37 65 38 66
REMARK SMILES IDX 44 67 46 68 39 69 40 70 41 71 42 72 43 73 69 74 70 75 79 76
REMARK SMILES IDX 71 77 72 78 78 79 80 80 73 81 74 82 75 83 76 84 77 85 53 86
REMARK SMILES IDX 54 87 63 88 55 89 56 90 62 91 64 92 57 93 58 94 59 95 60 96
REMARK SMILES IDX 61 97
REMARK H PARENT 19 6 23 28 85 47 51 58
REMARK Flexibility Score: inf
ROOT
ATOM      1  C   UNL A   1      40.640  21.357  26.555  1.00  0.00     0.042 C 
ENDROOT
BRANCH   1   2
ATOM      2  C   UNL A   1      39.446  22.335  26.544  1.00  0.00     0.117 C 
BRANCH   2   3
ATOM      3  N   UNL A   1      38.551  22.058  25.405  1.00  0.00    -0.356 N 
ATOM      4  C   UNL A   1      37.238  22.330  25.160  1.00  0.00     0.220 C 
ATOM      5  O   UNL A   1      36.732  21.837  24.146  1.00  0.00    -0.275 OA
ATOM      6  H   UNL A   1      38.995  21.576  24.670  1.00  0.00     0.163 HD
BRANCH   4   7
ATOM      7  C   UNL A   1      36.417  23.247  26.038  1.00  0.00     0.108 C 
BRANCH   7   8
ATOM      8  C   UNL A   1      35.145  22.578  26.548  1.00  0.00     0.089 C 
BRANCH   8   9
ATOM      9  C   UNL A   1      33.961  23.435  26.326  1.00  0.00     0.153 A 
ATOM     10  C   UNL A   1      31.869  25.590  24.563  1.00  0.00     0.081 A 
ATOM     11  C   UNL A   1      30.602  25.876  24.914  1.00  0.00     0.049 A 
ATOM     12  N   UNL A   1      32.600  24.753  25.427  1.00  0.00    -0.196 N 
ATOM     13  C   UNL A   1      30.063  25.212  26.130  1.00  0.00     0.117 A 
ATOM     14  C   UNL A   1      32.007  24.174  26.566  1.00  0.00     0.252 A 
ATOM     15  N   UNL A   1      33.859  24.261  25.288  1.00  0.00    -0.149 NA
ATOM     16  N   UNL A   1      30.710  24.407  26.911  1.00  0.00    -0.220 NA
ATOM     17  N   UNL A   1      32.861  23.343  27.122  1.00  0.00    -0.194 NA
BRANCH  10  18
ATOM     18  C   UNL A   1      32.409  25.940  23.280  1.00  0.00     0.041 A 
ATOM     19  C   UNL A   1      33.903  28.032  23.621  1.00  0.00     0.069 C 
ATOM     20  C   UNL A   1      33.287  26.951  22.827  1.00  0.00     0.069 A 
ATOM     21  N   UNL A   1      33.481  26.900  21.491  1.00  0.00    -0.178 NA
ATOM     22  N   UNL A   1      32.728  25.870  21.092  1.00  0.00    -0.275 N 
ATOM     23  C   UNL A   1      32.015  25.343  22.115  1.00  0.00     0.119 A 
ATOM     24  C   UNL A   1      32.566  25.514  19.701  1.00  0.00     0.173 C 
ENDBRANCH  10  18
ENDBRANCH   8   9
ENDBRANCH   7   8
ENDBRANCH   4   7
ENDBRANCH   2   3
ENDBRANCH   1   2
BRANCH   1  25
ATOM     25  C   UNL A   1      42.110  21.856  26.680  1.00  0.00     0.118 C 
BRANCH  25  26
ATOM     26  N   UNL A   1      42.499  23.011  25.829  1.00  0.00    -0.352 N 
ATOM     27  C   UNL A   1      42.706  24.381  25.777  1.00  0.00     0.251 C 
ATOM     28  H   UNL A   1      42.688  22.656  24.930  1.00  0.00     0.163 HD
ATOM     29  O   UNL A   1      43.283  24.710  24.727  1.00  0.00    -0.269 OA
BRANCH  27  30
ATOM     30  C   UNL A   1      42.294  25.551  26.661  1.00  0.00     0.039 A 
ATOM     31  C   UNL A   1      41.281  25.284  27.615  1.00  0.00     0.014 A 
ATOM     32  C   UNL A   1      42.743  26.865  26.678  1.00  0.00     0.014 A 
ATOM     33  C   UNL A   1      40.878  26.206  28.628  1.00  0.00     0.010 A 
ATOM     34  C   UNL A   1      42.402  27.770  27.759  1.00  0.00     0.010 A 
ATOM     35  C   UNL A   1      41.500  27.451  28.800  1.00  0.00    -0.014 A 
BRANCH  35  36
ATOM     36  C   UNL A   1      41.212  28.323  30.049  1.00  0.00     0.031 A 
ATOM     37  C   UNL A   1      42.015  28.226  31.353  1.00  0.00     0.074 A 
ATOM     38  C   UNL A   1      40.188  29.224  30.090  1.00  0.00     0.049 A 
ATOM     39  N   UNL A   1      41.887  28.923  32.468  1.00  0.00    -0.248 NA
ATOM     40  C   UNL A   1      43.070  27.212  31.425  1.00  0.00     0.031 C 
ATOM     41  C   UNL A   1      39.209  29.460  29.028  1.00  0.00     0.029 A 
ATOM     42  N   UNL A   1      39.784  30.118  31.079  1.00  0.00    -0.354 N 
ATOM     43  C   UNL A   1      42.819  28.414  33.372  1.00  0.00     0.074 A 
ATOM     44  C   UNL A   1      43.462  27.307  32.690  1.00  0.00     0.031 C 
ATOM     45  C   UNL A   1      38.358  30.432  29.397  1.00  0.00     0.029 A 
ATOM     46  C   UNL A   1      38.696  30.902  30.740  1.00  0.00     0.049 A 
ATOM     47  H   UNL A   1      40.238  30.186  31.949  1.00  0.00     0.167 HD
ATOM     48  C   UNL A   1      43.159  28.821  34.629  1.00  0.00     0.037 A 
ATOM     49  C   UNL A   1      38.028  31.888  31.390  1.00  0.00     0.037 A 
ATOM     50  C   UNL A   1      42.599  29.943  35.348  1.00  0.00     0.049 A 
ATOM     51  C   UNL A   1      38.436  32.354  32.771  1.00  0.00     0.074 A 
ATOM     52  C   UNL A   1      42.994  30.456  36.578  1.00  0.00     0.029 A 
ATOM     53  N   UNL A   1      41.534  30.720  34.933  1.00  0.00    -0.354 N 
ATOM     54  N   UNL A   1      39.412  31.928  33.532  1.00  0.00    -0.248 NA
ATOM     55  C   UNL A   1      37.654  33.450  33.377  1.00  0.00     0.031 C 
ATOM     56  C   UNL A   1      42.143  31.511  36.924  1.00  0.00     0.029 A 
ATOM     57  C   UNL A   1      41.250  31.692  35.886  1.00  0.00     0.049 A 
ATOM     58  H   UNL A   1      41.046  30.602  34.085  1.00  0.00     0.167 HD
ATOM     59  C   UNL A   1      39.385  32.728  34.676  1.00  0.00     0.074 A 
ATOM     60  C   UNL A   1      38.303  33.668  34.513  1.00  0.00     0.031 C 
ATOM     61  C   UNL A   1      40.200  32.673  35.758  1.00  0.00     0.037 A 
BRANCH  48  62
ATOM     62  C   UNL A   1      44.259  28.058  35.334  1.00  0.00     0.058 A 
ATOM     63  C   UNL A   1      45.599  28.471  35.254  1.00  0.00     0.135 A 
ATOM     64  C   UNL A   1      43.967  26.953  36.154  1.00  0.00     0.135 A 
ATOM     65  F   UNL A   1      45.936  29.527  34.498  1.00  0.00    -0.206 F 
ATOM     66  C   UNL A   1      46.615  27.783  35.908  1.00  0.00     0.059 A 
ATOM     67  C   UNL A   1      44.964  26.271  36.847  1.00  0.00     0.059 A 
ATOM     68  F   UNL A   1      42.700  26.532  36.298  1.00  0.00    -0.206 F 
ATOM     69  C   UNL A   1      46.289  26.679  36.697  1.00  0.00     0.060 A 
BRANCH  69  70
ATOM     70  S   UNL A   1      47.624  25.780  37.515  1.00  0.00     0.124 S 
ATOM     71  O   UNL A   1      47.004  25.456  38.802  1.00  0.00    -0.237 OA
ATOM     72  O   UNL A   1      47.829  24.642  36.616  1.00  0.00    -0.237 OA
ATOM     73  O   UNL A   1      48.709  26.741  37.565  1.00  0.00    -0.744 OA
ENDBRANCH  69  70
ENDBRANCH  48  62
BRANCH  49  74
ATOM     74  C   UNL A   1      36.878  32.582  30.728  1.00  0.00     0.058 A 
ATOM     75  C   UNL A   1      37.095  33.639  29.828  1.00  0.00     0.135 A 
ATOM     76  C   UNL A   1      35.548  32.248  31.026  1.00  0.00     0.135 A 
ATOM     77  F   UNL A   1      38.347  34.019  29.532  1.00  0.00    -0.206 F 
ATOM     78  C   UNL A   1      36.040  34.350  29.262  1.00  0.00     0.059 A 
ATOM     79  C   UNL A   1      34.475  32.927  30.451  1.00  0.00     0.059 A 
ATOM     80  F   UNL A   1      35.283  31.247  31.879  1.00  0.00    -0.206 F 
ATOM     81  C   UNL A   1      34.731  33.983  29.577  1.00  0.00     0.060 A 
BRANCH  81  82
ATOM     82  S   UNL A   1      33.370  34.878  28.793  1.00  0.00     0.124 S 
ATOM     83  O   UNL A   1      32.850  33.876  27.870  1.00  0.00    -0.237 OA
ATOM     84  O   UNL A   1      32.519  35.197  29.935  1.00  0.00    -0.237 OA
ATOM     85  O   UNL A   1      34.034  36.023  28.178  1.00  0.00    -0.744 OA
ENDBRANCH  81  82
ENDBRANCH  49  74
BRANCH  61  86
ATOM     86  C   UNL A   1      40.023  33.692  36.859  1.00  0.00     0.058 A 
ATOM     87  C   UNL A   1      40.616  34.966  36.810  1.00  0.00     0.135 A 
ATOM     88  C   UNL A   1      39.190  33.415  37.959  1.00  0.00     0.135 A 
ATOM     89  F   UNL A   1      41.426  35.292  35.791  1.00  0.00    -0.206 F 
ATOM     90  C   UNL A   1      40.403  35.915  37.809  1.00  0.00     0.059 A 
ATOM     91  C   UNL A   1      38.943  34.358  38.957  1.00  0.00     0.059 A 
ATOM     92  F   UNL A   1      38.588  32.220  38.065  1.00  0.00    -0.206 F 
ATOM     93  C   UNL A   1      39.560  35.604  38.878  1.00  0.00     0.060 A 
BRANCH  93  94
ATOM     94  S   UNL A   1      39.256  36.860  40.144  1.00  0.00     0.124 S 
ATOM     95  O   UNL A   1      38.710  37.956  39.350  1.00  0.00    -0.237 OA
ATOM     96  O   UNL A   1      38.312  36.189  41.031  1.00  0.00    -0.237 OA
ATOM     97  O   UNL A   1      40.580  37.098  40.713  1.00  0.00    -0.744 OA
ENDBRANCH  93  94
ENDBRANCH  61  86
ENDBRANCH  35  36
ENDBRANCH  27  30
ENDBRANCH  25  26
ENDBRANCH   1  25
TORSDOF 16
ENDMDL
MODEL 3
REMARK VINA RESULT:     -11.9      1.472      2.746
REMARK SMILES Cc1nn(C)cc1-c1ccnc2nc(CCC(=O)NCCCNC(=O)c3ccc(-c4c5nc(c(-c6c(F)cc(S(=O)(=O)[O-])cc6F)c6ccc([nH]6)c(-c6c(F)cc(S(=O)(=O)[O-])cc6F)c6nc(c(-c7c(F)cc(S(=O)(=O)[O-])cc7F)c7ccc4[nH]7)C=C6)C=C5)cc3)nn12
REMARK SMILES IDX 21 1 20 2 19 3 17 4 18 5 16 7 15 8 14 9 8 10 9 11 93 12
REMARK SMILES IDX 10 13 12 14 92 15 11 16 13 17 7 18 1 19 2 20 3 21 4 22 6 23
REMARK SMILES IDX 5 24 22 25 23 26 24 27 25 29 26 30 27 31 91 32 28 33 90 34
REMARK SMILES IDX 29 35 30 36 31 37 84 38 32 39 89 40 83 41 85 42 33 43 88 44
REMARK SMILES IDX 82 45 81 46 34 48 68 49 47 50 67 51 48 52 51 53 66 54 86 55
REMARK SMILES IDX 49 56 50 57 65 59 87 60 52 61 35 62 36 63 45 64 37 65 38 66
REMARK SMILES IDX 44 67 46 68 39 69 40 70 41 71 42 72 43 73 69 74 70 75 79 76
REMARK SMILES IDX 71 77 72 78 78 79 80 80 73 81 74 82 75 83 76 84 77 85 53 86
REMARK SMILES IDX 54 87 63 88 55 89 56 90 62 91 64 92 57 93 58 94 59 95 60 96
REMARK SMILES IDX 61 97
REMARK H PARENT 19 6 23 28 85 47 51 58
REMARK Flexibility Score: inf
ROOT
ATOM      1  C   UNL A   1      37.630  21.934  24.822  1.00  0.00     0.042 C 
ENDROOT
BRANCH   1   2
ATOM      2  C   UNL A   1      36.827  20.678  25.223  1.00  0.00     0.117 C 
BRANCH   2   3
ATOM      3  N   UNL A   1      35.445  20.754  24.714  1.00  0.00    -0.356 N 
ATOM      4  C   UNL A   1      34.234  20.926  25.318  1.00  0.00     0.220 C 
ATOM      5  O   UNL A   1      33.225  20.806  24.616  1.00  0.00    -0.275 OA
ATOM      6  H   UNL A   1      35.385  20.660  23.736  1.00  0.00     0.163 HD
BRANCH   4   7
ATOM      7  C   UNL A   1      34.096  21.311  26.773  1.00  0.00     0.108 C 
BRANCH   7   8
ATOM      8  C   UNL A   1      34.428  22.779  27.020  1.00  0.00     0.089 C 
BRANCH   8   9
ATOM      9  C   UNL A   1      33.318  23.660  26.599  1.00  0.00     0.153 A 
ATOM     10  C   UNL A   1      31.534  25.734  24.444  1.00  0.00     0.081 A 
ATOM     11  C   UNL A   1      30.253  26.101  24.629  1.00  0.00     0.049 A 
ATOM     12  N   UNL A   1      32.127  24.948  25.449  1.00  0.00    -0.196 N 
ATOM     13  C   UNL A   1      29.556  25.569  25.829  1.00  0.00     0.117 A 
ATOM     14  C   UNL A   1      31.389  24.495  26.561  1.00  0.00     0.252 A 
ATOM     15  N   UNL A   1      33.368  24.395  25.492  1.00  0.00    -0.149 NA
ATOM     16  N   UNL A   1      30.075  24.810  26.740  1.00  0.00    -0.220 NA
ATOM     17  N   UNL A   1      32.136  23.683  27.274  1.00  0.00    -0.194 NA
BRANCH  10  18
ATOM     18  C   UNL A   1      32.225  25.949  23.204  1.00  0.00     0.041 A 
ATOM     19  C   UNL A   1      34.014  27.778  23.627  1.00  0.00     0.069 C 
ATOM     20  C   UNL A   1      33.291  26.786  22.805  1.00  0.00     0.069 A 
ATOM     21  N   UNL A   1      33.579  26.661  21.492  1.00  0.00    -0.178 NA
ATOM     22  N   UNL A   1      32.699  25.755  21.052  1.00  0.00    -0.275 N 
ATOM     23  C   UNL A   1      31.830  25.386  22.022  1.00  0.00     0.119 A 
ATOM     24  C   UNL A   1      32.590  25.384  19.659  1.00  0.00     0.173 C 
ENDBRANCH  10  18
ENDBRANCH   8   9
ENDBRANCH   7   8
ENDBRANCH   4   7
ENDBRANCH   2   3
ENDBRANCH   1   2
BRANCH   1  25
ATOM     25  C   UNL A   1      38.050  23.009  25.868  1.00  0.00     0.118 C 
BRANCH  25  26
ATOM     26  N   UNL A   1      39.510  23.214  26.066  1.00  0.00    -0.352 N 
ATOM     27  C   UNL A   1      40.488  23.915  26.755  1.00  0.00     0.251 C 
ATOM     28  H   UNL A   1      39.974  22.597  25.455  1.00  0.00     0.163 HD
ATOM     29  O   UNL A   1      41.609  23.407  26.588  1.00  0.00    -0.269 OA
BRANCH  27  30
ATOM     30  C   UNL A   1      40.496  25.204  27.567  1.00  0.00     0.039 A 
ATOM     31  C   UNL A   1      39.286  25.532  28.228  1.00  0.00     0.014 A 
ATOM     32  C   UNL A   1      41.506  26.137  27.759  1.00  0.00     0.014 A 
ATOM     33  C   UNL A   1      39.151  26.610  29.154  1.00  0.00     0.010 A 
ATOM     34  C   UNL A   1      41.399  27.176  28.766  1.00  0.00     0.010 A 
ATOM     35  C   UNL A   1      40.237  27.412  29.536  1.00  0.00    -0.014 A 
BRANCH  35  36
ATOM     36  C   UNL A   1      40.118  28.409  30.717  1.00  0.00     0.031 A 
ATOM     37  C   UNL A   1      40.952  28.305  32.000  1.00  0.00     0.074 A 
ATOM     38  C   UNL A   1      39.226  29.442  30.713  1.00  0.00     0.049 A 
ATOM     39  N   UNL A   1      40.963  29.097  33.057  1.00  0.00    -0.248 NA
ATOM     40  C   UNL A   1      41.864  27.165  32.125  1.00  0.00     0.031 C 
ATOM     41  C   UNL A   1      38.246  29.726  29.664  1.00  0.00     0.029 A 
ATOM     42  N   UNL A   1      38.985  30.456  31.636  1.00  0.00    -0.354 N 
ATOM     43  C   UNL A   1      41.854  28.537  33.973  1.00  0.00     0.074 A 
ATOM     44  C   UNL A   1      42.316  27.303  33.366  1.00  0.00     0.031 C 
ATOM     45  C   UNL A   1      37.548  30.831  29.976  1.00  0.00     0.029 A 
ATOM     46  C   UNL A   1      37.999  31.353  31.266  1.00  0.00     0.049 A 
ATOM     47  H   UNL A   1      39.478  30.530  32.485  1.00  0.00     0.167 HD
ATOM     48  C   UNL A   1      42.295  28.990  35.181  1.00  0.00     0.037 A 
ATOM     49  C   UNL A   1      37.496  32.468  31.851  1.00  0.00     0.037 A 
ATOM     50  C   UNL A   1      41.919  30.231  35.822  1.00  0.00     0.049 A 
ATOM     51  C   UNL A   1      38.017  32.980  33.178  1.00  0.00     0.074 A 
ATOM     52  C   UNL A   1      42.428  30.778  36.993  1.00  0.00     0.029 A 
ATOM     53  N   UNL A   1      40.952  31.111  35.375  1.00  0.00    -0.354 N 
ATOM     54  N   UNL A   1      38.957  32.485  33.942  1.00  0.00    -0.248 NA
ATOM     55  C   UNL A   1      37.413  34.216  33.714  1.00  0.00     0.031 C 
ATOM     56  C   UNL A   1      41.741  31.964  37.276  1.00  0.00     0.029 A 
ATOM     57  C   UNL A   1      40.839  32.184  36.253  1.00  0.00     0.049 A 
ATOM     58  H   UNL A   1      40.420  30.995  34.554  1.00  0.00     0.167 HD
ATOM     59  C   UNL A   1      39.082  33.367  35.017  1.00  0.00     0.074 A 
ATOM     60  C   UNL A   1      38.130  34.431  34.809  1.00  0.00     0.031 C 
ATOM     61  C   UNL A   1      39.925  33.285  36.075  1.00  0.00     0.037 A 
BRANCH  48  62
ATOM     62  C   UNL A   1      43.310  28.141  35.914  1.00  0.00     0.058 A 
ATOM     63  C   UNL A   1      42.908  27.104  36.773  1.00  0.00     0.135 A 
ATOM     64  C   UNL A   1      44.690  28.311  35.703  1.00  0.00     0.135 A 
ATOM     65  F   UNL A   1      41.604  26.885  37.002  1.00  0.00    -0.206 F 
ATOM     66  C   UNL A   1      43.834  26.310  37.442  1.00  0.00     0.059 A 
ATOM     67  C   UNL A   1      45.634  27.504  36.334  1.00  0.00     0.059 A 
ATOM     68  F   UNL A   1      45.135  29.262  34.865  1.00  0.00    -0.206 F 
ATOM     69  C   UNL A   1      45.195  26.523  37.222  1.00  0.00     0.060 A 
BRANCH  69  70
ATOM     70  S   UNL A   1      46.383  25.502  38.122  1.00  0.00     0.124 S 
ATOM     71  O   UNL A   1      47.585  25.676  37.304  1.00  0.00    -0.237 OA
ATOM     72  O   UNL A   1      46.419  26.152  39.434  1.00  0.00    -0.237 OA
ATOM     73  O   UNL A   1      45.791  24.178  38.096  1.00  0.00    -0.744 OA
ENDBRANCH  69  70
ENDBRANCH  48  62
BRANCH  49  74
ATOM     74  C   UNL A   1      36.423  33.259  31.169  1.00  0.00     0.058 A 
ATOM     75  C   UNL A   1      35.097  33.228  31.634  1.00  0.00     0.135 A 
ATOM     76  C   UNL A   1      36.686  34.008  30.012  1.00  0.00     0.135 A 
ATOM     77  F   UNL A   1      34.786  32.502  32.719  1.00  0.00    -0.206 F 
ATOM     78  C   UNL A   1      34.070  33.892  30.969  1.00  0.00     0.059 A 
ATOM     79  C   UNL A   1      35.679  34.704  29.345  1.00  0.00     0.059 A 
ATOM     80  F   UNL A   1      37.933  34.073  29.523  1.00  0.00    -0.206 F 
ATOM     81  C   UNL A   1      34.372  34.633  29.826  1.00  0.00     0.060 A 
BRANCH  81  82
ATOM     82  S   UNL A   1      33.039  35.535  29.004  1.00  0.00     0.124 S 
ATOM     83  O   UNL A   1      33.775  36.587  28.313  1.00  0.00    -0.237 OA
ATOM     84  O   UNL A   1      32.453  34.503  28.154  1.00  0.00    -0.237 OA
ATOM     85  O   UNL A   1      32.198  35.974  30.113  1.00  0.00    -0.744 OA
ENDBRANCH  81  82
ENDBRANCH  49  74
BRANCH  61  86
ATOM     86  C   UNL A   1      39.930  34.402  37.094  1.00  0.00     0.058 A 
ATOM     87  C   UNL A   1      40.568  35.632  36.860  1.00  0.00     0.135 A 
ATOM     88  C   UNL A   1      39.227  34.264  38.305  1.00  0.00     0.135 A 
ATOM     89  F   UNL A   1      41.261  35.827  35.727  1.00  0.00    -0.206 F 
ATOM     90  C   UNL A   1      40.522  36.672  37.789  1.00  0.00     0.059 A 
ATOM     91  C   UNL A   1      39.147  35.299  39.236  1.00  0.00     0.059 A 
ATOM     92  F   UNL A   1      38.591  33.117  38.588  1.00  0.00    -0.206 F 
ATOM     93  C   UNL A   1      39.805  36.499  38.973  1.00  0.00     0.060 A 
BRANCH  93  94
ATOM     94  S   UNL A   1      39.714  37.872  40.148  1.00  0.00     0.124 S 
ATOM     95  O   UNL A   1      41.093  38.348  40.156  1.00  0.00    -0.237 OA
ATOM     96  O   UNL A   1      38.741  38.759  39.519  1.00  0.00    -0.237 OA
ATOM     97  O   UNL A   1      39.265  37.234  41.383  1.00  0.00    -0.744 OA
ENDBRANCH  93  94
ENDBRANCH  61  86
ENDBRANCH  35  36
ENDBRANCH  27  30
ENDBRANCH  25  26
ENDBRANCH   1  25
TORSDOF 16
ENDMDL
