MODEL 1
REMARK VINA RESULT:     -12.6      0.000      0.000
REMARK SMILES Cc1nsc(N(C)C(=O)c2ccc(=O)n(C)n2)c1C(=O)NCCCNC(=O)c1ccc(-c2c3nc(c(-c4c(F)cc(S(=O)(=O)[O-])cc4F)c4ccc([nH]4)c(-c4c(F)cc(S(=O)(=O)[O-])cc4F)c4nc(c(-c5c(F)cc(S(=O)(=O)[O-])cc5F)c5ccc2[nH]5)C=C4)C=C3)cc1
REMARK SMILES IDX 23 1 22 2 21 3 19 4 20 5 18 7 1 8 2 9 3 10 4 11 5 12 6 13
REMARK SMILES IDX 7 14 8 15 9 16 10 17 11 18 17 19 12 20 15 21 13 22 16 23
REMARK SMILES IDX 14 24 24 25 25 26 26 27 27 29 28 30 29 31 93 32 30 33 92 34
REMARK SMILES IDX 31 35 32 36 33 37 86 38 34 39 91 40 85 41 87 42 35 43 90 44
REMARK SMILES IDX 84 45 83 46 36 48 70 49 49 50 69 51 50 52 53 53 68 54 88 55
REMARK SMILES IDX 51 56 52 57 67 59 89 60 54 61 37 62 38 63 47 64 39 65 40 66
REMARK SMILES IDX 46 67 48 68 41 69 42 70 43 71 44 72 45 73 71 74 72 75 81 76
REMARK SMILES IDX 73 77 74 78 80 79 82 80 75 81 76 82 77 83 78 84 79 85 55 86
REMARK SMILES IDX 56 87 65 88 57 89 58 90 64 91 66 92 59 93 60 94 61 95 62 96
REMARK SMILES IDX 63 97
REMARK H PARENT 21 6 25 28 87 47 53 58
REMARK Flexibility Score: inf
ROOT
ATOM      1  C   UNL A   1      34.022  29.212  27.536  1.00  0.00     0.042 C 
ENDROOT
BRANCH   1   2
ATOM      2  C   UNL A   1      33.785  28.300  26.329  1.00  0.00     0.118 C 
BRANCH   2   3
ATOM      3  N   UNL A   1      32.386  28.239  25.952  1.00  0.00    -0.352 N 
ATOM      4  C   UNL A   1      31.586  27.140  26.173  1.00  0.00     0.256 C 
ATOM      5  O   UNL A   1      30.792  27.166  27.112  1.00  0.00    -0.269 OA
ATOM      6  H   UNL A   1      31.987  29.027  25.513  1.00  0.00     0.163 HD
BRANCH   4   7
ATOM      7  C   UNL A   1      31.585  26.049  25.196  1.00  0.00     0.097 A 
ATOM      8  C   UNL A   1      33.449  24.365  26.104  1.00  0.00     0.069 C 
ATOM      9  C   UNL A   1      32.360  24.810  25.197  1.00  0.00     0.066 A 
ATOM     10  N   UNL A   1      32.026  23.905  24.277  1.00  0.00    -0.195 NA
ATOM     11  S   UNL A   1      30.788  24.472  23.386  1.00  0.00    -0.017 S 
ATOM     12  C   UNL A   1      30.683  26.016  24.119  1.00  0.00     0.131 A 
BRANCH  12  13
ATOM     13  N   UNL A   1      29.768  26.937  23.550  1.00  0.00    -0.299 N 
ATOM     14  C   UNL A   1      28.326  26.898  23.817  1.00  0.00     0.154 C 
BRANCH  13  15
ATOM     15  C   UNL A   1      30.275  27.896  22.641  1.00  0.00     0.279 C 
ATOM     16  O   UNL A   1      31.126  27.682  21.781  1.00  0.00    -0.267 OA
BRANCH  15  17
ATOM     17  C   UNL A   1      29.633  29.294  22.633  1.00  0.00     0.149 A 
ATOM     18  C   UNL A   1      29.787  30.089  23.872  1.00  0.00     0.042 A 
ATOM     19  N   UNL A   1      29.009  29.712  21.572  1.00  0.00    -0.165 NA
ATOM     20  C   UNL A   1      29.314  31.337  23.857  1.00  0.00     0.076 A 
ATOM     21  N   UNL A   1      28.530  31.005  21.581  1.00  0.00    -0.232 N 
ATOM     22  C   UNL A   1      28.676  31.889  22.644  1.00  0.00     0.266 A 
ATOM     23  C   UNL A   1      27.884  31.473  20.372  1.00  0.00     0.178 C 
ATOM     24  O   UNL A   1      28.321  33.064  22.625  1.00  0.00    -0.268 OA
ENDBRANCH  15  17
ENDBRANCH  13  15
ENDBRANCH  12  13
ENDBRANCH   4   7
ENDBRANCH   2   3
ENDBRANCH   1   2
BRANCH   1  25
ATOM     25  C   UNL A   1      34.814  30.452  27.170  1.00  0.00     0.118 C 
BRANCH  25  26
ATOM     26  N   UNL A   1      34.581  31.522  28.139  1.00  0.00    -0.352 N 
ATOM     27  C   UNL A   1      35.181  31.741  29.361  1.00  0.00     0.251 C 
ATOM     28  H   UNL A   1      33.897  32.182  27.882  1.00  0.00     0.163 HD
ATOM     29  O   UNL A   1      34.656  32.478  30.178  1.00  0.00    -0.269 OA
BRANCH  27  30
ATOM     30  C   UNL A   1      36.449  31.057  29.660  1.00  0.00     0.039 A 
ATOM     31  C   UNL A   1      36.444  29.793  30.252  1.00  0.00     0.014 A 
ATOM     32  C   UNL A   1      37.646  31.686  29.318  1.00  0.00     0.014 A 
ATOM     33  C   UNL A   1      37.656  29.135  30.426  1.00  0.00     0.010 A 
ATOM     34  C   UNL A   1      38.821  30.981  29.351  1.00  0.00     0.010 A 
ATOM     35  C   UNL A   1      38.836  29.729  29.952  1.00  0.00    -0.014 A 
BRANCH  35  36
ATOM     36  C   UNL A   1      40.095  29.005  30.009  1.00  0.00     0.031 A 
ATOM     37  C   UNL A   1      40.635  28.827  31.377  1.00  0.00     0.074 A 
ATOM     38  C   UNL A   1      40.645  28.390  28.942  1.00  0.00     0.049 A 
ATOM     39  N   UNL A   1      41.565  29.518  31.946  1.00  0.00    -0.248 NA
ATOM     40  C   UNL A   1      39.954  27.889  32.285  1.00  0.00     0.031 C 
ATOM     41  C   UNL A   1      40.051  28.188  27.614  1.00  0.00     0.029 A 
ATOM     42  N   UNL A   1      41.837  27.739  28.844  1.00  0.00    -0.354 N 
ATOM     43  C   UNL A   1      41.785  28.901  33.173  1.00  0.00     0.074 A 
ATOM     44  C   UNL A   1      40.624  28.088  33.424  1.00  0.00     0.031 C 
ATOM     45  C   UNL A   1      40.785  27.291  26.920  1.00  0.00     0.029 A 
ATOM     46  C   UNL A   1      41.994  27.013  27.671  1.00  0.00     0.049 A 
ATOM     47  H   UNL A   1      42.527  27.780  29.545  1.00  0.00     0.167 HD
ATOM     48  C   UNL A   1      43.037  28.859  33.709  1.00  0.00     0.037 A 
ATOM     49  C   UNL A   1      43.062  26.258  27.322  1.00  0.00     0.037 A 
ATOM     50  C   UNL A   1      43.934  29.712  32.967  1.00  0.00     0.049 A 
ATOM     51  C   UNL A   1      44.230  26.795  28.060  1.00  0.00     0.074 A 
ATOM     52  C   UNL A   1      44.197  31.060  32.874  1.00  0.00     0.029 A 
ATOM     53  N   UNL A   1      44.464  29.114  31.852  1.00  0.00    -0.354 N 
ATOM     54  N   UNL A   1      44.702  27.999  27.879  1.00  0.00    -0.248 NA
ATOM     55  C   UNL A   1      44.689  26.121  29.270  1.00  0.00     0.031 C 
ATOM     56  C   UNL A   1      44.767  31.271  31.582  1.00  0.00     0.029 A 
ATOM     57  C   UNL A   1      44.871  30.044  30.932  1.00  0.00     0.049 A 
ATOM     58  H   UNL A   1      44.541  28.140  31.729  1.00  0.00     0.167 HD
ATOM     59  C   UNL A   1      45.156  28.379  29.125  1.00  0.00     0.074 A 
ATOM     60  C   UNL A   1      45.288  27.143  29.885  1.00  0.00     0.031 C 
ATOM     61  C   UNL A   1      45.070  29.672  29.545  1.00  0.00     0.037 A 
BRANCH  48  62
ATOM     62  C   UNL A   1      43.588  27.741  34.569  1.00  0.00     0.058 A 
ATOM     63  C   UNL A   1      44.019  28.032  35.881  1.00  0.00     0.135 A 
ATOM     64  C   UNL A   1      43.974  26.476  34.073  1.00  0.00     0.135 A 
ATOM     65  F   UNL A   1      43.724  29.212  36.451  1.00  0.00    -0.206 F 
ATOM     66  C   UNL A   1      44.813  27.154  36.623  1.00  0.00     0.059 A 
ATOM     67  C   UNL A   1      44.718  25.564  34.814  1.00  0.00     0.059 A 
ATOM     68  F   UNL A   1      43.736  26.101  32.811  1.00  0.00    -0.206 F 
ATOM     69  C   UNL A   1      45.164  25.924  36.075  1.00  0.00     0.060 A 
BRANCH  69  70
ATOM     70  S   UNL A   1      46.246  24.818  36.998  1.00  0.00     0.124 S 
ATOM     71  O   UNL A   1      47.337  24.618  36.052  1.00  0.00    -0.237 OA
ATOM     72  O   UNL A   1      46.558  25.617  38.178  1.00  0.00    -0.237 OA
ATOM     73  O   UNL A   1      45.402  23.652  37.244  1.00  0.00    -0.744 OA
ENDBRANCH  69  70
ENDBRANCH  48  62
BRANCH  49  74
ATOM     74  C   UNL A   1      43.071  24.931  26.659  1.00  0.00     0.058 A 
ATOM     75  C   UNL A   1      43.545  24.802  25.342  1.00  0.00     0.135 A 
ATOM     76  C   UNL A   1      42.938  23.740  27.399  1.00  0.00     0.135 A 
ATOM     77  F   UNL A   1      43.690  25.888  24.567  1.00  0.00    -0.206 F 
ATOM     78  C   UNL A   1      43.968  23.578  24.823  1.00  0.00     0.059 A 
ATOM     79  C   UNL A   1      43.344  22.504  26.898  1.00  0.00     0.059 A 
ATOM     80  F   UNL A   1      42.506  23.758  28.669  1.00  0.00    -0.206 F 
ATOM     81  C   UNL A   1      43.899  22.439  25.624  1.00  0.00     0.060 A 
BRANCH  81  82
ATOM     82  S   UNL A   1      44.671  20.910  25.044  1.00  0.00     0.124 S 
ATOM     83  O   UNL A   1      44.586  21.061  23.596  1.00  0.00    -0.237 OA
ATOM     84  O   UNL A   1      46.008  21.008  25.620  1.00  0.00    -0.237 OA
ATOM     85  O   UNL A   1      43.823  19.867  25.615  1.00  0.00    -0.744 OA
ENDBRANCH  81  82
ENDBRANCH  49  74
BRANCH  61  86
ATOM     86  C   UNL A   1      45.047  30.750  28.503  1.00  0.00     0.058 A 
ATOM     87  C   UNL A   1      46.160  31.195  27.770  1.00  0.00     0.135 A 
ATOM     88  C   UNL A   1      43.800  31.305  28.178  1.00  0.00     0.135 A 
ATOM     89  F   UNL A   1      47.374  30.667  27.976  1.00  0.00    -0.206 F 
ATOM     90  C   UNL A   1      46.037  32.167  26.774  1.00  0.00     0.059 A 
ATOM     91  C   UNL A   1      43.649  32.252  27.172  1.00  0.00     0.059 A 
ATOM     92  F   UNL A   1      42.693  30.892  28.821  1.00  0.00    -0.206 F 
ATOM     93  C   UNL A   1      44.776  32.686  26.479  1.00  0.00     0.060 A 
BRANCH  93  94
ATOM     94  S   UNL A   1      44.604  33.890  25.144  1.00  0.00     0.124 S 
ATOM     95  O   UNL A   1      43.530  34.746  25.635  1.00  0.00    -0.237 OA
ATOM     96  O   UNL A   1      45.931  34.499  25.096  1.00  0.00    -0.237 OA
ATOM     97  O   UNL A   1      44.264  33.068  23.984  1.00  0.00    -0.744 OA
ENDBRANCH  93  94
ENDBRANCH  61  86
ENDBRANCH  35  36
ENDBRANCH  27  30
ENDBRANCH  25  26
ENDBRANCH   1  25
TORSDOF 16
ENDMDL
MODEL 2
REMARK VINA RESULT:     -12.5      3.179      9.395
REMARK SMILES Cc1nsc(N(C)C(=O)c2ccc(=O)n(C)n2)c1C(=O)NCCCNC(=O)c1ccc(-c2c3nc(c(-c4c(F)cc(S(=O)(=O)[O-])cc4F)c4ccc([nH]4)c(-c4c(F)cc(S(=O)(=O)[O-])cc4F)c4nc(c(-c5c(F)cc(S(=O)(=O)[O-])cc5F)c5ccc2[nH]5)C=C4)C=C3)cc1
REMARK SMILES IDX 23 1 22 2 21 3 19 4 20 5 18 7 1 8 2 9 3 10 4 11 5 12 6 13
REMARK SMILES IDX 7 14 8 15 9 16 10 17 11 18 17 19 12 20 15 21 13 22 16 23
REMARK SMILES IDX 14 24 24 25 25 26 26 27 27 29 28 30 29 31 93 32 30 33 92 34
REMARK SMILES IDX 31 35 32 36 33 37 86 38 34 39 91 40 85 41 87 42 35 43 90 44
REMARK SMILES IDX 84 45 83 46 36 48 70 49 49 50 69 51 50 52 53 53 68 54 88 55
REMARK SMILES IDX 51 56 52 57 67 59 89 60 54 61 37 62 38 63 47 64 39 65 40 66
REMARK SMILES IDX 46 67 48 68 41 69 42 70 43 71 44 72 45 73 71 74 72 75 81 76
REMARK SMILES IDX 73 77 74 78 80 79 82 80 75 81 76 82 77 83 78 84 79 85 55 86
REMARK SMILES IDX 56 87 65 88 57 89 58 90 64 91 66 92 59 93 60 94 61 95 62 96
REMARK SMILES IDX 63 97
REMARK H PARENT 21 6 25 28 87 47 53 58
REMARK Flexibility Score: inf
ROOT
ATOM      1  C   UNL A   1      37.762  22.325  25.198  1.00  0.00     0.042 C 
ENDROOT
BRANCH   1   2
ATOM      2  C   UNL A   1      36.612  21.475  25.747  1.00  0.00     0.118 C 
BRANCH   2   3
ATOM      3  N   UNL A   1      35.576  22.283  26.361  1.00  0.00    -0.352 N 
ATOM      4  C   UNL A   1      34.261  21.888  26.454  1.00  0.00     0.256 C 
ATOM      5  O   UNL A   1      33.844  21.468  27.533  1.00  0.00    -0.269 OA
ATOM      6  H   UNL A   1      35.828  23.161  26.731  1.00  0.00     0.163 HD
BRANCH   4   7
ATOM      7  C   UNL A   1      33.360  22.130  25.325  1.00  0.00     0.097 A 
ATOM      8  C   UNL A   1      33.073  19.727  24.196  1.00  0.00     0.069 C 
ATOM      9  C   UNL A   1      32.797  21.176  24.372  1.00  0.00     0.066 A 
ATOM     10  N   UNL A   1      31.857  21.646  23.553  1.00  0.00    -0.195 NA
ATOM     11  S   UNL A   1      31.594  23.219  23.877  1.00  0.00    -0.017 S 
ATOM     12  C   UNL A   1      32.800  23.396  25.079  1.00  0.00     0.131 A 
BRANCH  12  13
ATOM     13  N   UNL A   1      33.017  24.702  25.585  1.00  0.00    -0.299 N 
ATOM     14  C   UNL A   1      34.287  25.421  25.425  1.00  0.00     0.154 C 
BRANCH  13  15
ATOM     15  C   UNL A   1      31.974  25.306  26.327  1.00  0.00     0.279 C 
ATOM     16  O   UNL A   1      31.290  24.744  27.181  1.00  0.00    -0.267 OA
BRANCH  15  17
ATOM     17  C   UNL A   1      31.742  26.816  26.151  1.00  0.00     0.149 A 
ATOM     18  C   UNL A   1      31.995  27.657  27.343  1.00  0.00     0.042 A 
ATOM     19  N   UNL A   1      31.356  27.281  25.000  1.00  0.00    -0.165 NA
ATOM     20  C   UNL A   1      31.885  28.978  27.190  1.00  0.00     0.076 A 
ATOM     21  N   UNL A   1      31.250  28.649  24.868  1.00  0.00    -0.232 N 
ATOM     22  C   UNL A   1      31.535  29.561  25.878  1.00  0.00     0.266 A 
ATOM     23  C   UNL A   1      30.868  29.154  23.565  1.00  0.00     0.178 C 
ATOM     24  O   UNL A   1      31.519  30.780  25.739  1.00  0.00    -0.268 OA
ENDBRANCH  15  17
ENDBRANCH  13  15
ENDBRANCH  12  13
ENDBRANCH   4   7
ENDBRANCH   2   3
ENDBRANCH   1   2
BRANCH   1  25
ATOM     25  C   UNL A   1      38.610  22.924  26.303  1.00  0.00     0.118 C 
BRANCH  25  26
ATOM     26  N   UNL A   1      39.936  22.309  26.333  1.00  0.00    -0.352 N 
ATOM     27  C   UNL A   1      41.175  22.906  26.429  1.00  0.00     0.251 C 
ATOM     28  H   UNL A   1      39.946  21.326  26.277  1.00  0.00     0.163 HD
ATOM     29  O   UNL A   1      42.179  22.287  26.120  1.00  0.00    -0.269 OA
BRANCH  27  30
ATOM     30  C   UNL A   1      41.255  24.300  26.894  1.00  0.00     0.039 A 
ATOM     31  C   UNL A   1      40.744  25.334  26.108  1.00  0.00     0.014 A 
ATOM     32  C   UNL A   1      41.827  24.559  28.139  1.00  0.00     0.014 A 
ATOM     33  C   UNL A   1      40.746  26.625  26.623  1.00  0.00     0.010 A 
ATOM     34  C   UNL A   1      41.693  25.800  28.706  1.00  0.00     0.010 A 
ATOM     35  C   UNL A   1      41.202  26.843  27.932  1.00  0.00    -0.014 A 
BRANCH  35  36
ATOM     36  C   UNL A   1      41.094  28.161  28.536  1.00  0.00     0.031 A 
ATOM     37  C   UNL A   1      42.173  29.099  28.148  1.00  0.00     0.074 A 
ATOM     38  C   UNL A   1      40.021  28.565  29.245  1.00  0.00     0.049 A 
ATOM     39  N   UNL A   1      43.225  29.406  28.831  1.00  0.00    -0.248 NA
ATOM     40  C   UNL A   1      42.181  29.632  26.776  1.00  0.00     0.031 C 
ATOM     41  C   UNL A   1      38.738  27.870  29.413  1.00  0.00     0.029 A 
ATOM     42  N   UNL A   1      39.821  29.736  29.910  1.00  0.00    -0.354 N 
ATOM     43  C   UNL A   1      43.866  30.397  28.096  1.00  0.00     0.074 A 
ATOM     44  C   UNL A   1      43.331  30.312  26.762  1.00  0.00     0.031 C 
ATOM     45  C   UNL A   1      37.830  28.715  29.946  1.00  0.00     0.029 A 
ATOM     46  C   UNL A   1      38.514  29.933  30.336  1.00  0.00     0.049 A 
ATOM     47  H   UNL A   1      40.541  30.388  30.074  1.00  0.00     0.167 HD
ATOM     48  C   UNL A   1      44.531  31.404  28.729  1.00  0.00     0.037 A 
ATOM     49  C   UNL A   1      38.030  31.010  30.997  1.00  0.00     0.037 A 
ATOM     50  C   UNL A   1      44.649  31.123  30.140  1.00  0.00     0.049 A 
ATOM     51  C   UNL A   1      39.175  31.633  31.704  1.00  0.00     0.074 A 
ATOM     52  C   UNL A   1      45.427  30.323  30.947  1.00  0.00     0.029 A 
ATOM     53  N   UNL A   1      43.544  31.487  30.866  1.00  0.00    -0.354 N 
ATOM     54  N   UNL A   1      39.844  31.035  32.653  1.00  0.00    -0.248 NA
ATOM     55  C   UNL A   1      39.822  32.810  31.132  1.00  0.00     0.031 C 
ATOM     56  C   UNL A   1      44.667  30.091  32.133  1.00  0.00     0.029 A 
ATOM     57  C   UNL A   1      43.462  30.782  32.038  1.00  0.00     0.049 A 
ATOM     58  H   UNL A   1      42.892  32.168  30.581  1.00  0.00     0.167 HD
ATOM     59  C   UNL A   1      41.137  31.490  32.498  1.00  0.00     0.074 A 
ATOM     60  C   UNL A   1      41.032  32.693  31.683  1.00  0.00     0.031 C 
ATOM     61  C   UNL A   1      42.206  30.685  32.755  1.00  0.00     0.037 A 
BRANCH  48  62
ATOM     62  C   UNL A   1      44.664  32.824  28.222  1.00  0.00     0.058 A 
ATOM     63  C   UNL A   1      45.929  33.289  27.803  1.00  0.00     0.135 A 
ATOM     64  C   UNL A   1      43.681  33.824  28.398  1.00  0.00     0.135 A 
ATOM     65  F   UNL A   1      46.945  32.431  27.619  1.00  0.00    -0.206 F 
ATOM     66  C   UNL A   1      46.208  34.646  27.621  1.00  0.00     0.059 A 
ATOM     67  C   UNL A   1      43.922  35.174  28.168  1.00  0.00     0.059 A 
ATOM     68  F   UNL A   1      42.468  33.554  28.895  1.00  0.00    -0.206 F 
ATOM     69  C   UNL A   1      45.197  35.582  27.814  1.00  0.00     0.060 A 
BRANCH  69  70
ATOM     70  S   UNL A   1      45.569  37.337  27.649  1.00  0.00     0.124 S 
ATOM     71  O   UNL A   1      45.712  37.739  29.044  1.00  0.00    -0.237 OA
ATOM     72  O   UNL A   1      46.796  37.313  26.860  1.00  0.00    -0.237 OA
ATOM     73  O   UNL A   1      44.397  37.864  26.957  1.00  0.00    -0.744 OA
ENDBRANCH  69  70
ENDBRANCH  48  62
BRANCH  49  74
ATOM     74  C   UNL A   1      36.736  31.706  30.796  1.00  0.00     0.058 A 
ATOM     75  C   UNL A   1      35.785  31.743  31.830  1.00  0.00     0.135 A 
ATOM     76  C   UNL A   1      36.547  32.615  29.736  1.00  0.00     0.135 A 
ATOM     77  F   UNL A   1      35.887  30.904  32.872  1.00  0.00    -0.206 F 
ATOM     78  C   UNL A   1      34.768  32.699  31.869  1.00  0.00     0.059 A 
ATOM     79  C   UNL A   1      35.534  33.571  29.747  1.00  0.00     0.059 A 
ATOM     80  F   UNL A   1      37.407  32.666  28.707  1.00  0.00    -0.206 F 
ATOM     81  C   UNL A   1      34.675  33.634  30.840  1.00  0.00     0.060 A 
BRANCH  81  82
ATOM     82  S   UNL A   1      33.520  35.015  31.012  1.00  0.00     0.124 S 
ATOM     83  O   UNL A   1      32.767  34.934  29.767  1.00  0.00    -0.237 OA
ATOM     84  O   UNL A   1      32.793  34.653  32.224  1.00  0.00    -0.237 OA
ATOM     85  O   UNL A   1      34.398  36.175  31.138  1.00  0.00    -0.744 OA
ENDBRANCH  81  82
ENDBRANCH  49  74
BRANCH  61  86
ATOM     86  C   UNL A   1      42.022  29.563  33.733  1.00  0.00     0.058 A 
ATOM     87  C   UNL A   1      41.811  28.217  33.394  1.00  0.00     0.135 A 
ATOM     88  C   UNL A   1      42.146  29.872  35.096  1.00  0.00     0.135 A 
ATOM     89  F   UNL A   1      41.745  27.832  32.112  1.00  0.00    -0.206 F 
ATOM     90  C   UNL A   1      41.706  27.225  34.372  1.00  0.00     0.059 A 
ATOM     91  C   UNL A   1      42.074  28.898  36.086  1.00  0.00     0.059 A 
ATOM     92  F   UNL A   1      42.384  31.138  35.479  1.00  0.00    -0.206 F 
ATOM     93  C   UNL A   1      41.844  27.576  35.716  1.00  0.00     0.060 A 
BRANCH  93  94
ATOM     94  S   UNL A   1      41.780  26.285  36.978  1.00  0.00     0.124 S 
ATOM     95  O   UNL A   1      40.518  26.574  37.652  1.00  0.00    -0.237 OA
ATOM     96  O   UNL A   1      41.808  25.063  36.180  1.00  0.00    -0.237 OA
ATOM     97  O   UNL A   1      42.981  26.526  37.775  1.00  0.00    -0.744 OA
ENDBRANCH  93  94
ENDBRANCH  61  86
ENDBRANCH  35  36
ENDBRANCH  27  30
ENDBRANCH  25  26
ENDBRANCH   1  25
TORSDOF 16
ENDMDL
MODEL 3
REMARK VINA RESULT:     -12.5      1.544      3.820
REMARK SMILES Cc1nsc(N(C)C(=O)c2ccc(=O)n(C)n2)c1C(=O)NCCCNC(=O)c1ccc(-c2c3nc(c(-c4c(F)cc(S(=O)(=O)[O-])cc4F)c4ccc([nH]4)c(-c4c(F)cc(S(=O)(=O)[O-])cc4F)c4nc(c(-c5c(F)cc(S(=O)(=O)[O-])cc5F)c5ccc2[nH]5)C=C4)C=C3)cc1
REMARK SMILES IDX 23 1 22 2 21 3 19 4 20 5 18 7 1 8 2 9 3 10 4 11 5 12 6 13
REMARK SMILES IDX 7 14 8 15 9 16 10 17 11 18 17 19 12 20 15 21 13 22 16 23
REMARK SMILES IDX 14 24 24 25 25 26 26 27 27 29 28 30 29 31 93 32 30 33 92 34
REMARK SMILES IDX 31 35 32 36 33 37 86 38 34 39 91 40 85 41 87 42 35 43 90 44
REMARK SMILES IDX 84 45 83 46 36 48 70 49 49 50 69 51 50 52 53 53 68 54 88 55
REMARK SMILES IDX 51 56 52 57 67 59 89 60 54 61 37 62 38 63 47 64 39 65 40 66
REMARK SMILES IDX 46 67 48 68 41 69 42 70 43 71 44 72 45 73 71 74 72 75 81 76
REMARK SMILES IDX 73 77 74 78 80 79 82 80 75 81 76 82 77 83 78 84 79 85 55 86
REMARK SMILES IDX 56 87 65 88 57 89 58 90 64 91 66 92 59 93 60 94 61 95 62 96
REMARK SMILES IDX 63 97
REMARK H PARENT 21 6 25 28 87 47 53 58
REMARK Flexibility Score: inf
ROOT
ATOM      1  C   UNL A   1      33.445  30.255  27.430  1.00  0.00     0.042 C 
ENDROOT
BRANCH   1   2
ATOM      2  C   UNL A   1      32.746  30.094  26.077  1.00  0.00     0.118 C 
BRANCH   2   3
ATOM      3  N   UNL A   1      33.374  29.081  25.250  1.00  0.00    -0.352 N 
ATOM      4  C   UNL A   1      32.915  28.728  24.001  1.00  0.00     0.256 C 
ATOM      5  O   UNL A   1      33.505  29.157  23.011  1.00  0.00    -0.269 OA
ATOM      6  H   UNL A   1      34.172  28.622  25.602  1.00  0.00     0.163 HD
BRANCH   4   7
ATOM      7  C   UNL A   1      31.849  27.729  23.888  1.00  0.00     0.097 A 
ATOM      8  C   UNL A   1      29.661  29.171  23.372  1.00  0.00     0.069 C 
ATOM      9  C   UNL A   1      30.439  27.919  23.558  1.00  0.00     0.066 A 
ATOM     10  N   UNL A   1      29.729  26.811  23.343  1.00  0.00    -0.195 NA
ATOM     11  S   UNL A   1      30.693  25.511  23.511  1.00  0.00    -0.017 S 
ATOM     12  C   UNL A   1      32.109  26.352  23.981  1.00  0.00     0.131 A 
BRANCH  12  13
ATOM     13  N   UNL A   1      33.226  25.566  24.362  1.00  0.00    -0.299 N 
ATOM     14  C   UNL A   1      33.750  25.534  25.733  1.00  0.00     0.154 C 
BRANCH  13  15
ATOM     15  C   UNL A   1      33.893  24.831  23.353  1.00  0.00     0.279 C 
ATOM     16  O   UNL A   1      34.061  25.204  22.194  1.00  0.00    -0.267 OA
BRANCH  15  17
ATOM     17  C   UNL A   1      34.575  23.512  23.752  1.00  0.00     0.149 A 
ATOM     18  C   UNL A   1      36.044  23.458  23.573  1.00  0.00     0.042 A 
ATOM     19  N   UNL A   1      33.862  22.532  24.223  1.00  0.00    -0.165 NA
ATOM     20  C   UNL A   1      36.667  22.355  23.993  1.00  0.00     0.076 A 
ATOM     21  N   UNL A   1      34.530  21.405  24.650  1.00  0.00    -0.232 N 
ATOM     22  C   UNL A   1      35.911  21.249  24.617  1.00  0.00     0.266 A 
ATOM     23  C   UNL A   1      33.725  20.343  25.220  1.00  0.00     0.178 C 
ATOM     24  O   UNL A   1      36.513  20.281  25.070  1.00  0.00    -0.268 OA
ENDBRANCH  15  17
ENDBRANCH  13  15
ENDBRANCH  12  13
ENDBRANCH   4   7
ENDBRANCH   2   3
ENDBRANCH   1   2
BRANCH   1  25
ATOM     25  C   UNL A   1      34.406  31.428  27.442  1.00  0.00     0.118 C 
BRANCH  25  26
ATOM     26  N   UNL A   1      34.360  32.124  28.727  1.00  0.00    -0.352 N 
ATOM     27  C   UNL A   1      35.131  31.931  29.854  1.00  0.00     0.251 C 
ATOM     28  H   UNL A   1      33.679  32.832  28.800  1.00  0.00     0.163 HD
ATOM     29  O   UNL A   1      34.759  32.363  30.932  1.00  0.00    -0.269 OA
BRANCH  27  30
ATOM     30  C   UNL A   1      36.394  31.187  29.728  1.00  0.00     0.039 A 
ATOM     31  C   UNL A   1      37.600  31.871  29.568  1.00  0.00     0.014 A 
ATOM     32  C   UNL A   1      36.361  29.795  29.795  1.00  0.00     0.014 A 
ATOM     33  C   UNL A   1      38.783  31.140  29.554  1.00  0.00     0.010 A 
ATOM     34  C   UNL A   1      37.529  29.090  29.931  1.00  0.00     0.010 A 
ATOM     35  C   UNL A   1      38.737  29.752  29.759  1.00  0.00    -0.014 A 
BRANCH  35  36
ATOM     36  C   UNL A   1      39.968  28.988  29.874  1.00  0.00     0.031 A 
ATOM     37  C   UNL A   1      40.415  28.759  31.267  1.00  0.00     0.074 A 
ATOM     38  C   UNL A   1      40.565  28.384  28.826  1.00  0.00     0.049 A 
ATOM     39  N   UNL A   1      41.328  29.405  31.911  1.00  0.00    -0.248 NA
ATOM     40  C   UNL A   1      39.651  27.819  32.104  1.00  0.00     0.031 C 
ATOM     41  C   UNL A   1      40.050  28.235  27.458  1.00  0.00     0.029 A 
ATOM     42  N   UNL A   1      41.741  27.699  28.784  1.00  0.00    -0.354 N 
ATOM     43  C   UNL A   1      41.451  28.750  33.132  1.00  0.00     0.074 A 
ATOM     44  C   UNL A   1      40.254  27.968  33.288  1.00  0.00     0.031 C 
ATOM     45  C   UNL A   1      40.800  27.334  26.787  1.00  0.00     0.029 A 
ATOM     46  C   UNL A   1      41.950  26.999  27.603  1.00  0.00     0.049 A 
ATOM     47  H   UNL A   1      42.387  27.700  29.528  1.00  0.00     0.167 HD
ATOM     48  C   UNL A   1      42.666  28.655  33.743  1.00  0.00     0.037 A 
ATOM     49  C   UNL A   1      43.015  26.221  27.301  1.00  0.00     0.037 A 
ATOM     50  C   UNL A   1      43.633  29.499  33.082  1.00  0.00     0.049 A 
ATOM     51  C   UNL A   1      44.150  26.701  28.125  1.00  0.00     0.074 A 
ATOM     52  C   UNL A   1      43.940  30.840  33.044  1.00  0.00     0.029 A 
ATOM     53  N   UNL A   1      44.214  28.914  31.986  1.00  0.00    -0.354 N 
ATOM     54  N   UNL A   1      44.668  27.895  28.006  1.00  0.00    -0.248 NA
ATOM     55  C   UNL A   1      44.512  25.982  29.342  1.00  0.00     0.031 C 
ATOM     56  C   UNL A   1      44.596  31.066  31.796  1.00  0.00     0.029 A 
ATOM     57  C   UNL A   1      44.705  29.854  31.119  1.00  0.00     0.049 A 
ATOM     58  H   UNL A   1      44.270  27.942  31.841  1.00  0.00     0.167 HD
ATOM     59  C   UNL A   1      45.054  28.228  29.288  1.00  0.00     0.074 A 
ATOM     60  C   UNL A   1      45.101  26.970  30.020  1.00  0.00     0.031 C 
ATOM     61  C   UNL A   1      44.979  29.512  29.738  1.00  0.00     0.037 A 
BRANCH  48  62
ATOM     62  C   UNL A   1      43.129  27.499  34.604  1.00  0.00     0.058 A 
ATOM     63  C   UNL A   1      43.404  27.726  35.970  1.00  0.00     0.135 A 
ATOM     64  C   UNL A   1      43.583  26.263  34.094  1.00  0.00     0.135 A 
ATOM     65  F   UNL A   1      43.033  28.874  36.560  1.00  0.00    -0.206 F 
ATOM     66  C   UNL A   1      44.119  26.817  36.753  1.00  0.00     0.059 A 
ATOM     67  C   UNL A   1      44.248  25.319  34.870  1.00  0.00     0.059 A 
ATOM     68  F   UNL A   1      43.494  25.949  32.796  1.00  0.00    -0.206 F 
ATOM     69  C   UNL A   1      44.544  25.618  36.190  1.00  0.00     0.060 A 
BRANCH  69  70
ATOM     70  S   UNL A   1      45.527  24.473  37.174  1.00  0.00     0.124 S 
ATOM     71  O   UNL A   1      46.872  25.001  36.982  1.00  0.00    -0.237 OA
ATOM     72  O   UNL A   1      44.953  24.649  38.504  1.00  0.00    -0.237 OA
ATOM     73  O   UNL A   1      45.261  23.181  36.550  1.00  0.00    -0.744 OA
ENDBRANCH  69  70
ENDBRANCH  48  62
BRANCH  49  74
ATOM     74  C   UNL A   1      43.027  24.912  26.603  1.00  0.00     0.058 A 
ATOM     75  C   UNL A   1      43.610  24.795  25.329  1.00  0.00     0.135 A 
ATOM     76  C   UNL A   1      42.779  23.709  27.294  1.00  0.00     0.135 A 
ATOM     77  F   UNL A   1      43.869  25.892  24.602  1.00  0.00    -0.206 F 
ATOM     78  C   UNL A   1      44.025  23.566  24.814  1.00  0.00     0.059 A 
ATOM     79  C   UNL A   1      43.175  22.470  26.795  1.00  0.00     0.059 A 
ATOM     80  F   UNL A   1      42.237  23.715  28.521  1.00  0.00    -0.206 F 
ATOM     81  C   UNL A   1      43.838  22.412  25.573  1.00  0.00     0.060 A 
BRANCH  81  82
ATOM     82  S   UNL A   1      44.592  20.865  25.018  1.00  0.00     0.124 S 
ATOM     83  O   UNL A   1      43.687  19.870  25.582  1.00  0.00    -0.237 OA
ATOM     84  O   UNL A   1      44.555  21.014  23.567  1.00  0.00    -0.237 OA
ATOM     85  O   UNL A   1      45.925  20.907  25.613  1.00  0.00    -0.744 OA
ENDBRANCH  81  82
ENDBRANCH  49  74
BRANCH  61  86
ATOM     86  C   UNL A   1      45.054  30.616  28.726  1.00  0.00     0.058 A 
ATOM     87  C   UNL A   1      46.227  31.064  28.098  1.00  0.00     0.135 A 
ATOM     88  C   UNL A   1      43.843  31.198  28.318  1.00  0.00     0.135 A 
ATOM     89  F   UNL A   1      47.415  30.514  28.385  1.00  0.00    -0.206 F 
ATOM     90  C   UNL A   1      46.197  32.063  27.121  1.00  0.00     0.059 A 
ATOM     91  C   UNL A   1      43.786  32.173  27.329  1.00  0.00     0.059 A 
ATOM     92  F   UNL A   1      42.684  30.785  28.859  1.00  0.00    -0.206 F 
ATOM     93  C   UNL A   1      44.970  32.608  26.740  1.00  0.00     0.060 A 
BRANCH  93  94
ATOM     94  S   UNL A   1      44.922  33.848  25.428  1.00  0.00     0.124 S 
ATOM     95  O   UNL A   1      44.061  34.876  26.006  1.00  0.00    -0.237 OA
ATOM     96  O   UNL A   1      46.329  34.207  25.282  1.00  0.00    -0.237 OA
ATOM     97  O   UNL A   1      44.351  33.124  24.294  1.00  0.00    -0.744 OA
ENDBRANCH  93  94
ENDBRANCH  61  86
ENDBRANCH  35  36
ENDBRANCH  27  30
ENDBRANCH  25  26
ENDBRANCH   1  25
TORSDOF 16
ENDMDL
