MODEL 1
REMARK VINA RESULT:     -13.4      0.000      0.000
REMARK SMILES O=C(NCCCNC(=O)c1nn(Cc2ccc(F)cc2)c2c1CN(C(=O)[C@H]1CC1(F)F)CC2)c1ccc(-c2c3nc(c(-c4c(F)cc(S(=O)(=O)[O-])cc4F)c4ccc([nH]4)c(-c4c(F)cc(S(=O)(=O)[O-])cc4F)c4nc(c(-c5c(F)cc(S(=O)(=O)[O-])cc5F)c5ccc2[nH]5)C=C4)C=C3)cc1
REMARK SMILES IDX 4 1 3 2 1 3 2 4 34 6 35 7 99 8 36 9 98 10 37 11 38 12 39 13
REMARK SMILES IDX 92 14 40 15 97 16 91 17 93 18 41 19 96 20 90 21 89 22 42 24
REMARK SMILES IDX 76 25 55 26 75 27 56 28 59 29 74 30 94 31 57 32 58 33 73 35
REMARK SMILES IDX 95 36 60 37 43 38 44 39 53 40 45 41 46 42 52 43 54 44 47 45
REMARK SMILES IDX 48 46 49 47 50 48 51 49 77 50 78 51 87 52 79 53 80 54 86 55
REMARK SMILES IDX 88 56 81 57 82 58 83 59 84 60 85 61 61 62 62 63 71 64 63 65
REMARK SMILES IDX 64 66 70 67 72 68 65 69 66 70 67 71 68 72 69 73 5 74 6 75
REMARK SMILES IDX 7 76 8 77 9 79 10 80 11 81 22 82 12 83 21 84 23 85 33 86
REMARK SMILES IDX 24 87 32 88 13 89 14 90 15 91 20 92 16 93 19 94 17 95 18 96
REMARK SMILES IDX 25 97 26 98 27 99 28 100 29 101 30 102 31 103
REMARK H PARENT 3 5 93 23 59 34 7 78
REMARK Flexibility Score: inf
ROOT
ATOM      1  C   UNL A   1      39.894  21.902  26.364  1.00  0.00     0.118 C 
ENDROOT
BRANCH   1   2
ATOM      2  N   UNL A   1      41.030  22.058  25.478  1.00  0.00    -0.352 N 
ATOM      3  O   UNL A   1      43.032  22.553  24.680  1.00  0.00    -0.269 OA
ATOM      4  C   UNL A   1      42.152  22.840  25.496  1.00  0.00     0.251 C 
ATOM      5  H   UNL A   1      40.985  21.470  24.689  1.00  0.00     0.163 HD
BRANCH   4   6
ATOM      6  C   UNL A   1      42.324  24.047  26.345  1.00  0.00     0.039 A 
ATOM      7  C   UNL A   1      43.019  24.102  27.556  1.00  0.00     0.014 A 
ATOM      8  C   UNL A   1      41.665  25.201  25.887  1.00  0.00     0.014 A 
ATOM      9  C   UNL A   1      42.938  25.233  28.364  1.00  0.00     0.010 A 
ATOM     10  C   UNL A   1      41.605  26.340  26.674  1.00  0.00     0.010 A 
ATOM     11  C   UNL A   1      42.189  26.327  27.941  1.00  0.00    -0.014 A 
BRANCH  11  12
ATOM     12  C   UNL A   1      42.071  27.490  28.817  1.00  0.00     0.031 A 
ATOM     13  C   UNL A   1      43.194  28.479  28.747  1.00  0.00     0.074 A 
ATOM     14  C   UNL A   1      40.906  27.732  29.455  1.00  0.00     0.049 A 
ATOM     15  N   UNL A   1      43.867  29.033  29.707  1.00  0.00    -0.248 NA
ATOM     16  C   UNL A   1      43.682  28.842  27.402  1.00  0.00     0.031 C 
ATOM     17  C   UNL A   1      39.649  26.979  29.346  1.00  0.00     0.029 A 
ATOM     18  N   UNL A   1      40.551  28.788  30.233  1.00  0.00    -0.354 N 
ATOM     19  C   UNL A   1      44.728  29.951  29.098  1.00  0.00     0.074 A 
ATOM     20  C   UNL A   1      44.664  29.697  27.682  1.00  0.00     0.031 C 
ATOM     21  C   UNL A   1      38.632  27.739  29.810  1.00  0.00     0.029 A 
ATOM     22  C   UNL A   1      39.180  28.967  30.357  1.00  0.00     0.049 A 
ATOM     23  H   UNL A   1      41.210  29.375  30.669  1.00  0.00     0.167 HD
ATOM     24  C   UNL A   1      45.306  30.990  29.763  1.00  0.00     0.037 A 
ATOM     25  C   UNL A   1      38.550  30.096  30.772  1.00  0.00     0.037 A 
ATOM     26  C   UNL A   1      45.319  30.784  31.184  1.00  0.00     0.049 A 
ATOM     27  C   UNL A   1      39.559  30.910  31.502  1.00  0.00     0.074 A 
ATOM     28  C   UNL A   1      45.915  29.863  32.022  1.00  0.00     0.029 A 
ATOM     29  N   UNL A   1      44.362  31.407  31.945  1.00  0.00    -0.354 N 
ATOM     30  N   UNL A   1      40.134  30.538  32.615  1.00  0.00    -0.248 NA
ATOM     31  C   UNL A   1      40.271  31.930  30.744  1.00  0.00     0.031 C 
ATOM     32  C   UNL A   1      44.958  29.629  33.050  1.00  0.00     0.029 A 
ATOM     33  C   UNL A   1      43.861  30.455  32.798  1.00  0.00     0.049 A 
ATOM     34  H   UNL A   1      44.089  32.351  31.890  1.00  0.00     0.167 HD
ATOM     35  C   UNL A   1      41.448  30.974  32.507  1.00  0.00     0.074 A 
ATOM     36  C   UNL A   1      41.453  31.880  31.360  1.00  0.00     0.031 C 
ATOM     37  C   UNL A   1      42.467  30.358  33.177  1.00  0.00     0.037 A 
BRANCH  24  38
ATOM     38  C   UNL A   1      45.598  32.328  29.130  1.00  0.00     0.058 A 
ATOM     39  C   UNL A   1      46.903  32.727  28.762  1.00  0.00     0.135 A 
ATOM     40  C   UNL A   1      44.552  33.126  28.627  1.00  0.00     0.135 A 
ATOM     41  F   UNL A   1      47.982  31.999  29.081  1.00  0.00    -0.206 F 
ATOM     42  C   UNL A   1      47.157  33.838  27.966  1.00  0.00     0.059 A 
ATOM     43  C   UNL A   1      44.781  34.217  27.781  1.00  0.00     0.059 A 
ATOM     44  F   UNL A   1      43.271  32.822  28.895  1.00  0.00    -0.206 F 
ATOM     45  C   UNL A   1      46.089  34.559  27.453  1.00  0.00     0.060 A 
BRANCH  45  46
ATOM     46  S   UNL A   1      46.455  35.864  26.264  1.00  0.00     0.124 S 
ATOM     47  O   UNL A   1      46.274  35.164  24.996  1.00  0.00    -0.237 OA
ATOM     48  O   UNL A   1      45.442  36.862  26.591  1.00  0.00    -0.237 OA
ATOM     49  O   UNL A   1      47.827  36.240  26.586  1.00  0.00    -0.744 OA
ENDBRANCH  45  46
ENDBRANCH  24  38
BRANCH  25  50
ATOM     50  C   UNL A   1      37.317  30.687  30.173  1.00  0.00     0.058 A 
ATOM     51  C   UNL A   1      37.238  30.988  28.797  1.00  0.00     0.135 A 
ATOM     52  C   UNL A   1      36.292  31.215  30.978  1.00  0.00     0.135 A 
ATOM     53  F   UNL A   1      38.195  30.598  27.942  1.00  0.00    -0.206 F 
ATOM     54  C   UNL A   1      36.227  31.777  28.255  1.00  0.00     0.059 A 
ATOM     55  C   UNL A   1      35.269  32.022  30.458  1.00  0.00     0.059 A 
ATOM     56  F   UNL A   1      36.304  31.006  32.304  1.00  0.00    -0.206 F 
ATOM     57  C   UNL A   1      35.259  32.314  29.096  1.00  0.00     0.060 A 
BRANCH  57  58
ATOM     58  S   UNL A   1      34.062  33.459  28.374  1.00  0.00     0.124 S 
ATOM     59  O   UNL A   1      34.908  34.270  27.506  1.00  0.00    -0.237 OA
ATOM     60  O   UNL A   1      33.147  32.549  27.689  1.00  0.00    -0.237 OA
ATOM     61  O   UNL A   1      33.506  34.149  29.532  1.00  0.00    -0.744 OA
ENDBRANCH  57  58
ENDBRANCH  25  50
BRANCH  37  62
ATOM     62  C   UNL A   1      42.126  29.296  34.196  1.00  0.00     0.058 A 
ATOM     63  C   UNL A   1      42.388  29.548  35.549  1.00  0.00     0.135 A 
ATOM     64  C   UNL A   1      41.760  27.980  33.855  1.00  0.00     0.135 A 
ATOM     65  F   UNL A   1      42.800  30.767  35.938  1.00  0.00    -0.206 F 
ATOM     66  C   UNL A   1      42.309  28.545  36.516  1.00  0.00     0.059 A 
ATOM     67  C   UNL A   1      41.643  26.965  34.809  1.00  0.00     0.059 A 
ATOM     68  F   UNL A   1      41.594  27.626  32.575  1.00  0.00    -0.206 F 
ATOM     69  C   UNL A   1      41.943  27.253  36.137  1.00  0.00     0.060 A 
BRANCH  69  70
ATOM     70  S   UNL A   1      41.931  25.958  37.396  1.00  0.00     0.124 S 
ATOM     71  O   UNL A   1      40.528  25.946  37.806  1.00  0.00    -0.237 OA
ATOM     72  O   UNL A   1      42.375  24.788  36.646  1.00  0.00    -0.237 OA
ATOM     73  O   UNL A   1      42.864  26.435  38.412  1.00  0.00    -0.744 OA
ENDBRANCH  69  70
ENDBRANCH  37  62
ENDBRANCH  11  12
ENDBRANCH   4   6
ENDBRANCH   1   2
BRANCH   1  74
ATOM     74  C   UNL A   1      39.029  23.148  26.544  1.00  0.00     0.042 C 
BRANCH  74  75
ATOM     75  C   UNL A   1      37.628  23.043  25.932  1.00  0.00     0.118 C 
BRANCH  75  76
ATOM     76  N   UNL A   1      37.658  23.096  24.475  1.00  0.00    -0.351 N 
ATOM     77  C   UNL A   1      36.633  23.045  23.558  1.00  0.00     0.272 C 
ATOM     78  H   UNL A   1      38.558  23.184  24.085  1.00  0.00     0.163 HD
ATOM     79  O   UNL A   1      36.930  22.849  22.378  1.00  0.00    -0.267 OA
BRANCH  77  80
ATOM     80  C   UNL A   1      35.235  23.176  23.989  1.00  0.00     0.155 A 
ATOM     81  N   UNL A   1      34.523  24.312  23.840  1.00  0.00    -0.167 NA
ATOM     82  C   UNL A   1      34.417  22.150  24.536  1.00  0.00     0.026 A 
ATOM     83  N   UNL A   1      33.330  24.064  24.427  1.00  0.00    -0.264 N 
ATOM     84  C   UNL A   1      33.245  22.787  24.891  1.00  0.00     0.046 A 
ATOM     85  C   UNL A   1      34.703  20.708  24.804  1.00  0.00     0.159 C 
ATOM     86  C   UNL A   1      32.138  22.148  25.645  1.00  0.00     0.078 C 
ATOM     87  N   UNL A   1      33.497  20.078  25.395  1.00  0.00    -0.337 N 
ATOM     88  C   UNL A   1      32.725  20.905  26.350  1.00  0.00     0.126 C 
BRANCH  83  89
ATOM     89  C   UNL A   1      32.268  25.062  24.365  1.00  0.00     0.180 C 
BRANCH  89  90
ATOM     90  C   UNL A   1      32.697  26.417  24.866  1.00  0.00    -0.026 A 
ATOM     91  C   UNL A   1      32.941  26.615  26.237  1.00  0.00     0.008 A 
ATOM     92  C   UNL A   1      32.886  27.491  23.980  1.00  0.00     0.008 A 
ATOM     93  C   UNL A   1      33.379  27.851  26.707  1.00  0.00     0.039 A 
ATOM     94  C   UNL A   1      33.327  28.730  24.455  1.00  0.00     0.039 A 
ATOM     95  C   UNL A   1      33.575  28.895  25.812  1.00  0.00     0.123 A 
ATOM     96  F   UNL A   1      34.020  30.071  26.268  1.00  0.00    -0.207 F 
ENDBRANCH  89  90
ENDBRANCH  83  89
BRANCH  87  97
ATOM     97  C   UNL A   1      33.174  18.778  25.040  1.00  0.00     0.232 C 
ATOM     98  O   UNL A   1      32.108  18.238  25.321  1.00  0.00    -0.274 OA
BRANCH  97  99
ATOM     99  C   UNL A   1      34.157  18.043  24.216  1.00  0.00     0.154 C 
ATOM    100  C   UNL A   1      34.998  16.930  24.822  1.00  0.00     0.097 C 
ATOM    101  C   UNL A   1      33.932  16.628  23.840  1.00  0.00     0.260 C 
ATOM    102  F   UNL A   1      32.851  15.886  24.248  1.00  0.00    -0.206 F 
ATOM    103  F   UNL A   1      34.295  16.165  22.593  1.00  0.00    -0.206 F 
ENDBRANCH  97  99
ENDBRANCH  87  97
ENDBRANCH  77  80
ENDBRANCH  75  76
ENDBRANCH  74  75
ENDBRANCH   1  74
TORSDOF 17
ENDMDL
MODEL 2
REMARK VINA RESULT:     -13.4      1.109      4.511
REMARK SMILES O=C(NCCCNC(=O)c1nn(Cc2ccc(F)cc2)c2c1CN(C(=O)[C@H]1CC1(F)F)CC2)c1ccc(-c2c3nc(c(-c4c(F)cc(S(=O)(=O)[O-])cc4F)c4ccc([nH]4)c(-c4c(F)cc(S(=O)(=O)[O-])cc4F)c4nc(c(-c5c(F)cc(S(=O)(=O)[O-])cc5F)c5ccc2[nH]5)C=C4)C=C3)cc1
REMARK SMILES IDX 4 1 3 2 1 3 2 4 34 6 35 7 99 8 36 9 98 10 37 11 38 12 39 13
REMARK SMILES IDX 92 14 40 15 97 16 91 17 93 18 41 19 96 20 90 21 89 22 42 24
REMARK SMILES IDX 76 25 55 26 75 27 56 28 59 29 74 30 94 31 57 32 58 33 73 35
REMARK SMILES IDX 95 36 60 37 43 38 44 39 53 40 45 41 46 42 52 43 54 44 47 45
REMARK SMILES IDX 48 46 49 47 50 48 51 49 77 50 78 51 87 52 79 53 80 54 86 55
REMARK SMILES IDX 88 56 81 57 82 58 83 59 84 60 85 61 61 62 62 63 71 64 63 65
REMARK SMILES IDX 64 66 70 67 72 68 65 69 66 70 67 71 68 72 69 73 5 74 6 75
REMARK SMILES IDX 7 76 8 77 9 79 10 80 11 81 22 82 12 83 21 84 23 85 33 86
REMARK SMILES IDX 24 87 32 88 13 89 14 90 15 91 20 92 16 93 19 94 17 95 18 96
REMARK SMILES IDX 25 97 26 98 27 99 28 100 29 101 30 102 31 103
REMARK H PARENT 3 5 93 23 59 34 7 78
REMARK Flexibility Score: inf
ROOT
ATOM      1  C   UNL A   1      40.002  21.879  26.422  1.00  0.00     0.118 C 
ENDROOT
BRANCH   1   2
ATOM      2  N   UNL A   1      41.113  22.036  25.505  1.00  0.00    -0.352 N 
ATOM      3  O   UNL A   1      43.079  22.562  24.642  1.00  0.00    -0.269 OA
ATOM      4  C   UNL A   1      42.208  22.854  25.466  1.00  0.00     0.251 C 
ATOM      5  H   UNL A   1      41.070  21.415  24.741  1.00  0.00     0.163 HD
BRANCH   4   6
ATOM      6  C   UNL A   1      42.358  24.099  26.262  1.00  0.00     0.039 A 
ATOM      7  C   UNL A   1      43.236  24.283  27.334  1.00  0.00     0.014 A 
ATOM      8  C   UNL A   1      41.482  25.141  25.916  1.00  0.00     0.014 A 
ATOM      9  C   UNL A   1      43.143  25.418  28.134  1.00  0.00     0.010 A 
ATOM     10  C   UNL A   1      41.403  26.286  26.692  1.00  0.00     0.010 A 
ATOM     11  C   UNL A   1      42.191  26.391  27.838  1.00  0.00    -0.014 A 
BRANCH  11  12
ATOM     12  C   UNL A   1      42.069  27.554  28.712  1.00  0.00     0.031 A 
ATOM     13  C   UNL A   1      43.181  28.555  28.629  1.00  0.00     0.074 A 
ATOM     14  C   UNL A   1      40.908  27.786  29.360  1.00  0.00     0.049 A 
ATOM     15  N   UNL A   1      43.857  29.120  29.582  1.00  0.00    -0.248 NA
ATOM     16  C   UNL A   1      43.653  28.919  27.279  1.00  0.00     0.031 C 
ATOM     17  C   UNL A   1      39.658  27.020  29.265  1.00  0.00     0.029 A 
ATOM     18  N   UNL A   1      40.549  28.840  30.138  1.00  0.00    -0.354 N 
ATOM     19  C   UNL A   1      44.703  30.044  28.962  1.00  0.00     0.074 A 
ATOM     20  C   UNL A   1      44.628  29.786  27.547  1.00  0.00     0.031 C 
ATOM     21  C   UNL A   1      38.637  27.771  29.736  1.00  0.00     0.029 A 
ATOM     22  C   UNL A   1      39.176  29.005  30.275  1.00  0.00     0.049 A 
ATOM     23  H   UNL A   1      41.205  29.436  30.567  1.00  0.00     0.167 HD
ATOM     24  C   UNL A   1      45.275  31.092  29.619  1.00  0.00     0.037 A 
ATOM     25  C   UNL A   1      38.539  30.129  30.692  1.00  0.00     0.037 A 
ATOM     26  C   UNL A   1      45.304  30.890  31.039  1.00  0.00     0.049 A 
ATOM     27  C   UNL A   1      39.546  30.956  31.410  1.00  0.00     0.074 A 
ATOM     28  C   UNL A   1      45.917  29.978  31.875  1.00  0.00     0.029 A 
ATOM     29  N   UNL A   1      44.347  31.505  31.808  1.00  0.00    -0.354 N 
ATOM     30  N   UNL A   1      40.135  30.593  32.519  1.00  0.00    -0.248 NA
ATOM     31  C   UNL A   1      40.239  31.981  30.643  1.00  0.00     0.031 C 
ATOM     32  C   UNL A   1      44.971  29.737  32.913  1.00  0.00     0.029 A 
ATOM     33  C   UNL A   1      43.864  30.550  32.668  1.00  0.00     0.049 A 
ATOM     34  H   UNL A   1      44.063  32.446  31.753  1.00  0.00     0.167 HD
ATOM     35  C   UNL A   1      41.443  31.043  32.398  1.00  0.00     0.074 A 
ATOM     36  C   UNL A   1      41.428  31.945  31.248  1.00  0.00     0.031 C 
ATOM     37  C   UNL A   1      42.475  30.440  33.060  1.00  0.00     0.037 A 
BRANCH  24  38
ATOM     38  C   UNL A   1      45.547  32.431  28.979  1.00  0.00     0.058 A 
ATOM     39  C   UNL A   1      44.515  33.328  28.624  1.00  0.00     0.135 A 
ATOM     40  C   UNL A   1      46.852  32.963  28.958  1.00  0.00     0.135 A 
ATOM     41  F   UNL A   1      43.222  32.987  28.705  1.00  0.00    -0.206 F 
ATOM     42  C   UNL A   1      44.753  34.650  28.264  1.00  0.00     0.059 A 
ATOM     43  C   UNL A   1      47.110  34.303  28.650  1.00  0.00     0.059 A 
ATOM     44  F   UNL A   1      47.905  32.203  29.302  1.00  0.00    -0.206 F 
ATOM     45  C   UNL A   1      46.050  35.139  28.310  1.00  0.00     0.060 A 
BRANCH  45  46
ATOM     46  S   UNL A   1      46.289  36.904  28.034  1.00  0.00     0.124 S 
ATOM     47  O   UNL A   1      47.715  37.053  28.311  1.00  0.00    -0.237 OA
ATOM     48  O   UNL A   1      45.894  37.046  26.637  1.00  0.00    -0.237 OA
ATOM     49  O   UNL A   1      45.391  37.522  29.003  1.00  0.00    -0.744 OA
ENDBRANCH  45  46
ENDBRANCH  24  38
BRANCH  25  50
ATOM     50  C   UNL A   1      37.295  30.705  30.103  1.00  0.00     0.058 A 
ATOM     51  C   UNL A   1      37.199  31.001  28.727  1.00  0.00     0.135 A 
ATOM     52  C   UNL A   1      36.270  31.225  30.916  1.00  0.00     0.135 A 
ATOM     53  F   UNL A   1      38.152  30.619  27.864  1.00  0.00    -0.206 F 
ATOM     54  C   UNL A   1      36.175  31.778  28.192  1.00  0.00     0.059 A 
ATOM     55  C   UNL A   1      35.235  32.019  30.402  1.00  0.00     0.059 A 
ATOM     56  F   UNL A   1      36.297  31.020  32.242  1.00  0.00    -0.206 F 
ATOM     57  C   UNL A   1      35.209  32.307  29.040  1.00  0.00     0.060 A 
BRANCH  57  58
ATOM     58  S   UNL A   1      33.993  33.437  28.325  1.00  0.00     0.124 S 
ATOM     59  O   UNL A   1      33.459  34.093  29.514  1.00  0.00    -0.237 OA
ATOM     60  O   UNL A   1      34.825  34.274  27.464  1.00  0.00    -0.237 OA
ATOM     61  O   UNL A   1      33.068  32.549  27.629  1.00  0.00    -0.744 OA
ENDBRANCH  57  58
ENDBRANCH  25  50
BRANCH  37  62
ATOM     62  C   UNL A   1      42.155  29.377  34.086  1.00  0.00     0.058 A 
ATOM     63  C   UNL A   1      42.386  29.652  35.440  1.00  0.00     0.135 A 
ATOM     64  C   UNL A   1      41.839  28.045  33.753  1.00  0.00     0.135 A 
ATOM     65  F   UNL A   1      42.750  30.888  35.821  1.00  0.00    -0.206 F 
ATOM     66  C   UNL A   1      42.326  28.657  36.416  1.00  0.00     0.059 A 
ATOM     67  C   UNL A   1      41.741  27.037  34.716  1.00  0.00     0.059 A 
ATOM     68  F   UNL A   1      41.706  27.673  32.475  1.00  0.00    -0.206 F 
ATOM     69  C   UNL A   1      42.011  27.349  36.045  1.00  0.00     0.060 A 
BRANCH  69  70
ATOM     70  S   UNL A   1      42.024  26.068  37.318  1.00  0.00     0.124 S 
ATOM     71  O   UNL A   1      42.985  26.604  38.279  1.00  0.00    -0.237 OA
ATOM     72  O   UNL A   1      40.634  26.054  37.762  1.00  0.00    -0.237 OA
ATOM     73  O   UNL A   1      42.464  24.866  36.614  1.00  0.00    -0.744 OA
ENDBRANCH  69  70
ENDBRANCH  37  62
ENDBRANCH  11  12
ENDBRANCH   4   6
ENDBRANCH   1   2
BRANCH   1  74
ATOM     74  C   UNL A   1      38.655  21.569  25.771  1.00  0.00     0.042 C 
BRANCH  74  75
ATOM     75  C   UNL A   1      37.650  22.725  25.810  1.00  0.00     0.118 C 
BRANCH  75  76
ATOM     76  N   UNL A   1      37.373  23.261  24.483  1.00  0.00    -0.351 N 
ATOM     77  C   UNL A   1      36.225  23.219  23.724  1.00  0.00     0.272 C 
ATOM     78  H   UNL A   1      38.131  23.728  24.061  1.00  0.00     0.163 HD
ATOM     79  O   UNL A   1      36.316  23.518  22.531  1.00  0.00    -0.267 OA
BRANCH  77  80
ATOM     80  C   UNL A   1      34.951  22.792  24.316  1.00  0.00     0.155 A 
ATOM     81  N   UNL A   1      34.644  21.499  24.549  1.00  0.00    -0.167 NA
ATOM     82  C   UNL A   1      33.912  23.638  24.792  1.00  0.00     0.026 A 
ATOM     83  N   UNL A   1      33.373  21.513  25.012  1.00  0.00    -0.264 N 
ATOM     84  C   UNL A   1      32.887  22.778  25.134  1.00  0.00     0.046 A 
ATOM     85  C   UNL A   1      33.812  25.128  24.853  1.00  0.00     0.159 C 
ATOM     86  C   UNL A   1      31.529  23.213  25.543  1.00  0.00     0.078 C 
ATOM     87  N   UNL A   1      32.501  25.502  25.435  1.00  0.00    -0.337 N 
ATOM     88  C   UNL A   1      31.345  24.663  25.044  1.00  0.00     0.126 C 
BRANCH  83  89
ATOM     89  C   UNL A   1      32.749  20.272  25.459  1.00  0.00     0.180 C 
BRANCH  89  90
ATOM     90  C   UNL A   1      33.177  19.070  24.655  1.00  0.00    -0.026 A 
ATOM     91  C   UNL A   1      32.526  18.763  23.447  1.00  0.00     0.008 A 
ATOM     92  C   UNL A   1      34.242  18.258  25.080  1.00  0.00     0.008 A 
ATOM     93  C   UNL A   1      32.940  17.680  22.675  1.00  0.00     0.039 A 
ATOM     94  C   UNL A   1      34.656  17.172  24.301  1.00  0.00     0.039 A 
ATOM     95  C   UNL A   1      34.005  16.899  23.104  1.00  0.00     0.123 A 
ATOM     96  F   UNL A   1      34.412  15.876  22.344  1.00  0.00    -0.207 F 
ENDBRANCH  89  90
ENDBRANCH  83  89
BRANCH  87  97
ATOM     97  C   UNL A   1      32.428  26.595  26.284  1.00  0.00     0.232 C 
ATOM     98  O   UNL A   1      31.430  26.891  26.933  1.00  0.00    -0.274 OA
BRANCH  97  99
ATOM     99  C   UNL A   1      33.659  27.397  26.453  1.00  0.00     0.154 C 
ATOM    100  C   UNL A   1      33.841  28.706  25.700  1.00  0.00     0.097 C 
ATOM    101  C   UNL A   1      33.632  28.695  27.167  1.00  0.00     0.260 C 
ATOM    102  F   UNL A   1      32.494  29.271  27.674  1.00  0.00    -0.206 F 
ATOM    103  F   UNL A   1      34.677  29.070  27.984  1.00  0.00    -0.206 F 
ENDBRANCH  97  99
ENDBRANCH  87  97
ENDBRANCH  77  80
ENDBRANCH  75  76
ENDBRANCH  74  75
ENDBRANCH   1  74
TORSDOF 17
ENDMDL
MODEL 3
REMARK VINA RESULT:     -13.1      1.635      4.265
REMARK SMILES O=C(NCCCNC(=O)c1nn(Cc2ccc(F)cc2)c2c1CN(C(=O)[C@H]1CC1(F)F)CC2)c1ccc(-c2c3nc(c(-c4c(F)cc(S(=O)(=O)[O-])cc4F)c4ccc([nH]4)c(-c4c(F)cc(S(=O)(=O)[O-])cc4F)c4nc(c(-c5c(F)cc(S(=O)(=O)[O-])cc5F)c5ccc2[nH]5)C=C4)C=C3)cc1
REMARK SMILES IDX 4 1 3 2 1 3 2 4 34 6 35 7 99 8 36 9 98 10 37 11 38 12 39 13
REMARK SMILES IDX 92 14 40 15 97 16 91 17 93 18 41 19 96 20 90 21 89 22 42 24
REMARK SMILES IDX 76 25 55 26 75 27 56 28 59 29 74 30 94 31 57 32 58 33 73 35
REMARK SMILES IDX 95 36 60 37 43 38 44 39 53 40 45 41 46 42 52 43 54 44 47 45
REMARK SMILES IDX 48 46 49 47 50 48 51 49 77 50 78 51 87 52 79 53 80 54 86 55
REMARK SMILES IDX 88 56 81 57 82 58 83 59 84 60 85 61 61 62 62 63 71 64 63 65
REMARK SMILES IDX 64 66 70 67 72 68 65 69 66 70 67 71 68 72 69 73 5 74 6 75
REMARK SMILES IDX 7 76 8 77 9 79 10 80 11 81 22 82 12 83 21 84 23 85 33 86
REMARK SMILES IDX 24 87 32 88 13 89 14 90 15 91 20 92 16 93 19 94 17 95 18 96
REMARK SMILES IDX 25 97 26 98 27 99 28 100 29 101 30 102 31 103
REMARK H PARENT 3 5 93 23 59 34 7 78
REMARK Flexibility Score: inf
ROOT
ATOM      1  C   UNL A   1      39.465  21.717  26.377  1.00  0.00     0.118 C 
ENDROOT
BRANCH   1   2
ATOM      2  N   UNL A   1      40.699  21.657  25.620  1.00  0.00    -0.352 N 
ATOM      3  O   UNL A   1      42.822  21.834  25.026  1.00  0.00    -0.269 OA
ATOM      4  C   UNL A   1      41.905  22.295  25.711  1.00  0.00     0.251 C 
ATOM      5  H   UNL A   1      40.661  21.013  24.876  1.00  0.00     0.163 HD
BRANCH   4   6
ATOM      6  C   UNL A   1      42.142  23.541  26.485  1.00  0.00     0.039 A 
ATOM      7  C   UNL A   1      42.908  23.648  27.649  1.00  0.00     0.014 A 
ATOM      8  C   UNL A   1      41.470  24.680  26.008  1.00  0.00     0.014 A 
ATOM      9  C   UNL A   1      42.889  24.819  28.400  1.00  0.00     0.010 A 
ATOM     10  C   UNL A   1      41.470  25.858  26.737  1.00  0.00     0.010 A 
ATOM     11  C   UNL A   1      42.129  25.902  27.966  1.00  0.00    -0.014 A 
BRANCH  11  12
ATOM     12  C   UNL A   1      42.077  27.109  28.786  1.00  0.00     0.031 A 
ATOM     13  C   UNL A   1      43.223  28.060  28.624  1.00  0.00     0.074 A 
ATOM     14  C   UNL A   1      40.946  27.416  29.455  1.00  0.00     0.049 A 
ATOM     15  N   UNL A   1      43.948  28.642  29.529  1.00  0.00    -0.248 NA
ATOM     16  C   UNL A   1      43.668  28.342  27.244  1.00  0.00     0.031 C 
ATOM     17  C   UNL A   1      39.665  26.696  29.432  1.00  0.00     0.029 A 
ATOM     18  N   UNL A   1      40.650  28.519  30.191  1.00  0.00    -0.354 N 
ATOM     19  C   UNL A   1      44.810  29.502  28.841  1.00  0.00     0.074 A 
ATOM     20  C   UNL A   1      44.682  29.181  27.443  1.00  0.00     0.031 C 
ATOM     21  C   UNL A   1      38.688  27.507  29.895  1.00  0.00     0.029 A 
ATOM     22  C   UNL A   1      39.290  28.744  30.358  1.00  0.00     0.049 A 
ATOM     23  H   UNL A   1      41.341  29.108  30.572  1.00  0.00     0.167 HD
ATOM     24  C   UNL A   1      45.441  30.556  29.431  1.00  0.00     0.037 A 
ATOM     25  C   UNL A   1      38.708  29.910  30.739  1.00  0.00     0.037 A 
ATOM     26  C   UNL A   1      45.505  30.420  30.858  1.00  0.00     0.049 A 
ATOM     27  C   UNL A   1      39.768  30.729  31.388  1.00  0.00     0.074 A 
ATOM     28  C   UNL A   1      46.108  29.524  31.719  1.00  0.00     0.029 A 
ATOM     29  N   UNL A   1      44.596  31.107  31.623  1.00  0.00    -0.354 N 
ATOM     30  N   UNL A   1      40.376  30.396  32.497  1.00  0.00    -0.248 NA
ATOM     31  C   UNL A   1      40.476  31.689  30.553  1.00  0.00     0.031 C 
ATOM     32  C   UNL A   1      45.186  29.369  32.793  1.00  0.00     0.029 A 
ATOM     33  C   UNL A   1      44.103  30.214  32.541  1.00  0.00     0.049 A 
ATOM     34  H   UNL A   1      44.346  32.055  31.531  1.00  0.00     0.167 HD
ATOM     35  C   UNL A   1      41.695  30.787  32.317  1.00  0.00     0.074 A 
ATOM     36  C   UNL A   1      41.680  31.635  31.126  1.00  0.00     0.031 C 
ATOM     37  C   UNL A   1      42.723  30.176  32.977  1.00  0.00     0.037 A 
BRANCH  24  38
ATOM     38  C   UNL A   1      45.744  31.852  28.720  1.00  0.00     0.058 A 
ATOM     39  C   UNL A   1      47.056  32.228  28.351  1.00  0.00     0.135 A 
ATOM     40  C   UNL A   1      44.707  32.616  28.150  1.00  0.00     0.135 A 
ATOM     41  F   UNL A   1      48.128  31.523  28.734  1.00  0.00    -0.206 F 
ATOM     42  C   UNL A   1      47.323  33.287  27.491  1.00  0.00     0.059 A 
ATOM     43  C   UNL A   1      44.952  33.652  27.241  1.00  0.00     0.059 A 
ATOM     44  F   UNL A   1      43.422  32.327  28.414  1.00  0.00    -0.206 F 
ATOM     45  C   UNL A   1      46.265  33.974  26.915  1.00  0.00     0.060 A 
BRANCH  45  46
ATOM     46  S   UNL A   1      46.652  35.202  25.654  1.00  0.00     0.124 S 
ATOM     47  O   UNL A   1      45.825  34.749  24.540  1.00  0.00    -0.237 OA
ATOM     48  O   UNL A   1      46.227  36.440  26.299  1.00  0.00    -0.237 OA
ATOM     49  O   UNL A   1      48.091  35.056  25.470  1.00  0.00    -0.744 OA
ENDBRANCH  45  46
ENDBRANCH  24  38
BRANCH  25  50
ATOM     50  C   UNL A   1      37.470  30.506  30.159  1.00  0.00     0.058 A 
ATOM     51  C   UNL A   1      37.366  30.794  28.781  1.00  0.00     0.135 A 
ATOM     52  C   UNL A   1      36.465  31.052  30.978  1.00  0.00     0.135 A 
ATOM     53  F   UNL A   1      38.302  30.387  27.912  1.00  0.00    -0.206 F 
ATOM     54  C   UNL A   1      36.351  31.587  28.251  1.00  0.00     0.059 A 
ATOM     55  C   UNL A   1      35.439  31.863  30.470  1.00  0.00     0.059 A 
ATOM     56  F   UNL A   1      36.501  30.857  32.305  1.00  0.00    -0.206 F 
ATOM     57  C   UNL A   1      35.406  32.142  29.105  1.00  0.00     0.060 A 
BRANCH  57  58
ATOM     58  S   UNL A   1      34.204  33.290  28.395  1.00  0.00     0.124 S 
ATOM     59  O   UNL A   1      33.300  32.383  27.696  1.00  0.00    -0.237 OA
ATOM     60  O   UNL A   1      33.656  33.931  29.587  1.00  0.00    -0.237 OA
ATOM     61  O   UNL A   1      35.016  34.150  27.541  1.00  0.00    -0.744 OA
ENDBRANCH  57  58
ENDBRANCH  25  50
BRANCH  37  62
ATOM     62  C   UNL A   1      42.394  29.176  34.062  1.00  0.00     0.058 A 
ATOM     63  C   UNL A   1      42.707  29.491  35.390  1.00  0.00     0.135 A 
ATOM     64  C   UNL A   1      41.987  27.853  33.801  1.00  0.00     0.135 A 
ATOM     65  F   UNL A   1      43.158  30.718  35.701  1.00  0.00    -0.206 F 
ATOM     66  C   UNL A   1      42.638  28.541  36.409  1.00  0.00     0.059 A 
ATOM     67  C   UNL A   1      41.880  26.891  34.810  1.00  0.00     0.059 A 
ATOM     68  F   UNL A   1      41.771  27.438  32.548  1.00  0.00    -0.206 F 
ATOM     69  C   UNL A   1      42.232  27.240  36.110  1.00  0.00     0.060 A 
BRANCH  69  70
ATOM     70  S   UNL A   1      42.234  26.012  37.435  1.00  0.00     0.124 S 
ATOM     71  O   UNL A   1      40.834  26.015  37.854  1.00  0.00    -0.237 OA
ATOM     72  O   UNL A   1      42.679  24.807  36.744  1.00  0.00    -0.237 OA
ATOM     73  O   UNL A   1      43.172  26.546  38.419  1.00  0.00    -0.744 OA
ENDBRANCH  69  70
ENDBRANCH  37  62
ENDBRANCH  11  12
ENDBRANCH   4   6
ENDBRANCH   1   2
BRANCH   1  74
ATOM     74  C   UNL A   1      38.436  22.728  25.872  1.00  0.00     0.042 C 
BRANCH  74  75
ATOM     75  C   UNL A   1      37.072  22.125  25.521  1.00  0.00     0.118 C 
BRANCH  75  76
ATOM     76  N   UNL A   1      36.114  22.257  26.613  1.00  0.00    -0.351 N 
ATOM     77  C   UNL A   1      34.739  22.310  26.592  1.00  0.00     0.272 C 
ATOM     78  H   UNL A   1      36.517  22.316  27.509  1.00  0.00     0.163 HD
ATOM     79  O   UNL A   1      34.165  22.682  27.618  1.00  0.00    -0.267 OA
BRANCH  77  80
ATOM     80  C   UNL A   1      33.994  21.975  25.372  1.00  0.00     0.155 A 
ATOM     81  N   UNL A   1      33.531  20.735  25.109  1.00  0.00    -0.167 NA
ATOM     82  C   UNL A   1      33.588  22.878  24.352  1.00  0.00     0.026 A 
ATOM     83  N   UNL A   1      32.985  20.814  23.874  1.00  0.00    -0.264 N 
ATOM     84  C   UNL A   1      33.036  22.077  23.372  1.00  0.00     0.046 A 
ATOM     85  C   UNL A   1      33.765  24.357  24.227  1.00  0.00     0.159 C 
ATOM     86  C   UNL A   1      32.606  22.562  22.037  1.00  0.00     0.078 C 
ATOM     87  N   UNL A   1      33.157  24.810  22.952  1.00  0.00    -0.337 N 
ATOM     88  C   UNL A   1      33.320  23.909  21.789  1.00  0.00     0.126 C 
BRANCH  83  89
ATOM     89  C   UNL A   1      32.297  19.658  23.309  1.00  0.00     0.180 C 
BRANCH  89  90
ATOM     90  C   UNL A   1      32.756  18.348  23.899  1.00  0.00    -0.026 A 
ATOM     91  C   UNL A   1      32.229  17.906  25.125  1.00  0.00     0.008 A 
ATOM     92  C   UNL A   1      33.689  17.540  23.228  1.00  0.00     0.008 A 
ATOM     93  C   UNL A   1      32.613  16.678  25.659  1.00  0.00     0.039 A 
ATOM     94  C   UNL A   1      34.071  16.307  23.767  1.00  0.00     0.039 A 
ATOM     95  C   UNL A   1      33.524  15.886  24.973  1.00  0.00     0.123 A 
ATOM     96  F   UNL A   1      33.868  14.697  25.480  1.00  0.00    -0.207 F 
ENDBRANCH  89  90
ENDBRANCH  83  89
BRANCH  87  97
ATOM     97  C   UNL A   1      32.494  26.027  22.917  1.00  0.00     0.232 C 
ATOM     98  O   UNL A   1      32.635  26.856  22.023  1.00  0.00    -0.274 OA
BRANCH  97  99
ATOM     99  C   UNL A   1      31.517  26.291  23.994  1.00  0.00     0.154 C 
ATOM    100  C   UNL A   1      30.132  26.830  23.670  1.00  0.00     0.097 C 
ATOM    101  C   UNL A   1      30.313  25.443  24.157  1.00  0.00     0.260 C 
ATOM    102  F   UNL A   1      29.985  24.404  23.321  1.00  0.00    -0.206 F 
ATOM    103  F   UNL A   1      29.845  25.118  25.412  1.00  0.00    -0.206 F 
ENDBRANCH  97  99
ENDBRANCH  87  97
ENDBRANCH  77  80
ENDBRANCH  75  76
ENDBRANCH  74  75
ENDBRANCH   1  74
TORSDOF 17
ENDMDL
