MODEL 1
REMARK VINA RESULT:     -12.8      0.000      0.000
REMARK SMILES CC(=O)N1CCN(C(=O)c2ccc(=O)n(CCC(=O)NCCCNC(=O)c3ccc(-c4c5nc(c(-c6c(F)cc(S(=O)(=O)[O-])cc6F)c6ccc([nH]6)c(-c6c(F)cc(S(=O)(=O)[O-])cc6F)c6nc(c(-c7c(F)cc(S(=O)(=O)[O-])cc7F)c7ccc4[nH]7)C=C6)C=C5)cc3)n2)CC1
REMARK SMILES IDX 22 1 21 2 20 3 18 4 19 5 17 7 16 8 15 9 10 10 11 11 93 12
REMARK SMILES IDX 12 13 13 14 14 15 8 16 1 17 2 18 3 19 4 20 5 21 95 22 6 23
REMARK SMILES IDX 94 24 7 25 9 26 23 27 24 28 25 29 26 31 27 32 28 33 92 34
REMARK SMILES IDX 29 35 91 36 30 37 31 38 32 39 85 40 33 41 90 42 84 43 86 44
REMARK SMILES IDX 34 45 89 46 83 47 82 48 35 50 69 51 48 52 68 53 49 54 52 55
REMARK SMILES IDX 67 56 87 57 50 58 51 59 66 61 88 62 53 63 36 64 37 65 46 66
REMARK SMILES IDX 38 67 39 68 45 69 47 70 40 71 41 72 42 73 43 74 44 75 70 76
REMARK SMILES IDX 71 77 80 78 72 79 73 80 79 81 81 82 74 83 75 84 76 85 77 86
REMARK SMILES IDX 78 87 54 88 55 89 64 90 56 91 57 92 63 93 65 94 58 95 59 96
REMARK SMILES IDX 60 97 61 98 62 99
REMARK H PARENT 20 6 24 30 86 49 52 60
REMARK Flexibility Score: inf
ROOT
ATOM      1  C   UNL A   1      40.837  22.051  27.272  1.00  0.00     0.042 C 
ENDROOT
BRANCH   1   2
ATOM      2  C   UNL A   1      39.763  21.869  26.196  1.00  0.00     0.117 C 
BRANCH   2   3
ATOM      3  N   UNL A   1      38.668  22.808  26.372  1.00  0.00    -0.356 N 
ATOM      4  C   UNL A   1      37.454  22.884  25.765  1.00  0.00     0.221 C 
ATOM      5  O   UNL A   1      36.671  23.764  26.134  1.00  0.00    -0.275 OA
ATOM      6  H   UNL A   1      38.833  23.509  27.045  1.00  0.00     0.163 HD
BRANCH   4   7
ATOM      7  C   UNL A   1      37.061  21.923  24.671  1.00  0.00     0.124 C 
BRANCH   7   8
ATOM      8  C   UNL A   1      35.958  20.989  25.163  1.00  0.00     0.158 C 
BRANCH   8   9
ATOM      9  N   UNL A   1      34.701  21.211  24.450  1.00  0.00    -0.229 N 
ATOM     10  C   UNL A   1      33.438  22.670  23.229  1.00  0.00     0.149 A 
ATOM     11  C   UNL A   1      32.254  21.795  23.264  1.00  0.00     0.042 A 
ATOM     12  N   UNL A   1      34.576  22.424  23.800  1.00  0.00    -0.164 NA
ATOM     13  C   UNL A   1      32.441  20.591  23.803  1.00  0.00     0.076 A 
ATOM     14  C   UNL A   1      33.728  20.222  24.429  1.00  0.00     0.266 A 
ATOM     15  O   UNL A   1      33.853  19.101  24.917  1.00  0.00    -0.268 OA
BRANCH  10  16
ATOM     16  C   UNL A   1      33.306  23.931  22.397  1.00  0.00     0.274 C 
ATOM     17  C   UNL A   1      31.701  28.715  26.375  1.00  0.00     0.114 C 
ATOM     18  C   UNL A   1      31.482  28.554  24.891  1.00  0.00     0.219 C 
ATOM     19  O   UNL A   1      31.010  29.475  24.224  1.00  0.00    -0.275 OA
ATOM     20  N   UNL A   1      31.812  27.330  24.333  1.00  0.00    -0.339 N 
ATOM     21  C   UNL A   1      31.782  27.178  22.874  1.00  0.00     0.141 C 
ATOM     22  C   UNL A   1      32.008  26.091  25.090  1.00  0.00     0.141 C 
ATOM     23  C   UNL A   1      32.991  26.380  22.363  1.00  0.00     0.141 C 
ATOM     24  C   UNL A   1      33.186  25.266  24.559  1.00  0.00     0.141 C 
ATOM     25  N   UNL A   1      33.144  25.120  23.096  1.00  0.00    -0.334 N 
ATOM     26  O   UNL A   1      33.353  23.820  21.179  1.00  0.00    -0.267 OA
ENDBRANCH  10  16
ENDBRANCH   8   9
ENDBRANCH   7   8
ENDBRANCH   4   7
ENDBRANCH   2   3
ENDBRANCH   1   2
BRANCH   1  27
ATOM     27  C   UNL A   1      42.038  22.879  26.807  1.00  0.00     0.118 C 
BRANCH  27  28
ATOM     28  N   UNL A   1      41.694  23.931  25.867  1.00  0.00    -0.352 N 
ATOM     29  C   UNL A   1      41.509  25.278  26.022  1.00  0.00     0.251 C 
ATOM     30  H   UNL A   1      41.570  23.614  24.943  1.00  0.00     0.163 HD
ATOM     31  O   UNL A   1      41.454  25.966  25.002  1.00  0.00    -0.269 OA
BRANCH  29  32
ATOM     32  C   UNL A   1      41.353  25.943  27.340  1.00  0.00     0.039 A 
ATOM     33  C   UNL A   1      40.237  25.758  28.159  1.00  0.00     0.014 A 
ATOM     34  C   UNL A   1      42.295  26.923  27.689  1.00  0.00     0.014 A 
ATOM     35  C   UNL A   1      40.048  26.562  29.290  1.00  0.00     0.010 A 
ATOM     36  C   UNL A   1      42.116  27.721  28.824  1.00  0.00     0.010 A 
ATOM     37  C   UNL A   1      40.972  27.565  29.615  1.00  0.00    -0.014 A 
BRANCH  37  38
ATOM     38  C   UNL A   1      40.708  28.472  30.756  1.00  0.00     0.031 A 
ATOM     39  C   UNL A   1      41.563  28.408  31.989  1.00  0.00     0.074 A 
ATOM     40  C   UNL A   1      39.718  29.377  30.678  1.00  0.00     0.049 A 
ATOM     41  N   UNL A   1      41.572  29.208  33.025  1.00  0.00    -0.248 NA
ATOM     42  C   UNL A   1      42.536  27.308  32.066  1.00  0.00     0.031 C 
ATOM     43  C   UNL A   1      38.805  29.533  29.547  1.00  0.00     0.029 A 
ATOM     44  N   UNL A   1      39.328  30.346  31.566  1.00  0.00    -0.354 N 
ATOM     45  C   UNL A   1      42.565  28.727  33.867  1.00  0.00     0.074 A 
ATOM     46  C   UNL A   1      43.116  27.544  33.235  1.00  0.00     0.031 C 
ATOM     47  C   UNL A   1      37.974  30.558  29.800  1.00  0.00     0.029 A 
ATOM     48  C   UNL A   1      38.302  31.129  31.105  1.00  0.00     0.049 A 
ATOM     49  H   UNL A   1      39.746  30.468  32.450  1.00  0.00     0.167 HD
ATOM     50  C   UNL A   1      42.992  29.232  35.048  1.00  0.00     0.037 A 
ATOM     51  C   UNL A   1      37.705  32.201  31.660  1.00  0.00     0.037 A 
ATOM     52  C   UNL A   1      42.446  30.394  35.695  1.00  0.00     0.049 A 
ATOM     53  C   UNL A   1      38.163  32.714  32.993  1.00  0.00     0.074 A 
ATOM     54  C   UNL A   1      42.850  30.997  36.875  1.00  0.00     0.029 A 
ATOM     55  N   UNL A   1      41.364  31.121  35.227  1.00  0.00    -0.354 N 
ATOM     56  N   UNL A   1      39.143  32.283  33.747  1.00  0.00    -0.248 NA
ATOM     57  C   UNL A   1      37.433  33.863  33.547  1.00  0.00     0.031 C 
ATOM     58  C   UNL A   1      42.000  32.083  37.127  1.00  0.00     0.029 A 
ATOM     59  C   UNL A   1      41.076  32.156  36.098  1.00  0.00     0.049 A 
ATOM     60  H   UNL A   1      40.874  30.929  34.394  1.00  0.00     0.167 HD
ATOM     61  C   UNL A   1      39.159  33.117  34.859  1.00  0.00     0.074 A 
ATOM     62  C   UNL A   1      38.085  34.072  34.684  1.00  0.00     0.031 C 
ATOM     63  C   UNL A   1      39.998  33.095  35.922  1.00  0.00     0.037 A 
BRANCH  50  64
ATOM     64  C   UNL A   1      44.138  28.527  35.704  1.00  0.00     0.058 A 
ATOM     65  C   UNL A   1      43.906  27.453  36.576  1.00  0.00     0.135 A 
ATOM     66  C   UNL A   1      45.461  28.925  35.472  1.00  0.00     0.135 A 
ATOM     67  F   UNL A   1      42.653  27.053  36.843  1.00  0.00    -0.206 F 
ATOM     68  C   UNL A   1      44.955  26.808  37.218  1.00  0.00     0.059 A 
ATOM     69  C   UNL A   1      46.527  28.291  36.102  1.00  0.00     0.059 A 
ATOM     70  F   UNL A   1      45.725  29.955  34.654  1.00  0.00    -0.206 F 
ATOM     71  C   UNL A   1      46.260  27.245  36.987  1.00  0.00     0.060 A 
BRANCH  71  72
ATOM     72  S   UNL A   1      47.613  26.445  37.874  1.00  0.00     0.124 S 
ATOM     73  O   UNL A   1      48.729  27.316  37.521  1.00  0.00    -0.237 OA
ATOM     74  O   UNL A   1      47.168  26.517  39.262  1.00  0.00    -0.237 OA
ATOM     75  O   UNL A   1      47.644  25.107  37.294  1.00  0.00    -0.744 OA
ENDBRANCH  71  72
ENDBRANCH  50  64
BRANCH  51  76
ATOM     76  C   UNL A   1      36.627  32.888  30.916  1.00  0.00     0.058 A 
ATOM     77  C   UNL A   1      35.289  32.733  31.299  1.00  0.00     0.135 A 
ATOM     78  C   UNL A   1      36.921  33.750  29.851  1.00  0.00     0.135 A 
ATOM     79  F   UNL A   1      34.972  31.917  32.316  1.00  0.00    -0.206 F 
ATOM     80  C   UNL A   1      34.269  33.423  30.657  1.00  0.00     0.059 A 
ATOM     81  C   UNL A   1      35.917  34.454  29.195  1.00  0.00     0.059 A 
ATOM     82  F   UNL A   1      38.192  33.927  29.462  1.00  0.00    -0.206 F 
ATOM     83  C   UNL A   1      34.594  34.285  29.607  1.00  0.00     0.060 A 
BRANCH  83  84
ATOM     84  S   UNL A   1      33.289  35.262  28.830  1.00  0.00     0.124 S 
ATOM     85  O   UNL A   1      32.587  34.247  28.054  1.00  0.00    -0.237 OA
ATOM     86  O   UNL A   1      32.566  35.801  29.978  1.00  0.00    -0.237 OA
ATOM     87  O   UNL A   1      34.040  36.248  28.058  1.00  0.00    -0.744 OA
ENDBRANCH  83  84
ENDBRANCH  51  76
BRANCH  63  88
ATOM     88  C   UNL A   1      39.791  34.137  36.977  1.00  0.00     0.058 A 
ATOM     89  C   UNL A   1      39.131  33.832  38.176  1.00  0.00     0.135 A 
ATOM     90  C   UNL A   1      40.285  35.439  36.806  1.00  0.00     0.135 A 
ATOM     91  F   UNL A   1      38.640  32.599  38.380  1.00  0.00    -0.206 F 
ATOM     92  C   UNL A   1      38.958  34.788  39.171  1.00  0.00     0.059 A 
ATOM     93  C   UNL A   1      40.126  36.409  37.789  1.00  0.00     0.059 A 
ATOM     94  F   UNL A   1      40.925  35.776  35.674  1.00  0.00    -0.206 F 
ATOM     95  C   UNL A   1      39.453  36.077  38.966  1.00  0.00     0.060 A 
BRANCH  95  96
ATOM     96  S   UNL A   1      39.258  37.318  40.264  1.00  0.00     0.124 S 
ATOM     97  O   UNL A   1      38.474  36.585  41.252  1.00  0.00    -0.237 OA
ATOM     98  O   UNL A   1      40.638  37.612  40.642  1.00  0.00    -0.237 OA
ATOM     99  O   UNL A   1      38.560  38.402  39.581  1.00  0.00    -0.744 OA
ENDBRANCH  95  96
ENDBRANCH  63  88
ENDBRANCH  37  38
ENDBRANCH  29  32
ENDBRANCH  27  28
ENDBRANCH   1  27
TORSDOF 16
ENDMDL
MODEL 2
REMARK VINA RESULT:     -12.7      6.316     11.974
REMARK SMILES CC(=O)N1CCN(C(=O)c2ccc(=O)n(CCC(=O)NCCCNC(=O)c3ccc(-c4c5nc(c(-c6c(F)cc(S(=O)(=O)[O-])cc6F)c6ccc([nH]6)c(-c6c(F)cc(S(=O)(=O)[O-])cc6F)c6nc(c(-c7c(F)cc(S(=O)(=O)[O-])cc7F)c7ccc4[nH]7)C=C6)C=C5)cc3)n2)CC1
REMARK SMILES IDX 22 1 21 2 20 3 18 4 19 5 17 7 16 8 15 9 10 10 11 11 93 12
REMARK SMILES IDX 12 13 13 14 14 15 8 16 1 17 2 18 3 19 4 20 5 21 95 22 6 23
REMARK SMILES IDX 94 24 7 25 9 26 23 27 24 28 25 29 26 31 27 32 28 33 92 34
REMARK SMILES IDX 29 35 91 36 30 37 31 38 32 39 85 40 33 41 90 42 84 43 86 44
REMARK SMILES IDX 34 45 89 46 83 47 82 48 35 50 69 51 48 52 68 53 49 54 52 55
REMARK SMILES IDX 67 56 87 57 50 58 51 59 66 61 88 62 53 63 36 64 37 65 46 66
REMARK SMILES IDX 38 67 39 68 45 69 47 70 40 71 41 72 42 73 43 74 44 75 70 76
REMARK SMILES IDX 71 77 80 78 72 79 73 80 79 81 81 82 74 83 75 84 76 85 77 86
REMARK SMILES IDX 78 87 54 88 55 89 64 90 56 91 57 92 63 93 65 94 58 95 59 96
REMARK SMILES IDX 60 97 61 98 62 99
REMARK H PARENT 20 6 24 30 86 49 52 60
REMARK Flexibility Score: inf
ROOT
ATOM      1  C   UNL A   1      34.732  32.328  28.423  1.00  0.00     0.042 C 
ENDROOT
BRANCH   1   2
ATOM      2  C   UNL A   1      34.782  31.005  27.655  1.00  0.00     0.117 C 
BRANCH   2   3
ATOM      3  N   UNL A   1      33.575  30.223  27.864  1.00  0.00    -0.356 N 
ATOM      4  C   UNL A   1      33.076  29.156  27.184  1.00  0.00     0.221 C 
ATOM      5  O   UNL A   1      32.039  28.633  27.599  1.00  0.00    -0.275 OA
ATOM      6  H   UNL A   1      33.024  30.515  28.626  1.00  0.00     0.163 HD
BRANCH   4   7
ATOM      7  C   UNL A   1      33.766  28.617  25.955  1.00  0.00     0.124 C 
BRANCH   7   8
ATOM      8  C   UNL A   1      33.259  29.339  24.709  1.00  0.00     0.158 C 
BRANCH   8   9
ATOM      9  N   UNL A   1      32.430  28.471  23.877  1.00  0.00    -0.229 N 
ATOM     10  C   UNL A   1      32.357  26.622  22.538  1.00  0.00     0.149 A 
ATOM     11  C   UNL A   1      30.977  26.897  22.102  1.00  0.00     0.042 A 
ATOM     12  N   UNL A   1      33.056  27.361  23.343  1.00  0.00    -0.164 NA
ATOM     13  C   UNL A   1      30.368  27.910  22.717  1.00  0.00     0.076 A 
ATOM     14  C   UNL A   1      31.087  28.765  23.683  1.00  0.00     0.266 A 
ATOM     15  O   UNL A   1      30.485  29.690  24.223  1.00  0.00    -0.268 OA
BRANCH  10  16
ATOM     16  C   UNL A   1      32.966  25.327  22.035  1.00  0.00     0.274 C 
ATOM     17  C   UNL A   1      33.993  21.560  27.138  1.00  0.00     0.114 C 
ATOM     18  C   UNL A   1      34.651  21.579  25.781  1.00  0.00     0.219 C 
ATOM     19  O   UNL A   1      35.465  20.710  25.467  1.00  0.00    -0.275 OA
ATOM     20  N   UNL A   1      34.314  22.619  24.930  1.00  0.00    -0.339 N 
ATOM     21  C   UNL A   1      34.789  22.588  23.541  1.00  0.00     0.141 C 
ATOM     22  C   UNL A   1      33.673  23.868  25.347  1.00  0.00     0.141 C 
ATOM     23  C   UNL A   1      33.693  23.026  22.558  1.00  0.00     0.141 C 
ATOM     24  C   UNL A   1      32.606  24.336  24.350  1.00  0.00     0.141 C 
ATOM     25  N   UNL A   1      33.095  24.302  22.963  1.00  0.00    -0.334 N 
ATOM     26  O   UNL A   1      33.298  25.271  20.858  1.00  0.00    -0.267 OA
ENDBRANCH  10  16
ENDBRANCH   8   9
ENDBRANCH   7   8
ENDBRANCH   4   7
ENDBRANCH   2   3
ENDBRANCH   1   2
BRANCH   1  27
ATOM     27  C   UNL A   1      35.674  32.374  29.629  1.00  0.00     0.118 C 
BRANCH  27  28
ATOM     28  N   UNL A   1      35.602  31.194  30.472  1.00  0.00    -0.352 N 
ATOM     29  C   UNL A   1      36.546  30.284  30.865  1.00  0.00     0.251 C 
ATOM     30  H   UNL A   1      34.702  31.014  30.828  1.00  0.00     0.163 HD
ATOM     31  O   UNL A   1      36.249  29.514  31.779  1.00  0.00    -0.269 OA
BRANCH  29  32
ATOM     32  C   UNL A   1      37.889  30.168  30.241  1.00  0.00     0.039 A 
ATOM     33  C   UNL A   1      38.078  29.996  28.869  1.00  0.00     0.014 A 
ATOM     34  C   UNL A   1      38.996  30.061  31.098  1.00  0.00     0.014 A 
ATOM     35  C   UNL A   1      39.347  29.688  28.362  1.00  0.00     0.010 A 
ATOM     36  C   UNL A   1      40.267  29.765  30.595  1.00  0.00     0.010 A 
ATOM     37  C   UNL A   1      40.443  29.546  29.224  1.00  0.00    -0.014 A 
BRANCH  37  38
ATOM     38  C   UNL A   1      41.757  29.123  28.685  1.00  0.00     0.031 A 
ATOM     39  C   UNL A   1      42.903  30.092  28.633  1.00  0.00     0.074 A 
ATOM     40  C   UNL A   1      41.935  27.858  28.268  1.00  0.00     0.049 A 
ATOM     41  N   UNL A   1      44.156  29.869  28.326  1.00  0.00    -0.248 NA
ATOM     42  C   UNL A   1      42.605  31.492  28.974  1.00  0.00     0.031 C 
ATOM     43  C   UNL A   1      40.903  26.823  28.249  1.00  0.00     0.029 A 
ATOM     44  N   UNL A   1      43.057  27.229  27.794  1.00  0.00    -0.354 N 
ATOM     45  C   UNL A   1      44.803  31.089  28.461  1.00  0.00     0.074 A 
ATOM     46  C   UNL A   1      43.797  32.059  28.845  1.00  0.00     0.031 C 
ATOM     47  C   UNL A   1      41.448  25.677  27.809  1.00  0.00     0.029 A 
ATOM     48  C   UNL A   1      42.864  25.899  27.521  1.00  0.00     0.049 A 
ATOM     49  H   UNL A   1      43.919  27.688  27.662  1.00  0.00     0.167 HD
ATOM     50  C   UNL A   1      46.116  31.373  28.296  1.00  0.00     0.037 A 
ATOM     51  C   UNL A   1      43.733  24.958  27.107  1.00  0.00     0.037 A 
ATOM     52  C   UNL A   1      47.123  30.427  27.899  1.00  0.00     0.049 A 
ATOM     53  C   UNL A   1      45.175  25.308  26.885  1.00  0.00     0.074 A 
ATOM     54  C   UNL A   1      48.486  30.626  27.751  1.00  0.00     0.029 A 
ATOM     55  N   UNL A   1      46.875  29.105  27.571  1.00  0.00    -0.354 N 
ATOM     56  N   UNL A   1      45.781  26.453  27.074  1.00  0.00    -0.248 NA
ATOM     57  C   UNL A   1      46.050  24.233  26.395  1.00  0.00     0.031 C 
ATOM     58  C   UNL A   1      49.060  29.423  27.316  1.00  0.00     0.029 A 
ATOM     59  C   UNL A   1      48.054  28.479  27.205  1.00  0.00     0.049 A 
ATOM     60  H   UNL A   1      45.990  28.674  27.595  1.00  0.00     0.167 HD
ATOM     61  C   UNL A   1      47.113  26.235  26.742  1.00  0.00     0.074 A 
ATOM     62  C   UNL A   1      47.223  24.850  26.331  1.00  0.00     0.031 C 
ATOM     63  C   UNL A   1      48.151  27.104  26.786  1.00  0.00     0.037 A 
BRANCH  50  64
ATOM     64  C   UNL A   1      46.537  32.782  28.577  1.00  0.00     0.058 A 
ATOM     65  C   UNL A   1      46.909  33.168  29.874  1.00  0.00     0.135 A 
ATOM     66  C   UNL A   1      46.564  33.746  27.560  1.00  0.00     0.135 A 
ATOM     67  F   UNL A   1      46.877  32.282  30.881  1.00  0.00    -0.206 F 
ATOM     68  C   UNL A   1      47.272  34.478  30.159  1.00  0.00     0.059 A 
ATOM     69  C   UNL A   1      46.928  35.063  27.823  1.00  0.00     0.059 A 
ATOM     70  F   UNL A   1      46.205  33.420  26.309  1.00  0.00    -0.206 F 
ATOM     71  C   UNL A   1      47.262  35.421  29.130  1.00  0.00     0.060 A 
BRANCH  71  72
ATOM     72  S   UNL A   1      47.673  37.134  29.520  1.00  0.00     0.124 S 
ATOM     73  O   UNL A   1      48.410  36.965  30.768  1.00  0.00    -0.237 OA
ATOM     74  O   UNL A   1      48.469  37.539  28.365  1.00  0.00    -0.237 OA
ATOM     75  O   UNL A   1      46.366  37.771  29.635  1.00  0.00    -0.744 OA
ENDBRANCH  71  72
ENDBRANCH  50  64
BRANCH  51  76
ATOM     76  C   UNL A   1      43.255  23.571  26.922  1.00  0.00     0.058 A 
ATOM     77  C   UNL A   1      43.018  23.068  25.636  1.00  0.00     0.135 A 
ATOM     78  C   UNL A   1      43.084  22.714  28.016  1.00  0.00     0.135 A 
ATOM     79  F   UNL A   1      43.175  23.861  24.565  1.00  0.00    -0.206 F 
ATOM     80  C   UNL A   1      42.635  21.747  25.437  1.00  0.00     0.059 A 
ATOM     81  C   UNL A   1      42.704  21.388  27.841  1.00  0.00     0.059 A 
ATOM     82  F   UNL A   1      43.309  23.160  29.261  1.00  0.00    -0.206 F 
ATOM     83  C   UNL A   1      42.484  20.913  26.547  1.00  0.00     0.060 A 
BRANCH  83  84
ATOM     84  S   UNL A   1      42.083  19.171  26.294  1.00  0.00     0.124 S 
ATOM     85  O   UNL A   1      42.242  18.636  27.642  1.00  0.00    -0.237 OA
ATOM     86  O   UNL A   1      40.715  19.228  25.787  1.00  0.00    -0.237 OA
ATOM     87  O   UNL A   1      43.084  18.748  25.319  1.00  0.00    -0.744 OA
ENDBRANCH  83  84
ENDBRANCH  51  76
BRANCH  63  88
ATOM     88  C   UNL A   1      49.496  26.584  26.383  1.00  0.00     0.058 A 
ATOM     89  C   UNL A   1      49.973  26.749  25.075  1.00  0.00     0.135 A 
ATOM     90  C   UNL A   1      50.328  25.947  27.316  1.00  0.00     0.135 A 
ATOM     91  F   UNL A   1      49.208  27.350  24.149  1.00  0.00    -0.206 F 
ATOM     92  C   UNL A   1      51.232  26.291  24.699  1.00  0.00     0.059 A 
ATOM     93  C   UNL A   1      51.591  25.485  26.964  1.00  0.00     0.059 A 
ATOM     94  F   UNL A   1      49.913  25.768  28.580  1.00  0.00    -0.206 F 
ATOM     95  C   UNL A   1      52.032  25.654  25.649  1.00  0.00     0.060 A 
BRANCH  95  96
ATOM     96  S   UNL A   1      53.679  25.081  25.180  1.00  0.00     0.124 S 
ATOM     97  O   UNL A   1      53.789  25.593  23.819  1.00  0.00    -0.237 OA
ATOM     98  O   UNL A   1      54.541  25.722  26.170  1.00  0.00    -0.237 OA
ATOM     99  O   UNL A   1      53.571  23.630  25.303  1.00  0.00    -0.744 OA
ENDBRANCH  95  96
ENDBRANCH  63  88
ENDBRANCH  37  38
ENDBRANCH  29  32
ENDBRANCH  27  28
ENDBRANCH   1  27
TORSDOF 16
ENDMDL
MODEL 3
REMARK VINA RESULT:     -12.6      6.388     12.039
REMARK SMILES CC(=O)N1CCN(C(=O)c2ccc(=O)n(CCC(=O)NCCCNC(=O)c3ccc(-c4c5nc(c(-c6c(F)cc(S(=O)(=O)[O-])cc6F)c6ccc([nH]6)c(-c6c(F)cc(S(=O)(=O)[O-])cc6F)c6nc(c(-c7c(F)cc(S(=O)(=O)[O-])cc7F)c7ccc4[nH]7)C=C6)C=C5)cc3)n2)CC1
REMARK SMILES IDX 22 1 21 2 20 3 18 4 19 5 17 7 16 8 15 9 10 10 11 11 93 12
REMARK SMILES IDX 12 13 13 14 14 15 8 16 1 17 2 18 3 19 4 20 5 21 95 22 6 23
REMARK SMILES IDX 94 24 7 25 9 26 23 27 24 28 25 29 26 31 27 32 28 33 92 34
REMARK SMILES IDX 29 35 91 36 30 37 31 38 32 39 85 40 33 41 90 42 84 43 86 44
REMARK SMILES IDX 34 45 89 46 83 47 82 48 35 50 69 51 48 52 68 53 49 54 52 55
REMARK SMILES IDX 67 56 87 57 50 58 51 59 66 61 88 62 53 63 36 64 37 65 46 66
REMARK SMILES IDX 38 67 39 68 45 69 47 70 40 71 41 72 42 73 43 74 44 75 70 76
REMARK SMILES IDX 71 77 80 78 72 79 73 80 79 81 81 82 74 83 75 84 76 85 77 86
REMARK SMILES IDX 78 87 54 88 55 89 64 90 56 91 57 92 63 93 65 94 58 95 59 96
REMARK SMILES IDX 60 97 61 98 62 99
REMARK H PARENT 20 6 24 30 86 49 52 60
REMARK Flexibility Score: inf
ROOT
ATOM      1  C   UNL A   1      34.055  31.363  27.763  1.00  0.00     0.042 C 
ENDROOT
BRANCH   1   2
ATOM      2  C   UNL A   1      33.923  29.994  27.092  1.00  0.00     0.117 C 
BRANCH   2   3
ATOM      3  N   UNL A   1      32.868  29.201  27.701  1.00  0.00    -0.356 N 
ATOM      4  C   UNL A   1      31.891  28.438  27.142  1.00  0.00     0.221 C 
ATOM      5  O   UNL A   1      31.136  27.815  27.893  1.00  0.00    -0.275 OA
ATOM      6  H   UNL A   1      32.860  29.219  28.686  1.00  0.00     0.163 HD
BRANCH   4   7
ATOM      7  C   UNL A   1      31.727  28.346  25.645  1.00  0.00     0.124 C 
BRANCH   7   8
ATOM      8  C   UNL A   1      30.743  27.232  25.293  1.00  0.00     0.158 C 
BRANCH   8   9
ATOM      9  N   UNL A   1      31.263  26.362  24.241  1.00  0.00    -0.229 N 
ATOM     10  C   UNL A   1      32.320  24.398  23.745  1.00  0.00     0.149 A 
ATOM     11  C   UNL A   1      32.476  24.752  22.324  1.00  0.00     0.042 A 
ATOM     12  N   UNL A   1      31.782  25.150  24.655  1.00  0.00    -0.164 NA
ATOM     13  C   UNL A   1      31.871  25.875  21.938  1.00  0.00     0.076 A 
ATOM     14  C   UNL A   1      31.195  26.756  22.912  1.00  0.00     0.266 A 
ATOM     15  O   UNL A   1      30.654  27.783  22.510  1.00  0.00    -0.268 OA
BRANCH  10  16
ATOM     16  C   UNL A   1      32.782  23.009  24.137  1.00  0.00     0.274 C 
ATOM     17  C   UNL A   1      38.784  23.521  26.372  1.00  0.00     0.114 C 
ATOM     18  C   UNL A   1      38.057  22.347  25.767  1.00  0.00     0.219 C 
ATOM     19  O   UNL A   1      38.581  21.233  25.737  1.00  0.00    -0.275 OA
ATOM     20  N   UNL A   1      36.800  22.587  25.236  1.00  0.00    -0.339 N 
ATOM     21  C   UNL A   1      35.982  21.452  24.794  1.00  0.00     0.141 C 
ATOM     22  C   UNL A   1      36.277  23.911  24.889  1.00  0.00     0.141 C 
ATOM     23  C   UNL A   1      34.513  21.616  25.214  1.00  0.00     0.141 C 
ATOM     24  C   UNL A   1      34.799  24.069  25.266  1.00  0.00     0.141 C 
ATOM     25  N   UNL A   1      33.990  22.926  24.817  1.00  0.00    -0.334 N 
ATOM     26  O   UNL A   1      32.066  22.061  23.835  1.00  0.00    -0.267 OA
ENDBRANCH  10  16
ENDBRANCH   8   9
ENDBRANCH   7   8
ENDBRANCH   4   7
ENDBRANCH   2   3
ENDBRANCH   1   2
BRANCH   1  27
ATOM     27  C   UNL A   1      35.346  31.530  28.569  1.00  0.00     0.118 C 
BRANCH  27  28
ATOM     28  N   UNL A   1      35.414  30.684  29.746  1.00  0.00    -0.352 N 
ATOM     29  C   UNL A   1      36.465  30.103  30.403  1.00  0.00     0.251 C 
ATOM     30  H   UNL A   1      34.537  30.490  30.148  1.00  0.00     0.163 HD
ATOM     31  O   UNL A   1      36.248  29.627  31.517  1.00  0.00    -0.269 OA
BRANCH  29  32
ATOM     32  C   UNL A   1      37.835  30.002  29.838  1.00  0.00     0.039 A 
ATOM     33  C   UNL A   1      38.088  29.874  28.471  1.00  0.00     0.014 A 
ATOM     34  C   UNL A   1      38.901  29.862  30.741  1.00  0.00     0.014 A 
ATOM     35  C   UNL A   1      39.378  29.578  28.014  1.00  0.00     0.010 A 
ATOM     36  C   UNL A   1      40.194  29.578  30.288  1.00  0.00     0.010 A 
ATOM     37  C   UNL A   1      40.433  29.404  28.921  1.00  0.00    -0.014 A 
BRANCH  37  38
ATOM     38  C   UNL A   1      41.769  28.994  28.430  1.00  0.00     0.031 A 
ATOM     39  C   UNL A   1      42.903  29.978  28.404  1.00  0.00     0.074 A 
ATOM     40  C   UNL A   1      41.978  27.727  28.032  1.00  0.00     0.049 A 
ATOM     41  N   UNL A   1      44.168  29.769  28.141  1.00  0.00    -0.248 NA
ATOM     42  C   UNL A   1      42.574  31.377  28.720  1.00  0.00     0.031 C 
ATOM     43  C   UNL A   1      40.962  26.678  27.991  1.00  0.00     0.029 A 
ATOM     44  N   UNL A   1      43.124  27.109  27.602  1.00  0.00    -0.354 N 
ATOM     45  C   UNL A   1      44.794  30.999  28.283  1.00  0.00     0.074 A 
ATOM     46  C   UNL A   1      43.762  31.959  28.624  1.00  0.00     0.031 C 
ATOM     47  C   UNL A   1      41.536  25.534  27.581  1.00  0.00     0.029 A 
ATOM     48  C   UNL A   1      42.958  25.774  27.338  1.00  0.00     0.049 A 
ATOM     49  H   UNL A   1      43.983  27.579  27.494  1.00  0.00     0.167 HD
ATOM     50  C   UNL A   1      46.107  31.301  28.159  1.00  0.00     0.037 A 
ATOM     51  C   UNL A   1      43.853  24.840  26.962  1.00  0.00     0.037 A 
ATOM     52  C   UNL A   1      47.140  30.365  27.805  1.00  0.00     0.049 A 
ATOM     53  C   UNL A   1      45.296  25.208  26.783  1.00  0.00     0.074 A 
ATOM     54  C   UNL A   1      48.504  30.581  27.699  1.00  0.00     0.029 A 
ATOM     55  N   UNL A   1      46.921  29.036  27.483  1.00  0.00    -0.354 N 
ATOM     56  N   UNL A   1      45.880  26.364  26.980  1.00  0.00    -0.248 NA
ATOM     57  C   UNL A   1      46.202  24.141  26.334  1.00  0.00     0.031 C 
ATOM     58  C   UNL A   1      49.108  29.382  27.297  1.00  0.00     0.029 A 
ATOM     59  C   UNL A   1      48.119  28.422  27.163  1.00  0.00     0.049 A 
ATOM     60  H   UNL A   1      46.041  28.593  27.483  1.00  0.00     0.167 HD
ATOM     61  C   UNL A   1      47.225  26.161  26.694  1.00  0.00     0.074 A 
ATOM     62  C   UNL A   1      47.367  24.774  26.301  1.00  0.00     0.031 C 
ATOM     63  C   UNL A   1      48.249  27.045  26.763  1.00  0.00     0.037 A 
BRANCH  50  64
ATOM     64  C   UNL A   1      46.500  32.718  28.438  1.00  0.00     0.058 A 
ATOM     65  C   UNL A   1      46.519  33.667  27.405  1.00  0.00     0.135 A 
ATOM     66  C   UNL A   1      46.864  33.128  29.728  1.00  0.00     0.135 A 
ATOM     67  F   UNL A   1      46.199  33.312  26.151  1.00  0.00    -0.206 F 
ATOM     68  C   UNL A   1      46.912  34.978  27.639  1.00  0.00     0.059 A 
ATOM     69  C   UNL A   1      47.256  34.437  29.986  1.00  0.00     0.059 A 
ATOM     70  F   UNL A   1      46.869  32.249  30.742  1.00  0.00    -0.206 F 
ATOM     71  C   UNL A   1      47.294  35.349  28.929  1.00  0.00     0.060 A 
BRANCH  71  72
ATOM     72  S   UNL A   1      47.864  37.038  29.214  1.00  0.00     0.124 S 
ATOM     73  O   UNL A   1      48.474  37.345  27.924  1.00  0.00    -0.237 OA
ATOM     74  O   UNL A   1      46.622  37.744  29.511  1.00  0.00    -0.237 OA
ATOM     75  O   UNL A   1      48.786  36.892  30.334  1.00  0.00    -0.744 OA
ENDBRANCH  71  72
ENDBRANCH  50  64
BRANCH  51  76
ATOM     76  C   UNL A   1      43.400  23.445  26.776  1.00  0.00     0.058 A 
ATOM     77  C   UNL A   1      43.288  22.900  25.491  1.00  0.00     0.135 A 
ATOM     78  C   UNL A   1      43.129  22.621  27.876  1.00  0.00     0.135 A 
ATOM     79  F   UNL A   1      43.543  23.660  24.415  1.00  0.00    -0.206 F 
ATOM     80  C   UNL A   1      42.931  21.572  25.298  1.00  0.00     0.059 A 
ATOM     81  C   UNL A   1      42.773  21.288  27.708  1.00  0.00     0.059 A 
ATOM     82  F   UNL A   1      43.232  23.108  29.122  1.00  0.00    -0.206 F 
ATOM     83  C   UNL A   1      42.679  20.772  26.414  1.00  0.00     0.060 A 
BRANCH  83  84
ATOM     84  S   UNL A   1      42.311  19.019  26.180  1.00  0.00     0.124 S 
ATOM     85  O   UNL A   1      42.593  18.482  27.507  1.00  0.00    -0.237 OA
ATOM     86  O   UNL A   1      40.906  19.038  25.785  1.00  0.00    -0.237 OA
ATOM     87  O   UNL A   1      43.242  18.632  25.125  1.00  0.00    -0.744 OA
ENDBRANCH  83  84
ENDBRANCH  51  76
BRANCH  63  88
ATOM     88  C   UNL A   1      49.614  26.539  26.409  1.00  0.00     0.058 A 
ATOM     89  C   UNL A   1      50.382  25.822  27.336  1.00  0.00     0.135 A 
ATOM     90  C   UNL A   1      50.144  26.743  25.126  1.00  0.00     0.135 A 
ATOM     91  F   UNL A   1      49.914  25.607  28.577  1.00  0.00    -0.206 F 
ATOM     92  C   UNL A   1      51.640  25.327  27.007  1.00  0.00     0.059 A 
ATOM     93  C   UNL A   1      51.397  26.254  24.773  1.00  0.00     0.059 A 
ATOM     94  F   UNL A   1      49.442  27.424  24.205  1.00  0.00    -0.206 F 
ATOM     95  C   UNL A   1      52.142  25.554  25.724  1.00  0.00     0.060 A 
BRANCH  95  96
ATOM     96  S   UNL A   1      53.762  24.892  25.277  1.00  0.00     0.124 S 
ATOM     97  O   UNL A   1      54.557  25.253  26.445  1.00  0.00    -0.237 OA
ATOM     98  O   UNL A   1      53.495  23.465  25.109  1.00  0.00    -0.237 OA
ATOM     99  O   UNL A   1      54.083  25.608  24.046  1.00  0.00    -0.744 OA
ENDBRANCH  95  96
ENDBRANCH  63  88
ENDBRANCH  37  38
ENDBRANCH  29  32
ENDBRANCH  27  28
ENDBRANCH   1  27
TORSDOF 16
ENDMDL
