MODEL 1
REMARK VINA RESULT:     -12.6      0.000      0.000
REMARK SMILES CC[NH+]1CC[NH+]([C@@H]2CC(=O)N(c3ccc(C(=O)NCCCNC(=O)c4ccc(-c5c6nc(c(-c7c(F)cc(S(=O)(=O)[O-])cc7F)c7ccc([nH]7)c(-c7c(F)cc(S(=O)(=O)[O-])cc7F)c7nc(c(-c8c(F)cc(S(=O)(=O)[O-])cc8F)c8ccc5[nH]8)C=C7)C=C6)cc4)cc3)C2=O)CC1
REMARK SMILES IDX 20 1 19 2 18 3 16 4 17 5 15 7 12 8 13 9 92 10 14 11 91 12
REMARK SMILES IDX 11 13 7 14 8 15 93 16 9 17 94 18 10 19 6 20 3 21 4 22 96 23
REMARK SMILES IDX 5 25 95 26 2 28 1 29 21 30 22 31 23 32 24 34 25 35 26 36
REMARK SMILES IDX 90 37 27 38 89 39 28 40 29 41 30 42 83 43 31 44 88 45 82 46
REMARK SMILES IDX 84 47 32 48 87 49 81 50 80 51 33 53 67 54 46 55 66 56 47 57
REMARK SMILES IDX 50 58 65 59 85 60 48 61 49 62 64 64 86 65 51 66 34 67 35 68
REMARK SMILES IDX 44 69 36 70 37 71 43 72 45 73 38 74 39 75 40 76 41 77 42 78
REMARK SMILES IDX 68 79 69 80 78 81 70 82 71 83 77 84 79 85 72 86 73 87 74 88
REMARK SMILES IDX 75 89 76 90 52 91 53 92 62 93 54 94 55 95 61 96 63 97 56 98
REMARK SMILES IDX 57 99 58 100 59 101 60 102
REMARK H PARENT 18 6 3 24 6 27 22 33 84 52 50 63
REMARK Flexibility Score: inf
ROOT
ATOM      1  C   UNL A   1      39.386  22.137  26.498  1.00  0.00     0.042 C 
ENDROOT
BRANCH   1   2
ATOM      2  C   UNL A   1      38.106  22.584  25.791  1.00  0.00     0.118 C 
BRANCH   2   3
ATOM      3  N   UNL A   1      37.215  21.464  25.551  1.00  0.00    -0.352 N 
ATOM      4  C   UNL A   1      35.888  21.403  25.213  1.00  0.00     0.251 C 
ATOM      5  O   UNL A   1      35.404  20.293  24.991  1.00  0.00    -0.269 OA
ATOM      6  H   UNL A   1      37.644  20.583  25.651  1.00  0.00     0.163 HD
BRANCH   4   7
ATOM      7  C   UNL A   1      35.030  22.612  25.057  1.00  0.00     0.039 A 
ATOM      8  C   UNL A   1      33.320  24.838  24.884  1.00  0.00     0.052 A 
ATOM      9  C   UNL A   1      33.413  24.117  26.078  1.00  0.00     0.027 A 
ATOM     10  C   UNL A   1      34.105  24.469  23.797  1.00  0.00     0.027 A 
ATOM     11  C   UNL A   1      34.239  22.992  26.151  1.00  0.00     0.016 A 
ATOM     12  C   UNL A   1      34.994  23.404  23.908  1.00  0.00     0.016 A 
BRANCH   8  13
ATOM     13  N   UNL A   1      32.486  25.960  24.772  1.00  0.00    -0.245 N 
ATOM     14  C   UNL A   1      30.601  27.285  24.366  1.00  0.00     0.285 C 
ATOM     15  C   UNL A   1      31.707  28.157  24.943  1.00  0.00     0.176 C 
ATOM     16  C   UNL A   1      31.199  25.888  24.306  1.00  0.00     0.292 C 
ATOM     17  C   UNL A   1      32.839  27.214  25.198  1.00  0.00     0.240 C 
ATOM     18  O   UNL A   1      30.599  24.887  23.930  1.00  0.00    -0.267 OA
ATOM     19  O   UNL A   1      33.909  27.577  25.667  1.00  0.00    -0.274 OA
BRANCH  14  20
ATOM     20  N   UNL A   1      29.998  27.658  23.079  1.00  0.00    -0.315 N 
ATOM     21  N   UNL A   1      28.552  30.245  22.592  1.00  0.00    -0.326 N 
ATOM     22  C   UNL A   1      27.919  29.132  23.309  1.00  0.00     0.324 C 
ATOM     23  C   UNL A   1      30.016  30.163  22.623  1.00  0.00     0.324 C 
ATOM     24  H   UNL A   1      28.304  31.079  23.124  1.00  0.00     0.348 HD
ATOM     25  C   UNL A   1      28.535  27.729  23.084  1.00  0.00     0.325 C 
ATOM     26  C   UNL A   1      30.612  28.772  22.348  1.00  0.00     0.325 C 
ATOM     27  H   UNL A   1      30.246  26.842  22.519  1.00  0.00     0.349 HD
BRANCH  21  28
ATOM     28  C   UNL A   1      27.992  30.536  21.271  1.00  0.00     0.259 C 
ATOM     29  C   UNL A   1      28.102  31.954  20.728  1.00  0.00     0.071 C 
ENDBRANCH  21  28
ENDBRANCH  14  20
ENDBRANCH   8  13
ENDBRANCH   4   7
ENDBRANCH   2   3
ENDBRANCH   1   2
BRANCH   1  30
ATOM     30  C   UNL A   1      40.167  23.289  27.113  1.00  0.00     0.118 C 
BRANCH  30  31
ATOM     31  N   UNL A   1      41.070  23.896  26.148  1.00  0.00    -0.352 N 
ATOM     32  C   UNL A   1      41.526  25.185  26.062  1.00  0.00     0.251 C 
ATOM     33  H   UNL A   1      41.405  23.288  25.451  1.00  0.00     0.163 HD
ATOM     34  O   UNL A   1      42.081  25.552  25.029  1.00  0.00    -0.269 OA
BRANCH  32  35
ATOM     35  C   UNL A   1      41.350  26.129  27.188  1.00  0.00     0.039 A 
ATOM     36  C   UNL A   1      40.302  25.907  28.085  1.00  0.00     0.014 A 
ATOM     37  C   UNL A   1      42.166  27.256  27.330  1.00  0.00     0.014 A 
ATOM     38  C   UNL A   1      40.095  26.795  29.142  1.00  0.00     0.010 A 
ATOM     39  C   UNL A   1      42.003  28.100  28.425  1.00  0.00     0.010 A 
ATOM     40  C   UNL A   1      40.957  27.887  29.334  1.00  0.00    -0.014 A 
BRANCH  40  41
ATOM     41  C   UNL A   1      40.769  28.812  30.478  1.00  0.00     0.031 A 
ATOM     42  C   UNL A   1      41.615  28.675  31.715  1.00  0.00     0.074 A 
ATOM     43  C   UNL A   1      39.803  29.748  30.417  1.00  0.00     0.049 A 
ATOM     44  N   UNL A   1      41.575  29.370  32.822  1.00  0.00    -0.248 NA
ATOM     45  C   UNL A   1      42.619  27.599  31.718  1.00  0.00     0.031 C 
ATOM     46  C   UNL A   1      38.882  29.940  29.292  1.00  0.00     0.029 A 
ATOM     47  N   UNL A   1      39.426  30.709  31.319  1.00  0.00    -0.354 N 
ATOM     48  C   UNL A   1      42.536  28.809  33.657  1.00  0.00     0.074 A 
ATOM     49  C   UNL A   1      43.108  27.686  32.947  1.00  0.00     0.031 C 
ATOM     50  C   UNL A   1      38.064  30.968  29.563  1.00  0.00     0.029 A 
ATOM     51  C   UNL A   1      38.377  31.487  30.890  1.00  0.00     0.049 A 
ATOM     52  H   UNL A   1      39.863  30.830  32.192  1.00  0.00     0.167 HD
ATOM     53  C   UNL A   1      42.920  29.209  34.893  1.00  0.00     0.037 A 
ATOM     54  C   UNL A   1      37.738  32.505  31.498  1.00  0.00     0.037 A 
ATOM     55  C   UNL A   1      42.363  30.346  35.580  1.00  0.00     0.049 A 
ATOM     56  C   UNL A   1      38.197  32.945  32.860  1.00  0.00     0.074 A 
ATOM     57  C   UNL A   1      42.727  30.875  36.806  1.00  0.00     0.029 A 
ATOM     58  N   UNL A   1      41.320  31.128  35.103  1.00  0.00    -0.354 N 
ATOM     59  N   UNL A   1      39.156  32.450  33.606  1.00  0.00    -0.248 NA
ATOM     60  C   UNL A   1      37.497  34.089  33.460  1.00  0.00     0.031 C 
ATOM     61  C   UNL A   1      41.879  31.953  37.087  1.00  0.00     0.029 A 
ATOM     62  C   UNL A   1      41.016  32.123  36.017  1.00  0.00     0.049 A 
ATOM     63  H   UNL A   1      40.864  30.994  34.240  1.00  0.00     0.167 HD
ATOM     64  C   UNL A   1      39.187  33.231  34.755  1.00  0.00     0.074 A 
ATOM     65  C   UNL A   1      38.162  34.243  34.596  1.00  0.00     0.031 C 
ATOM     66  C   UNL A   1      39.989  33.120  35.843  1.00  0.00     0.037 A 
BRANCH  53  67
ATOM     67  C   UNL A   1      43.998  28.415  35.580  1.00  0.00     0.058 A 
ATOM     68  C   UNL A   1      45.359  28.678  35.361  1.00  0.00     0.135 A 
ATOM     69  C   UNL A   1      43.667  27.400  36.492  1.00  0.00     0.135 A 
ATOM     70  F   UNL A   1      45.733  29.628  34.489  1.00  0.00    -0.206 F 
ATOM     71  C   UNL A   1      46.355  27.944  35.998  1.00  0.00     0.059 A 
ATOM     72  C   UNL A   1      44.646  26.670  37.162  1.00  0.00     0.059 A 
ATOM     73  F   UNL A   1      42.380  27.107  36.740  1.00  0.00    -0.206 F 
ATOM     74  C   UNL A   1      45.988  26.940  36.896  1.00  0.00     0.060 A 
BRANCH  74  75
ATOM     75  S   UNL A   1      47.291  25.998  37.716  1.00  0.00     0.124 S 
ATOM     76  O   UNL A   1      46.965  24.635  37.308  1.00  0.00    -0.237 OA
ATOM     77  O   UNL A   1      48.503  26.561  37.130  1.00  0.00    -0.237 OA
ATOM     78  O   UNL A   1      47.087  26.295  39.130  1.00  0.00    -0.744 OA
ENDBRANCH  74  75
ENDBRANCH  53  67
BRANCH  54  79
ATOM     79  C   UNL A   1      36.615  33.190  30.807  1.00  0.00     0.058 A 
ATOM     80  C   UNL A   1      35.289  33.004  31.223  1.00  0.00     0.135 A 
ATOM     81  C   UNL A   1      36.847  34.068  29.736  1.00  0.00     0.135 A 
ATOM     82  F   UNL A   1      35.017  32.172  32.240  1.00  0.00    -0.206 F 
ATOM     83  C   UNL A   1      34.230  33.653  30.596  1.00  0.00     0.059 A 
ATOM     84  C   UNL A   1      35.808  34.746  29.108  1.00  0.00     0.059 A 
ATOM     85  F   UNL A   1      38.101  34.295  29.313  1.00  0.00    -0.206 F 
ATOM     86  C   UNL A   1      34.501  34.525  29.540  1.00  0.00     0.060 A 
BRANCH  86  87
ATOM     87  S   UNL A   1      33.126  35.407  28.770  1.00  0.00     0.124 S 
ATOM     88  O   UNL A   1      33.828  36.400  27.965  1.00  0.00    -0.237 OA
ATOM     89  O   UNL A   1      32.452  34.344  28.031  1.00  0.00    -0.237 OA
ATOM     90  O   UNL A   1      32.383  35.931  29.913  1.00  0.00    -0.744 OA
ENDBRANCH  86  87
ENDBRANCH  54  79
BRANCH  66  91
ATOM     91  C   UNL A   1      39.802  34.132  36.938  1.00  0.00     0.058 A 
ATOM     92  C   UNL A   1      39.022  33.853  38.072  1.00  0.00     0.135 A 
ATOM     93  C   UNL A   1      40.436  35.382  36.868  1.00  0.00     0.135 A 
ATOM     94  F   UNL A   1      38.390  32.675  38.184  1.00  0.00    -0.206 F 
ATOM     95  C   UNL A   1      38.856  34.791  39.086  1.00  0.00     0.059 A 
ATOM     96  C   UNL A   1      40.305  36.325  37.883  1.00  0.00     0.059 A 
ATOM     97  F   UNL A   1      41.202  35.694  35.810  1.00  0.00    -0.206 F 
ATOM     98  C   UNL A   1      39.500  36.025  38.981  1.00  0.00     0.060 A 
BRANCH  98  99
ATOM     99  S   UNL A   1      39.292  37.227  40.312  1.00  0.00     0.124 S 
ATOM    100  O   UNL A   1      40.678  37.522  40.660  1.00  0.00    -0.237 OA
ATOM    101  O   UNL A   1      38.561  38.305  39.651  1.00  0.00    -0.237 OA
ATOM    102  O   UNL A   1      38.535  36.489  41.319  1.00  0.00    -0.744 OA
ENDBRANCH  98  99
ENDBRANCH  66  91
ENDBRANCH  40  41
ENDBRANCH  32  35
ENDBRANCH  30  31
ENDBRANCH   1  30
TORSDOF 16
ENDMDL
MODEL 2
REMARK VINA RESULT:     -12.6      1.388      2.283
REMARK SMILES CC[NH+]1CC[NH+]([C@@H]2CC(=O)N(c3ccc(C(=O)NCCCNC(=O)c4ccc(-c5c6nc(c(-c7c(F)cc(S(=O)(=O)[O-])cc7F)c7ccc([nH]7)c(-c7c(F)cc(S(=O)(=O)[O-])cc7F)c7nc(c(-c8c(F)cc(S(=O)(=O)[O-])cc8F)c8ccc5[nH]8)C=C7)C=C6)cc4)cc3)C2=O)CC1
REMARK SMILES IDX 20 1 19 2 18 3 16 4 17 5 15 7 12 8 13 9 92 10 14 11 91 12
REMARK SMILES IDX 11 13 7 14 8 15 93 16 9 17 94 18 10 19 6 20 3 21 4 22 96 23
REMARK SMILES IDX 5 25 95 26 2 28 1 29 21 30 22 31 23 32 24 34 25 35 26 36
REMARK SMILES IDX 90 37 27 38 89 39 28 40 29 41 30 42 83 43 31 44 88 45 82 46
REMARK SMILES IDX 84 47 32 48 87 49 81 50 80 51 33 53 67 54 46 55 66 56 47 57
REMARK SMILES IDX 50 58 65 59 85 60 48 61 49 62 64 64 86 65 51 66 34 67 35 68
REMARK SMILES IDX 44 69 36 70 37 71 43 72 45 73 38 74 39 75 40 76 41 77 42 78
REMARK SMILES IDX 68 79 69 80 78 81 70 82 71 83 77 84 79 85 72 86 73 87 74 88
REMARK SMILES IDX 75 89 76 90 52 91 53 92 62 93 54 94 55 95 61 96 63 97 56 98
REMARK SMILES IDX 57 99 58 100 59 101 60 102
REMARK H PARENT 18 6 3 24 6 27 22 33 84 52 50 63
REMARK Flexibility Score: inf
ROOT
ATOM      1  C   UNL A   1      39.611  21.911  26.467  1.00  0.00     0.042 C 
ENDROOT
BRANCH   1   2
ATOM      2  C   UNL A   1      38.306  22.216  25.730  1.00  0.00     0.118 C 
BRANCH   2   3
ATOM      3  N   UNL A   1      37.591  20.998  25.396  1.00  0.00    -0.352 N 
ATOM      4  C   UNL A   1      36.273  20.759  25.105  1.00  0.00     0.251 C 
ATOM      5  O   UNL A   1      35.958  19.615  24.774  1.00  0.00    -0.269 OA
ATOM      6  H   UNL A   1      38.158  20.193  25.376  1.00  0.00     0.163 HD
BRANCH   4   7
ATOM      7  C   UNL A   1      35.227  21.821  25.123  1.00  0.00     0.039 A 
ATOM      8  C   UNL A   1      33.215  23.778  25.308  1.00  0.00     0.052 A 
ATOM      9  C   UNL A   1      33.773  23.235  26.469  1.00  0.00     0.027 A 
ATOM     10  C   UNL A   1      33.687  23.370  24.064  1.00  0.00     0.027 A 
ATOM     11  C   UNL A   1      34.750  22.240  26.374  1.00  0.00     0.016 A 
ATOM     12  C   UNL A   1      34.725  22.446  23.982  1.00  0.00     0.016 A 
BRANCH   8  13
ATOM     13  N   UNL A   1      32.220  24.763  25.368  1.00  0.00    -0.245 N 
ATOM     14  C   UNL A   1      31.143  26.835  25.211  1.00  0.00     0.285 C 
ATOM     15  C   UNL A   1      30.125  25.773  25.601  1.00  0.00     0.176 C 
ATOM     16  C   UNL A   1      32.457  26.082  25.075  1.00  0.00     0.292 C 
ATOM     17  C   UNL A   1      30.902  24.496  25.636  1.00  0.00     0.240 C 
ATOM     18  O   UNL A   1      33.520  26.587  24.733  1.00  0.00    -0.267 OA
ATOM     19  O   UNL A   1      30.394  23.420  25.919  1.00  0.00    -0.274 OA
BRANCH  14  20
ATOM     20  N   UNL A   1      31.298  28.020  26.065  1.00  0.00    -0.315 N 
ATOM     21  N   UNL A   1      33.867  29.550  26.355  1.00  0.00    -0.326 N 
ATOM     22  C   UNL A   1      33.647  28.274  27.047  1.00  0.00     0.324 C 
ATOM     23  C   UNL A   1      32.996  29.703  25.186  1.00  0.00     0.324 C 
ATOM     24  H   UNL A   1      34.820  29.495  25.995  1.00  0.00     0.348 HD
ATOM     25  C   UNL A   1      32.174  27.831  27.224  1.00  0.00     0.325 C 
ATOM     26  C   UNL A   1      31.524  29.305  25.394  1.00  0.00     0.325 C 
ATOM     27  H   UNL A   1      30.350  28.108  26.429  1.00  0.00     0.349 HD
BRANCH  21  28
ATOM     28  C   UNL A   1      33.926  30.728  27.222  1.00  0.00     0.259 C 
ATOM     29  C   UNL A   1      35.289  31.233  27.675  1.00  0.00     0.071 C 
ENDBRANCH  21  28
ENDBRANCH  14  20
ENDBRANCH   8  13
ENDBRANCH   4   7
ENDBRANCH   2   3
ENDBRANCH   1   2
BRANCH   1  30
ATOM     30  C   UNL A   1      40.257  23.146  27.080  1.00  0.00     0.118 C 
BRANCH  30  31
ATOM     31  N   UNL A   1      41.168  23.789  26.147  1.00  0.00    -0.352 N 
ATOM     32  C   UNL A   1      41.610  25.085  26.104  1.00  0.00     0.251 C 
ATOM     33  H   UNL A   1      41.521  23.204  25.438  1.00  0.00     0.163 HD
ATOM     34  O   UNL A   1      42.178  25.487  25.091  1.00  0.00    -0.269 OA
BRANCH  32  35
ATOM     35  C   UNL A   1      41.406  25.995  27.252  1.00  0.00     0.039 A 
ATOM     36  C   UNL A   1      42.325  27.028  27.455  1.00  0.00     0.014 A 
ATOM     37  C   UNL A   1      40.359  25.802  28.160  1.00  0.00     0.014 A 
ATOM     38  C   UNL A   1      42.173  27.887  28.545  1.00  0.00     0.010 A 
ATOM     39  C   UNL A   1      40.169  26.702  29.206  1.00  0.00     0.010 A 
ATOM     40  C   UNL A   1      41.081  27.744  29.417  1.00  0.00    -0.014 A 
BRANCH  40  41
ATOM     41  C   UNL A   1      40.890  28.677  30.555  1.00  0.00     0.031 A 
ATOM     42  C   UNL A   1      41.730  28.545  31.796  1.00  0.00     0.074 A 
ATOM     43  C   UNL A   1      39.926  29.615  30.483  1.00  0.00     0.049 A 
ATOM     44  N   UNL A   1      41.687  29.248  32.899  1.00  0.00    -0.248 NA
ATOM     45  C   UNL A   1      42.731  27.467  31.811  1.00  0.00     0.031 C 
ATOM     46  C   UNL A   1      39.011  29.801  29.353  1.00  0.00     0.029 A 
ATOM     47  N   UNL A   1      39.547  30.582  31.378  1.00  0.00    -0.354 N 
ATOM     48  C   UNL A   1      42.642  28.690  33.742  1.00  0.00     0.074 A 
ATOM     49  C   UNL A   1      43.215  27.561  33.042  1.00  0.00     0.031 C 
ATOM     50  C   UNL A   1      38.194  30.833  29.613  1.00  0.00     0.029 A 
ATOM     51  C   UNL A   1      38.502  31.360  30.938  1.00  0.00     0.049 A 
ATOM     52  H   UNL A   1      39.981  30.707  32.252  1.00  0.00     0.167 HD
ATOM     53  C   UNL A   1      43.021  29.097  34.977  1.00  0.00     0.037 A 
ATOM     54  C   UNL A   1      37.862  32.383  31.537  1.00  0.00     0.037 A 
ATOM     55  C   UNL A   1      42.464  30.239  35.654  1.00  0.00     0.049 A 
ATOM     56  C   UNL A   1      38.316  32.831  32.899  1.00  0.00     0.074 A 
ATOM     57  C   UNL A   1      42.824  30.775  36.878  1.00  0.00     0.029 A 
ATOM     58  N   UNL A   1      41.424  31.020  35.167  1.00  0.00    -0.354 N 
ATOM     59  N   UNL A   1      39.271  32.337  33.652  1.00  0.00    -0.248 NA
ATOM     60  C   UNL A   1      37.616  33.979  33.488  1.00  0.00     0.031 C 
ATOM     61  C   UNL A   1      41.976  31.857  37.149  1.00  0.00     0.029 A 
ATOM     62  C   UNL A   1      41.118  32.022  36.074  1.00  0.00     0.049 A 
ATOM     63  H   UNL A   1      40.972  30.882  34.304  1.00  0.00     0.167 HD
ATOM     64  C   UNL A   1      39.298  33.126  34.797  1.00  0.00     0.074 A 
ATOM     65  C   UNL A   1      38.276  34.139  34.626  1.00  0.00     0.031 C 
ATOM     66  C   UNL A   1      40.095  33.020  35.889  1.00  0.00     0.037 A 
BRANCH  53  67
ATOM     67  C   UNL A   1      44.094  28.304  35.673  1.00  0.00     0.058 A 
ATOM     68  C   UNL A   1      45.456  28.599  35.502  1.00  0.00     0.135 A 
ATOM     69  C   UNL A   1      43.757  27.259  36.548  1.00  0.00     0.135 A 
ATOM     70  F   UNL A   1      45.836  29.578  34.666  1.00  0.00    -0.206 F 
ATOM     71  C   UNL A   1      46.447  27.866  36.148  1.00  0.00     0.059 A 
ATOM     72  C   UNL A   1      44.730  26.530  37.227  1.00  0.00     0.059 A 
ATOM     73  F   UNL A   1      42.470  26.936  36.751  1.00  0.00    -0.206 F 
ATOM     74  C   UNL A   1      46.074  26.832  37.008  1.00  0.00     0.060 A 
BRANCH  74  75
ATOM     75  S   UNL A   1      47.371  25.892  37.841  1.00  0.00     0.124 S 
ATOM     76  O   UNL A   1      47.587  24.797  36.900  1.00  0.00    -0.237 OA
ATOM     77  O   UNL A   1      48.453  26.867  37.936  1.00  0.00    -0.237 OA
ATOM     78  O   UNL A   1      46.757  25.517  39.110  1.00  0.00    -0.744 OA
ENDBRANCH  74  75
ENDBRANCH  53  67
BRANCH  54  79
ATOM     79  C   UNL A   1      36.745  33.066  30.837  1.00  0.00     0.058 A 
ATOM     80  C   UNL A   1      35.416  32.888  31.250  1.00  0.00     0.135 A 
ATOM     81  C   UNL A   1      36.983  33.934  29.759  1.00  0.00     0.135 A 
ATOM     82  F   UNL A   1      35.137  32.066  32.274  1.00  0.00    -0.206 F 
ATOM     83  C   UNL A   1      34.362  33.535  30.614  1.00  0.00     0.059 A 
ATOM     84  C   UNL A   1      35.949  34.610  29.122  1.00  0.00     0.059 A 
ATOM     85  F   UNL A   1      38.239  34.153  29.339  1.00  0.00    -0.206 F 
ATOM     86  C   UNL A   1      34.639  34.398  29.551  1.00  0.00     0.060 A 
BRANCH  86  87
ATOM     87  S   UNL A   1      33.270  35.279  28.770  1.00  0.00     0.124 S 
ATOM     88  O   UNL A   1      33.977  36.296  28.001  1.00  0.00    -0.237 OA
ATOM     89  O   UNL A   1      32.626  34.222  27.994  1.00  0.00    -0.237 OA
ATOM     90  O   UNL A   1      32.495  35.768  29.906  1.00  0.00    -0.744 OA
ENDBRANCH  86  87
ENDBRANCH  54  79
BRANCH  66  91
ATOM     91  C   UNL A   1      39.905  34.039  36.977  1.00  0.00     0.058 A 
ATOM     92  C   UNL A   1      40.574  35.273  36.953  1.00  0.00     0.135 A 
ATOM     93  C   UNL A   1      39.019  33.792  38.037  1.00  0.00     0.135 A 
ATOM     94  F   UNL A   1      41.437  35.555  35.965  1.00  0.00    -0.206 F 
ATOM     95  C   UNL A   1      40.392  36.216  37.959  1.00  0.00     0.059 A 
ATOM     96  C   UNL A   1      38.802  34.732  39.041  1.00  0.00     0.059 A 
ATOM     97  F   UNL A   1      38.346  32.632  38.101  1.00  0.00    -0.206 F 
ATOM     98  C   UNL A   1      39.505  35.935  39.000  1.00  0.00     0.060 A 
BRANCH  98  99
ATOM     99  S   UNL A   1      39.263  37.175  40.290  1.00  0.00     0.124 S 
ATOM    100  O   UNL A   1      40.640  37.520  40.627  1.00  0.00    -0.237 OA
ATOM    101  O   UNL A   1      38.503  38.209  39.594  1.00  0.00    -0.237 OA
ATOM    102  O   UNL A   1      38.525  36.451  41.321  1.00  0.00    -0.744 OA
ENDBRANCH  98  99
ENDBRANCH  66  91
ENDBRANCH  40  41
ENDBRANCH  32  35
ENDBRANCH  30  31
ENDBRANCH   1  30
TORSDOF 16
ENDMDL
MODEL 3
REMARK VINA RESULT:     -12.5      6.426     12.242
REMARK SMILES CC[NH+]1CC[NH+]([C@@H]2CC(=O)N(c3ccc(C(=O)NCCCNC(=O)c4ccc(-c5c6nc(c(-c7c(F)cc(S(=O)(=O)[O-])cc7F)c7ccc([nH]7)c(-c7c(F)cc(S(=O)(=O)[O-])cc7F)c7nc(c(-c8c(F)cc(S(=O)(=O)[O-])cc8F)c8ccc5[nH]8)C=C7)C=C6)cc4)cc3)C2=O)CC1
REMARK SMILES IDX 20 1 19 2 18 3 16 4 17 5 15 7 12 8 13 9 92 10 14 11 91 12
REMARK SMILES IDX 11 13 7 14 8 15 93 16 9 17 94 18 10 19 6 20 3 21 4 22 96 23
REMARK SMILES IDX 5 25 95 26 2 28 1 29 21 30 22 31 23 32 24 34 25 35 26 36
REMARK SMILES IDX 90 37 27 38 89 39 28 40 29 41 30 42 83 43 31 44 88 45 82 46
REMARK SMILES IDX 84 47 32 48 87 49 81 50 80 51 33 53 67 54 46 55 66 56 47 57
REMARK SMILES IDX 50 58 65 59 85 60 48 61 49 62 64 64 86 65 51 66 34 67 35 68
REMARK SMILES IDX 44 69 36 70 37 71 43 72 45 73 38 74 39 75 40 76 41 77 42 78
REMARK SMILES IDX 68 79 69 80 78 81 70 82 71 83 77 84 79 85 72 86 73 87 74 88
REMARK SMILES IDX 75 89 76 90 52 91 53 92 62 93 54 94 55 95 61 96 63 97 56 98
REMARK SMILES IDX 57 99 58 100 59 101 60 102
REMARK H PARENT 18 6 3 24 6 27 22 33 84 52 50 63
REMARK Flexibility Score: inf
ROOT
ATOM      1  C   UNL A   1      34.083  31.412  27.821  1.00  0.00     0.042 C 
ENDROOT
BRANCH   1   2
ATOM      2  C   UNL A   1      33.756  30.189  26.963  1.00  0.00     0.118 C 
BRANCH   2   3
ATOM      3  N   UNL A   1      32.570  30.411  26.157  1.00  0.00    -0.352 N 
ATOM      4  C   UNL A   1      31.840  29.577  25.350  1.00  0.00     0.251 C 
ATOM      5  O   UNL A   1      30.812  30.026  24.842  1.00  0.00    -0.269 OA
ATOM      6  H   UNL A   1      32.224  31.332  26.198  1.00  0.00     0.163 HD
BRANCH   4   7
ATOM      7  C   UNL A   1      32.207  28.153  25.103  1.00  0.00     0.039 A 
ATOM      8  C   UNL A   1      32.905  25.501  24.480  1.00  0.00     0.052 A 
ATOM      9  C   UNL A   1      33.215  26.535  23.591  1.00  0.00     0.027 A 
ATOM     10  C   UNL A   1      32.283  25.798  25.688  1.00  0.00     0.027 A 
ATOM     11  C   UNL A   1      32.839  27.847  23.889  1.00  0.00     0.016 A 
ATOM     12  C   UNL A   1      31.995  27.120  26.017  1.00  0.00     0.016 A 
BRANCH   8  13
ATOM     13  N   UNL A   1      33.252  24.171  24.202  1.00  0.00    -0.245 N 
ATOM     14  C   UNL A   1      33.141  21.975  23.401  1.00  0.00     0.285 C 
ATOM     15  C   UNL A   1      34.510  22.209  24.023  1.00  0.00     0.176 C 
ATOM     16  C   UNL A   1      32.411  23.301  23.557  1.00  0.00     0.292 C 
ATOM     17  C   UNL A   1      34.487  23.638  24.463  1.00  0.00     0.240 C 
ATOM     18  O   UNL A   1      31.281  23.529  23.141  1.00  0.00    -0.267 OA
ATOM     19  O   UNL A   1      35.438  24.175  25.015  1.00  0.00    -0.274 OA
BRANCH  14  20
ATOM     20  N   UNL A   1      32.319  20.859  23.886  1.00  0.00    -0.315 N 
ATOM     21  N   UNL A   1      33.428  18.450  25.297  1.00  0.00    -0.326 N 
ATOM     22  C   UNL A   1      33.523  18.602  23.840  1.00  0.00     0.324 C 
ATOM     23  C   UNL A   1      33.243  19.736  25.977  1.00  0.00     0.324 C 
ATOM     24  H   UNL A   1      34.342  18.104  25.588  1.00  0.00     0.348 HD
ATOM     25  C   UNL A   1      32.528  19.590  23.184  1.00  0.00     0.325 C 
ATOM     26  C   UNL A   1      32.214  20.686  25.340  1.00  0.00     0.325 C 
ATOM     27  H   UNL A   1      31.390  21.188  23.620  1.00  0.00     0.349 HD
BRANCH  21  28
ATOM     28  C   UNL A   1      32.529  17.390  25.756  1.00  0.00     0.259 C 
ATOM     29  C   UNL A   1      32.898  15.942  25.462  1.00  0.00     0.071 C 
ENDBRANCH  21  28
ENDBRANCH  14  20
ENDBRANCH   8  13
ENDBRANCH   4   7
ENDBRANCH   2   3
ENDBRANCH   1   2
BRANCH   1  30
ATOM     30  C   UNL A   1      35.485  31.374  28.412  1.00  0.00     0.118 C 
BRANCH  30  31
ATOM     31  N   UNL A   1      35.452  31.148  29.848  1.00  0.00    -0.352 N 
ATOM     32  C   UNL A   1      36.335  30.478  30.653  1.00  0.00     0.251 C 
ATOM     33  H   UNL A   1      34.676  31.536  30.314  1.00  0.00     0.163 HD
ATOM     34  O   UNL A   1      35.996  30.187  31.798  1.00  0.00    -0.269 OA
BRANCH  32  35
ATOM     35  C   UNL A   1      37.677  30.101  30.156  1.00  0.00     0.039 A 
ATOM     36  C   UNL A   1      38.669  29.786  31.090  1.00  0.00     0.014 A 
ATOM     37  C   UNL A   1      37.981  30.114  28.791  1.00  0.00     0.014 A 
ATOM     38  C   UNL A   1      39.952  29.452  30.653  1.00  0.00     0.010 A 
ATOM     39  C   UNL A   1      39.241  29.711  28.354  1.00  0.00     0.010 A 
ATOM     40  C   UNL A   1      40.243  29.390  29.280  1.00  0.00    -0.014 A 
BRANCH  40  41
ATOM     41  C   UNL A   1      41.592  28.996  28.806  1.00  0.00     0.031 A 
ATOM     42  C   UNL A   1      42.693  30.017  28.712  1.00  0.00     0.074 A 
ATOM     43  C   UNL A   1      41.809  27.725  28.419  1.00  0.00     0.049 A 
ATOM     44  N   UNL A   1      43.924  29.866  28.295  1.00  0.00    -0.248 NA
ATOM     45  C   UNL A   1      42.361  31.393  29.114  1.00  0.00     0.031 C 
ATOM     46  C   UNL A   1      40.801  26.660  28.412  1.00  0.00     0.029 A 
ATOM     47  N   UNL A   1      42.941  27.111  27.948  1.00  0.00    -0.354 N 
ATOM     48  C   UNL A   1      44.508  31.126  28.371  1.00  0.00     0.074 A 
ATOM     49  C   UNL A   1      43.483  32.039  28.828  1.00  0.00     0.031 C 
ATOM     50  C   UNL A   1      41.367  25.522  27.981  1.00  0.00     0.029 A 
ATOM     51  C   UNL A   1      42.764  25.781  27.651  1.00  0.00     0.049 A 
ATOM     52  H   UNL A   1      43.799  27.580  27.832  1.00  0.00     0.167 HD
ATOM     53  C   UNL A   1      45.787  31.483  28.105  1.00  0.00     0.037 A 
ATOM     54  C   UNL A   1      43.631  24.872  27.164  1.00  0.00     0.037 A 
ATOM     55  C   UNL A   1      46.807  30.561  27.677  1.00  0.00     0.049 A 
ATOM     56  C   UNL A   1      45.051  25.287  26.898  1.00  0.00     0.074 A 
ATOM     57  C   UNL A   1      48.149  30.807  27.445  1.00  0.00     0.029 A 
ATOM     58  N   UNL A   1      46.598  29.214  27.412  1.00  0.00    -0.354 N 
ATOM     59  N   UNL A   1      45.606  26.466  27.045  1.00  0.00    -0.248 NA
ATOM     60  C   UNL A   1      45.967  24.246  26.413  1.00  0.00     0.031 C 
ATOM     61  C   UNL A   1      48.743  29.619  27.003  1.00  0.00     0.029 A 
ATOM     62  C   UNL A   1      47.781  28.622  27.001  1.00  0.00     0.049 A 
ATOM     63  H   UNL A   1      45.735  28.749  27.503  1.00  0.00     0.167 HD
ATOM     64  C   UNL A   1      46.939  26.308  26.686  1.00  0.00     0.074 A 
ATOM     65  C   UNL A   1      47.110  24.912  26.334  1.00  0.00     0.031 C 
ATOM     66  C   UNL A   1      47.931  27.231  26.651  1.00  0.00     0.037 A 
BRANCH  53  67
ATOM     67  C   UNL A   1      46.157  32.931  28.276  1.00  0.00     0.058 A 
ATOM     68  C   UNL A   1      46.620  33.434  29.502  1.00  0.00     0.135 A 
ATOM     69  C   UNL A   1      46.079  33.821  27.192  1.00  0.00     0.135 A 
ATOM     70  F   UNL A   1      46.701  32.631  30.575  1.00  0.00    -0.206 F 
ATOM     71  C   UNL A   1      46.963  34.774  29.658  1.00  0.00     0.059 A 
ATOM     72  C   UNL A   1      46.443  35.160  27.317  1.00  0.00     0.059 A 
ATOM     73  F   UNL A   1      45.644  33.394  25.996  1.00  0.00    -0.206 F 
ATOM     74  C   UNL A   1      46.870  35.630  28.559  1.00  0.00     0.060 A 
BRANCH  74  75
ATOM     75  S   UNL A   1      47.321  37.364  28.776  1.00  0.00     0.124 S 
ATOM     76  O   UNL A   1      46.772  37.961  27.562  1.00  0.00    -0.237 OA
ATOM     77  O   UNL A   1      46.636  37.713  30.017  1.00  0.00    -0.237 OA
ATOM     78  O   UNL A   1      48.777  37.330  28.856  1.00  0.00    -0.744 OA
ENDBRANCH  74  75
ENDBRANCH  53  67
BRANCH  54  79
ATOM     79  C   UNL A   1      43.180  23.476  26.926  1.00  0.00     0.058 A 
ATOM     80  C   UNL A   1      42.994  22.989  25.624  1.00  0.00     0.135 A 
ATOM     81  C   UNL A   1      42.954  22.592  27.993  1.00  0.00     0.135 A 
ATOM     82  F   UNL A   1      43.194  23.797  24.571  1.00  0.00    -0.206 F 
ATOM     83  C   UNL A   1      42.589  21.680  25.386  1.00  0.00     0.059 A 
ATOM     84  C   UNL A   1      42.572  21.272  27.781  1.00  0.00     0.059 A 
ATOM     85  F   UNL A   1      43.138  23.005  29.257  1.00  0.00    -0.206 F 
ATOM     86  C   UNL A   1      42.383  20.827  26.473  1.00  0.00     0.060 A 
BRANCH  86  87
ATOM     87  S   UNL A   1      41.915  19.113  26.153  1.00  0.00     0.124 S 
ATOM     88  O   UNL A   1      42.746  18.792  25.000  1.00  0.00    -0.237 OA
ATOM     89  O   UNL A   1      42.276  18.456  27.406  1.00  0.00    -0.237 OA
ATOM     90  O   UNL A   1      40.480  19.200  25.894  1.00  0.00    -0.744 OA
ENDBRANCH  86  87
ENDBRANCH  54  79
BRANCH  66  91
ATOM     91  C   UNL A   1      49.295  26.757  26.234  1.00  0.00     0.058 A 
ATOM     92  C   UNL A   1      49.774  26.952  24.928  1.00  0.00     0.135 A 
ATOM     93  C   UNL A   1      50.144  26.131  27.159  1.00  0.00     0.135 A 
ATOM     94  F   UNL A   1      48.998  27.539  24.005  1.00  0.00    -0.206 F 
ATOM     95  C   UNL A   1      51.038  26.516  24.548  1.00  0.00     0.059 A 
ATOM     96  C   UNL A   1      51.424  25.711  26.807  1.00  0.00     0.059 A 
ATOM     97  F   UNL A   1      49.738  25.931  28.423  1.00  0.00    -0.206 F 
ATOM     98  C   UNL A   1      51.856  25.895  25.495  1.00  0.00     0.060 A 
BRANCH  98  99
ATOM     99  S   UNL A   1      53.502  25.350  24.994  1.00  0.00     0.124 S 
ATOM    100  O   UNL A   1      53.470  23.940  25.366  1.00  0.00    -0.237 OA
ATOM    101  O   UNL A   1      53.503  25.627  23.560  1.00  0.00    -0.237 OA
ATOM    102  O   UNL A   1      54.393  26.191  25.788  1.00  0.00    -0.744 OA
ENDBRANCH  98  99
ENDBRANCH  66  91
ENDBRANCH  40  41
ENDBRANCH  32  35
ENDBRANCH  30  31
ENDBRANCH   1  30
TORSDOF 16
ENDMDL
