MODEL 1
REMARK VINA RESULT:     -10.1      0.000      0.000
REMARK SMILES C[C@@H](C[N@@H+](C)Cc1cc(F)cc(Br)c1)C(=O)NCCCNC(=O)c1ccc(-c2c3nc(c(-c4c(F)cc(S(=O)(=O)[O-])cc4F)c4ccc([nH]4)c(-c4c(F)cc(S(=O)(=O)[O-])cc4F)c4nc(c(-c5c(F)cc(S(=O)(=O)[O-])cc5F)c5ccc2[nH]5)C=C4)C=C3)cc1
REMARK SMILES IDX 18 1 17 2 15 3 16 4 2 6 1 7 3 8 4 9 5 10 6 12 7 13 8 14
REMARK SMILES IDX 14 15 9 16 12 17 10 18 11 19 13 20 19 21 20 22 21 23 22 24
REMARK SMILES IDX 23 26 24 27 25 28 89 29 26 30 88 31 27 32 28 33 29 34 82 35
REMARK SMILES IDX 30 36 87 37 81 38 83 39 31 40 86 41 80 42 79 43 32 45 66 46
REMARK SMILES IDX 45 47 65 48 46 49 49 50 64 51 84 52 47 53 48 54 63 56 85 57
REMARK SMILES IDX 50 58 33 59 34 60 43 61 35 62 36 63 42 64 44 65 37 66 38 67
REMARK SMILES IDX 39 68 40 69 41 70 67 71 68 72 77 73 69 74 70 75 76 76 78 77
REMARK SMILES IDX 71 78 72 79 73 80 74 81 75 82 51 83 52 84 61 85 53 86 54 87
REMARK SMILES IDX 60 88 62 89 55 90 56 91 57 92 58 93 59 94
REMARK H PARENT 17 5 4 11 21 25 83 44 49 55
REMARK Flexibility Score: inf
ROOT
ATOM      1  C   UNL A   1      33.835  34.845  28.770  1.00  0.00     0.117 C 
ENDROOT
BRANCH   1   2
ATOM      2  N   UNL A   1      32.880  35.541  29.599  1.00  0.00    -0.356 N 
ATOM      3  C   UNL A   1      33.030  35.955  30.889  1.00  0.00     0.228 C 
ATOM      4  O   UNL A   1      32.174  36.724  31.339  1.00  0.00    -0.275 OA
ATOM      5  H   UNL A   1      32.013  35.741  29.180  1.00  0.00     0.163 HD
BRANCH   3   6
ATOM      6  C   UNL A   1      34.163  35.453  31.792  1.00  0.00     0.130 C 
ATOM      7  C   UNL A   1      34.384  36.400  32.966  1.00  0.00     0.024 C 
BRANCH   6   8
ATOM      8  C   UNL A   1      34.202  33.917  32.047  1.00  0.00     0.275 C 
BRANCH   8   9
ATOM      9  N   UNL A   1      35.446  33.141  32.011  1.00  0.00    -0.333 N 
ATOM     10  C   UNL A   1      36.470  33.733  31.157  1.00  0.00     0.333 C 
ATOM     11  H   UNL A   1      35.096  32.289  31.572  1.00  0.00     0.348 HD
BRANCH   9  12
ATOM     12  C   UNL A   1      35.995  32.586  33.253  1.00  0.00     0.298 C 
BRANCH  12  13
ATOM     13  C   UNL A   1      37.451  32.197  33.301  1.00  0.00     0.010 A 
ATOM     14  C   UNL A   1      38.439  33.096  33.716  1.00  0.00     0.048 A 
ATOM     15  C   UNL A   1      37.821  30.865  33.050  1.00  0.00     0.025 A 
ATOM     16  C   UNL A   1      39.754  32.671  33.867  1.00  0.00     0.124 A 
ATOM     17  C   UNL A   1      39.145  30.453  33.214  1.00  0.00     0.021 A 
ATOM     18  F   UNL A   1      40.682  33.548  34.274  1.00  0.00    -0.207 F 
ATOM     19  C   UNL A   1      40.120  31.355  33.624  1.00  0.00     0.055 A 
ATOM     20  Br  UNL A   1      39.608  28.647  32.904  1.00  0.00    -0.051 Br
ENDBRANCH  12  13
ENDBRANCH   9  12
ENDBRANCH   8   9
ENDBRANCH   6   8
ENDBRANCH   3   6
ENDBRANCH   1   2
BRANCH   1  21
ATOM     21  C   UNL A   1      33.372  33.508  28.235  1.00  0.00     0.042 C 
BRANCH  21  22
ATOM     22  C   UNL A   1      34.440  32.437  28.280  1.00  0.00     0.118 C 
BRANCH  22  23
ATOM     23  N   UNL A   1      33.917  31.103  27.994  1.00  0.00    -0.352 N 
ATOM     24  C   UNL A   1      34.556  29.891  27.882  1.00  0.00     0.251 C 
ATOM     25  H   UNL A   1      32.943  31.067  27.858  1.00  0.00     0.163 HD
ATOM     26  O   UNL A   1      33.937  28.919  27.456  1.00  0.00    -0.269 OA
BRANCH  24  27
ATOM     27  C   UNL A   1      35.985  29.762  28.239  1.00  0.00     0.039 A 
ATOM     28  C   UNL A   1      36.337  29.346  29.526  1.00  0.00     0.014 A 
ATOM     29  C   UNL A   1      36.980  30.037  27.302  1.00  0.00     0.014 A 
ATOM     30  C   UNL A   1      37.679  29.110  29.834  1.00  0.00     0.010 A 
ATOM     31  C   UNL A   1      38.296  29.683  27.568  1.00  0.00     0.010 A 
ATOM     32  C   UNL A   1      38.663  29.222  28.839  1.00  0.00    -0.014 A 
BRANCH  32  33
ATOM     33  C   UNL A   1      40.086  28.878  29.088  1.00  0.00     0.031 A 
ATOM     34  C   UNL A   1      41.025  29.929  29.621  1.00  0.00     0.074 A 
ATOM     35  C   UNL A   1      40.554  27.663  28.739  1.00  0.00     0.049 A 
ATOM     36  N   UNL A   1      42.323  29.883  29.762  1.00  0.00    -0.248 NA
ATOM     37  C   UNL A   1      40.426  31.220  30.005  1.00  0.00     0.031 C 
ATOM     38  C   UNL A   1      39.756  26.579  28.159  1.00  0.00     0.029 A 
ATOM     39  N   UNL A   1      41.821  27.140  28.801  1.00  0.00    -0.354 N 
ATOM     40  C   UNL A   1      42.698  31.142  30.219  1.00  0.00     0.074 A 
ATOM     41  C   UNL A   1      41.499  31.947  30.277  1.00  0.00     0.031 C 
ATOM     42  C   UNL A   1      40.546  25.516  27.942  1.00  0.00     0.029 A 
ATOM     43  C   UNL A   1      41.914  25.854  28.320  1.00  0.00     0.049 A 
ATOM     44  H   UNL A   1      42.593  27.638  29.157  1.00  0.00     0.167 HD
ATOM     45  C   UNL A   1      43.926  31.578  30.585  1.00  0.00     0.037 A 
ATOM     46  C   UNL A   1      42.982  25.045  28.186  1.00  0.00     0.037 A 
ATOM     47  C   UNL A   1      45.105  30.754  30.570  1.00  0.00     0.049 A 
ATOM     48  C   UNL A   1      44.335  25.546  28.613  1.00  0.00     0.074 A 
ATOM     49  C   UNL A   1      46.383  31.074  30.992  1.00  0.00     0.029 A 
ATOM     50  N   UNL A   1      45.149  29.444  30.114  1.00  0.00    -0.354 N 
ATOM     51  N   UNL A   1      44.661  26.719  29.103  1.00  0.00    -0.248 NA
ATOM     52  C   UNL A   1      45.464  24.618  28.472  1.00  0.00     0.031 C 
ATOM     53  C   UNL A   1      47.208  29.970  30.754  1.00  0.00     0.029 A 
ATOM     54  C   UNL A   1      46.435  28.948  30.226  1.00  0.00     0.049 A 
ATOM     55  H   UNL A   1      44.379  28.943  29.762  1.00  0.00     0.167 HD
ATOM     56  C   UNL A   1      46.027  26.661  29.350  1.00  0.00     0.074 A 
ATOM     57  C   UNL A   1      46.465  25.333  28.968  1.00  0.00     0.031 C 
ATOM     58  C   UNL A   1      46.848  27.619  29.849  1.00  0.00     0.037 A 
BRANCH  45  59
ATOM     59  C   UNL A   1      44.051  33.004  31.044  1.00  0.00     0.058 A 
ATOM     60  C   UNL A   1      44.469  34.025  30.175  1.00  0.00     0.135 A 
ATOM     61  C   UNL A   1      43.723  33.361  32.362  1.00  0.00     0.135 A 
ATOM     62  F   UNL A   1      44.813  33.737  28.910  1.00  0.00    -0.206 F 
ATOM     63  C   UNL A   1      44.590  35.342  30.604  1.00  0.00     0.059 A 
ATOM     64  C   UNL A   1      43.808  34.679  32.805  1.00  0.00     0.059 A 
ATOM     65  F   UNL A   1      43.318  32.426  33.236  1.00  0.00    -0.206 F 
ATOM     66  C   UNL A   1      44.259  35.658  31.923  1.00  0.00     0.060 A 
BRANCH  66  67
ATOM     67  S   UNL A   1      44.418  37.374  32.462  1.00  0.00     0.124 S 
ATOM     68  O   UNL A   1      43.799  38.087  31.348  1.00  0.00    -0.237 OA
ATOM     69  O   UNL A   1      43.666  37.379  33.713  1.00  0.00    -0.237 OA
ATOM     70  O   UNL A   1      45.859  37.555  32.600  1.00  0.00    -0.744 OA
ENDBRANCH  66  67
ENDBRANCH  45  59
BRANCH  46  71
ATOM     71  C   UNL A   1      42.812  23.672  27.641  1.00  0.00     0.058 A 
ATOM     72  C   UNL A   1      42.540  22.591  28.491  1.00  0.00     0.135 A 
ATOM     73  C   UNL A   1      42.898  23.415  26.264  1.00  0.00     0.135 A 
ATOM     74  F   UNL A   1      42.453  22.785  29.816  1.00  0.00    -0.206 F 
ATOM     75  C   UNL A   1      42.374  21.299  28.000  1.00  0.00     0.059 A 
ATOM     76  C   UNL A   1      42.711  22.136  25.745  1.00  0.00     0.059 A 
ATOM     77  F   UNL A   1      43.137  24.418  25.405  1.00  0.00    -0.206 F 
ATOM     78  C   UNL A   1      42.459  21.083  26.624  1.00  0.00     0.060 A 
BRANCH  78  79
ATOM     79  S   UNL A   1      42.191  19.412  25.991  1.00  0.00     0.124 S 
ATOM     80  O   UNL A   1      42.683  18.598  27.097  1.00  0.00    -0.237 OA
ATOM     81  O   UNL A   1      40.748  19.393  25.777  1.00  0.00    -0.237 OA
ATOM     82  O   UNL A   1      42.998  19.381  24.776  1.00  0.00    -0.744 OA
ENDBRANCH  78  79
ENDBRANCH  46  71
BRANCH  58  83
ATOM     83  C   UNL A   1      48.294  27.263  30.038  1.00  0.00     0.058 A 
ATOM     84  C   UNL A   1      49.270  27.629  29.099  1.00  0.00     0.135 A 
ATOM     85  C   UNL A   1      48.717  26.612  31.208  1.00  0.00     0.135 A 
ATOM     86  F   UNL A   1      48.915  28.246  27.961  1.00  0.00    -0.206 F 
ATOM     87  C   UNL A   1      50.617  27.352  29.308  1.00  0.00     0.059 A 
ATOM     88  C   UNL A   1      50.062  26.348  31.449  1.00  0.00     0.059 A 
ATOM     89  F   UNL A   1      47.823  26.250  32.141  1.00  0.00    -0.206 F 
ATOM     90  C   UNL A   1      51.003  26.715  30.489  1.00  0.00     0.060 A 
BRANCH  90  91
ATOM     91  S   UNL A   1      52.759  26.408  30.772  1.00  0.00     0.124 S 
ATOM     92  O   UNL A   1      53.237  26.170  29.414  1.00  0.00    -0.237 OA
ATOM     93  O   UNL A   1      53.199  27.655  31.389  1.00  0.00    -0.237 OA
ATOM     94  O   UNL A   1      52.764  25.244  31.652  1.00  0.00    -0.744 OA
ENDBRANCH  90  91
ENDBRANCH  58  83
ENDBRANCH  32  33
ENDBRANCH  24  27
ENDBRANCH  22  23
ENDBRANCH  21  22
ENDBRANCH   1  21
TORSDOF 17
ENDMDL
MODEL 2
REMARK VINA RESULT:      -9.8      3.377      5.965
REMARK SMILES C[C@@H](C[N@@H+](C)Cc1cc(F)cc(Br)c1)C(=O)NCCCNC(=O)c1ccc(-c2c3nc(c(-c4c(F)cc(S(=O)(=O)[O-])cc4F)c4ccc([nH]4)c(-c4c(F)cc(S(=O)(=O)[O-])cc4F)c4nc(c(-c5c(F)cc(S(=O)(=O)[O-])cc5F)c5ccc2[nH]5)C=C4)C=C3)cc1
REMARK SMILES IDX 18 1 17 2 15 3 16 4 2 6 1 7 3 8 4 9 5 10 6 12 7 13 8 14
REMARK SMILES IDX 14 15 9 16 12 17 10 18 11 19 13 20 19 21 20 22 21 23 22 24
REMARK SMILES IDX 23 26 24 27 25 28 89 29 26 30 88 31 27 32 28 33 29 34 82 35
REMARK SMILES IDX 30 36 87 37 81 38 83 39 31 40 86 41 80 42 79 43 32 45 66 46
REMARK SMILES IDX 45 47 65 48 46 49 49 50 64 51 84 52 47 53 48 54 63 56 85 57
REMARK SMILES IDX 50 58 33 59 34 60 43 61 35 62 36 63 42 64 44 65 37 66 38 67
REMARK SMILES IDX 39 68 40 69 41 70 67 71 68 72 77 73 69 74 70 75 76 76 78 77
REMARK SMILES IDX 71 78 72 79 73 80 74 81 75 82 51 83 52 84 61 85 53 86 54 87
REMARK SMILES IDX 60 88 62 89 55 90 56 91 57 92 58 93 59 94
REMARK H PARENT 17 5 4 11 21 25 83 44 49 55
REMARK Flexibility Score: inf
ROOT
ATOM      1  C   UNL A   1      32.170  29.259  25.163  1.00  0.00     0.117 C 
ENDROOT
BRANCH   1   2
ATOM      2  N   UNL A   1      32.095  29.348  23.725  1.00  0.00    -0.356 N 
ATOM      3  C   UNL A   1      31.418  28.535  22.865  1.00  0.00     0.228 C 
ATOM      4  O   UNL A   1      31.307  28.916  21.695  1.00  0.00    -0.275 OA
ATOM      5  H   UNL A   1      32.595  30.089  23.314  1.00  0.00     0.163 HD
BRANCH   3   6
ATOM      6  C   UNL A   1      30.867  27.166  23.283  1.00  0.00     0.130 C 
ATOM      7  C   UNL A   1      29.369  27.244  23.559  1.00  0.00     0.024 C 
BRANCH   6   8
ATOM      8  C   UNL A   1      31.426  25.939  22.504  1.00  0.00     0.275 C 
BRANCH   8   9
ATOM      9  N   UNL A   1      31.856  24.707  23.173  1.00  0.00    -0.333 N 
ATOM     10  C   UNL A   1      30.750  23.819  23.515  1.00  0.00     0.333 C 
ATOM     11  H   UNL A   1      32.240  25.109  24.029  1.00  0.00     0.348 HD
BRANCH   9  12
ATOM     12  C   UNL A   1      33.031  23.982  22.679  1.00  0.00     0.298 C 
BRANCH  12  13
ATOM     13  C   UNL A   1      33.855  23.172  23.648  1.00  0.00     0.010 A 
ATOM     14  C   UNL A   1      33.592  21.817  23.883  1.00  0.00     0.048 A 
ATOM     15  C   UNL A   1      34.996  23.744  24.235  1.00  0.00     0.025 A 
ATOM     16  C   UNL A   1      34.442  21.068  24.688  1.00  0.00     0.124 A 
ATOM     17  C   UNL A   1      35.844  22.974  25.034  1.00  0.00     0.021 A 
ATOM     18  F   UNL A   1      34.174  19.771  24.892  1.00  0.00    -0.207 F 
ATOM     19  C   UNL A   1      35.572  21.631  25.265  1.00  0.00     0.055 A 
ATOM     20  Br  UNL A   1      37.390  23.760  25.784  1.00  0.00    -0.051 Br
ENDBRANCH  12  13
ENDBRANCH   9  12
ENDBRANCH   8   9
ENDBRANCH   6   8
ENDBRANCH   3   6
ENDBRANCH   1   2
BRANCH   1  21
ATOM     21  C   UNL A   1      33.329  28.449  25.700  1.00  0.00     0.042 C 
BRANCH  21  22
ATOM     22  C   UNL A   1      33.503  28.562  27.199  1.00  0.00     0.118 C 
BRANCH  22  23
ATOM     23  N   UNL A   1      33.528  29.948  27.663  1.00  0.00    -0.352 N 
ATOM     24  C   UNL A   1      34.512  30.665  28.302  1.00  0.00     0.251 C 
ATOM     25  H   UNL A   1      32.701  30.452  27.489  1.00  0.00     0.163 HD
ATOM     26  O   UNL A   1      34.248  31.774  28.763  1.00  0.00    -0.269 OA
BRANCH  24  27
ATOM     27  C   UNL A   1      35.867  30.096  28.464  1.00  0.00     0.039 A 
ATOM     28  C   UNL A   1      36.748  30.100  27.379  1.00  0.00     0.014 A 
ATOM     29  C   UNL A   1      36.277  29.573  29.690  1.00  0.00     0.014 A 
ATOM     30  C   UNL A   1      38.067  29.673  27.557  1.00  0.00     0.010 A 
ATOM     31  C   UNL A   1      37.615  29.268  29.897  1.00  0.00     0.010 A 
ATOM     32  C   UNL A   1      38.525  29.307  28.832  1.00  0.00    -0.014 A 
BRANCH  32  33
ATOM     33  C   UNL A   1      39.943  28.950  29.093  1.00  0.00     0.031 A 
ATOM     34  C   UNL A   1      40.889  29.995  29.624  1.00  0.00     0.074 A 
ATOM     35  C   UNL A   1      40.400  27.728  28.754  1.00  0.00     0.049 A 
ATOM     36  N   UNL A   1      42.186  29.936  29.773  1.00  0.00    -0.248 NA
ATOM     37  C   UNL A   1      40.302  31.294  29.996  1.00  0.00     0.031 C 
ATOM     38  C   UNL A   1      39.594  26.649  28.176  1.00  0.00     0.029 A 
ATOM     39  N   UNL A   1      41.661  27.192  28.827  1.00  0.00    -0.354 N 
ATOM     40  C   UNL A   1      42.571  31.194  30.225  1.00  0.00     0.074 A 
ATOM     41  C   UNL A   1      41.381  32.012  30.270  1.00  0.00     0.031 C 
ATOM     42  C   UNL A   1      40.374  25.576  27.971  1.00  0.00     0.029 A 
ATOM     43  C   UNL A   1      41.743  25.903  28.355  1.00  0.00     0.049 A 
ATOM     44  H   UNL A   1      42.436  27.685  29.184  1.00  0.00     0.167 HD
ATOM     45  C   UNL A   1      43.802  31.620  30.595  1.00  0.00     0.037 A 
ATOM     46  C   UNL A   1      42.804  25.082  28.233  1.00  0.00     0.037 A 
ATOM     47  C   UNL A   1      44.972  30.783  30.592  1.00  0.00     0.049 A 
ATOM     48  C   UNL A   1      44.159  25.571  28.665  1.00  0.00     0.074 A 
ATOM     49  C   UNL A   1      46.251  31.093  31.020  1.00  0.00     0.029 A 
ATOM     50  N   UNL A   1      45.005  29.471  30.145  1.00  0.00    -0.354 N 
ATOM     51  N   UNL A   1      44.494  26.744  29.149  1.00  0.00    -0.248 NA
ATOM     52  C   UNL A   1      45.280  24.630  28.537  1.00  0.00     0.031 C 
ATOM     53  C   UNL A   1      47.066  29.979  30.794  1.00  0.00     0.029 A 
ATOM     54  C   UNL A   1      46.285  28.962  30.268  1.00  0.00     0.049 A 
ATOM     55  H   UNL A   1      44.232  28.975  29.791  1.00  0.00     0.167 HD
ATOM     56  C   UNL A   1      45.859  26.673  29.405  1.00  0.00     0.074 A 
ATOM     57  C   UNL A   1      46.285  25.338  29.034  1.00  0.00     0.031 C 
ATOM     58  C   UNL A   1      46.686  27.626  29.902  1.00  0.00     0.037 A 
BRANCH  45  59
ATOM     59  C   UNL A   1      43.938  33.047  31.046  1.00  0.00     0.058 A 
ATOM     60  C   UNL A   1      44.224  34.082  30.141  1.00  0.00     0.135 A 
ATOM     61  C   UNL A   1      43.755  33.391  32.394  1.00  0.00     0.135 A 
ATOM     62  F   UNL A   1      44.427  33.808  28.842  1.00  0.00    -0.206 F 
ATOM     63  C   UNL A   1      44.357  35.401  30.560  1.00  0.00     0.059 A 
ATOM     64  C   UNL A   1      43.854  34.710  32.833  1.00  0.00     0.059 A 
ATOM     65  F   UNL A   1      43.481  32.442  33.303  1.00  0.00    -0.206 F 
ATOM     66  C   UNL A   1      44.172  35.704  31.910  1.00  0.00     0.060 A 
BRANCH  66  67
ATOM     67  S   UNL A   1      44.344  37.422  32.439  1.00  0.00     0.124 S 
ATOM     68  O   UNL A   1      43.971  38.138  31.221  1.00  0.00    -0.237 OA
ATOM     69  O   UNL A   1      43.391  37.507  33.540  1.00  0.00    -0.237 OA
ATOM     70  O   UNL A   1      45.749  37.521  32.820  1.00  0.00    -0.744 OA
ENDBRANCH  66  67
ENDBRANCH  45  59
BRANCH  46  71
ATOM     71  C   UNL A   1      42.623  23.707  27.696  1.00  0.00     0.058 A 
ATOM     72  C   UNL A   1      42.641  23.468  26.314  1.00  0.00     0.135 A 
ATOM     73  C   UNL A   1      42.447  22.605  28.547  1.00  0.00     0.135 A 
ATOM     74  F   UNL A   1      42.801  24.489  25.459  1.00  0.00    -0.206 F 
ATOM     75  C   UNL A   1      42.478  22.188  25.792  1.00  0.00     0.059 A 
ATOM     76  C   UNL A   1      42.306  21.311  28.050  1.00  0.00     0.059 A 
ATOM     77  F   UNL A   1      42.442  22.776  29.877  1.00  0.00    -0.206 F 
ATOM     78  C   UNL A   1      42.313  21.116  26.669  1.00  0.00     0.060 A 
BRANCH  78  79
ATOM     79  S   UNL A   1      42.152  19.452  25.984  1.00  0.00     0.124 S 
ATOM     80  O   UNL A   1      40.719  19.379  25.725  1.00  0.00    -0.237 OA
ATOM     81  O   UNL A   1      43.011  19.521  24.806  1.00  0.00    -0.237 OA
ATOM     82  O   UNL A   1      42.645  18.598  27.059  1.00  0.00    -0.744 OA
ENDBRANCH  78  79
ENDBRANCH  46  71
BRANCH  58  83
ATOM     83  C   UNL A   1      48.128  27.256  30.102  1.00  0.00     0.058 A 
ATOM     84  C   UNL A   1      49.091  27.493  29.111  1.00  0.00     0.135 A 
ATOM     85  C   UNL A   1      48.560  26.727  31.328  1.00  0.00     0.135 A 
ATOM     86  F   UNL A   1      48.727  27.990  27.918  1.00  0.00    -0.206 F 
ATOM     87  C   UNL A   1      50.435  27.206  29.323  1.00  0.00     0.059 A 
ATOM     88  C   UNL A   1      49.903  26.456  31.572  1.00  0.00     0.059 A 
ATOM     89  F   UNL A   1      47.678  26.491  32.312  1.00  0.00    -0.206 F 
ATOM     90  C   UNL A   1      50.832  26.692  30.560  1.00  0.00     0.060 A 
BRANCH  90  91
ATOM     91  S   UNL A   1      52.586  26.374  30.842  1.00  0.00     0.124 S 
ATOM     92  O   UNL A   1      53.081  26.233  29.477  1.00  0.00    -0.237 OA
ATOM     93  O   UNL A   1      53.012  27.576  31.550  1.00  0.00    -0.237 OA
ATOM     94  O   UNL A   1      52.586  25.150  31.640  1.00  0.00    -0.744 OA
ENDBRANCH  90  91
ENDBRANCH  58  83
ENDBRANCH  32  33
ENDBRANCH  24  27
ENDBRANCH  22  23
ENDBRANCH  21  22
ENDBRANCH   1  21
TORSDOF 17
ENDMDL
MODEL 3
REMARK VINA RESULT:      -9.8      2.565      3.546
REMARK SMILES C[C@@H](C[N@@H+](C)Cc1cc(F)cc(Br)c1)C(=O)NCCCNC(=O)c1ccc(-c2c3nc(c(-c4c(F)cc(S(=O)(=O)[O-])cc4F)c4ccc([nH]4)c(-c4c(F)cc(S(=O)(=O)[O-])cc4F)c4nc(c(-c5c(F)cc(S(=O)(=O)[O-])cc5F)c5ccc2[nH]5)C=C4)C=C3)cc1
REMARK SMILES IDX 18 1 17 2 15 3 16 4 2 6 1 7 3 8 4 9 5 10 6 12 7 13 8 14
REMARK SMILES IDX 14 15 9 16 12 17 10 18 11 19 13 20 19 21 20 22 21 23 22 24
REMARK SMILES IDX 23 26 24 27 25 28 89 29 26 30 88 31 27 32 28 33 29 34 82 35
REMARK SMILES IDX 30 36 87 37 81 38 83 39 31 40 86 41 80 42 79 43 32 45 66 46
REMARK SMILES IDX 45 47 65 48 46 49 49 50 64 51 84 52 47 53 48 54 63 56 85 57
REMARK SMILES IDX 50 58 33 59 34 60 43 61 35 62 36 63 42 64 44 65 37 66 38 67
REMARK SMILES IDX 39 68 40 69 41 70 67 71 68 72 77 73 69 74 70 75 76 76 78 77
REMARK SMILES IDX 71 78 72 79 73 80 74 81 75 82 51 83 52 84 61 85 53 86 54 87
REMARK SMILES IDX 60 88 62 89 55 90 56 91 57 92 58 93 59 94
REMARK H PARENT 17 5 4 11 21 25 83 44 49 55
REMARK Flexibility Score: inf
ROOT
ATOM      1  C   UNL A   1      36.031  34.110  29.043  1.00  0.00     0.117 C 
ENDROOT
BRANCH   1   2
ATOM      2  N   UNL A   1      34.635  33.859  28.777  1.00  0.00    -0.356 N 
ATOM      3  C   UNL A   1      33.599  34.744  28.813  1.00  0.00     0.228 C 
ATOM      4  O   UNL A   1      32.521  34.371  28.339  1.00  0.00    -0.275 OA
ATOM      5  H   UNL A   1      34.403  32.933  28.538  1.00  0.00     0.163 HD
BRANCH   3   6
ATOM      6  C   UNL A   1      33.714  36.124  29.471  1.00  0.00     0.130 C 
ATOM      7  C   UNL A   1      33.402  37.232  28.471  1.00  0.00     0.024 C 
BRANCH   6   8
ATOM      8  C   UNL A   1      33.151  36.238  30.919  1.00  0.00     0.275 C 
BRANCH   8   9
ATOM      9  N   UNL A   1      34.018  36.333  32.099  1.00  0.00    -0.333 N 
ATOM     10  C   UNL A   1      33.942  37.627  32.768  1.00  0.00     0.333 C 
ATOM     11  H   UNL A   1      34.927  36.244  31.644  1.00  0.00     0.348 HD
BRANCH   9  12
ATOM     12  C   UNL A   1      34.090  35.212  33.042  1.00  0.00     0.298 C 
BRANCH  12  13
ATOM     13  C   UNL A   1      35.436  34.783  33.570  1.00  0.00     0.010 A 
ATOM     14  C   UNL A   1      35.585  34.242  34.852  1.00  0.00     0.048 A 
ATOM     15  C   UNL A   1      36.553  34.801  32.717  1.00  0.00     0.025 A 
ATOM     16  C   UNL A   1      36.816  33.744  35.263  1.00  0.00     0.124 A 
ATOM     17  C   UNL A   1      37.780  34.289  33.144  1.00  0.00     0.021 A 
ATOM     18  F   UNL A   1      36.931  33.224  36.492  1.00  0.00    -0.207 F 
ATOM     19  C   UNL A   1      37.918  33.757  34.421  1.00  0.00     0.055 A 
ATOM     20  Br  UNL A   1      39.257  34.294  31.965  1.00  0.00    -0.051 Br
ENDBRANCH  12  13
ENDBRANCH   9  12
ENDBRANCH   8   9
ENDBRANCH   6   8
ENDBRANCH   3   6
ENDBRANCH   1   2
BRANCH   1  21
ATOM     21  C   UNL A   1      36.848  32.890  29.407  1.00  0.00     0.042 C 
BRANCH  21  22
ATOM     22  C   UNL A   1      36.154  31.968  30.385  1.00  0.00     0.118 C 
BRANCH  22  23
ATOM     23  N   UNL A   1      35.498  30.838  29.731  1.00  0.00    -0.352 N 
ATOM     24  C   UNL A   1      36.014  29.817  28.969  1.00  0.00     0.251 C 
ATOM     25  H   UNL A   1      34.523  30.802  29.857  1.00  0.00     0.163 HD
ATOM     26  O   UNL A   1      35.249  29.068  28.365  1.00  0.00    -0.269 OA
BRANCH  24  27
ATOM     27  C   UNL A   1      37.477  29.638  28.847  1.00  0.00     0.039 A 
ATOM     28  C   UNL A   1      38.227  29.316  29.982  1.00  0.00     0.014 A 
ATOM     29  C   UNL A   1      38.110  29.773  27.612  1.00  0.00     0.014 A 
ATOM     30  C   UNL A   1      39.589  29.031  29.854  1.00  0.00     0.010 A 
ATOM     31  C   UNL A   1      39.430  29.370  27.465  1.00  0.00     0.010 A 
ATOM     32  C   UNL A   1      40.187  29.001  28.584  1.00  0.00    -0.014 A 
BRANCH  32  33
ATOM     33  C   UNL A   1      41.603  28.599  28.385  1.00  0.00     0.031 A 
ATOM     34  C   UNL A   1      42.685  29.647  28.408  1.00  0.00     0.074 A 
ATOM     35  C   UNL A   1      41.902  27.320  28.081  1.00  0.00     0.049 A 
ATOM     36  N   UNL A   1      43.952  29.534  28.106  1.00  0.00    -0.248 NA
ATOM     37  C   UNL A   1      42.278  31.014  28.777  1.00  0.00     0.031 C 
ATOM     38  C   UNL A   1      40.935  26.224  27.971  1.00  0.00     0.029 A 
ATOM     39  N   UNL A   1      43.104  26.727  27.786  1.00  0.00    -0.354 N 
ATOM     40  C   UNL A   1      44.482  30.814  28.220  1.00  0.00     0.074 A 
ATOM     41  C   UNL A   1      43.391  31.698  28.560  1.00  0.00     0.031 C 
ATOM     42  C   UNL A   1      41.583  25.092  27.658  1.00  0.00     0.029 A 
ATOM     43  C   UNL A   1      43.003  25.386  27.497  1.00  0.00     0.049 A 
ATOM     44  H   UNL A   1      43.959  27.216  27.783  1.00  0.00     0.167 HD
ATOM     45  C   UNL A   1      45.769  31.213  28.080  1.00  0.00     0.037 A 
ATOM     46  C   UNL A   1      43.947  24.497  27.130  1.00  0.00     0.037 A 
ATOM     47  C   UNL A   1      46.856  30.318  27.789  1.00  0.00     0.049 A 
ATOM     48  C   UNL A   1      45.372  24.959  26.996  1.00  0.00     0.074 A 
ATOM     49  C   UNL A   1      48.206  30.606  27.701  1.00  0.00     0.029 A 
ATOM     50  N   UNL A   1      46.718  28.960  27.542  1.00  0.00    -0.354 N 
ATOM     51  N   UNL A   1      45.866  26.163  27.168  1.00  0.00    -0.248 NA
ATOM     52  C   UNL A   1      46.368  23.948  26.619  1.00  0.00     0.031 C 
ATOM     53  C   UNL A   1      48.881  29.428  27.364  1.00  0.00     0.029 A 
ATOM     54  C   UNL A   1      47.956  28.399  27.284  1.00  0.00     0.049 A 
ATOM     55  H   UNL A   1      45.866  28.468  27.549  1.00  0.00     0.167 HD
ATOM     56  C   UNL A   1      47.233  26.047  26.945  1.00  0.00     0.074 A 
ATOM     57  C   UNL A   1      47.490  24.655  26.636  1.00  0.00     0.031 C 
ATOM     58  C   UNL A   1      48.191  27.007  26.989  1.00  0.00     0.037 A 
BRANCH  45  59
ATOM     59  C   UNL A   1      46.068  32.676  28.255  1.00  0.00     0.058 A 
ATOM     60  C   UNL A   1      46.433  33.209  29.502  1.00  0.00     0.135 A 
ATOM     61  C   UNL A   1      46.015  33.553  27.160  1.00  0.00     0.135 A 
ATOM     62  F   UNL A   1      46.481  32.420  30.587  1.00  0.00    -0.206 F 
ATOM     63  C   UNL A   1      46.702  34.564  29.665  1.00  0.00     0.059 A 
ATOM     64  C   UNL A   1      46.309  34.907  27.293  1.00  0.00     0.059 A 
ATOM     65  F   UNL A   1      45.670  33.097  25.945  1.00  0.00    -0.206 F 
ATOM     66  C   UNL A   1      46.635  35.405  28.553  1.00  0.00     0.060 A 
BRANCH  66  67
ATOM     67  S   UNL A   1      46.991  37.161  28.780  1.00  0.00     0.124 S 
ATOM     68  O   UNL A   1      46.701  37.333  30.201  1.00  0.00    -0.237 OA
ATOM     69  O   UNL A   1      48.400  37.245  28.407  1.00  0.00    -0.237 OA
ATOM     70  O   UNL A   1      46.064  37.817  27.866  1.00  0.00    -0.744 OA
ENDBRANCH  66  67
ENDBRANCH  45  59
BRANCH  46  71
ATOM     71  C   UNL A   1      43.576  23.079  26.883  1.00  0.00     0.058 A 
ATOM     72  C   UNL A   1      43.530  22.566  25.578  1.00  0.00     0.135 A 
ATOM     73  C   UNL A   1      43.281  22.204  27.940  1.00  0.00     0.135 A 
ATOM     74  F   UNL A   1      43.800  23.364  24.534  1.00  0.00    -0.206 F 
ATOM     75  C   UNL A   1      43.190  21.240  25.327  1.00  0.00     0.059 A 
ATOM     76  C   UNL A   1      42.962  20.867  27.716  1.00  0.00     0.059 A 
ATOM     77  F   UNL A   1      43.330  22.639  29.208  1.00  0.00    -0.206 F 
ATOM     78  C   UNL A   1      42.909  20.398  26.403  1.00  0.00     0.060 A 
BRANCH  78  79
ATOM     79  S   UNL A   1      42.518  18.666  26.069  1.00  0.00     0.124 S 
ATOM     80  O   UNL A   1      42.779  18.052  27.365  1.00  0.00    -0.237 OA
ATOM     81  O   UNL A   1      41.117  18.740  25.668  1.00  0.00    -0.237 OA
ATOM     82  O   UNL A   1      43.449  18.312  25.002  1.00  0.00    -0.744 OA
ENDBRANCH  78  79
ENDBRANCH  46  71
BRANCH  58  83
ATOM     83  C   UNL A   1      49.608  26.584  26.728  1.00  0.00     0.058 A 
ATOM     84  C   UNL A   1      50.445  26.142  27.763  1.00  0.00     0.135 A 
ATOM     85  C   UNL A   1      50.109  26.551  25.417  1.00  0.00     0.135 A 
ATOM     86  F   UNL A   1      50.016  26.162  29.036  1.00  0.00    -0.206 F 
ATOM     87  C   UNL A   1      51.737  25.693  27.509  1.00  0.00     0.059 A 
ATOM     88  C   UNL A   1      51.388  26.082  25.137  1.00  0.00     0.059 A 
ATOM     89  F   UNL A   1      49.343  26.955  24.391  1.00  0.00    -0.206 F 
ATOM     90  C   UNL A   1      52.197  25.662  26.191  1.00  0.00     0.060 A 
BRANCH  90  91
ATOM     91  S   UNL A   1      53.856  25.027  25.869  1.00  0.00     0.124 S 
ATOM     92  O   UNL A   1      53.563  23.705  25.327  1.00  0.00    -0.237 OA
ATOM     93  O   UNL A   1      54.384  25.999  24.917  1.00  0.00    -0.237 OA
ATOM     94  O   UNL A   1      54.487  25.041  27.185  1.00  0.00    -0.744 OA
ENDBRANCH  90  91
ENDBRANCH  58  83
ENDBRANCH  32  33
ENDBRANCH  24  27
ENDBRANCH  22  23
ENDBRANCH  21  22
ENDBRANCH   1  21
TORSDOF 17
ENDMDL
