MODEL 1
REMARK VINA RESULT:     -12.3      0.000      0.000
REMARK SMILES CCC[C@H](Oc1ccccc1C)C(=O)NCCCNC(=O)c1ccc(-c2c3nc(c(-c4c(F)cc(S(=O)(=O)[O-])cc4F)c4ccc([nH]4)c(-c4c(F)cc(S(=O)(=O)[O-])cc4F)c4nc(c(-c5c(F)cc(S(=O)(=O)[O-])cc5F)c5ccc2[nH]5)C=C4)C=C3)cc1
REMARK SMILES IDX 17 1 16 2 15 3 13 4 14 5 4 7 3 8 2 9 1 10 5 11 6 12 7 13
REMARK SMILES IDX 11 14 8 15 10 16 12 17 9 18 18 19 19 20 20 21 21 23 22 24
REMARK SMILES IDX 23 25 87 26 24 27 86 28 25 29 26 30 27 31 80 32 28 33 85 34
REMARK SMILES IDX 79 35 81 36 29 37 84 38 78 39 77 40 30 42 64 43 43 44 63 45
REMARK SMILES IDX 44 46 47 47 62 48 82 49 45 50 46 51 61 53 83 54 48 55 31 56
REMARK SMILES IDX 32 57 41 58 33 59 34 60 40 61 42 62 35 63 36 64 37 65 38 66
REMARK SMILES IDX 39 67 65 68 66 69 75 70 67 71 68 72 74 73 76 74 69 75 70 76
REMARK SMILES IDX 71 77 72 78 73 79 49 80 50 81 59 82 51 83 52 84 58 85 60 86
REMARK SMILES IDX 53 87 54 88 55 89 56 90 57 91
REMARK H PARENT 15 6 19 22 81 41 47 52
REMARK Flexibility Score: inf
ROOT
ATOM      1  C   UNL A   1      32.870  30.223  27.215  1.00  0.00     0.042 C 
ENDROOT
BRANCH   1   2
ATOM      2  C   UNL A   1      32.094  29.976  25.934  1.00  0.00     0.118 C 
BRANCH   2   3
ATOM      3  N   UNL A   1      32.971  29.698  24.801  1.00  0.00    -0.353 N 
ATOM      4  C   UNL A   1      32.740  28.974  23.663  1.00  0.00     0.261 C 
ATOM      5  O   UNL A   1      33.668  28.842  22.859  1.00  0.00    -0.271 OA
ATOM      6  H   UNL A   1      33.870  30.094  24.865  1.00  0.00     0.163 HD
BRANCH   4   7
ATOM      7  C   UNL A   1      31.349  28.390  23.343  1.00  0.00     0.261 C 
BRANCH   7   8
ATOM      8  C   UNL A   1      30.349  29.525  23.032  1.00  0.00     0.055 C 
BRANCH   8   9
ATOM      9  C   UNL A   1      28.976  29.056  22.542  1.00  0.00     0.001 C 
ATOM     10  C   UNL A   1      27.836  29.961  22.977  1.00  0.00     0.004 C 
ENDBRANCH   8   9
ENDBRANCH   7   8
BRANCH   7  11
ATOM     11  O   UNL A   1      30.972  27.573  24.460  1.00  0.00    -0.480 OA
BRANCH  11  12
ATOM     12  C   UNL A   1      31.095  26.211  24.403  1.00  0.00     0.123 A 
ATOM     13  C   UNL A   1      30.686  25.411  23.334  1.00  0.00     0.047 A 
ATOM     14  C   UNL A   1      31.625  25.593  25.553  1.00  0.00    -0.009 A 
ATOM     15  C   UNL A   1      30.686  24.018  23.447  1.00  0.00     0.004 A 
ATOM     16  C   UNL A   1      31.611  24.194  25.660  1.00  0.00     0.007 A 
ATOM     17  C   UNL A   1      32.207  26.404  26.678  1.00  0.00     0.048 C 
ATOM     18  C   UNL A   1      31.124  23.410  24.618  1.00  0.00     0.001 A 
ENDBRANCH  11  12
ENDBRANCH   7  11
ENDBRANCH   4   7
ENDBRANCH   2   3
ENDBRANCH   1   2
BRANCH   1  19
ATOM     19  C   UNL A   1      34.357  29.959  27.067  1.00  0.00     0.118 C 
BRANCH  19  20
ATOM     20  N   UNL A   1      35.189  31.125  27.311  1.00  0.00    -0.352 N 
ATOM     21  C   UNL A   1      36.236  31.190  28.221  1.00  0.00     0.251 C 
ATOM     22  H   UNL A   1      34.994  31.936  26.787  1.00  0.00     0.163 HD
ATOM     23  O   UNL A   1      36.524  32.204  28.828  1.00  0.00    -0.269 OA
BRANCH  21  24
ATOM     24  C   UNL A   1      37.107  29.996  28.273  1.00  0.00     0.039 A 
ATOM     25  C   UNL A   1      37.124  29.251  29.459  1.00  0.00     0.014 A 
ATOM     26  C   UNL A   1      38.072  29.801  27.292  1.00  0.00     0.014 A 
ATOM     27  C   UNL A   1      38.206  28.409  29.725  1.00  0.00     0.010 A 
ATOM     28  C   UNL A   1      39.192  29.062  27.610  1.00  0.00     0.010 A 
ATOM     29  C   UNL A   1      39.276  28.378  28.833  1.00  0.00    -0.014 A 
BRANCH  29  30
ATOM     30  C   UNL A   1      40.566  27.750  29.101  1.00  0.00     0.031 A 
ATOM     31  C   UNL A   1      40.823  26.340  28.701  1.00  0.00     0.074 A 
ATOM     32  C   UNL A   1      41.598  28.490  29.565  1.00  0.00     0.049 A 
ATOM     33  N   UNL A   1      41.800  25.630  29.160  1.00  0.00    -0.248 NA
ATOM     34  C   UNL A   1      39.979  25.601  27.761  1.00  0.00     0.031 C 
ATOM     35  C   UNL A   1      43.018  28.161  29.464  1.00  0.00     0.029 A 
ATOM     36  N   UNL A   1      41.570  29.625  30.372  1.00  0.00    -0.354 N 
ATOM     37  C   UNL A   1      41.886  24.493  28.393  1.00  0.00     0.074 A 
ATOM     38  C   UNL A   1      40.702  24.494  27.568  1.00  0.00     0.031 C 
ATOM     39  C   UNL A   1      43.707  28.906  30.340  1.00  0.00     0.029 A 
ATOM     40  C   UNL A   1      42.745  29.633  31.145  1.00  0.00     0.049 A 
ATOM     41  H   UNL A   1      40.855  30.301  30.396  1.00  0.00     0.167 HD
ATOM     42  C   UNL A   1      43.007  23.722  28.432  1.00  0.00     0.037 A 
ATOM     43  C   UNL A   1      42.707  29.603  32.511  1.00  0.00     0.037 A 
ATOM     44  C   UNL A   1      43.996  24.239  29.365  1.00  0.00     0.049 A 
ATOM     45  C   UNL A   1      43.355  28.385  33.130  1.00  0.00     0.074 A 
ATOM     46  C   UNL A   1      45.114  25.042  29.201  1.00  0.00     0.029 A 
ATOM     47  N   UNL A   1      43.736  24.202  30.728  1.00  0.00    -0.354 N 
ATOM     48  N   UNL A   1      43.697  27.323  32.457  1.00  0.00    -0.248 NA
ATOM     49  C   UNL A   1      43.656  28.251  34.554  1.00  0.00     0.031 C 
ATOM     50  C   UNL A   1      45.501  25.524  30.474  1.00  0.00     0.029 A 
ATOM     51  C   UNL A   1      44.628  25.004  31.412  1.00  0.00     0.049 A 
ATOM     52  H   UNL A   1      43.016  23.677  31.149  1.00  0.00     0.167 HD
ATOM     53  C   UNL A   1      44.195  26.368  33.308  1.00  0.00     0.074 A 
ATOM     54  C   UNL A   1      44.183  27.013  34.607  1.00  0.00     0.031 C 
ATOM     55  C   UNL A   1      44.557  25.128  32.860  1.00  0.00     0.037 A 
BRANCH  42  56
ATOM     56  C   UNL A   1      43.276  22.651  27.410  1.00  0.00     0.058 A 
ATOM     57  C   UNL A   1      42.546  21.445  27.405  1.00  0.00     0.135 A 
ATOM     58  C   UNL A   1      44.282  22.755  26.430  1.00  0.00     0.135 A 
ATOM     59  F   UNL A   1      41.544  21.229  28.268  1.00  0.00    -0.206 F 
ATOM     60  C   UNL A   1      42.835  20.393  26.538  1.00  0.00     0.059 A 
ATOM     61  C   UNL A   1      44.621  21.697  25.582  1.00  0.00     0.059 A 
ATOM     62  F   UNL A   1      44.969  23.899  26.271  1.00  0.00    -0.206 F 
ATOM     63  C   UNL A   1      43.892  20.516  25.645  1.00  0.00     0.060 A 
BRANCH  63  64
ATOM     64  S   UNL A   1      44.314  19.100  24.611  1.00  0.00     0.124 S 
ATOM     65  O   UNL A   1      43.215  18.177  24.883  1.00  0.00    -0.237 OA
ATOM     66  O   UNL A   1      44.328  19.692  23.278  1.00  0.00    -0.237 OA
ATOM     67  O   UNL A   1      45.613  18.679  25.127  1.00  0.00    -0.744 OA
ENDBRANCH  63  64
ENDBRANCH  42  56
BRANCH  43  68
ATOM     68  C   UNL A   1      41.564  30.374  33.070  1.00  0.00     0.058 A 
ATOM     69  C   UNL A   1      41.745  31.764  33.207  1.00  0.00     0.135 A 
ATOM     70  C   UNL A   1      40.249  29.899  32.950  1.00  0.00     0.135 A 
ATOM     71  F   UNL A   1      42.982  32.265  33.362  1.00  0.00    -0.206 F 
ATOM     72  C   UNL A   1      40.699  32.657  33.012  1.00  0.00     0.059 A 
ATOM     73  C   UNL A   1      39.182  30.778  32.763  1.00  0.00     0.059 A 
ATOM     74  F   UNL A   1      40.016  28.583  32.834  1.00  0.00    -0.206 F 
ATOM     75  C   UNL A   1      39.439  32.150  32.702  1.00  0.00     0.060 A 
BRANCH  75  76
ATOM     76  S   UNL A   1      38.209  33.294  32.027  1.00  0.00     0.124 S 
ATOM     77  O   UNL A   1      38.260  34.400  32.975  1.00  0.00    -0.237 OA
ATOM     78  O   UNL A   1      38.760  33.575  30.701  1.00  0.00    -0.237 OA
ATOM     79  O   UNL A   1      36.981  32.508  32.040  1.00  0.00    -0.744 OA
ENDBRANCH  75  76
ENDBRANCH  43  68
BRANCH  55  80
ATOM     80  C   UNL A   1      44.955  23.932  33.700  1.00  0.00     0.058 A 
ATOM     81  C   UNL A   1      44.077  22.904  34.082  1.00  0.00     0.135 A 
ATOM     82  C   UNL A   1      46.318  23.718  34.029  1.00  0.00     0.135 A 
ATOM     83  F   UNL A   1      42.781  22.932  33.744  1.00  0.00    -0.206 F 
ATOM     84  C   UNL A   1      44.508  21.773  34.783  1.00  0.00     0.059 A 
ATOM     85  C   UNL A   1      46.777  22.574  34.678  1.00  0.00     0.059 A 
ATOM     86  F   UNL A   1      47.266  24.616  33.715  1.00  0.00    -0.206 F 
ATOM     87  C   UNL A   1      45.860  21.615  35.073  1.00  0.00     0.060 A 
BRANCH  87  88
ATOM     88  S   UNL A   1      46.443  20.127  35.909  1.00  0.00     0.124 S 
ATOM     89  O   UNL A   1      45.757  20.226  37.193  1.00  0.00    -0.237 OA
ATOM     90  O   UNL A   1      45.982  19.055  35.031  1.00  0.00    -0.237 OA
ATOM     91  O   UNL A   1      47.890  20.316  35.945  1.00  0.00    -0.744 OA
ENDBRANCH  87  88
ENDBRANCH  55  80
ENDBRANCH  29  30
ENDBRANCH  21  24
ENDBRANCH  19  20
ENDBRANCH   1  19
TORSDOF 17
ENDMDL
MODEL 2
REMARK VINA RESULT:     -12.0      2.244      3.175
REMARK SMILES CCC[C@H](Oc1ccccc1C)C(=O)NCCCNC(=O)c1ccc(-c2c3nc(c(-c4c(F)cc(S(=O)(=O)[O-])cc4F)c4ccc([nH]4)c(-c4c(F)cc(S(=O)(=O)[O-])cc4F)c4nc(c(-c5c(F)cc(S(=O)(=O)[O-])cc5F)c5ccc2[nH]5)C=C4)C=C3)cc1
REMARK SMILES IDX 17 1 16 2 15 3 13 4 14 5 4 7 3 8 2 9 1 10 5 11 6 12 7 13
REMARK SMILES IDX 11 14 8 15 10 16 12 17 9 18 18 19 19 20 20 21 21 23 22 24
REMARK SMILES IDX 23 25 87 26 24 27 86 28 25 29 26 30 27 31 80 32 28 33 85 34
REMARK SMILES IDX 79 35 81 36 29 37 84 38 78 39 77 40 30 42 64 43 43 44 63 45
REMARK SMILES IDX 44 46 47 47 62 48 82 49 45 50 46 51 61 53 83 54 48 55 31 56
REMARK SMILES IDX 32 57 41 58 33 59 34 60 40 61 42 62 35 63 36 64 37 65 38 66
REMARK SMILES IDX 39 67 65 68 66 69 75 70 67 71 68 72 74 73 76 74 69 75 70 76
REMARK SMILES IDX 71 77 72 78 73 79 49 80 50 81 59 82 51 83 52 84 58 85 60 86
REMARK SMILES IDX 53 87 54 88 55 89 56 90 57 91
REMARK H PARENT 15 6 19 22 81 41 47 52
REMARK Flexibility Score: inf
ROOT
ATOM      1  C   UNL A   1      31.811  29.362  26.735  1.00  0.00     0.042 C 
ENDROOT
BRANCH   1   2
ATOM      2  C   UNL A   1      31.448  28.241  25.777  1.00  0.00     0.118 C 
BRANCH   2   3
ATOM      3  N   UNL A   1      31.100  27.008  26.476  1.00  0.00    -0.353 N 
ATOM      4  C   UNL A   1      31.449  25.713  26.206  1.00  0.00     0.261 C 
ATOM      5  O   UNL A   1      30.985  24.824  26.927  1.00  0.00    -0.271 OA
ATOM      6  H   UNL A   1      30.524  27.127  27.265  1.00  0.00     0.163 HD
BRANCH   4   7
ATOM      7  C   UNL A   1      32.445  25.359  25.083  1.00  0.00     0.261 C 
BRANCH   7   8
ATOM      8  C   UNL A   1      31.767  25.497  23.702  1.00  0.00     0.055 C 
BRANCH   8   9
ATOM      9  C   UNL A   1      32.710  25.880  22.559  1.00  0.00     0.001 C 
ATOM     10  C   UNL A   1      32.057  25.818  21.188  1.00  0.00     0.004 C 
ENDBRANCH   8   9
ENDBRANCH   7   8
BRANCH   7  11
ATOM     11  O   UNL A   1      32.936  24.041  25.361  1.00  0.00    -0.480 OA
BRANCH  11  12
ATOM     12  C   UNL A   1      34.221  23.693  25.042  1.00  0.00     0.123 A 
ATOM     13  C   UNL A   1      35.366  24.163  25.689  1.00  0.00     0.047 A 
ATOM     14  C   UNL A   1      34.367  22.837  23.932  1.00  0.00    -0.009 A 
ATOM     15  C   UNL A   1      36.636  23.891  25.172  1.00  0.00     0.004 A 
ATOM     16  C   UNL A   1      35.647  22.579  23.417  1.00  0.00     0.007 A 
ATOM     17  C   UNL A   1      33.176  22.190  23.281  1.00  0.00     0.048 C 
ATOM     18  C   UNL A   1      36.776  23.121  24.024  1.00  0.00     0.001 A 
ENDBRANCH  11  12
ENDBRANCH   7  11
ENDBRANCH   4   7
ENDBRANCH   2   3
ENDBRANCH   1   2
BRANCH   1  19
ATOM     19  C   UNL A   1      33.286  29.385  27.089  1.00  0.00     0.118 C 
BRANCH  19  20
ATOM     20  N   UNL A   1      33.897  30.699  26.978  1.00  0.00    -0.352 N 
ATOM     21  C   UNL A   1      34.917  31.182  27.786  1.00  0.00     0.251 C 
ATOM     22  H   UNL A   1      33.559  31.295  26.271  1.00  0.00     0.163 HD
ATOM     23  O   UNL A   1      35.021  32.355  28.093  1.00  0.00    -0.269 OA
BRANCH  21  24
ATOM     24  C   UNL A   1      35.988  30.213  28.106  1.00  0.00     0.039 A 
ATOM     25  C   UNL A   1      36.036  29.697  29.408  1.00  0.00     0.014 A 
ATOM     26  C   UNL A   1      37.057  30.053  27.234  1.00  0.00     0.014 A 
ATOM     27  C   UNL A   1      37.227  29.147  29.884  1.00  0.00     0.010 A 
ATOM     28  C   UNL A   1      38.262  29.617  27.745  1.00  0.00     0.010 A 
ATOM     29  C   UNL A   1      38.361  29.180  29.075  1.00  0.00    -0.014 A 
BRANCH  29  30
ATOM     30  C   UNL A   1      39.716  28.877  29.526  1.00  0.00     0.031 A 
ATOM     31  C   UNL A   1      40.428  27.667  29.035  1.00  0.00     0.074 A 
ATOM     32  C   UNL A   1      40.402  29.778  30.265  1.00  0.00     0.049 A 
ATOM     33  N   UNL A   1      41.479  27.173  29.600  1.00  0.00    -0.248 NA
ATOM     34  C   UNL A   1      39.995  26.893  27.871  1.00  0.00     0.031 C 
ATOM     35  C   UNL A   1      41.853  29.853  30.415  1.00  0.00     0.029 A 
ATOM     36  N   UNL A   1      39.919  30.722  31.167  1.00  0.00    -0.354 N 
ATOM     37  C   UNL A   1      42.011  26.237  28.747  1.00  0.00     0.074 A 
ATOM     38  C   UNL A   1      41.027  26.059  27.708  1.00  0.00     0.031 C 
ATOM     39  C   UNL A   1      42.148  30.603  31.486  1.00  0.00     0.029 A 
ATOM     40  C   UNL A   1      40.901  30.914  32.156  1.00  0.00     0.049 A 
ATOM     41  H   UNL A   1      39.046  31.175  31.121  1.00  0.00     0.167 HD
ATOM     42  C   UNL A   1      43.285  25.791  28.927  1.00  0.00     0.037 A 
ATOM     43  C   UNL A   1      40.652  30.658  33.476  1.00  0.00     0.037 A 
ATOM     44  C   UNL A   1      43.919  26.393  30.089  1.00  0.00     0.049 A 
ATOM     45  C   UNL A   1      41.513  29.569  34.076  1.00  0.00     0.074 A 
ATOM     46  C   UNL A   1      44.770  27.476  30.240  1.00  0.00     0.029 A 
ATOM     47  N   UNL A   1      43.463  26.071  31.361  1.00  0.00    -0.354 N 
ATOM     48  N   UNL A   1      42.250  28.755  33.374  1.00  0.00    -0.248 NA
ATOM     49  C   UNL A   1      41.605  29.293  35.508  1.00  0.00     0.031 C 
ATOM     50  C   UNL A   1      44.791  27.833  31.610  1.00  0.00     0.029 A 
ATOM     51  C   UNL A   1      43.964  26.959  32.292  1.00  0.00     0.049 A 
ATOM     52  H   UNL A   1      42.866  25.316  31.569  1.00  0.00     0.167 HD
ATOM     53  C   UNL A   1      42.856  27.841  34.199  1.00  0.00     0.074 A 
ATOM     54  C   UNL A   1      42.449  28.245  35.531  1.00  0.00     0.031 C 
ATOM     55  C   UNL A   1      43.627  26.827  33.701  1.00  0.00     0.037 A 
BRANCH  42  56
ATOM     56  C   UNL A   1      44.012  25.005  27.870  1.00  0.00     0.058 A 
ATOM     57  C   UNL A   1      44.485  25.623  26.694  1.00  0.00     0.135 A 
ATOM     58  C   UNL A   1      44.235  23.617  27.956  1.00  0.00     0.135 A 
ATOM     59  F   UNL A   1      44.361  26.943  26.498  1.00  0.00    -0.206 F 
ATOM     60  C   UNL A   1      45.073  24.909  25.652  1.00  0.00     0.059 A 
ATOM     61  C   UNL A   1      44.779  22.873  26.905  1.00  0.00     0.059 A 
ATOM     62  F   UNL A   1      43.923  22.942  29.075  1.00  0.00    -0.206 F 
ATOM     63  C   UNL A   1      45.194  23.530  25.753  1.00  0.00     0.060 A 
BRANCH  63  64
ATOM     64  S   UNL A   1      45.859  22.618  24.346  1.00  0.00     0.124 S 
ATOM     65  O   UNL A   1      46.795  23.578  23.767  1.00  0.00    -0.237 OA
ATOM     66  O   UNL A   1      46.460  21.457  24.994  1.00  0.00    -0.237 OA
ATOM     67  O   UNL A   1      44.677  22.343  23.532  1.00  0.00    -0.744 OA
ENDBRANCH  63  64
ENDBRANCH  42  56
BRANCH  43  68
ATOM     68  C   UNL A   1      39.261  31.003  33.875  1.00  0.00     0.058 A 
ATOM     69  C   UNL A   1      39.010  32.351  34.191  1.00  0.00     0.135 A 
ATOM     70  C   UNL A   1      38.176  30.223  33.446  1.00  0.00     0.135 A 
ATOM     71  F   UNL A   1      40.009  33.130  34.641  1.00  0.00    -0.206 F 
ATOM     72  C   UNL A   1      37.797  32.957  33.888  1.00  0.00     0.059 A 
ATOM     73  C   UNL A   1      36.946  30.808  33.145  1.00  0.00     0.059 A 
ATOM     74  F   UNL A   1      38.353  28.927  33.148  1.00  0.00    -0.206 F 
ATOM     75  C   UNL A   1      36.804  32.191  33.282  1.00  0.00     0.060 A 
BRANCH  75  76
ATOM     76  S   UNL A   1      35.422  33.062  32.501  1.00  0.00     0.124 S 
ATOM     77  O   UNL A   1      34.476  33.196  33.603  1.00  0.00    -0.237 OA
ATOM     78  O   UNL A   1      36.061  34.303  32.064  1.00  0.00    -0.237 OA
ATOM     79  O   UNL A   1      35.020  32.156  31.432  1.00  0.00    -0.744 OA
ENDBRANCH  75  76
ENDBRANCH  43  68
BRANCH  55  80
ATOM     80  C   UNL A   1      44.209  25.659  34.469  1.00  0.00     0.058 A 
ATOM     81  C   UNL A   1      43.461  24.569  34.944  1.00  0.00     0.135 A 
ATOM     82  C   UNL A   1      45.615  25.541  34.622  1.00  0.00     0.135 A 
ATOM     83  F   UNL A   1      42.134  24.507  34.772  1.00  0.00    -0.206 F 
ATOM     84  C   UNL A   1      44.055  23.469  35.571  1.00  0.00     0.059 A 
ATOM     85  C   UNL A   1      46.231  24.429  35.193  1.00  0.00     0.059 A 
ATOM     86  F   UNL A   1      46.451  26.505  34.204  1.00  0.00    -0.206 F 
ATOM     87  C   UNL A   1      45.440  23.406  35.687  1.00  0.00     0.060 A 
BRANCH  87  88
ATOM     88  S   UNL A   1      46.226  21.959  36.423  1.00  0.00     0.124 S 
ATOM     89  O   UNL A   1      47.602  22.109  35.964  1.00  0.00    -0.237 OA
ATOM     90  O   UNL A   1      46.014  22.162  37.854  1.00  0.00    -0.237 OA
ATOM     91  O   UNL A   1      45.479  20.848  35.840  1.00  0.00    -0.744 OA
ENDBRANCH  87  88
ENDBRANCH  55  80
ENDBRANCH  29  30
ENDBRANCH  21  24
ENDBRANCH  19  20
ENDBRANCH   1  19
TORSDOF 17
ENDMDL
MODEL 3
REMARK VINA RESULT:     -12.0      4.728     11.420
REMARK SMILES CCC[C@H](Oc1ccccc1C)C(=O)NCCCNC(=O)c1ccc(-c2c3nc(c(-c4c(F)cc(S(=O)(=O)[O-])cc4F)c4ccc([nH]4)c(-c4c(F)cc(S(=O)(=O)[O-])cc4F)c4nc(c(-c5c(F)cc(S(=O)(=O)[O-])cc5F)c5ccc2[nH]5)C=C4)C=C3)cc1
REMARK SMILES IDX 17 1 16 2 15 3 13 4 14 5 4 7 3 8 2 9 1 10 5 11 6 12 7 13
REMARK SMILES IDX 11 14 8 15 10 16 12 17 9 18 18 19 19 20 20 21 21 23 22 24
REMARK SMILES IDX 23 25 87 26 24 27 86 28 25 29 26 30 27 31 80 32 28 33 85 34
REMARK SMILES IDX 79 35 81 36 29 37 84 38 78 39 77 40 30 42 64 43 43 44 63 45
REMARK SMILES IDX 44 46 47 47 62 48 82 49 45 50 46 51 61 53 83 54 48 55 31 56
REMARK SMILES IDX 32 57 41 58 33 59 34 60 40 61 42 62 35 63 36 64 37 65 38 66
REMARK SMILES IDX 39 67 65 68 66 69 75 70 67 71 68 72 74 73 76 74 69 75 70 76
REMARK SMILES IDX 71 77 72 78 73 79 49 80 50 81 59 82 51 83 52 84 58 85 60 86
REMARK SMILES IDX 53 87 54 88 55 89 56 90 57 91
REMARK H PARENT 15 6 19 22 81 41 47 52
REMARK Flexibility Score: inf
ROOT
ATOM      1  C   UNL A   1      36.645  23.311  26.050  1.00  0.00     0.042 C 
ENDROOT
BRANCH   1   2
ATOM      2  C   UNL A   1      35.760  23.824  24.928  1.00  0.00     0.118 C 
BRANCH   2   3
ATOM      3  N   UNL A   1      34.900  24.921  25.359  1.00  0.00    -0.353 N 
ATOM      4  C   UNL A   1      33.613  25.223  25.008  1.00  0.00     0.261 C 
ATOM      5  O   UNL A   1      33.107  26.247  25.479  1.00  0.00    -0.271 OA
ATOM      6  H   UNL A   1      35.311  25.541  26.005  1.00  0.00     0.163 HD
BRANCH   4   7
ATOM      7  C   UNL A   1      32.779  24.291  24.105  1.00  0.00     0.261 C 
BRANCH   7   8
ATOM      8  C   UNL A   1      31.615  25.073  23.458  1.00  0.00     0.055 C 
BRANCH   8   9
ATOM      9  C   UNL A   1      32.033  26.052  22.357  1.00  0.00     0.001 C 
ATOM     10  C   UNL A   1      32.675  25.376  21.157  1.00  0.00     0.004 C 
ENDBRANCH   8   9
ENDBRANCH   7   8
BRANCH   7  11
ATOM     11  O   UNL A   1      32.358  23.189  24.919  1.00  0.00    -0.480 OA
BRANCH  11  12
ATOM     12  C   UNL A   1      32.534  21.900  24.496  1.00  0.00     0.123 A 
ATOM     13  C   UNL A   1      32.250  21.429  23.212  1.00  0.00     0.047 A 
ATOM     14  C   UNL A   1      32.984  20.989  25.472  1.00  0.00    -0.009 A 
ATOM     15  C   UNL A   1      32.290  20.060  22.931  1.00  0.00     0.004 A 
ATOM     16  C   UNL A   1      33.013  19.616  25.181  1.00  0.00     0.007 A 
ATOM     17  C   UNL A   1      33.436  21.455  26.828  1.00  0.00     0.048 C 
ATOM     18  C   UNL A   1      32.647  19.152  23.921  1.00  0.00     0.001 A 
ENDBRANCH  11  12
ENDBRANCH   7  11
ENDBRANCH   4   7
ENDBRANCH   2   3
ENDBRANCH   1   2
BRANCH   1  19
ATOM     19  C   UNL A   1      38.122  23.538  25.791  1.00  0.00     0.118 C 
BRANCH  19  20
ATOM     20  N   UNL A   1      38.982  23.121  26.886  1.00  0.00    -0.352 N 
ATOM     21  C   UNL A   1      39.974  23.896  27.471  1.00  0.00     0.251 C 
ATOM     22  H   UNL A   1      38.850  22.213  27.243  1.00  0.00     0.163 HD
ATOM     23  O   UNL A   1      41.004  23.428  27.918  1.00  0.00    -0.269 OA
BRANCH  21  24
ATOM     24  C   UNL A   1      39.624  25.317  27.689  1.00  0.00     0.039 A 
ATOM     25  C   UNL A   1      40.206  26.271  26.845  1.00  0.00     0.014 A 
ATOM     26  C   UNL A   1      38.978  25.697  28.859  1.00  0.00     0.014 A 
ATOM     27  C   UNL A   1      40.268  27.604  27.255  1.00  0.00     0.010 A 
ATOM     28  C   UNL A   1      39.145  26.988  29.312  1.00  0.00     0.010 A 
ATOM     29  C   UNL A   1      39.806  27.944  28.525  1.00  0.00    -0.014 A 
BRANCH  29  30
ATOM     30  C   UNL A   1      40.034  29.230  29.178  1.00  0.00     0.031 A 
ATOM     31  C   UNL A   1      38.969  30.268  29.207  1.00  0.00     0.074 A 
ATOM     32  C   UNL A   1      41.156  29.431  29.907  1.00  0.00     0.049 A 
ATOM     33  N   UNL A   1      39.185  31.511  29.486  1.00  0.00    -0.248 NA
ATOM     34  C   UNL A   1      37.566  29.993  28.896  1.00  0.00     0.031 C 
ATOM     35  C   UNL A   1      41.341  30.429  30.958  1.00  0.00     0.029 A 
ATOM     36  N   UNL A   1      42.421  28.875  29.740  1.00  0.00    -0.354 N 
ATOM     37  C   UNL A   1      37.965  32.115  29.674  1.00  0.00     0.074 A 
ATOM     38  C   UNL A   1      36.986  31.145  29.247  1.00  0.00     0.031 C 
ATOM     39  C   UNL A   1      42.652  30.588  31.188  1.00  0.00     0.029 A 
ATOM     40  C   UNL A   1      43.366  29.814  30.193  1.00  0.00     0.049 A 
ATOM     41  H   UNL A   1      42.620  27.985  29.371  1.00  0.00     0.167 HD
ATOM     42  C   UNL A   1      37.887  33.326  30.290  1.00  0.00     0.037 A 
ATOM     43  C   UNL A   1      44.326  30.325  29.364  1.00  0.00     0.037 A 
ATOM     44  C   UNL A   1      39.197  33.843  30.652  1.00  0.00     0.049 A 
ATOM     45  C   UNL A   1      44.242  31.821  29.155  1.00  0.00     0.074 A 
ATOM     46  C   UNL A   1      39.929  33.811  31.828  1.00  0.00     0.029 A 
ATOM     47  N   UNL A   1      40.078  34.236  29.653  1.00  0.00    -0.354 N 
ATOM     48  N   UNL A   1      43.218  32.548  29.506  1.00  0.00    -0.248 NA
ATOM     49  C   UNL A   1      45.289  32.620  28.523  1.00  0.00     0.031 C 
ATOM     50  C   UNL A   1      41.270  34.145  31.524  1.00  0.00     0.029 A 
ATOM     51  C   UNL A   1      41.350  34.394  30.166  1.00  0.00     0.049 A 
ATOM     52  H   UNL A   1      39.830  34.380  28.711  1.00  0.00     0.167 HD
ATOM     53  C   UNL A   1      43.414  33.850  29.123  1.00  0.00     0.074 A 
ATOM     54  C   UNL A   1      44.744  33.851  28.544  1.00  0.00     0.031 C 
ATOM     55  C   UNL A   1      42.452  34.804  29.308  1.00  0.00     0.037 A 
BRANCH  42  56
ATOM     56  C   UNL A   1      36.582  33.888  30.784  1.00  0.00     0.058 A 
ATOM     57  C   UNL A   1      35.583  34.315  29.886  1.00  0.00     0.135 A 
ATOM     58  C   UNL A   1      36.284  34.061  32.150  1.00  0.00     0.135 A 
ATOM     59  F   UNL A   1      35.728  34.183  28.561  1.00  0.00    -0.206 F 
ATOM     60  C   UNL A   1      34.405  34.931  30.306  1.00  0.00     0.059 A 
ATOM     61  C   UNL A   1      35.133  34.718  32.593  1.00  0.00     0.059 A 
ATOM     62  F   UNL A   1      37.114  33.593  33.097  1.00  0.00    -0.206 F 
ATOM     63  C   UNL A   1      34.198  35.153  31.661  1.00  0.00     0.060 A 
BRANCH  63  64
ATOM     64  S   UNL A   1      32.718  36.048  32.171  1.00  0.00     0.124 S 
ATOM     65  O   UNL A   1      33.232  36.934  33.213  1.00  0.00    -0.237 OA
ATOM     66  O   UNL A   1      32.314  36.698  30.929  1.00  0.00    -0.237 OA
ATOM     67  O   UNL A   1      31.829  34.991  32.646  1.00  0.00    -0.744 OA
ENDBRANCH  63  64
ENDBRANCH  42  56
BRANCH  43  68
ATOM     68  C   UNL A   1      44.830  29.325  28.384  1.00  0.00     0.058 A 
ATOM     69  C   UNL A   1      45.716  28.349  28.878  1.00  0.00     0.135 A 
ATOM     70  C   UNL A   1      44.092  29.012  27.233  1.00  0.00     0.135 A 
ATOM     71  F   UNL A   1      46.471  28.615  29.957  1.00  0.00    -0.206 F 
ATOM     72  C   UNL A   1      45.711  27.048  28.390  1.00  0.00     0.059 A 
ATOM     73  C   UNL A   1      44.080  27.714  26.720  1.00  0.00     0.059 A 
ATOM     74  F   UNL A   1      43.247  29.910  26.709  1.00  0.00    -0.206 F 
ATOM     75  C   UNL A   1      44.821  26.723  27.369  1.00  0.00     0.060 A 
BRANCH  75  76
ATOM     76  S   UNL A   1      44.506  24.970  27.046  1.00  0.00     0.124 S 
ATOM     77  O   UNL A   1      44.389  24.422  28.392  1.00  0.00    -0.237 OA
ATOM     78  O   UNL A   1      43.261  25.028  26.280  1.00  0.00    -0.237 OA
ATOM     79  O   UNL A   1      45.684  24.553  26.295  1.00  0.00    -0.744 OA
ENDBRANCH  75  76
ENDBRANCH  43  68
BRANCH  55  80
ATOM     80  C   UNL A   1      42.460  36.226  28.786  1.00  0.00     0.058 A 
ATOM     81  C   UNL A   1      43.114  37.298  29.415  1.00  0.00     0.135 A 
ATOM     82  C   UNL A   1      41.906  36.517  27.513  1.00  0.00     0.135 A 
ATOM     83  F   UNL A   1      43.767  37.135  30.573  1.00  0.00    -0.206 F 
ATOM     84  C   UNL A   1      43.169  38.577  28.851  1.00  0.00     0.059 A 
ATOM     85  C   UNL A   1      41.997  37.768  26.908  1.00  0.00     0.059 A 
ATOM     86  F   UNL A   1      41.260  35.583  26.797  1.00  0.00    -0.206 F 
ATOM     87  C   UNL A   1      42.611  38.802  27.595  1.00  0.00     0.060 A 
BRANCH  87  88
ATOM     88  S   UNL A   1      42.741  40.425  26.820  1.00  0.00     0.124 S 
ATOM     89  O   UNL A   1      41.348  40.701  26.486  1.00  0.00    -0.237 OA
ATOM     90  O   UNL A   1      43.309  41.251  27.881  1.00  0.00    -0.237 OA
ATOM     91  O   UNL A   1      43.629  40.177  25.688  1.00  0.00    -0.744 OA
ENDBRANCH  87  88
ENDBRANCH  55  80
ENDBRANCH  29  30
ENDBRANCH  21  24
ENDBRANCH  19  20
ENDBRANCH   1  19
TORSDOF 17
ENDMDL
