MODEL 1
REMARK VINA RESULT:     -11.7      0.000      0.000
REMARK SMILES CCc1noc(C)c1C(=O)Nc1cc(Cl)ccc1C(=O)NCCCNC(=O)c1ccc(-c2c3nc(c(-c4c(F)cc(S(=O)(=O)[O-])cc4F)c4ccc([nH]4)c(-c4c(F)cc(S(=O)(=O)[O-])cc4F)c4nc(c(-c5c(F)cc(S(=O)(=O)[O-])cc5F)c5ccc2[nH]5)C=C4)C=C3)cc1
REMARK SMILES IDX 23 1 22 2 21 3 19 4 20 5 18 7 12 8 13 9 14 10 17 11 15 12
REMARK SMILES IDX 16 13 11 14 9 15 10 16 8 18 3 19 4 20 5 21 6 22 7 23 2 24
REMARK SMILES IDX 1 25 24 26 25 27 26 28 27 30 28 31 29 32 93 33 30 34 92 35
REMARK SMILES IDX 31 36 32 37 33 38 86 39 34 40 91 41 85 42 87 43 35 44 90 45
REMARK SMILES IDX 84 46 83 47 36 49 70 50 49 51 69 52 50 53 53 54 68 55 88 56
REMARK SMILES IDX 51 57 52 58 67 60 89 61 54 62 37 63 38 64 47 65 39 66 40 67
REMARK SMILES IDX 46 68 48 69 41 70 42 71 43 72 44 73 45 74 71 75 72 76 81 77
REMARK SMILES IDX 73 78 74 79 80 80 82 81 75 82 76 83 77 84 78 85 79 86 55 87
REMARK SMILES IDX 56 88 65 89 57 90 58 91 64 92 66 93 59 94 60 95 61 96 62 97
REMARK SMILES IDX 63 98
REMARK H PARENT 21 6 11 17 25 29 87 48 53 59
REMARK Flexibility Score: inf
ROOT
ATOM      1  C   UNL A   1      33.022  27.927  26.731  1.00  0.00     0.042 C 
ENDROOT
BRANCH   1   2
ATOM      2  C   UNL A   1      33.612  26.675  26.100  1.00  0.00     0.118 C 
BRANCH   2   3
ATOM      3  N   UNL A   1      33.745  26.664  24.658  1.00  0.00    -0.352 N 
ATOM      4  C   UNL A   1      34.054  25.672  23.758  1.00  0.00     0.253 C 
ATOM      5  O   UNL A   1      34.010  25.997  22.566  1.00  0.00    -0.269 OA
ATOM      6  H   UNL A   1      33.580  27.540  24.240  1.00  0.00     0.163 HD
BRANCH   4   7
ATOM      7  C   UNL A   1      34.483  24.267  24.074  1.00  0.00     0.063 A 
ATOM      8  C   UNL A   1      33.777  23.061  23.883  1.00  0.00     0.055 A 
ATOM      9  C   UNL A   1      34.386  21.823  24.162  1.00  0.00     0.047 A 
ATOM     10  C   UNL A   1      35.676  21.773  24.684  1.00  0.00     0.043 A 
ATOM     11  C   UNL A   1      35.780  24.178  24.629  1.00  0.00     0.017 A 
ATOM     12  Cl  UNL A   1      36.405  20.255  25.028  1.00  0.00    -0.084 Cl
ATOM     13  C   UNL A   1      36.370  22.948  24.938  1.00  0.00     0.021 A 
BRANCH   8  14
ATOM     14  N   UNL A   1      32.521  23.026  23.290  1.00  0.00    -0.321 N 
ATOM     15  C   UNL A   1      31.262  23.319  23.774  1.00  0.00     0.261 C 
ATOM     16  O   UNL A   1      30.359  23.092  22.965  1.00  0.00    -0.269 OA
ATOM     17  H   UNL A   1      32.532  22.738  22.349  1.00  0.00     0.170 HD
BRANCH  15  18
ATOM     18  C   UNL A   1      30.965  23.972  25.052  1.00  0.00     0.105 A 
ATOM     19  C   UNL A   1      30.360  25.282  25.161  1.00  0.00     0.096 A 
ATOM     20  N   UNL A   1      30.090  25.596  26.429  1.00  0.00    -0.084 NA
ATOM     21  O   UNL A   1      30.669  24.619  27.183  1.00  0.00    -0.361 OA
ATOM     22  C   UNL A   1      31.297  23.717  26.380  1.00  0.00     0.146 A 
ATOM     23  C   UNL A   1      32.176  22.831  27.167  1.00  0.00     0.092 C 
BRANCH  19  24
ATOM     24  C   UNL A   1      30.153  26.343  24.126  1.00  0.00     0.057 C 
ATOM     25  C   UNL A   1      28.708  26.634  23.774  1.00  0.00     0.011 C 
ENDBRANCH  19  24
ENDBRANCH  15  18
ENDBRANCH   8  14
ENDBRANCH   4   7
ENDBRANCH   2   3
ENDBRANCH   1   2
BRANCH   1  26
ATOM     26  C   UNL A   1      33.612  29.250  26.260  1.00  0.00     0.118 C 
BRANCH  26  27
ATOM     27  N   UNL A   1      33.566  30.328  27.240  1.00  0.00    -0.352 N 
ATOM     28  C   UNL A   1      34.461  30.781  28.183  1.00  0.00     0.251 C 
ATOM     29  H   UNL A   1      32.724  30.837  27.225  1.00  0.00     0.163 HD
ATOM     30  O   UNL A   1      34.121  31.715  28.908  1.00  0.00    -0.269 OA
BRANCH  28  31
ATOM     31  C   UNL A   1      35.788  30.149  28.393  1.00  0.00     0.039 A 
ATOM     32  C   UNL A   1      36.685  30.111  27.317  1.00  0.00     0.014 A 
ATOM     33  C   UNL A   1      36.166  29.578  29.605  1.00  0.00     0.014 A 
ATOM     34  C   UNL A   1      37.985  29.624  27.497  1.00  0.00     0.010 A 
ATOM     35  C   UNL A   1      37.490  29.193  29.816  1.00  0.00     0.010 A 
ATOM     36  C   UNL A   1      38.424  29.232  28.771  1.00  0.00    -0.014 A 
BRANCH  36  37
ATOM     37  C   UNL A   1      39.852  28.913  29.051  1.00  0.00     0.031 A 
ATOM     38  C   UNL A   1      40.793  29.974  29.561  1.00  0.00     0.074 A 
ATOM     39  C   UNL A   1      40.330  27.691  28.734  1.00  0.00     0.049 A 
ATOM     40  N   UNL A   1      42.092  29.924  29.709  1.00  0.00    -0.248 NA
ATOM     41  C   UNL A   1      40.200  31.273  29.918  1.00  0.00     0.031 C 
ATOM     42  C   UNL A   1      39.539  26.588  28.181  1.00  0.00     0.029 A 
ATOM     43  N   UNL A   1      41.601  27.175  28.808  1.00  0.00    -0.354 N 
ATOM     44  C   UNL A   1      42.474  31.186  30.151  1.00  0.00     0.074 A 
ATOM     45  C   UNL A   1      41.275  31.994  30.202  1.00  0.00     0.031 C 
ATOM     46  C   UNL A   1      40.333  25.526  27.987  1.00  0.00     0.029 A 
ATOM     47  C   UNL A   1      41.700  25.882  28.347  1.00  0.00     0.049 A 
ATOM     48  H   UNL A   1      42.368  27.682  29.158  1.00  0.00     0.167 HD
ATOM     49  C   UNL A   1      43.708  31.625  30.500  1.00  0.00     0.037 A 
ATOM     50  C   UNL A   1      42.773  25.078  28.206  1.00  0.00     0.037 A 
ATOM     51  C   UNL A   1      44.892  30.806  30.485  1.00  0.00     0.049 A 
ATOM     52  C   UNL A   1      44.133  25.590  28.590  1.00  0.00     0.074 A 
ATOM     53  C   UNL A   1      46.169  31.133  30.905  1.00  0.00     0.029 A 
ATOM     54  N   UNL A   1      44.947  29.498  30.024  1.00  0.00    -0.354 N 
ATOM     55  N   UNL A   1      44.462  26.766  29.071  1.00  0.00    -0.248 NA
ATOM     56  C   UNL A   1      45.267  24.674  28.407  1.00  0.00     0.031 C 
ATOM     57  C   UNL A   1      47.006  30.040  30.657  1.00  0.00     0.029 A 
ATOM     58  C   UNL A   1      46.242  29.016  30.120  1.00  0.00     0.049 A 
ATOM     59  H   UNL A   1      44.178  28.988  29.680  1.00  0.00     0.167 HD
ATOM     60  C   UNL A   1      45.839  26.727  29.255  1.00  0.00     0.074 A 
ATOM     61  C   UNL A   1      46.278  25.406  28.855  1.00  0.00     0.031 C 
ATOM     62  C   UNL A   1      46.666  27.701  29.710  1.00  0.00     0.037 A 
BRANCH  49  63
ATOM     63  C   UNL A   1      43.842  33.059  30.937  1.00  0.00     0.058 A 
ATOM     64  C   UNL A   1      43.778  33.424  32.291  1.00  0.00     0.135 A 
ATOM     65  C   UNL A   1      44.081  34.074  29.997  1.00  0.00     0.135 A 
ATOM     66  F   UNL A   1      43.540  32.496  33.232  1.00  0.00    -0.206 F 
ATOM     67  C   UNL A   1      43.913  34.748  32.695  1.00  0.00     0.059 A 
ATOM     68  C   UNL A   1      44.247  35.403  30.380  1.00  0.00     0.059 A 
ATOM     69  F   UNL A   1      44.156  33.781  28.689  1.00  0.00    -0.206 F 
ATOM     70  C   UNL A   1      44.144  35.732  31.732  1.00  0.00     0.060 A 
BRANCH  70  71
ATOM     71  S   UNL A   1      44.318  37.445  32.273  1.00  0.00     0.124 S 
ATOM     72  O   UNL A   1      43.941  38.170  31.063  1.00  0.00    -0.237 OA
ATOM     73  O   UNL A   1      43.369  37.522  33.379  1.00  0.00    -0.237 OA
ATOM     74  O   UNL A   1      45.724  37.543  32.650  1.00  0.00    -0.744 OA
ENDBRANCH  70  71
ENDBRANCH  49  63
BRANCH  50  75
ATOM     75  C   UNL A   1      42.601  23.699  27.676  1.00  0.00     0.058 A 
ATOM     76  C   UNL A   1      42.611  23.454  26.295  1.00  0.00     0.135 A 
ATOM     77  C   UNL A   1      42.444  22.598  28.534  1.00  0.00     0.135 A 
ATOM     78  F   UNL A   1      42.750  24.475  25.435  1.00  0.00    -0.206 F 
ATOM     79  C   UNL A   1      42.458  22.171  25.781  1.00  0.00     0.059 A 
ATOM     80  C   UNL A   1      42.316  21.302  28.044  1.00  0.00     0.059 A 
ATOM     81  F   UNL A   1      42.443  22.778  29.864  1.00  0.00    -0.206 F 
ATOM     82  C   UNL A   1      42.315  21.100  26.665  1.00  0.00     0.060 A 
BRANCH  82  83
ATOM     83  S   UNL A   1      42.165  19.434  25.982  1.00  0.00     0.124 S 
ATOM     84  O   UNL A   1      42.640  18.618  27.093  1.00  0.00    -0.237 OA
ATOM     85  O   UNL A   1      40.737  19.350  25.692  1.00  0.00    -0.237 OA
ATOM     86  O   UNL A   1      43.035  19.472  24.811  1.00  0.00    -0.744 OA
ENDBRANCH  82  83
ENDBRANCH  50  75
BRANCH  62  87
ATOM     87  C   UNL A   1      48.131  27.380  29.801  1.00  0.00     0.058 A 
ATOM     88  C   UNL A   1      49.013  27.698  28.757  1.00  0.00     0.135 A 
ATOM     89  C   UNL A   1      48.669  26.810  30.966  1.00  0.00     0.135 A 
ATOM     90  F   UNL A   1      48.546  28.233  27.618  1.00  0.00    -0.206 F 
ATOM     91  C   UNL A   1      50.378  27.455  28.860  1.00  0.00     0.059 A 
ATOM     92  C   UNL A   1      50.035  26.580  31.101  1.00  0.00     0.059 A 
ATOM     93  F   UNL A   1      47.869  26.493  31.995  1.00  0.00    -0.206 F 
ATOM     94  C   UNL A   1      50.881  26.902  30.040  1.00  0.00     0.060 A 
BRANCH  94  95
ATOM     95  S   UNL A   1      52.663  26.645  30.183  1.00  0.00     0.124 S 
ATOM     96  O   UNL A   1      52.730  25.612  31.211  1.00  0.00    -0.237 OA
ATOM     97  O   UNL A   1      53.026  26.221  28.833  1.00  0.00    -0.237 OA
ATOM     98  O   UNL A   1      53.165  27.957  30.578  1.00  0.00    -0.744 OA
ENDBRANCH  94  95
ENDBRANCH  62  87
ENDBRANCH  36  37
ENDBRANCH  28  31
ENDBRANCH  26  27
ENDBRANCH   1  26
TORSDOF 16
ENDMDL
MODEL 2
REMARK VINA RESULT:     -11.6      1.379      2.592
REMARK SMILES CCc1noc(C)c1C(=O)Nc1cc(Cl)ccc1C(=O)NCCCNC(=O)c1ccc(-c2c3nc(c(-c4c(F)cc(S(=O)(=O)[O-])cc4F)c4ccc([nH]4)c(-c4c(F)cc(S(=O)(=O)[O-])cc4F)c4nc(c(-c5c(F)cc(S(=O)(=O)[O-])cc5F)c5ccc2[nH]5)C=C4)C=C3)cc1
REMARK SMILES IDX 23 1 22 2 21 3 19 4 20 5 18 7 12 8 13 9 14 10 17 11 15 12
REMARK SMILES IDX 16 13 11 14 9 15 10 16 8 18 3 19 4 20 5 21 6 22 7 23 2 24
REMARK SMILES IDX 1 25 24 26 25 27 26 28 27 30 28 31 29 32 93 33 30 34 92 35
REMARK SMILES IDX 31 36 32 37 33 38 86 39 34 40 91 41 85 42 87 43 35 44 90 45
REMARK SMILES IDX 84 46 83 47 36 49 70 50 49 51 69 52 50 53 53 54 68 55 88 56
REMARK SMILES IDX 51 57 52 58 67 60 89 61 54 62 37 63 38 64 47 65 39 66 40 67
REMARK SMILES IDX 46 68 48 69 41 70 42 71 43 72 44 73 45 74 71 75 72 76 81 77
REMARK SMILES IDX 73 78 74 79 80 80 82 81 75 82 76 83 77 84 78 85 79 86 55 87
REMARK SMILES IDX 56 88 65 89 57 90 58 91 64 92 66 93 59 94 60 95 61 96 62 97
REMARK SMILES IDX 63 98
REMARK H PARENT 21 6 11 17 25 29 87 48 53 59
REMARK Flexibility Score: inf
ROOT
ATOM      1  C   UNL A   1      32.761  29.209  25.580  1.00  0.00     0.042 C 
ENDROOT
BRANCH   1   2
ATOM      2  C   UNL A   1      33.303  28.345  24.452  1.00  0.00     0.118 C 
BRANCH   2   3
ATOM      3  N   UNL A   1      32.430  28.117  23.319  1.00  0.00    -0.352 N 
ATOM      4  C   UNL A   1      31.429  27.206  23.081  1.00  0.00     0.253 C 
ATOM      5  O   UNL A   1      30.825  27.339  22.012  1.00  0.00    -0.269 OA
ATOM      6  H   UNL A   1      32.584  28.739  22.571  1.00  0.00     0.163 HD
BRANCH   4   7
ATOM      7  C   UNL A   1      31.036  26.048  23.956  1.00  0.00     0.063 A 
ATOM      8  C   UNL A   1      31.236  24.668  23.742  1.00  0.00     0.055 A 
ATOM      9  C   UNL A   1      30.873  23.731  24.727  1.00  0.00     0.047 A 
ATOM     10  C   UNL A   1      30.259  24.149  25.906  1.00  0.00     0.043 A 
ATOM     11  C   UNL A   1      30.388  26.431  25.152  1.00  0.00     0.017 A 
ATOM     12  Cl  UNL A   1      29.813  22.993  27.097  1.00  0.00    -0.084 Cl
ATOM     13  C   UNL A   1      29.996  25.495  26.114  1.00  0.00     0.021 A 
BRANCH   8  14
ATOM     14  N   UNL A   1      31.914  24.184  22.631  1.00  0.00    -0.321 N 
ATOM     15  C   UNL A   1      33.115  23.516  22.498  1.00  0.00     0.261 C 
ATOM     16  O   UNL A   1      33.437  23.313  21.325  1.00  0.00    -0.269 OA
ATOM     17  H   UNL A   1      31.451  24.349  21.778  1.00  0.00     0.170 HD
BRANCH  15  18
ATOM     18  C   UNL A   1      33.905  22.948  23.593  1.00  0.00     0.105 A 
ATOM     19  C   UNL A   1      33.820  21.565  24.009  1.00  0.00     0.096 A 
ATOM     20  N   UNL A   1      34.725  21.276  24.947  1.00  0.00    -0.084 NA
ATOM     21  O   UNL A   1      35.280  22.468  25.304  1.00  0.00    -0.361 OA
ATOM     22  C   UNL A   1      34.713  23.481  24.594  1.00  0.00     0.146 A 
ATOM     23  C   UNL A   1      35.072  24.793  25.167  1.00  0.00     0.092 C 
BRANCH  19  24
ATOM     24  C   UNL A   1      32.812  20.511  23.672  1.00  0.00     0.057 C 
ATOM     25  C   UNL A   1      32.299  19.703  24.847  1.00  0.00     0.011 C 
ENDBRANCH  19  24
ENDBRANCH  15  18
ENDBRANCH   8  14
ENDBRANCH   4   7
ENDBRANCH   2   3
ENDBRANCH   1   2
BRANCH   1  26
ATOM     26  C   UNL A   1      33.462  29.066  26.924  1.00  0.00     0.118 C 
BRANCH  26  27
ATOM     27  N   UNL A   1      33.544  30.290  27.710  1.00  0.00    -0.352 N 
ATOM     28  C   UNL A   1      34.549  30.865  28.455  1.00  0.00     0.251 C 
ATOM     29  H   UNL A   1      32.711  30.815  27.708  1.00  0.00     0.163 HD
ATOM     30  O   UNL A   1      34.307  31.915  29.050  1.00  0.00    -0.269 OA
BRANCH  28  31
ATOM     31  C   UNL A   1      35.885  30.237  28.613  1.00  0.00     0.039 A 
ATOM     32  C   UNL A   1      36.740  30.204  27.503  1.00  0.00     0.014 A 
ATOM     33  C   UNL A   1      36.312  29.665  29.808  1.00  0.00     0.014 A 
ATOM     34  C   UNL A   1      38.048  29.720  27.632  1.00  0.00     0.010 A 
ATOM     35  C   UNL A   1      37.644  29.284  29.968  1.00  0.00     0.010 A 
ATOM     36  C   UNL A   1      38.537  29.328  28.888  1.00  0.00    -0.014 A 
BRANCH  36  37
ATOM     37  C   UNL A   1      39.975  29.012  29.112  1.00  0.00     0.031 A 
ATOM     38  C   UNL A   1      40.933  30.077  29.579  1.00  0.00     0.074 A 
ATOM     39  C   UNL A   1      40.443  27.790  28.781  1.00  0.00     0.049 A 
ATOM     40  N   UNL A   1      42.237  30.031  29.676  1.00  0.00    -0.248 NA
ATOM     41  C   UNL A   1      40.352  31.377  29.955  1.00  0.00     0.031 C 
ATOM     42  C   UNL A   1      39.633  26.684  28.264  1.00  0.00     0.029 A 
ATOM     43  N   UNL A   1      41.717  27.277  28.806  1.00  0.00    -0.354 N 
ATOM     44  C   UNL A   1      42.634  31.296  30.097  1.00  0.00     0.074 A 
ATOM     45  C   UNL A   1      41.436  32.101  30.194  1.00  0.00     0.031 C 
ATOM     46  C   UNL A   1      40.422  25.622  28.042  1.00  0.00     0.029 A 
ATOM     47  C   UNL A   1      41.801  25.983  28.346  1.00  0.00     0.049 A 
ATOM     48  H   UNL A   1      42.497  27.787  29.123  1.00  0.00     0.167 HD
ATOM     49  C   UNL A   1      43.880  31.739  30.395  1.00  0.00     0.037 A 
ATOM     50  C   UNL A   1      42.869  25.181  28.165  1.00  0.00     0.037 A 
ATOM     51  C   UNL A   1      45.064  30.921  30.337  1.00  0.00     0.049 A 
ATOM     52  C   UNL A   1      44.242  25.697  28.493  1.00  0.00     0.074 A 
ATOM     53  C   UNL A   1      46.356  31.253  30.705  1.00  0.00     0.029 A 
ATOM     54  N   UNL A   1      45.103  29.612  29.879  1.00  0.00    -0.354 N 
ATOM     55  N   UNL A   1      44.587  26.876  28.956  1.00  0.00    -0.248 NA
ATOM     56  C   UNL A   1      45.370  24.783  28.268  1.00  0.00     0.031 C 
ATOM     57  C   UNL A   1      47.185  30.161  30.427  1.00  0.00     0.029 A 
ATOM     58  C   UNL A   1      46.402  29.133  29.925  1.00  0.00     0.049 A 
ATOM     59  H   UNL A   1      44.322  29.099  29.567  1.00  0.00     0.167 HD
ATOM     60  C   UNL A   1      45.971  26.840  29.085  1.00  0.00     0.074 A 
ATOM     61  C   UNL A   1      46.397  25.519  28.673  1.00  0.00     0.031 C 
ATOM     62  C   UNL A   1      46.813  27.817  29.504  1.00  0.00     0.037 A 
BRANCH  49  63
ATOM     63  C   UNL A   1      44.028  33.174  30.822  1.00  0.00     0.058 A 
ATOM     64  C   UNL A   1      43.953  33.553  32.172  1.00  0.00     0.135 A 
ATOM     65  C   UNL A   1      44.292  34.178  29.876  1.00  0.00     0.135 A 
ATOM     66  F   UNL A   1      43.691  32.636  33.118  1.00  0.00    -0.206 F 
ATOM     67  C   UNL A   1      44.100  34.878  32.565  1.00  0.00     0.059 A 
ATOM     68  C   UNL A   1      44.471  35.507  30.249  1.00  0.00     0.059 A 
ATOM     69  F   UNL A   1      44.378  33.872  28.571  1.00  0.00    -0.206 F 
ATOM     70  C   UNL A   1      44.357  35.850  31.596  1.00  0.00     0.060 A 
BRANCH  70  71
ATOM     71  S   UNL A   1      44.547  37.566  32.125  1.00  0.00     0.124 S 
ATOM     72  O   UNL A   1      43.926  38.280  31.014  1.00  0.00    -0.237 OA
ATOM     73  O   UNL A   1      43.809  37.589  33.383  1.00  0.00    -0.237 OA
ATOM     74  O   UNL A   1      45.992  37.727  32.245  1.00  0.00    -0.744 OA
ENDBRANCH  70  71
ENDBRANCH  49  63
BRANCH  50  75
ATOM     75  C   UNL A   1      42.679  23.799  27.647  1.00  0.00     0.058 A 
ATOM     76  C   UNL A   1      42.572  22.712  28.527  1.00  0.00     0.135 A 
ATOM     77  C   UNL A   1      42.580  23.539  26.271  1.00  0.00     0.135 A 
ATOM     78  F   UNL A   1      42.668  22.909  29.850  1.00  0.00    -0.206 F 
ATOM     79  C   UNL A   1      42.388  21.414  28.062  1.00  0.00     0.059 A 
ATOM     80  C   UNL A   1      42.370  22.253  25.783  1.00  0.00     0.059 A 
ATOM     81  F   UNL A   1      42.662  24.548  25.389  1.00  0.00    -0.206 F 
ATOM     82  C   UNL A   1      42.284  21.195  26.687  1.00  0.00     0.060 A 
BRANCH  82  83
ATOM     83  S   UNL A   1      41.997  19.510  26.102  1.00  0.00     0.124 S 
ATOM     84  O   UNL A   1      42.879  19.448  24.942  1.00  0.00    -0.237 OA
ATOM     85  O   UNL A   1      42.401  18.714  27.256  1.00  0.00    -0.237 OA
ATOM     86  O   UNL A   1      40.567  19.496  25.809  1.00  0.00    -0.744 OA
ENDBRANCH  82  83
ENDBRANCH  50  75
BRANCH  62  87
ATOM     87  C   UNL A   1      48.281  27.500  29.537  1.00  0.00     0.058 A 
ATOM     88  C   UNL A   1      49.120  27.814  28.457  1.00  0.00     0.135 A 
ATOM     89  C   UNL A   1      48.867  26.938  30.683  1.00  0.00     0.135 A 
ATOM     90  F   UNL A   1      48.606  28.342  27.334  1.00  0.00    -0.206 F 
ATOM     91  C   UNL A   1      50.489  27.574  28.506  1.00  0.00     0.059 A 
ATOM     92  C   UNL A   1      50.237  26.712  30.764  1.00  0.00     0.059 A 
ATOM     93  F   UNL A   1      48.109  26.625  31.745  1.00  0.00    -0.206 F 
ATOM     94  C   UNL A   1      51.040  27.029  29.668  1.00  0.00     0.060 A 
BRANCH  94  95
ATOM     95  S   UNL A   1      52.826  26.776  29.741  1.00  0.00     0.124 S 
ATOM     96  O   UNL A   1      53.092  26.175  28.438  1.00  0.00    -0.237 OA
ATOM     97  O   UNL A   1      53.326  28.136  29.926  1.00  0.00    -0.237 OA
ATOM     98  O   UNL A   1      52.998  25.890  30.889  1.00  0.00    -0.744 OA
ENDBRANCH  94  95
ENDBRANCH  62  87
ENDBRANCH  36  37
ENDBRANCH  28  31
ENDBRANCH  26  27
ENDBRANCH   1  26
TORSDOF 16
ENDMDL
MODEL 3
REMARK VINA RESULT:     -11.3      2.787      3.973
REMARK SMILES CCc1noc(C)c1C(=O)Nc1cc(Cl)ccc1C(=O)NCCCNC(=O)c1ccc(-c2c3nc(c(-c4c(F)cc(S(=O)(=O)[O-])cc4F)c4ccc([nH]4)c(-c4c(F)cc(S(=O)(=O)[O-])cc4F)c4nc(c(-c5c(F)cc(S(=O)(=O)[O-])cc5F)c5ccc2[nH]5)C=C4)C=C3)cc1
REMARK SMILES IDX 23 1 22 2 21 3 19 4 20 5 18 7 12 8 13 9 14 10 17 11 15 12
REMARK SMILES IDX 16 13 11 14 9 15 10 16 8 18 3 19 4 20 5 21 6 22 7 23 2 24
REMARK SMILES IDX 1 25 24 26 25 27 26 28 27 30 28 31 29 32 93 33 30 34 92 35
REMARK SMILES IDX 31 36 32 37 33 38 86 39 34 40 91 41 85 42 87 43 35 44 90 45
REMARK SMILES IDX 84 46 83 47 36 49 70 50 49 51 69 52 50 53 53 54 68 55 88 56
REMARK SMILES IDX 51 57 52 58 67 60 89 61 54 62 37 63 38 64 47 65 39 66 40 67
REMARK SMILES IDX 46 68 48 69 41 70 42 71 43 72 44 73 45 74 71 75 72 76 81 77
REMARK SMILES IDX 73 78 74 79 80 80 82 81 75 82 76 83 77 84 78 85 79 86 55 87
REMARK SMILES IDX 56 88 65 89 57 90 58 91 64 92 66 93 59 94 60 95 61 96 62 97
REMARK SMILES IDX 63 98
REMARK H PARENT 21 6 11 17 25 29 87 48 53 59
REMARK Flexibility Score: inf
ROOT
ATOM      1  C   UNL A   1      34.348  30.737  27.239  1.00  0.00     0.042 C 
ENDROOT
BRANCH   1   2
ATOM      2  C   UNL A   1      34.300  29.228  27.054  1.00  0.00     0.118 C 
BRANCH   2   3
ATOM      3  N   UNL A   1      33.116  28.544  27.528  1.00  0.00    -0.352 N 
ATOM      4  C   UNL A   1      32.281  27.615  26.953  1.00  0.00     0.253 C 
ATOM      5  O   UNL A   1      31.384  27.177  27.681  1.00  0.00    -0.269 OA
ATOM      6  H   UNL A   1      32.857  28.792  28.446  1.00  0.00     0.163 HD
BRANCH   4   7
ATOM      7  C   UNL A   1      32.319  27.125  25.533  1.00  0.00     0.063 A 
ATOM      8  C   UNL A   1      33.071  26.068  24.980  1.00  0.00     0.055 A 
ATOM      9  C   UNL A   1      32.904  25.698  23.633  1.00  0.00     0.047 A 
ATOM     10  C   UNL A   1      32.032  26.406  22.810  1.00  0.00     0.043 A 
ATOM     11  C   UNL A   1      31.463  27.836  24.661  1.00  0.00     0.017 A 
ATOM     12  Cl  UNL A   1      31.843  25.950  21.163  1.00  0.00    -0.084 Cl
ATOM     13  C   UNL A   1      31.325  27.489  23.313  1.00  0.00     0.021 A 
BRANCH   8  14
ATOM     14  N   UNL A   1      33.896  25.265  25.757  1.00  0.00    -0.321 N 
ATOM     15  C   UNL A   1      33.717  24.011  26.306  1.00  0.00     0.261 C 
ATOM     16  O   UNL A   1      34.658  23.645  27.014  1.00  0.00    -0.269 OA
ATOM     17  H   UNL A   1      34.774  25.666  25.952  1.00  0.00     0.170 HD
BRANCH  15  18
ATOM     18  C   UNL A   1      32.615  23.094  26.006  1.00  0.00     0.105 A 
ATOM     19  C   UNL A   1      32.773  21.873  25.245  1.00  0.00     0.096 A 
ATOM     20  N   UNL A   1      31.644  21.162  25.213  1.00  0.00    -0.084 NA
ATOM     21  O   UNL A   1      30.689  21.961  25.767  1.00  0.00    -0.361 OA
ATOM     22  C   UNL A   1      31.229  23.157  26.128  1.00  0.00     0.146 A 
ATOM     23  C   UNL A   1      30.174  24.139  26.444  1.00  0.00     0.092 C 
BRANCH  19  24
ATOM     24  C   UNL A   1      33.913  21.398  24.400  1.00  0.00     0.057 C 
ATOM     25  C   UNL A   1      34.521  20.073  24.814  1.00  0.00     0.011 C 
ENDBRANCH  19  24
ENDBRANCH  15  18
ENDBRANCH   8  14
ENDBRANCH   4   7
ENDBRANCH   2   3
ENDBRANCH   1   2
BRANCH   1  26
ATOM     26  C   UNL A   1      35.431  31.259  28.174  1.00  0.00     0.118 C 
BRANCH  26  27
ATOM     27  N   UNL A   1      35.405  30.700  29.519  1.00  0.00    -0.352 N 
ATOM     28  C   UNL A   1      36.379  30.179  30.341  1.00  0.00     0.251 C 
ATOM     29  H   UNL A   1      34.507  30.694  29.924  1.00  0.00     0.163 HD
ATOM     30  O   UNL A   1      36.041  29.742  31.441  1.00  0.00    -0.269 OA
BRANCH  28  31
ATOM     31  C   UNL A   1      37.800  30.073  29.927  1.00  0.00     0.039 A 
ATOM     32  C   UNL A   1      38.786  30.069  30.923  1.00  0.00     0.014 A 
ATOM     33  C   UNL A   1      38.192  29.996  28.593  1.00  0.00     0.014 A 
ATOM     34  C   UNL A   1      40.129  29.862  30.588  1.00  0.00     0.010 A 
ATOM     35  C   UNL A   1      39.511  29.683  28.266  1.00  0.00     0.010 A 
ATOM     36  C   UNL A   1      40.494  29.588  29.261  1.00  0.00    -0.014 A 
BRANCH  36  37
ATOM     37  C   UNL A   1      41.870  29.154  28.894  1.00  0.00     0.031 A 
ATOM     38  C   UNL A   1      42.994  30.153  28.804  1.00  0.00     0.074 A 
ATOM     39  C   UNL A   1      42.083  27.873  28.527  1.00  0.00     0.049 A 
ATOM     40  N   UNL A   1      44.211  29.990  28.350  1.00  0.00    -0.248 NA
ATOM     41  C   UNL A   1      42.703  31.525  29.250  1.00  0.00     0.031 C 
ATOM     42  C   UNL A   1      41.069  26.814  28.515  1.00  0.00     0.029 A 
ATOM     43  N   UNL A   1      43.215  27.244  28.070  1.00  0.00    -0.354 N 
ATOM     44  C   UNL A   1      44.820  31.237  28.432  1.00  0.00     0.074 A 
ATOM     45  C   UNL A   1      43.824  32.158  28.936  1.00  0.00     0.031 C 
ATOM     46  C   UNL A   1      41.627  25.670  28.096  1.00  0.00     0.029 A 
ATOM     47  C   UNL A   1      43.023  25.918  27.755  1.00  0.00     0.049 A 
ATOM     48  H   UNL A   1      44.084  27.698  27.977  1.00  0.00     0.167 HD
ATOM     49  C   UNL A   1      46.097  31.580  28.133  1.00  0.00     0.037 A 
ATOM     50  C   UNL A   1      43.865  25.007  27.228  1.00  0.00     0.037 A 
ATOM     51  C   UNL A   1      47.095  30.651  27.670  1.00  0.00     0.049 A 
ATOM     52  C   UNL A   1      45.274  25.412  26.896  1.00  0.00     0.074 A 
ATOM     53  C   UNL A   1      48.438  30.884  27.426  1.00  0.00     0.029 A 
ATOM     54  N   UNL A   1      46.862  29.315  27.377  1.00  0.00    -0.354 N 
ATOM     55  N   UNL A   1      45.849  26.582  27.046  1.00  0.00    -0.248 NA
ATOM     56  C   UNL A   1      46.145  24.381  26.316  1.00  0.00     0.031 C 
ATOM     57  C   UNL A   1      49.006  29.701  26.943  1.00  0.00     0.029 A 
ATOM     58  C   UNL A   1      48.028  28.719  26.925  1.00  0.00     0.049 A 
ATOM     59  H   UNL A   1      45.995  28.858  27.476  1.00  0.00     0.167 HD
ATOM     60  C   UNL A   1      47.152  26.424  26.587  1.00  0.00     0.074 A 
ATOM     61  C   UNL A   1      47.287  25.042  26.175  1.00  0.00     0.031 C 
ATOM     62  C   UNL A   1      48.145  27.344  26.510  1.00  0.00     0.037 A 
BRANCH  49  63
ATOM     63  C   UNL A   1      46.493  33.021  28.306  1.00  0.00     0.058 A 
ATOM     64  C   UNL A   1      46.377  33.947  27.257  1.00  0.00     0.135 A 
ATOM     65  C   UNL A   1      46.954  33.493  29.545  1.00  0.00     0.135 A 
ATOM     66  F   UNL A   1      45.952  33.549  26.047  1.00  0.00    -0.206 F 
ATOM     67  C   UNL A   1      46.734  35.281  27.420  1.00  0.00     0.059 A 
ATOM     68  C   UNL A   1      47.292  34.830  29.740  1.00  0.00     0.059 A 
ATOM     69  F   UNL A   1      47.082  32.652  30.584  1.00  0.00    -0.206 F 
ATOM     70  C   UNL A   1      47.193  35.713  28.666  1.00  0.00     0.060 A 
BRANCH  70  71
ATOM     71  S   UNL A   1      47.652  37.448  28.861  1.00  0.00     0.124 S 
ATOM     72  O   UNL A   1      48.843  37.528  28.021  1.00  0.00    -0.237 OA
ATOM     73  O   UNL A   1      46.473  38.143  28.355  1.00  0.00    -0.237 OA
ATOM     74  O   UNL A   1      47.887  37.580  30.295  1.00  0.00    -0.744 OA
ENDBRANCH  70  71
ENDBRANCH  49  63
BRANCH  50  75
ATOM     75  C   UNL A   1      43.396  23.616  26.985  1.00  0.00     0.058 A 
ATOM     76  C   UNL A   1      43.105  23.174  25.687  1.00  0.00     0.135 A 
ATOM     77  C   UNL A   1      43.248  22.698  28.037  1.00  0.00     0.135 A 
ATOM     78  F   UNL A   1      43.224  24.017  24.650  1.00  0.00    -0.206 F 
ATOM     79  C   UNL A   1      42.672  21.876  25.439  1.00  0.00     0.059 A 
ATOM     80  C   UNL A   1      42.840  21.387  27.811  1.00  0.00     0.059 A 
ATOM     81  F   UNL A   1      43.527  23.068  29.297  1.00  0.00    -0.206 F 
ATOM     82  C   UNL A   1      42.546  20.988  26.509  1.00  0.00     0.060 A 
BRANCH  82  83
ATOM     83  S   UNL A   1      42.027  19.292  26.164  1.00  0.00     0.124 S 
ATOM     84  O   UNL A   1      42.828  18.973  24.989  1.00  0.00    -0.237 OA
ATOM     85  O   UNL A   1      42.397  18.603  27.397  1.00  0.00    -0.237 OA
ATOM     86  O   UNL A   1      40.591  19.422  25.933  1.00  0.00    -0.744 OA
ENDBRANCH  82  83
ENDBRANCH  50  75
BRANCH  62  87
ATOM     87  C   UNL A   1      49.467  26.891  25.959  1.00  0.00     0.058 A 
ATOM     88  C   UNL A   1      49.804  27.093  24.612  1.00  0.00     0.135 A 
ATOM     89  C   UNL A   1      50.432  26.309  26.797  1.00  0.00     0.135 A 
ATOM     90  F   UNL A   1      48.912  27.635  23.767  1.00  0.00    -0.206 F 
ATOM     91  C   UNL A   1      51.049  26.728  24.111  1.00  0.00     0.059 A 
ATOM     92  C   UNL A   1      51.693  25.958  26.324  1.00  0.00     0.059 A 
ATOM     93  F   UNL A   1      50.162  26.100  28.095  1.00  0.00    -0.206 F 
ATOM     94  C   UNL A   1      51.990  26.167  24.977  1.00  0.00     0.060 A 
BRANCH  94  95
ATOM     95  S   UNL A   1      53.622  25.750  24.327  1.00  0.00     0.124 S 
ATOM     96  O   UNL A   1      53.760  24.360  24.747  1.00  0.00    -0.237 OA
ATOM     97  O   UNL A   1      53.450  25.965  22.893  1.00  0.00    -0.237 OA
ATOM     98  O   UNL A   1      54.507  26.699  24.996  1.00  0.00    -0.744 OA
ENDBRANCH  94  95
ENDBRANCH  62  87
ENDBRANCH  36  37
ENDBRANCH  28  31
ENDBRANCH  26  27
ENDBRANCH   1  26
TORSDOF 16
ENDMDL
