MODEL 1
REMARK VINA RESULT:     -12.6      0.000      0.000
REMARK SMILES Nc1c(N2CCCC2)ncnc1N1CCC(C(=O)NCCCNC(=O)c2ccc(-c3c4nc(c(-c5c(F)cc(S(=O)(=O)[O-])cc5F)c5ccc([nH]5)c(-c5c(F)cc(S(=O)(=O)[O-])cc5F)c5nc(c(-c6c(F)cc(S(=O)(=O)[O-])cc6F)c6ccc3[nH]6)C=C5)C=C4)cc2)CC1
REMARK SMILES IDX 21 1 20 2 19 3 17 4 18 5 16 7 13 8 14 9 93 10 15 11 92 12
REMARK SMILES IDX 12 13 2 14 3 15 9 16 11 17 10 18 1 19 4 22 5 23 8 24 6 25
REMARK SMILES IDX 7 26 22 27 23 28 24 29 25 31 26 32 27 33 91 34 28 35 90 36
REMARK SMILES IDX 29 37 30 38 31 39 84 40 32 41 89 42 83 43 85 44 33 45 88 46
REMARK SMILES IDX 82 47 81 48 34 50 68 51 47 52 67 53 48 54 51 55 66 56 86 57
REMARK SMILES IDX 49 58 50 59 65 61 87 62 52 63 35 64 36 65 45 66 37 67 38 68
REMARK SMILES IDX 44 69 46 70 39 71 40 72 41 73 42 74 43 75 69 76 70 77 79 78
REMARK SMILES IDX 71 79 72 80 78 81 80 82 73 83 74 84 75 85 76 86 77 87 53 88
REMARK SMILES IDX 54 89 63 90 55 91 56 92 62 93 64 94 57 95 58 96 59 97 60 98
REMARK SMILES IDX 61 99
REMARK H PARENT 19 6 1 20 1 21 23 30 85 49 51 60
REMARK Flexibility Score: inf
ROOT
ATOM      1  C   UNL A   1      33.829  29.462  26.879  1.00  0.00     0.042 C 
ENDROOT
BRANCH   1   2
ATOM      2  C   UNL A   1      32.796  28.415  27.271  1.00  0.00     0.117 C 
BRANCH   2   3
ATOM      3  N   UNL A   1      31.876  28.112  26.182  1.00  0.00    -0.356 N 
ATOM      4  C   UNL A   1      31.464  26.921  25.667  1.00  0.00     0.223 C 
ATOM      5  O   UNL A   1      30.668  26.943  24.723  1.00  0.00    -0.275 OA
ATOM      6  H   UNL A   1      31.488  28.902  25.743  1.00  0.00     0.163 HD
BRANCH   4   7
ATOM      7  C   UNL A   1      31.927  25.598  26.248  1.00  0.00     0.082 C 
ATOM      8  N   UNL A   1      32.422  22.848  25.801  1.00  0.00    -0.355 N 
ATOM      9  C   UNL A   1      31.252  23.157  26.593  1.00  0.00     0.119 C 
ATOM     10  C   UNL A   1      33.587  23.707  25.887  1.00  0.00     0.119 C 
ATOM     11  C   UNL A   1      30.784  24.576  26.319  1.00  0.00     0.035 C 
ATOM     12  C   UNL A   1      33.207  25.134  25.539  1.00  0.00     0.035 C 
BRANCH   8  13
ATOM     13  C   UNL A   1      32.380  21.796  24.898  1.00  0.00     0.157 A 
ATOM     14  C   UNL A   1      32.851  20.528  25.275  1.00  0.00     0.118 A 
ATOM     15  C   UNL A   1      32.840  19.531  24.287  1.00  0.00     0.157 A 
ATOM     16  N   UNL A   1      32.453  19.790  23.028  1.00  0.00    -0.217 NA
ATOM     17  N   UNL A   1      31.909  22.043  23.664  1.00  0.00    -0.217 NA
ATOM     18  C   UNL A   1      31.978  21.023  22.793  1.00  0.00     0.226 A 
BRANCH  14  19
ATOM     19  N   UNL A   1      33.286  20.269  26.584  1.00  0.00    -0.393 N 
ATOM     20  H   UNL A   1      33.671  20.994  27.127  1.00  0.00     0.156 HD
ATOM     21  H   UNL A   1      33.205  19.363  26.960  1.00  0.00     0.156 HD
ENDBRANCH  14  19
BRANCH  15  22
ATOM     22  N   UNL A   1      33.262  18.259  24.574  1.00  0.00    -0.355 N 
ATOM     23  C   UNL A   1      34.599  17.757  24.353  1.00  0.00     0.118 C 
ATOM     24  C   UNL A   1      32.352  17.255  25.080  1.00  0.00     0.118 C 
ATOM     25  C   UNL A   1      34.320  16.295  24.030  1.00  0.00     0.023 C 
ATOM     26  C   UNL A   1      33.160  15.953  24.966  1.00  0.00     0.023 C 
ENDBRANCH  15  22
ENDBRANCH   8  13
ENDBRANCH   4   7
ENDBRANCH   2   3
ENDBRANCH   1   2
BRANCH   1  27
ATOM     27  C   UNL A   1      35.141  29.341  27.637  1.00  0.00     0.118 C 
BRANCH  27  28
ATOM     28  N   UNL A   1      35.162  30.157  28.842  1.00  0.00    -0.352 N 
ATOM     29  C   UNL A   1      36.179  30.389  29.731  1.00  0.00     0.251 C 
ATOM     30  H   UNL A   1      34.314  30.613  29.051  1.00  0.00     0.163 HD
ATOM     31  O   UNL A   1      35.925  30.930  30.809  1.00  0.00    -0.269 OA
BRANCH  29  32
ATOM     32  C   UNL A   1      37.565  29.989  29.413  1.00  0.00     0.039 A 
ATOM     33  C   UNL A   1      38.413  29.597  30.452  1.00  0.00     0.014 A 
ATOM     34  C   UNL A   1      38.047  30.036  28.101  1.00  0.00     0.014 A 
ATOM     35  C   UNL A   1      39.725  29.207  30.170  1.00  0.00     0.010 A 
ATOM     36  C   UNL A   1      39.322  29.565  27.810  1.00  0.00     0.010 A 
ATOM     37  C   UNL A   1      40.181  29.164  28.843  1.00  0.00    -0.014 A 
BRANCH  37  38
ATOM     38  C   UNL A   1      41.565  28.744  28.515  1.00  0.00     0.031 A 
ATOM     39  C   UNL A   1      42.677  29.758  28.526  1.00  0.00     0.074 A 
ATOM     40  C   UNL A   1      41.812  27.470  28.157  1.00  0.00     0.049 A 
ATOM     41  N   UNL A   1      43.935  29.608  28.202  1.00  0.00    -0.248 NA
ATOM     42  C   UNL A   1      42.321  31.126  28.932  1.00  0.00     0.031 C 
ATOM     43  C   UNL A   1      40.810  26.405  28.080  1.00  0.00     0.029 A 
ATOM     44  N   UNL A   1      42.981  26.855  27.788  1.00  0.00    -0.354 N 
ATOM     45  C   UNL A   1      44.516  30.862  28.352  1.00  0.00     0.074 A 
ATOM     46  C   UNL A   1      43.461  31.773  28.740  1.00  0.00     0.031 C 
ATOM     47  C   UNL A   1      41.413  25.262  27.716  1.00  0.00     0.029 A 
ATOM     48  C   UNL A   1      42.833  25.519  27.496  1.00  0.00     0.049 A 
ATOM     49  H   UNL A   1      43.844  27.324  27.738  1.00  0.00     0.167 HD
ATOM     50  C   UNL A   1      45.815  31.217  28.207  1.00  0.00     0.037 A 
ATOM     51  C   UNL A   1      43.739  24.607  27.094  1.00  0.00     0.037 A 
ATOM     52  C   UNL A   1      46.862  30.301  27.840  1.00  0.00     0.049 A 
ATOM     53  C   UNL A   1      45.173  25.025  26.923  1.00  0.00     0.074 A 
ATOM     54  C   UNL A   1      48.216  30.548  27.708  1.00  0.00     0.029 A 
ATOM     55  N   UNL A   1      46.671  28.957  27.546  1.00  0.00    -0.354 N 
ATOM     56  N   UNL A   1      45.714  26.207  27.104  1.00  0.00    -0.248 NA
ATOM     57  C   UNL A   1      46.120  23.987  26.495  1.00  0.00     0.031 C 
ATOM     58  C   UNL A   1      48.839  29.366  27.291  1.00  0.00     0.029 A 
ATOM     59  C   UNL A   1      47.880  28.368  27.211  1.00  0.00     0.049 A 
ATOM     60  H   UNL A   1      45.804  28.492  27.571  1.00  0.00     0.167 HD
ATOM     61  C   UNL A   1      47.067  26.053  26.827  1.00  0.00     0.074 A 
ATOM     62  C   UNL A   1      47.264  24.659  26.481  1.00  0.00     0.031 C 
ATOM     63  C   UNL A   1      48.056  26.981  26.856  1.00  0.00     0.037 A 
BRANCH  50  64
ATOM     64  C   UNL A   1      46.167  32.660  28.451  1.00  0.00     0.058 A 
ATOM     65  C   UNL A   1      46.534  33.123  29.726  1.00  0.00     0.135 A 
ATOM     66  C   UNL A   1      46.145  33.590  27.399  1.00  0.00     0.135 A 
ATOM     67  F   UNL A   1      46.555  32.281  30.771  1.00  0.00    -0.206 F 
ATOM     68  C   UNL A   1      46.827  34.463  29.957  1.00  0.00     0.059 A 
ATOM     69  C   UNL A   1      46.463  34.930  27.602  1.00  0.00     0.059 A 
ATOM     70  F   UNL A   1      45.802  33.203  26.161  1.00  0.00    -0.206 F 
ATOM     71  C   UNL A   1      46.786  35.360  28.888  1.00  0.00     0.060 A 
BRANCH  71  72
ATOM     72  S   UNL A   1      47.153  37.098  29.210  1.00  0.00     0.124 S 
ATOM     73  O   UNL A   1      46.803  37.213  30.622  1.00  0.00    -0.237 OA
ATOM     74  O   UNL A   1      48.577  37.177  28.903  1.00  0.00    -0.237 OA
ATOM     75  O   UNL A   1      46.274  37.808  28.286  1.00  0.00    -0.744 OA
ENDBRANCH  71  72
ENDBRANCH  50  64
BRANCH  51  76
ATOM     76  C   UNL A   1      43.309  23.202  26.873  1.00  0.00     0.058 A 
ATOM     77  C   UNL A   1      43.248  22.667  25.578  1.00  0.00     0.135 A 
ATOM     78  C   UNL A   1      43.021  22.348  27.949  1.00  0.00     0.135 A 
ATOM     79  F   UNL A   1      43.505  23.449  24.518  1.00  0.00    -0.206 F 
ATOM     80  C   UNL A   1      42.927  21.333  25.356  1.00  0.00     0.059 A 
ATOM     81  C   UNL A   1      42.720  21.003  27.753  1.00  0.00     0.059 A 
ATOM     82  F   UNL A   1      43.079  22.809  29.208  1.00  0.00    -0.206 F 
ATOM     83  C   UNL A   1      42.678  20.504  26.451  1.00  0.00     0.060 A 
BRANCH  83  84
ATOM     84  S   UNL A   1      42.362  18.752  26.152  1.00  0.00     0.124 S 
ATOM     85  O   UNL A   1      40.958  18.767  25.758  1.00  0.00    -0.237 OA
ATOM     86  O   UNL A   1      43.320  18.448  25.093  1.00  0.00    -0.237 OA
ATOM     87  O   UNL A   1      42.649  18.132  27.442  1.00  0.00    -0.744 OA
ENDBRANCH  83  84
ENDBRANCH  51  76
BRANCH  63  88
ATOM     88  C   UNL A   1      49.445  26.521  26.510  1.00  0.00     0.058 A 
ATOM     89  C   UNL A   1      49.978  26.696  25.223  1.00  0.00     0.135 A 
ATOM     90  C   UNL A   1      50.272  25.948  27.490  1.00  0.00     0.135 A 
ATOM     91  F   UNL A   1      49.226  27.234  24.249  1.00  0.00    -0.206 F 
ATOM     92  C   UNL A   1      51.273  26.298  24.914  1.00  0.00     0.059 A 
ATOM     93  C   UNL A   1      51.581  25.567  27.210  1.00  0.00     0.059 A 
ATOM     94  F   UNL A   1      49.816  25.768  28.740  1.00  0.00    -0.206 F 
ATOM     95  C   UNL A   1      52.068  25.735  25.914  1.00  0.00     0.060 A 
BRANCH  95  96
ATOM     96  S   UNL A   1      53.757  25.249  25.503  1.00  0.00     0.124 S 
ATOM     97  O   UNL A   1      53.530  24.060  24.687  1.00  0.00    -0.237 OA
ATOM     98  O   UNL A   1      54.255  26.421  24.790  1.00  0.00    -0.237 OA
ATOM     99  O   UNL A   1      54.369  25.007  26.807  1.00  0.00    -0.744 OA
ENDBRANCH  95  96
ENDBRANCH  63  88
ENDBRANCH  37  38
ENDBRANCH  29  32
ENDBRANCH  27  28
ENDBRANCH   1  27
TORSDOF 16
ENDMDL
MODEL 2
REMARK VINA RESULT:     -12.2      6.640     12.291
REMARK SMILES Nc1c(N2CCCC2)ncnc1N1CCC(C(=O)NCCCNC(=O)c2ccc(-c3c4nc(c(-c5c(F)cc(S(=O)(=O)[O-])cc5F)c5ccc([nH]5)c(-c5c(F)cc(S(=O)(=O)[O-])cc5F)c5nc(c(-c6c(F)cc(S(=O)(=O)[O-])cc6F)c6ccc3[nH]6)C=C5)C=C4)cc2)CC1
REMARK SMILES IDX 21 1 20 2 19 3 17 4 18 5 16 7 13 8 14 9 93 10 15 11 92 12
REMARK SMILES IDX 12 13 2 14 3 15 9 16 11 17 10 18 1 19 4 22 5 23 8 24 6 25
REMARK SMILES IDX 7 26 22 27 23 28 24 29 25 31 26 32 27 33 91 34 28 35 90 36
REMARK SMILES IDX 29 37 30 38 31 39 84 40 32 41 89 42 83 43 85 44 33 45 88 46
REMARK SMILES IDX 82 47 81 48 34 50 68 51 47 52 67 53 48 54 51 55 66 56 86 57
REMARK SMILES IDX 49 58 50 59 65 61 87 62 52 63 35 64 36 65 45 66 37 67 38 68
REMARK SMILES IDX 44 69 46 70 39 71 40 72 41 73 42 74 43 75 69 76 70 77 79 78
REMARK SMILES IDX 71 79 72 80 78 81 80 82 73 83 74 84 75 85 76 86 77 87 53 88
REMARK SMILES IDX 54 89 63 90 55 91 56 92 62 93 64 94 57 95 58 96 59 97 60 98
REMARK SMILES IDX 61 99
REMARK H PARENT 19 6 1 20 1 21 23 30 85 49 51 60
REMARK Flexibility Score: inf
ROOT
ATOM      1  C   UNL A   1      38.504  22.508  26.057  1.00  0.00     0.042 C 
ENDROOT
BRANCH   1   2
ATOM      2  C   UNL A   1      37.423  23.256  25.288  1.00  0.00     0.117 C 
BRANCH   2   3
ATOM      3  N   UNL A   1      36.091  22.727  25.553  1.00  0.00    -0.356 N 
ATOM      4  C   UNL A   1      34.859  23.274  25.365  1.00  0.00     0.223 C 
ATOM      5  O   UNL A   1      33.873  22.604  25.683  1.00  0.00    -0.275 OA
ATOM      6  H   UNL A   1      36.080  21.819  25.933  1.00  0.00     0.163 HD
BRANCH   4   7
ATOM      7  C   UNL A   1      34.684  24.651  24.748  1.00  0.00     0.082 C 
ATOM      8  N   UNL A   1      32.885  26.641  23.848  1.00  0.00    -0.355 N 
ATOM      9  C   UNL A   1      33.584  25.909  22.815  1.00  0.00     0.119 C 
ATOM     10  C   UNL A   1      33.548  26.895  25.112  1.00  0.00     0.119 C 
ATOM     11  C   UNL A   1      34.067  24.570  23.345  1.00  0.00     0.035 C 
ATOM     12  C   UNL A   1      33.983  25.585  25.744  1.00  0.00     0.035 C 
BRANCH   8  13
ATOM     13  C   UNL A   1      31.560  27.002  23.656  1.00  0.00     0.157 A 
ATOM     14  C   UNL A   1      31.235  28.326  23.319  1.00  0.00     0.118 A 
ATOM     15  C   UNL A   1      29.869  28.631  23.207  1.00  0.00     0.157 A 
ATOM     16  N   UNL A   1      28.919  27.720  23.466  1.00  0.00    -0.217 NA
ATOM     17  N   UNL A   1      30.618  26.060  23.831  1.00  0.00    -0.217 NA
ATOM     18  C   UNL A   1      29.345  26.475  23.732  1.00  0.00     0.226 A 
BRANCH  14  19
ATOM     19  N   UNL A   1      32.231  29.285  23.081  1.00  0.00    -0.393 N 
ATOM     20  H   UNL A   1      32.646  29.761  23.837  1.00  0.00     0.156 HD
ATOM     21  H   UNL A   1      32.516  29.481  22.160  1.00  0.00     0.156 HD
ENDBRANCH  14  19
BRANCH  15  22
ATOM     22  N   UNL A   1      29.463  29.894  22.861  1.00  0.00    -0.355 N 
ATOM     23  C   UNL A   1      29.205  30.969  23.793  1.00  0.00     0.118 C 
ATOM     24  C   UNL A   1      29.183  30.250  21.487  1.00  0.00     0.118 C 
ATOM     25  C   UNL A   1      28.088  31.720  23.080  1.00  0.00     0.023 C 
ATOM     26  C   UNL A   1      28.491  31.616  21.609  1.00  0.00     0.023 C 
ENDBRANCH  15  22
ENDBRANCH   8  13
ENDBRANCH   4   7
ENDBRANCH   2   3
ENDBRANCH   1   2
BRANCH   1  27
ATOM     27  C   UNL A   1      39.407  23.414  26.878  1.00  0.00     0.118 C 
BRANCH  27  28
ATOM     28  N   UNL A   1      40.687  23.657  26.228  1.00  0.00    -0.352 N 
ATOM     29  C   UNL A   1      41.556  24.709  26.359  1.00  0.00     0.251 C 
ATOM     30  H   UNL A   1      40.972  22.958  25.596  1.00  0.00     0.163 HD
ATOM     31  O   UNL A   1      42.478  24.833  25.550  1.00  0.00    -0.269 OA
BRANCH  29  32
ATOM     32  C   UNL A   1      41.392  25.692  27.450  1.00  0.00     0.039 A 
ATOM     33  C   UNL A   1      42.286  26.763  27.538  1.00  0.00     0.014 A 
ATOM     34  C   UNL A   1      40.386  25.543  28.410  1.00  0.00     0.014 A 
ATOM     35  C   UNL A   1      42.140  27.707  28.556  1.00  0.00     0.010 A 
ATOM     36  C   UNL A   1      40.189  26.530  29.370  1.00  0.00     0.010 A 
ATOM     37  C   UNL A   1      41.076  27.611  29.465  1.00  0.00    -0.014 A 
BRANCH  37  38
ATOM     38  C   UNL A   1      40.893  28.607  30.550  1.00  0.00     0.031 A 
ATOM     39  C   UNL A   1      41.768  28.551  31.772  1.00  0.00     0.074 A 
ATOM     40  C   UNL A   1      39.910  29.523  30.461  1.00  0.00     0.049 A 
ATOM     41  N   UNL A   1      41.722  29.280  32.856  1.00  0.00    -0.248 NA
ATOM     42  C   UNL A   1      42.819  27.521  31.786  1.00  0.00     0.031 C 
ATOM     43  C   UNL A   1      38.978  29.655  29.339  1.00  0.00     0.029 A 
ATOM     44  N   UNL A   1      39.529  30.513  31.329  1.00  0.00    -0.354 N 
ATOM     45  C   UNL A   1      42.725  28.791  33.684  1.00  0.00     0.074 A 
ATOM     46  C   UNL A   1      43.325  27.665  33.002  1.00  0.00     0.031 C 
ATOM     47  C   UNL A   1      38.152  30.687  29.575  1.00  0.00     0.029 A 
ATOM     48  C   UNL A   1      38.468  31.263  30.878  1.00  0.00     0.049 A 
ATOM     49  H   UNL A   1      39.973  30.673  32.193  1.00  0.00     0.167 HD
ATOM     50  C   UNL A   1      43.129  29.255  34.891  1.00  0.00     0.037 A 
ATOM     51  C   UNL A   1      37.822  32.297  31.453  1.00  0.00     0.037 A 
ATOM     52  C   UNL A   1      42.540  30.388  35.555  1.00  0.00     0.049 A 
ATOM     53  C   UNL A   1      38.275  32.786  32.800  1.00  0.00     0.074 A 
ATOM     54  C   UNL A   1      42.902  30.965  36.758  1.00  0.00     0.029 A 
ATOM     55  N   UNL A   1      41.463  31.118  35.069  1.00  0.00    -0.354 N 
ATOM     56  N   UNL A   1      39.250  32.336  33.555  1.00  0.00    -0.248 NA
ATOM     57  C   UNL A   1      37.543  33.922  33.374  1.00  0.00     0.031 C 
ATOM     58  C   UNL A   1      42.017  32.017  37.022  1.00  0.00     0.029 A 
ATOM     59  C   UNL A   1      41.133  32.126  35.960  1.00  0.00     0.049 A 
ATOM     60  H   UNL A   1      41.001  30.943  34.217  1.00  0.00     0.167 HD
ATOM     61  C   UNL A   1      39.258  33.143  34.687  1.00  0.00     0.074 A 
ATOM     62  C   UNL A   1      38.202  34.119  34.509  1.00  0.00     0.031 C 
ATOM     63  C   UNL A   1      40.068  33.082  35.774  1.00  0.00     0.037 A 
BRANCH  50  64
ATOM     64  C   UNL A   1      44.265  28.532  35.564  1.00  0.00     0.058 A 
ATOM     65  C   UNL A   1      44.036  27.488  36.477  1.00  0.00     0.135 A 
ATOM     66  C   UNL A   1      45.598  28.879  35.291  1.00  0.00     0.135 A 
ATOM     67  F   UNL A   1      42.781  27.125  36.788  1.00  0.00    -0.206 F 
ATOM     68  C   UNL A   1      45.084  26.843  37.123  1.00  0.00     0.059 A 
ATOM     69  C   UNL A   1      46.663  28.228  35.904  1.00  0.00     0.059 A 
ATOM     70  F   UNL A   1      45.875  29.869  34.428  1.00  0.00    -0.206 F 
ATOM     71  C   UNL A   1      46.396  27.223  36.833  1.00  0.00     0.060 A 
BRANCH  71  72
ATOM     72  S   UNL A   1      47.744  26.386  37.694  1.00  0.00     0.124 S 
ATOM     73  O   UNL A   1      47.011  25.481  38.573  1.00  0.00    -0.237 OA
ATOM     74  O   UNL A   1      48.469  25.753  36.597  1.00  0.00    -0.237 OA
ATOM     75  O   UNL A   1      48.449  27.475  38.362  1.00  0.00    -0.744 OA
ENDBRANCH  71  72
ENDBRANCH  50  64
BRANCH  51  76
ATOM     76  C   UNL A   1      36.708  32.956  30.723  1.00  0.00     0.058 A 
ATOM     77  C   UNL A   1      35.374  32.691  31.063  1.00  0.00     0.135 A 
ATOM     78  C   UNL A   1      36.953  33.912  29.725  1.00  0.00     0.135 A 
ATOM     79  F   UNL A   1      35.091  31.778  32.003  1.00  0.00    -0.206 F 
ATOM     80  C   UNL A   1      34.320  33.359  30.448  1.00  0.00     0.059 A 
ATOM     81  C   UNL A   1      35.917  34.609  29.111  1.00  0.00     0.059 A 
ATOM     82  F   UNL A   1      38.214  34.210  29.374  1.00  0.00    -0.206 F 
ATOM     83  C   UNL A   1      34.602  34.326  29.482  1.00  0.00     0.060 A 
BRANCH  83  84
ATOM     84  S   UNL A   1      33.229  35.254  28.765  1.00  0.00     0.124 S 
ATOM     85  O   UNL A   1      32.552  34.225  27.985  1.00  0.00    -0.237 OA
ATOM     86  O   UNL A   1      32.524  35.720  29.956  1.00  0.00    -0.237 OA
ATOM     87  O   UNL A   1      33.894  36.298  27.992  1.00  0.00    -0.744 OA
ENDBRANCH  83  84
ENDBRANCH  51  76
BRANCH  63  88
ATOM     88  C   UNL A   1      39.849  34.101  36.856  1.00  0.00     0.058 A 
ATOM     89  C   UNL A   1      39.060  33.819  37.983  1.00  0.00     0.135 A 
ATOM     90  C   UNL A   1      40.477  35.355  36.794  1.00  0.00     0.135 A 
ATOM     91  F   UNL A   1      38.433  32.636  38.089  1.00  0.00    -0.206 F 
ATOM     92  C   UNL A   1      38.884  34.752  38.998  1.00  0.00     0.059 A 
ATOM     93  C   UNL A   1      40.337  36.295  37.811  1.00  0.00     0.059 A 
ATOM     94  F   UNL A   1      41.251  35.673  35.744  1.00  0.00    -0.206 F 
ATOM     95  C   UNL A   1      39.528  35.988  38.904  1.00  0.00     0.060 A 
BRANCH  95  96
ATOM     96  S   UNL A   1      39.311  37.178  40.244  1.00  0.00     0.124 S 
ATOM     97  O   UNL A   1      38.536  36.400  41.205  1.00  0.00    -0.237 OA
ATOM     98  O   UNL A   1      40.688  37.470  40.628  1.00  0.00    -0.237 OA
ATOM     99  O   UNL A   1      38.595  38.281  39.607  1.00  0.00    -0.744 OA
ENDBRANCH  95  96
ENDBRANCH  63  88
ENDBRANCH  37  38
ENDBRANCH  29  32
ENDBRANCH  27  28
ENDBRANCH   1  27
TORSDOF 16
ENDMDL
MODEL 3
REMARK VINA RESULT:     -12.2      0.510      8.254
REMARK SMILES Nc1c(N2CCCC2)ncnc1N1CCC(C(=O)NCCCNC(=O)c2ccc(-c3c4nc(c(-c5c(F)cc(S(=O)(=O)[O-])cc5F)c5ccc([nH]5)c(-c5c(F)cc(S(=O)(=O)[O-])cc5F)c5nc(c(-c6c(F)cc(S(=O)(=O)[O-])cc6F)c6ccc3[nH]6)C=C5)C=C4)cc2)CC1
REMARK SMILES IDX 21 1 20 2 19 3 17 4 18 5 16 7 13 8 14 9 93 10 15 11 92 12
REMARK SMILES IDX 12 13 2 14 3 15 9 16 11 17 10 18 1 19 4 22 5 23 8 24 6 25
REMARK SMILES IDX 7 26 22 27 23 28 24 29 25 31 26 32 27 33 91 34 28 35 90 36
REMARK SMILES IDX 29 37 30 38 31 39 84 40 32 41 89 42 83 43 85 44 33 45 88 46
REMARK SMILES IDX 82 47 81 48 34 50 68 51 47 52 67 53 48 54 51 55 66 56 86 57
REMARK SMILES IDX 49 58 50 59 65 61 87 62 52 63 35 64 36 65 45 66 37 67 38 68
REMARK SMILES IDX 44 69 46 70 39 71 40 72 41 73 42 74 43 75 69 76 70 77 79 78
REMARK SMILES IDX 71 79 72 80 78 81 80 82 73 83 74 84 75 85 76 86 77 87 53 88
REMARK SMILES IDX 54 89 63 90 55 91 56 92 62 93 64 94 57 95 58 96 59 97 60 98
REMARK SMILES IDX 61 99
REMARK H PARENT 19 6 1 20 1 21 23 30 85 49 51 60
REMARK Flexibility Score: inf
ROOT
ATOM      1  C   UNL A   1      33.955  29.638  26.848  1.00  0.00     0.042 C 
ENDROOT
BRANCH   1   2
ATOM      2  C   UNL A   1      32.822  28.703  27.248  1.00  0.00     0.117 C 
BRANCH   2   3
ATOM      3  N   UNL A   1      31.950  28.381  26.125  1.00  0.00    -0.356 N 
ATOM      4  C   UNL A   1      31.541  27.182  25.628  1.00  0.00     0.223 C 
ATOM      5  O   UNL A   1      30.791  27.187  24.647  1.00  0.00    -0.275 OA
ATOM      6  H   UNL A   1      31.597  29.164  25.645  1.00  0.00     0.163 HD
BRANCH   4   7
ATOM      7  C   UNL A   1      31.952  25.869  26.271  1.00  0.00     0.082 C 
ATOM      8  N   UNL A   1      32.439  23.103  25.926  1.00  0.00    -0.355 N 
ATOM      9  C   UNL A   1      31.227  23.446  26.637  1.00  0.00     0.119 C 
ATOM     10  C   UNL A   1      33.607  23.952  26.061  1.00  0.00     0.119 C 
ATOM     11  C   UNL A   1      30.794  24.863  26.299  1.00  0.00     0.035 C 
ATOM     12  C   UNL A   1      33.266  25.373  25.653  1.00  0.00     0.035 C 
BRANCH   8  13
ATOM     13  C   UNL A   1      32.439  22.028  25.051  1.00  0.00     0.157 A 
ATOM     14  C   UNL A   1      32.932  20.782  25.469  1.00  0.00     0.118 A 
ATOM     15  C   UNL A   1      32.963  19.760  24.507  1.00  0.00     0.157 A 
ATOM     16  N   UNL A   1      32.593  19.977  23.235  1.00  0.00    -0.217 NA
ATOM     17  N   UNL A   1      31.984  22.232  23.803  1.00  0.00    -0.217 NA
ATOM     18  C   UNL A   1      32.094  21.192  22.960  1.00  0.00     0.226 A 
BRANCH  14  19
ATOM     19  N   UNL A   1      33.349  20.567  26.792  1.00  0.00    -0.393 N 
ATOM     20  H   UNL A   1      33.570  21.334  27.369  1.00  0.00     0.156 HD
ATOM     21  H   UNL A   1      33.420  19.651  27.143  1.00  0.00     0.156 HD
ENDBRANCH  14  19
BRANCH  15  22
ATOM     22  N   UNL A   1      33.410  18.506  24.835  1.00  0.00    -0.355 N 
ATOM     23  C   UNL A   1      34.693  17.956  24.458  1.00  0.00     0.118 C 
ATOM     24  C   UNL A   1      32.576  17.569  25.555  1.00  0.00     0.118 C 
ATOM     25  C   UNL A   1      34.351  16.479  24.306  1.00  0.00     0.023 C 
ATOM     26  C   UNL A   1      33.344  16.244  25.432  1.00  0.00     0.023 C 
ENDBRANCH  15  22
ENDBRANCH   8  13
ENDBRANCH   4   7
ENDBRANCH   2   3
ENDBRANCH   1   2
BRANCH   1  27
ATOM     27  C   UNL A   1      35.269  29.341  27.552  1.00  0.00     0.118 C 
BRANCH  27  28
ATOM     28  N   UNL A   1      35.264  29.772  28.943  1.00  0.00    -0.352 N 
ATOM     29  C   UNL A   1      36.263  29.736  29.880  1.00  0.00     0.251 C 
ATOM     30  H   UNL A   1      34.410  30.146  29.259  1.00  0.00     0.163 HD
ATOM     31  O   UNL A   1      35.986  29.940  31.064  1.00  0.00    -0.269 OA
BRANCH  29  32
ATOM     32  C   UNL A   1      37.657  29.447  29.486  1.00  0.00     0.039 A 
ATOM     33  C   UNL A   1      38.049  29.673  28.163  1.00  0.00     0.014 A 
ATOM     34  C   UNL A   1      38.570  28.917  30.402  1.00  0.00     0.014 A 
ATOM     35  C   UNL A   1      39.366  29.414  27.775  1.00  0.00     0.010 A 
ATOM     36  C   UNL A   1      39.901  28.743  30.038  1.00  0.00     0.010 A 
ATOM     37  C   UNL A   1      40.308  28.971  28.715  1.00  0.00    -0.014 A 
BRANCH  37  38
ATOM     38  C   UNL A   1      41.715  28.699  28.332  1.00  0.00     0.031 A 
ATOM     39  C   UNL A   1      42.128  27.305  27.942  1.00  0.00     0.074 A 
ATOM     40  C   UNL A   1      42.627  29.687  28.384  1.00  0.00     0.049 A 
ATOM     41  N   UNL A   1      43.316  26.849  27.644  1.00  0.00    -0.248 NA
ATOM     42  C   UNL A   1      41.067  26.287  27.906  1.00  0.00     0.031 C 
ATOM     43  C   UNL A   1      42.352  31.071  28.778  1.00  0.00     0.029 A 
ATOM     44  N   UNL A   1      43.971  29.680  28.111  1.00  0.00    -0.354 N 
ATOM     45  C   UNL A   1      43.148  25.491  27.399  1.00  0.00     0.074 A 
ATOM     46  C   UNL A   1      41.755  25.186  27.640  1.00  0.00     0.031 C 
ATOM     47  C   UNL A   1      43.486  31.784  28.691  1.00  0.00     0.029 A 
ATOM     48  C   UNL A   1      44.574  30.904  28.276  1.00  0.00     0.049 A 
ATOM     49  H   UNL A   1      44.458  28.874  27.822  1.00  0.00     0.167 HD
ATOM     50  C   UNL A   1      44.065  24.585  26.983  1.00  0.00     0.037 A 
ATOM     51  C   UNL A   1      45.860  31.274  28.114  1.00  0.00     0.037 A 
ATOM     52  C   UNL A   1      45.446  24.900  26.726  1.00  0.00     0.049 A 
ATOM     53  C   UNL A   1      46.866  30.250  27.668  1.00  0.00     0.074 A 
ATOM     54  C   UNL A   1      46.448  24.066  26.262  1.00  0.00     0.029 A 
ATOM     55  N   UNL A   1      46.021  26.150  26.912  1.00  0.00    -0.354 N 
ATOM     56  N   UNL A   1      46.685  28.977  27.405  1.00  0.00    -0.248 NA
ATOM     57  C   UNL A   1      48.250  30.710  27.496  1.00  0.00     0.031 C 
ATOM     58  C   UNL A   1      47.638  24.801  26.209  1.00  0.00     0.029 A 
ATOM     59  C   UNL A   1      47.368  26.105  26.592  1.00  0.00     0.049 A 
ATOM     60  H   UNL A   1      45.541  26.951  27.225  1.00  0.00     0.167 HD
ATOM     61  C   UNL A   1      47.928  28.487  27.022  1.00  0.00     0.074 A 
ATOM     62  C   UNL A   1      48.849  29.605  27.072  1.00  0.00     0.031 C 
ATOM     63  C   UNL A   1      48.275  27.226  26.661  1.00  0.00     0.037 A 
BRANCH  50  64
ATOM     64  C   UNL A   1      43.596  23.170  26.781  1.00  0.00     0.058 A 
ATOM     65  C   UNL A   1      43.282  22.336  27.868  1.00  0.00     0.135 A 
ATOM     66  C   UNL A   1      43.452  22.640  25.489  1.00  0.00     0.135 A 
ATOM     67  F   UNL A   1      43.417  22.785  29.126  1.00  0.00    -0.206 F 
ATOM     68  C   UNL A   1      42.880  21.017  27.681  1.00  0.00     0.059 A 
ATOM     69  C   UNL A   1      43.024  21.332  25.278  1.00  0.00     0.059 A 
ATOM     70  F   UNL A   1      43.739  23.391  24.414  1.00  0.00    -0.206 F 
ATOM     71  C   UNL A   1      42.757  20.523  26.382  1.00  0.00     0.060 A 
BRANCH  71  72
ATOM     72  S   UNL A   1      42.251  18.805  26.159  1.00  0.00     0.124 S 
ATOM     73  O   UNL A   1      42.475  18.260  27.494  1.00  0.00    -0.237 OA
ATOM     74  O   UNL A   1      40.855  18.941  25.758  1.00  0.00    -0.237 OA
ATOM     75  O   UNL A   1      43.154  18.315  25.123  1.00  0.00    -0.744 OA
ENDBRANCH  71  72
ENDBRANCH  50  64
BRANCH  51  76
ATOM     76  C   UNL A   1      46.243  32.692  28.335  1.00  0.00     0.058 A 
ATOM     77  C   UNL A   1      46.752  33.112  29.573  1.00  0.00     0.135 A 
ATOM     78  C   UNL A   1      46.177  33.638  27.300  1.00  0.00     0.135 A 
ATOM     79  F   UNL A   1      46.826  32.246  30.595  1.00  0.00    -0.206 F 
ATOM     80  C   UNL A   1      47.193  34.415  29.775  1.00  0.00     0.059 A 
ATOM     81  C   UNL A   1      46.631  34.942  27.471  1.00  0.00     0.059 A 
ATOM     82  F   UNL A   1      45.709  33.282  26.093  1.00  0.00    -0.206 F 
ATOM     83  C   UNL A   1      47.141  35.320  28.713  1.00  0.00     0.060 A 
BRANCH  83  84
ATOM     84  S   UNL A   1      47.810  36.979  28.962  1.00  0.00     0.124 S 
ATOM     85  O   UNL A   1      46.593  37.771  29.100  1.00  0.00    -0.237 OA
ATOM     86  O   UNL A   1      48.601  36.808  30.177  1.00  0.00    -0.237 OA
ATOM     87  O   UNL A   1      48.584  37.216  27.747  1.00  0.00    -0.744 OA
ENDBRANCH  83  84
ENDBRANCH  51  76
BRANCH  63  88
ATOM     88  C   UNL A   1      49.710  26.985  26.286  1.00  0.00     0.058 A 
ATOM     89  C   UNL A   1      50.663  26.591  27.239  1.00  0.00     0.135 A 
ATOM     90  C   UNL A   1      50.127  27.097  24.950  1.00  0.00     0.135 A 
ATOM     91  F   UNL A   1      50.317  26.476  28.531  1.00  0.00    -0.206 F 
ATOM     92  C   UNL A   1      51.983  26.340  26.884  1.00  0.00     0.059 A 
ATOM     93  C   UNL A   1      51.437  26.823  24.568  1.00  0.00     0.059 A 
ATOM     94  F   UNL A   1      49.254  27.459  23.996  1.00  0.00    -0.206 F 
ATOM     95  C   UNL A   1      52.362  26.457  25.546  1.00  0.00     0.060 A 
BRANCH  95  96
ATOM     96  S   UNL A   1      54.073  26.099  25.097  1.00  0.00     0.124 S 
ATOM     97  O   UNL A   1      54.784  27.182  25.770  1.00  0.00    -0.237 OA
ATOM     98  O   UNL A   1      54.271  24.766  25.657  1.00  0.00    -0.237 OA
ATOM     99  O   UNL A   1      54.064  26.166  23.639  1.00  0.00    -0.744 OA
ENDBRANCH  95  96
ENDBRANCH  63  88
ENDBRANCH  37  38
ENDBRANCH  29  32
ENDBRANCH  27  28
ENDBRANCH   1  27
TORSDOF 16
ENDMDL
