MODEL 1
REMARK VINA RESULT:     -13.2      0.000      0.000
REMARK SMILES O=C(NCCCNC(=O)[C@H]1C[C@](O)(c2ccc(F)cc2)[C@@H](c2ccc(F)cc2)O1)c1ccc(-c2c3nc(c(-c4c(F)cc(S(=O)(=O)[O-])cc4F)c4ccc([nH]4)c(-c4c(F)cc(S(=O)(=O)[O-])cc4F)c4nc(c(-c5c(F)cc(S(=O)(=O)[O-])cc5F)c5ccc2[nH]5)C=C4)C=C3)cc1
REMARK SMILES IDX 4 1 3 2 1 3 2 4 30 6 31 7 95 8 32 9 94 10 33 11 34 12 35 13
REMARK SMILES IDX 88 14 36 15 93 16 87 17 89 18 37 19 92 20 86 21 85 22 38 24
REMARK SMILES IDX 72 25 51 26 71 27 52 28 55 29 70 30 90 31 53 32 54 33 69 35
REMARK SMILES IDX 91 36 56 37 39 38 40 39 49 40 41 41 42 42 48 43 50 44 43 45
REMARK SMILES IDX 44 46 45 47 46 48 47 49 73 50 74 51 83 52 75 53 76 54 82 55
REMARK SMILES IDX 84 56 77 57 78 58 79 59 80 60 81 61 57 62 58 63 67 64 59 65
REMARK SMILES IDX 60 66 66 67 68 68 61 69 62 70 63 71 64 72 65 73 5 74 6 75
REMARK SMILES IDX 7 76 8 77 9 79 10 80 11 81 29 82 12 83 21 84 14 85 15 86
REMARK SMILES IDX 20 87 16 88 19 89 17 90 18 91 13 92 22 94 23 95 28 96 24 97
REMARK SMILES IDX 27 98 25 99 26 100
REMARK H PARENT 3 5 89 23 55 34 7 78 13 93
REMARK Flexibility Score: inf
ROOT
ATOM      1  C   UNL A   1      35.739  31.407  28.351  1.00  0.00     0.118 C 
ENDROOT
BRANCH   1   2
ATOM      2  N   UNL A   1      35.632  31.085  29.768  1.00  0.00    -0.352 N 
ATOM      3  O   UNL A   1      36.106  30.100  31.729  1.00  0.00    -0.269 OA
ATOM      4  C   UNL A   1      36.485  30.400  30.595  1.00  0.00     0.251 C 
ATOM      5  H   UNL A   1      34.812  31.412  30.203  1.00  0.00     0.163 HD
BRANCH   4   6
ATOM      6  C   UNL A   1      37.830  29.998  30.138  1.00  0.00     0.039 A 
ATOM      7  C   UNL A   1      38.182  30.030  28.786  1.00  0.00     0.014 A 
ATOM      8  C   UNL A   1      38.780  29.633  31.097  1.00  0.00     0.014 A 
ATOM      9  C   UNL A   1      39.439  29.582  28.381  1.00  0.00     0.010 A 
ATOM     10  C   UNL A   1      40.060  29.247  30.697  1.00  0.00     0.010 A 
ATOM     11  C   UNL A   1      40.392  29.192  29.333  1.00  0.00    -0.014 A 
BRANCH  11  12
ATOM     12  C   UNL A   1      41.754  28.768  28.917  1.00  0.00     0.031 A 
ATOM     13  C   UNL A   1      42.877  29.764  28.852  1.00  0.00     0.074 A 
ATOM     14  C   UNL A   1      41.966  27.488  28.557  1.00  0.00     0.049 A 
ATOM     15  N   UNL A   1      44.099  29.603  28.416  1.00  0.00    -0.248 NA
ATOM     16  C   UNL A   1      42.585  31.124  29.333  1.00  0.00     0.031 C 
ATOM     17  C   UNL A   1      40.956  26.428  28.589  1.00  0.00     0.029 A 
ATOM     18  N   UNL A   1      43.091  26.861  28.082  1.00  0.00    -0.354 N 
ATOM     19  C   UNL A   1      44.717  30.841  28.544  1.00  0.00     0.074 A 
ATOM     20  C   UNL A   1      43.726  31.751  29.079  1.00  0.00     0.031 C 
ATOM     21  C   UNL A   1      41.508  25.283  28.163  1.00  0.00     0.029 A 
ATOM     22  C   UNL A   1      42.890  25.539  27.767  1.00  0.00     0.049 A 
ATOM     23  H   UNL A   1      43.958  27.316  27.976  1.00  0.00     0.167 HD
ATOM     24  C   UNL A   1      45.993  31.183  28.245  1.00  0.00     0.037 A 
ATOM     25  C   UNL A   1      43.710  24.637  27.191  1.00  0.00     0.037 A 
ATOM     26  C   UNL A   1      46.968  30.262  27.719  1.00  0.00     0.049 A 
ATOM     27  C   UNL A   1      45.105  25.048  26.814  1.00  0.00     0.074 A 
ATOM     28  C   UNL A   1      48.299  30.500  27.423  1.00  0.00     0.029 A 
ATOM     29  N   UNL A   1      46.718  28.936  27.394  1.00  0.00    -0.354 N 
ATOM     30  N   UNL A   1      45.685  26.213  26.968  1.00  0.00    -0.248 NA
ATOM     31  C   UNL A   1      45.956  24.030  26.180  1.00  0.00     0.031 C 
ATOM     32  C   UNL A   1      48.836  29.338  26.862  1.00  0.00     0.029 A 
ATOM     33  C   UNL A   1      47.860  28.353  26.869  1.00  0.00     0.049 A 
ATOM     34  H   UNL A   1      45.857  28.477  27.518  1.00  0.00     0.167 HD
ATOM     35  C   UNL A   1      46.975  26.067  26.474  1.00  0.00     0.074 A 
ATOM     36  C   UNL A   1      47.092  24.698  26.012  1.00  0.00     0.031 C 
ATOM     37  C   UNL A   1      47.970  26.985  26.418  1.00  0.00     0.037 A 
BRANCH  24  38
ATOM     38  C   UNL A   1      46.404  32.617  28.447  1.00  0.00     0.058 A 
ATOM     39  C   UNL A   1      46.279  33.545  27.400  1.00  0.00     0.135 A 
ATOM     40  C   UNL A   1      46.951  33.071  29.658  1.00  0.00     0.135 A 
ATOM     41  F   UNL A   1      45.764  33.168  26.219  1.00  0.00    -0.206 F 
ATOM     42  C   UNL A   1      46.678  34.870  27.546  1.00  0.00     0.059 A 
ATOM     43  C   UNL A   1      47.329  34.400  29.836  1.00  0.00     0.059 A 
ATOM     44  F   UNL A   1      47.081  32.233  30.698  1.00  0.00    -0.206 F 
ATOM     45  C   UNL A   1      47.193  35.291  28.772  1.00  0.00     0.060 A 
BRANCH  45  46
ATOM     46  S   UNL A   1      47.622  37.033  28.974  1.00  0.00     0.124 S 
ATOM     47  O   UNL A   1      47.008  37.635  27.795  1.00  0.00    -0.237 OA
ATOM     48  O   UNL A   1      46.999  37.355  30.254  1.00  0.00    -0.237 OA
ATOM     49  O   UNL A   1      49.083  37.021  28.986  1.00  0.00    -0.744 OA
ENDBRANCH  45  46
ENDBRANCH  24  38
BRANCH  25  50
ATOM     50  C   UNL A   1      43.204  23.260  26.957  1.00  0.00     0.058 A 
ATOM     51  C   UNL A   1      43.076  22.344  28.014  1.00  0.00     0.135 A 
ATOM     52  C   UNL A   1      42.957  22.797  25.658  1.00  0.00     0.135 A 
ATOM     53  F   UNL A   1      43.313  22.736  29.276  1.00  0.00    -0.206 F 
ATOM     54  C   UNL A   1      42.779  21.006  27.786  1.00  0.00     0.059 A 
ATOM     55  C   UNL A   1      42.632  21.467  25.405  1.00  0.00     0.059 A 
ATOM     56  F   UNL A   1      43.053  23.640  24.617  1.00  0.00    -0.206 F 
ATOM     57  C   UNL A   1      42.574  20.574  26.475  1.00  0.00     0.060 A 
BRANCH  57  58
ATOM     58  S   UNL A   1      42.274  18.816  26.192  1.00  0.00     0.124 S 
ATOM     59  O   UNL A   1      43.259  18.514  25.160  1.00  0.00    -0.237 OA
ATOM     60  O   UNL A   1      42.536  18.247  27.510  1.00  0.00    -0.237 OA
ATOM     61  O   UNL A   1      40.880  18.776  25.759  1.00  0.00    -0.744 OA
ENDBRANCH  57  58
ENDBRANCH  25  50
BRANCH  37  62
ATOM     62  C   UNL A   1      49.302  26.561  25.864  1.00  0.00     0.058 A 
ATOM     63  C   UNL A   1      50.272  26.003  26.713  1.00  0.00     0.135 A 
ATOM     64  C   UNL A   1      49.675  26.849  24.542  1.00  0.00     0.135 A 
ATOM     65  F   UNL A   1      49.966  25.709  27.987  1.00  0.00    -0.206 F 
ATOM     66  C   UNL A   1      51.578  25.792  26.286  1.00  0.00     0.059 A 
ATOM     67  C   UNL A   1      50.971  26.624  24.086  1.00  0.00     0.059 A 
ATOM     68  F   UNL A   1      48.780  27.369  23.687  1.00  0.00    -0.206 F 
ATOM     69  C   UNL A   1      51.922  26.122  24.975  1.00  0.00     0.060 A 
BRANCH  69  70
ATOM     70  S   UNL A   1      53.639  25.908  24.461  1.00  0.00     0.124 S 
ATOM     71  O   UNL A   1      54.334  26.846  25.337  1.00  0.00    -0.237 OA
ATOM     72  O   UNL A   1      53.868  24.493  24.738  1.00  0.00    -0.237 OA
ATOM     73  O   UNL A   1      53.620  26.268  23.047  1.00  0.00    -0.744 OA
ENDBRANCH  69  70
ENDBRANCH  37  62
ENDBRANCH  11  12
ENDBRANCH   4   6
ENDBRANCH   1   2
BRANCH   1  74
ATOM     74  C   UNL A   1      34.440  31.164  27.577  1.00  0.00     0.042 C 
BRANCH  74  75
ATOM     75  C   UNL A   1      34.217  29.720  27.131  1.00  0.00     0.117 C 
BRANCH  75  76
ATOM     76  N   UNL A   1      33.000  29.170  27.687  1.00  0.00    -0.354 N 
ATOM     77  C   UNL A   1      32.244  28.102  27.327  1.00  0.00     0.249 C 
ATOM     78  H   UNL A   1      32.659  29.658  28.470  1.00  0.00     0.163 HD
ATOM     79  O   UNL A   1      31.139  28.047  27.870  1.00  0.00    -0.272 OA
BRANCH  77  80
ATOM     80  C   UNL A   1      32.760  27.018  26.354  1.00  0.00     0.211 C 
ATOM     81  C   UNL A   1      31.947  25.734  26.516  1.00  0.00     0.085 C 
ATOM     82  O   UNL A   1      32.673  27.432  24.991  1.00  0.00    -0.357 OA
ATOM     83  C   UNL A   1      31.318  25.425  25.151  1.00  0.00     0.123 C 
ATOM     84  C   UNL A   1      31.629  26.704  24.315  1.00  0.00     0.186 C 
BRANCH  83  85
ATOM     85  C   UNL A   1      31.776  24.063  24.591  1.00  0.00    -0.013 A 
ATOM     86  C   UNL A   1      32.469  23.182  25.457  1.00  0.00     0.010 A 
ATOM     87  C   UNL A   1      31.464  23.581  23.308  1.00  0.00     0.010 A 
ATOM     88  C   UNL A   1      32.795  21.877  25.074  1.00  0.00     0.039 A 
ATOM     89  C   UNL A   1      31.785  22.271  22.926  1.00  0.00     0.039 A 
ATOM     90  C   UNL A   1      32.437  21.429  23.814  1.00  0.00     0.123 A 
ATOM     91  F   UNL A   1      32.710  20.168  23.453  1.00  0.00    -0.207 F 
ENDBRANCH  83  85
BRANCH  83  92
ATOM     92  O   UNL A   1      29.904  25.236  25.349  1.00  0.00    -0.382 OA
ATOM     93  H   UNL A   1      29.598  24.492  24.806  1.00  0.00     0.212 HD
ENDBRANCH  83  92
BRANCH  84  94
ATOM     94  C   UNL A   1      30.517  27.685  23.968  1.00  0.00    -0.016 A 
ATOM     95  C   UNL A   1      30.703  29.075  23.981  1.00  0.00     0.009 A 
ATOM     96  C   UNL A   1      29.280  27.192  23.511  1.00  0.00     0.009 A 
ATOM     97  C   UNL A   1      29.732  29.942  23.479  1.00  0.00     0.039 A 
ATOM     98  C   UNL A   1      28.290  28.060  23.043  1.00  0.00     0.039 A 
ATOM     99  C   UNL A   1      28.536  29.426  23.009  1.00  0.00     0.123 A 
ATOM    100  F   UNL A   1      27.609  30.255  22.510  1.00  0.00    -0.207 F 
ENDBRANCH  84  94
ENDBRANCH  77  80
ENDBRANCH  75  76
ENDBRANCH  74  75
ENDBRANCH   1  74
TORSDOF 16
ENDMDL
MODEL 2
REMARK VINA RESULT:     -13.2      6.588     11.887
REMARK SMILES O=C(NCCCNC(=O)[C@H]1C[C@](O)(c2ccc(F)cc2)[C@@H](c2ccc(F)cc2)O1)c1ccc(-c2c3nc(c(-c4c(F)cc(S(=O)(=O)[O-])cc4F)c4ccc([nH]4)c(-c4c(F)cc(S(=O)(=O)[O-])cc4F)c4nc(c(-c5c(F)cc(S(=O)(=O)[O-])cc5F)c5ccc2[nH]5)C=C4)C=C3)cc1
REMARK SMILES IDX 4 1 3 2 1 3 2 4 30 6 31 7 95 8 32 9 94 10 33 11 34 12 35 13
REMARK SMILES IDX 88 14 36 15 93 16 87 17 89 18 37 19 92 20 86 21 85 22 38 24
REMARK SMILES IDX 72 25 51 26 71 27 52 28 55 29 70 30 90 31 53 32 54 33 69 35
REMARK SMILES IDX 91 36 56 37 39 38 40 39 49 40 41 41 42 42 48 43 50 44 43 45
REMARK SMILES IDX 44 46 45 47 46 48 47 49 73 50 74 51 83 52 75 53 76 54 82 55
REMARK SMILES IDX 84 56 77 57 78 58 79 59 80 60 81 61 57 62 58 63 67 64 59 65
REMARK SMILES IDX 60 66 66 67 68 68 61 69 62 70 63 71 64 72 65 73 5 74 6 75
REMARK SMILES IDX 7 76 8 77 9 79 10 80 11 81 29 82 12 83 21 84 14 85 15 86
REMARK SMILES IDX 20 87 16 88 19 89 17 90 18 91 13 92 22 94 23 95 28 96 24 97
REMARK SMILES IDX 27 98 25 99 26 100
REMARK H PARENT 3 5 89 23 55 34 7 78 13 93
REMARK Flexibility Score: inf
ROOT
ATOM      1  C   UNL A   1      41.686  23.229  27.317  1.00  0.00     0.118 C 
ENDROOT
BRANCH   1   2
ATOM      2  N   UNL A   1      41.755  24.144  26.186  1.00  0.00    -0.352 N 
ATOM      3  O   UNL A   1      41.476  26.033  25.006  1.00  0.00    -0.269 OA
ATOM      4  C   UNL A   1      41.521  25.493  26.113  1.00  0.00     0.251 C 
ATOM      5  H   UNL A   1      42.013  23.725  25.333  1.00  0.00     0.163 HD
BRANCH   4   6
ATOM      6  C   UNL A   1      41.296  26.295  27.333  1.00  0.00     0.039 A 
ATOM      7  C   UNL A   1      40.253  26.002  28.217  1.00  0.00     0.014 A 
ATOM      8  C   UNL A   1      42.187  27.331  27.624  1.00  0.00     0.014 A 
ATOM      9  C   UNL A   1      40.029  26.819  29.325  1.00  0.00     0.010 A 
ATOM     10  C   UNL A   1      42.001  28.107  28.770  1.00  0.00     0.010 A 
ATOM     11  C   UNL A   1      40.904  27.875  29.615  1.00  0.00    -0.014 A 
BRANCH  11  12
ATOM     12  C   UNL A   1      40.708  28.715  30.825  1.00  0.00     0.031 A 
ATOM     13  C   UNL A   1      39.663  29.794  30.843  1.00  0.00     0.074 A 
ATOM     14  C   UNL A   1      41.505  28.531  31.894  1.00  0.00     0.049 A 
ATOM     15  N   UNL A   1      39.417  30.690  31.764  1.00  0.00    -0.248 NA
ATOM     16  C   UNL A   1      38.782  29.884  29.667  1.00  0.00     0.031 C 
ATOM     17  C   UNL A   1      42.548  27.508  31.997  1.00  0.00     0.029 A 
ATOM     18  N   UNL A   1      41.576  29.199  33.090  1.00  0.00    -0.354 N 
ATOM     19  C   UNL A   1      38.374  31.466  31.273  1.00  0.00     0.074 A 
ATOM     20  C   UNL A   1      38.048  30.948  29.960  1.00  0.00     0.031 C 
ATOM     21  C   UNL A   1      43.147  27.610  33.192  1.00  0.00     0.029 A 
ATOM     22  C   UNL A   1      42.577  28.744  33.915  1.00  0.00     0.049 A 
ATOM     23  H   UNL A   1      40.969  29.935  33.333  1.00  0.00     0.167 HD
ATOM     24  C   UNL A   1      37.747  32.510  31.865  1.00  0.00     0.037 A 
ATOM     25  C   UNL A   1      43.015  29.204  35.104  1.00  0.00     0.037 A 
ATOM     26  C   UNL A   1      38.082  33.009  33.175  1.00  0.00     0.049 A 
ATOM     27  C   UNL A   1      42.345  30.398  35.722  1.00  0.00     0.074 A 
ATOM     28  C   UNL A   1      37.478  34.035  33.881  1.00  0.00     0.029 A 
ATOM     29  N   UNL A   1      39.116  32.532  33.969  1.00  0.00    -0.354 N 
ATOM     30  N   UNL A   1      41.341  31.103  35.260  1.00  0.00    -0.248 NA
ATOM     31  C   UNL A   1      42.867  30.866  37.014  1.00  0.00     0.031 C 
ATOM     32  C   UNL A   1      38.186  34.220  35.072  1.00  0.00     0.029 A 
ATOM     33  C   UNL A   1      39.190  33.266  35.142  1.00  0.00     0.049 A 
ATOM     34  H   UNL A   1      39.710  31.784  33.733  1.00  0.00     0.167 HD
ATOM     35  C   UNL A   1      41.093  32.083  36.213  1.00  0.00     0.074 A 
ATOM     36  C   UNL A   1      42.055  31.883  37.278  1.00  0.00     0.031 C 
ATOM     37  C   UNL A   1      40.147  33.054  36.203  1.00  0.00     0.037 A 
BRANCH  24  38
ATOM     38  C   UNL A   1      36.659  33.209  31.094  1.00  0.00     0.058 A 
ATOM     39  C   UNL A   1      35.309  32.990  31.415  1.00  0.00     0.135 A 
ATOM     40  C   UNL A   1      36.942  34.067  30.019  1.00  0.00     0.135 A 
ATOM     41  F   UNL A   1      34.978  32.179  32.433  1.00  0.00    -0.206 F 
ATOM     42  C   UNL A   1      34.280  33.598  30.703  1.00  0.00     0.059 A 
ATOM     43  C   UNL A   1      35.929  34.710  29.311  1.00  0.00     0.059 A 
ATOM     44  F   UNL A   1      38.214  34.325  29.677  1.00  0.00    -0.206 F 
ATOM     45  C   UNL A   1      34.600  34.464  29.658  1.00  0.00     0.060 A 
BRANCH  45  46
ATOM     46  S   UNL A   1      33.258  35.314  28.801  1.00  0.00     0.124 S 
ATOM     47  O   UNL A   1      33.984  36.266  27.968  1.00  0.00    -0.237 OA
ATOM     48  O   UNL A   1      32.603  34.217  28.095  1.00  0.00    -0.237 OA
ATOM     49  O   UNL A   1      32.478  35.897  29.890  1.00  0.00    -0.744 OA
ENDBRANCH  45  46
ENDBRANCH  24  38
BRANCH  25  50
ATOM     50  C   UNL A   1      44.145  28.503  35.767  1.00  0.00     0.058 A 
ATOM     51  C   UNL A   1      45.478  28.803  35.440  1.00  0.00     0.135 A 
ATOM     52  C   UNL A   1      43.912  27.436  36.645  1.00  0.00     0.135 A 
ATOM     53  F   UNL A   1      45.752  29.809  34.594  1.00  0.00    -0.206 F 
ATOM     54  C   UNL A   1      46.534  28.036  35.914  1.00  0.00     0.059 A 
ATOM     55  C   UNL A   1      44.955  26.668  37.155  1.00  0.00     0.059 A 
ATOM     56  F   UNL A   1      42.655  27.120  36.996  1.00  0.00    -0.206 F 
ATOM     57  C   UNL A   1      46.261  26.960  36.759  1.00  0.00     0.060 A 
BRANCH  57  58
ATOM     58  S   UNL A   1      47.639  25.923  37.295  1.00  0.00     0.124 S 
ATOM     59  O   UNL A   1      48.192  25.489  36.017  1.00  0.00    -0.237 OA
ATOM     60  O   UNL A   1      48.452  26.868  38.054  1.00  0.00    -0.237 OA
ATOM     61  O   UNL A   1      46.991  24.881  38.085  1.00  0.00    -0.744 OA
ENDBRANCH  57  58
ENDBRANCH  25  50
BRANCH  37  62
ATOM     62  C   UNL A   1      40.061  33.979  37.385  1.00  0.00     0.058 A 
ATOM     63  C   UNL A   1      39.177  33.693  38.439  1.00  0.00     0.135 A 
ATOM     64  C   UNL A   1      40.727  35.215  37.403  1.00  0.00     0.135 A 
ATOM     65  F   UNL A   1      38.516  32.526  38.469  1.00  0.00    -0.206 F 
ATOM     66  C   UNL A   1      38.918  34.620  39.442  1.00  0.00     0.059 A 
ATOM     67  C   UNL A   1      40.500  36.148  38.411  1.00  0.00     0.059 A 
ATOM     68  F   UNL A   1      41.593  35.528  36.426  1.00  0.00    -0.206 F 
ATOM     69  C   UNL A   1      39.572  35.852  39.409  1.00  0.00     0.060 A 
BRANCH  69  70
ATOM     70  S   UNL A   1      39.168  37.069  40.680  1.00  0.00     0.124 S 
ATOM     71  O   UNL A   1      38.563  36.234  41.713  1.00  0.00    -0.237 OA
ATOM     72  O   UNL A   1      40.480  37.625  41.001  1.00  0.00    -0.237 OA
ATOM     73  O   UNL A   1      38.257  37.984  40.000  1.00  0.00    -0.744 OA
ENDBRANCH  69  70
ENDBRANCH  37  62
ENDBRANCH  11  12
ENDBRANCH   4   6
ENDBRANCH   1   2
BRANCH   1  74
ATOM     74  C   UNL A   1      40.567  22.191  27.187  1.00  0.00     0.042 C 
BRANCH  74  75
ATOM     75  C   UNL A   1      39.219  22.751  26.735  1.00  0.00     0.117 C 
BRANCH  75  76
ATOM     76  N   UNL A   1      38.720  22.066  25.563  1.00  0.00    -0.354 N 
ATOM     77  C   UNL A   1      37.460  21.765  25.160  1.00  0.00     0.249 C 
ATOM     78  H   UNL A   1      39.423  21.765  24.944  1.00  0.00     0.163 HD
ATOM     79  O   UNL A   1      37.396  20.966  24.224  1.00  0.00    -0.272 OA
BRANCH  77  80
ATOM     80  C   UNL A   1      36.213  22.421  25.796  1.00  0.00     0.211 C 
ATOM     81  C   UNL A   1      35.485  23.281  24.763  1.00  0.00     0.085 C 
ATOM     82  O   UNL A   1      35.293  21.453  26.298  1.00  0.00    -0.357 OA
ATOM     83  C   UNL A   1      34.059  22.728  24.642  1.00  0.00     0.123 C 
ATOM     84  C   UNL A   1      34.116  21.406  25.469  1.00  0.00     0.186 C 
BRANCH  83  85
ATOM     85  C   UNL A   1      32.993  23.775  25.021  1.00  0.00    -0.013 A 
ATOM     86  C   UNL A   1      31.655  23.545  24.618  1.00  0.00     0.010 A 
ATOM     87  C   UNL A   1      33.229  24.897  25.836  1.00  0.00     0.010 A 
ATOM     88  C   UNL A   1      30.606  24.369  25.040  1.00  0.00     0.039 A 
ATOM     89  C   UNL A   1      32.177  25.719  26.263  1.00  0.00     0.039 A 
ATOM     90  C   UNL A   1      30.876  25.442  25.870  1.00  0.00     0.123 A 
ATOM     91  F   UNL A   1      29.873  26.212  26.311  1.00  0.00    -0.207 F 
ENDBRANCH  83  85
BRANCH  83  92
ATOM     92  O   UNL A   1      33.796  22.486  23.248  1.00  0.00    -0.382 OA
ATOM     93  H   UNL A   1      34.413  23.004  22.707  1.00  0.00     0.212 HD
ENDBRANCH  83  92
BRANCH  84  94
ATOM     94  C   UNL A   1      34.089  20.057  24.763  1.00  0.00    -0.016 A 
ATOM     95  C   UNL A   1      35.145  19.137  24.849  1.00  0.00     0.009 A 
ATOM     96  C   UNL A   1      32.924  19.657  24.081  1.00  0.00     0.009 A 
ATOM     97  C   UNL A   1      35.018  17.838  24.354  1.00  0.00     0.039 A 
ATOM     98  C   UNL A   1      32.808  18.370  23.551  1.00  0.00     0.039 A 
ATOM     99  C   UNL A   1      33.847  17.465  23.714  1.00  0.00     0.123 A 
ATOM    100  F   UNL A   1      33.716  16.214  23.254  1.00  0.00    -0.207 F 
ENDBRANCH  84  94
ENDBRANCH  77  80
ENDBRANCH  75  76
ENDBRANCH  74  75
ENDBRANCH   1  74
TORSDOF 16
ENDMDL
MODEL 3
REMARK VINA RESULT:     -13.1      6.485     12.241
REMARK SMILES O=C(NCCCNC(=O)[C@H]1C[C@](O)(c2ccc(F)cc2)[C@@H](c2ccc(F)cc2)O1)c1ccc(-c2c3nc(c(-c4c(F)cc(S(=O)(=O)[O-])cc4F)c4ccc([nH]4)c(-c4c(F)cc(S(=O)(=O)[O-])cc4F)c4nc(c(-c5c(F)cc(S(=O)(=O)[O-])cc5F)c5ccc2[nH]5)C=C4)C=C3)cc1
REMARK SMILES IDX 4 1 3 2 1 3 2 4 30 6 31 7 95 8 32 9 94 10 33 11 34 12 35 13
REMARK SMILES IDX 88 14 36 15 93 16 87 17 89 18 37 19 92 20 86 21 85 22 38 24
REMARK SMILES IDX 72 25 51 26 71 27 52 28 55 29 70 30 90 31 53 32 54 33 69 35
REMARK SMILES IDX 91 36 56 37 39 38 40 39 49 40 41 41 42 42 48 43 50 44 43 45
REMARK SMILES IDX 44 46 45 47 46 48 47 49 73 50 74 51 83 52 75 53 76 54 82 55
REMARK SMILES IDX 84 56 77 57 78 58 79 59 80 60 81 61 57 62 58 63 67 64 59 65
REMARK SMILES IDX 60 66 66 67 68 68 61 69 62 70 63 71 64 72 65 73 5 74 6 75
REMARK SMILES IDX 7 76 8 77 9 79 10 80 11 81 29 82 12 83 21 84 14 85 15 86
REMARK SMILES IDX 20 87 16 88 19 89 17 90 18 91 13 92 22 94 23 95 28 96 24 97
REMARK SMILES IDX 27 98 25 99 26 100
REMARK H PARENT 3 5 89 23 55 34 7 78 13 93
REMARK Flexibility Score: inf
ROOT
ATOM      1  C   UNL A   1      41.704  22.899  27.473  1.00  0.00     0.118 C 
ENDROOT
BRANCH   1   2
ATOM      2  N   UNL A   1      42.043  23.710  26.312  1.00  0.00    -0.352 N 
ATOM      3  O   UNL A   1      42.182  25.527  25.000  1.00  0.00    -0.269 OA
ATOM      4  C   UNL A   1      42.011  25.069  26.132  1.00  0.00     0.251 C 
ATOM      5  H   UNL A   1      42.343  23.198  25.526  1.00  0.00     0.163 HD
BRANCH   4   6
ATOM      6  C   UNL A   1      41.751  25.982  27.263  1.00  0.00     0.039 A 
ATOM      7  C   UNL A   1      40.665  25.789  28.121  1.00  0.00     0.014 A 
ATOM      8  C   UNL A   1      42.652  27.024  27.501  1.00  0.00     0.014 A 
ATOM      9  C   UNL A   1      40.410  26.707  29.140  1.00  0.00     0.010 A 
ATOM     10  C   UNL A   1      42.433  27.904  28.563  1.00  0.00     0.010 A 
ATOM     11  C   UNL A   1      41.295  27.769  29.375  1.00  0.00    -0.014 A 
BRANCH  11  12
ATOM     12  C   UNL A   1      41.065  28.719  30.494  1.00  0.00     0.031 A 
ATOM     13  C   UNL A   1      41.877  28.623  31.755  1.00  0.00     0.074 A 
ATOM     14  C   UNL A   1      40.092  29.643  30.387  1.00  0.00     0.049 A 
ATOM     15  N   UNL A   1      41.750  29.293  32.871  1.00  0.00    -0.248 NA
ATOM     16  C   UNL A   1      42.970  27.638  31.766  1.00  0.00     0.031 C 
ATOM     17  C   UNL A   1      39.246  29.838  29.208  1.00  0.00     0.029 A 
ATOM     18  N   UNL A   1      39.639  30.580  31.281  1.00  0.00    -0.354 N 
ATOM     19  C   UNL A   1      42.726  28.797  33.727  1.00  0.00     0.074 A 
ATOM     20  C   UNL A   1      43.424  27.753  33.006  1.00  0.00     0.031 C 
ATOM     21  C   UNL A   1      38.385  30.838  29.447  1.00  0.00     0.029 A 
ATOM     22  C   UNL A   1      38.573  31.312  30.815  1.00  0.00     0.049 A 
ATOM     23  H   UNL A   1      40.039  30.715  32.170  1.00  0.00     0.167 HD
ATOM     24  C   UNL A   1      43.013  29.182  34.993  1.00  0.00     0.037 A 
ATOM     25  C   UNL A   1      37.805  32.236  31.426  1.00  0.00     0.037 A 
ATOM     26  C   UNL A   1      42.311  30.228  35.693  1.00  0.00     0.049 A 
ATOM     27  C   UNL A   1      38.101  32.611  32.850  1.00  0.00     0.074 A 
ATOM     28  C   UNL A   1      42.553  30.721  36.963  1.00  0.00     0.029 A 
ATOM     29  N   UNL A   1      41.223  30.930  35.192  1.00  0.00    -0.354 N 
ATOM     30  N   UNL A   1      39.046  32.156  33.637  1.00  0.00    -0.248 NA
ATOM     31  C   UNL A   1      37.229  33.616  33.475  1.00  0.00     0.031 C 
ATOM     32  C   UNL A   1      41.575  31.675  37.254  1.00  0.00     0.029 A 
ATOM     33  C   UNL A   1      40.761  31.827  36.141  1.00  0.00     0.049 A 
ATOM     34  H   UNL A   1      40.836  30.808  34.296  1.00  0.00     0.167 HD
ATOM     35  C   UNL A   1      38.900  32.834  34.841  1.00  0.00     0.074 A 
ATOM     36  C   UNL A   1      37.772  33.730  34.682  1.00  0.00     0.031 C 
ATOM     37  C   UNL A   1      39.641  32.723  35.971  1.00  0.00     0.037 A 
BRANCH  24  38
ATOM     38  C   UNL A   1      44.109  28.450  35.721  1.00  0.00     0.058 A 
ATOM     39  C   UNL A   1      43.805  27.353  36.544  1.00  0.00     0.135 A 
ATOM     40  C   UNL A   1      45.454  28.847  35.635  1.00  0.00     0.135 A 
ATOM     41  F   UNL A   1      42.537  26.928  36.666  1.00  0.00    -0.206 F 
ATOM     42  C   UNL A   1      44.792  26.675  37.253  1.00  0.00     0.059 A 
ATOM     43  C   UNL A   1      46.462  28.165  36.312  1.00  0.00     0.059 A 
ATOM     44  F   UNL A   1      45.805  29.880  34.852  1.00  0.00    -0.206 F 
ATOM     45  C   UNL A   1      46.120  27.082  37.122  1.00  0.00     0.060 A 
BRANCH  45  46
ATOM     46  S   UNL A   1      47.399  26.138  37.977  1.00  0.00     0.124 S 
ATOM     47  O   UNL A   1      46.711  25.732  39.198  1.00  0.00    -0.237 OA
ATOM     48  O   UNL A   1      47.684  25.073  37.020  1.00  0.00    -0.237 OA
ATOM     49  O   UNL A   1      48.475  27.110  38.154  1.00  0.00    -0.744 OA
ENDBRANCH  45  46
ENDBRANCH  24  38
BRANCH  25  50
ATOM     50  C   UNL A   1      36.694  32.859  30.662  1.00  0.00     0.058 A 
ATOM     51  C   UNL A   1      36.939  33.865  29.714  1.00  0.00     0.135 A 
ATOM     52  C   UNL A   1      35.359  32.548  30.955  1.00  0.00     0.135 A 
ATOM     53  F   UNL A   1      38.201  34.207  29.407  1.00  0.00    -0.206 F 
ATOM     54  C   UNL A   1      35.903  34.580  29.126  1.00  0.00     0.059 A 
ATOM     55  C   UNL A   1      34.302  33.232  30.360  1.00  0.00     0.059 A 
ATOM     56  F   UNL A   1      35.075  31.584  31.845  1.00  0.00    -0.206 F 
ATOM     57  C   UNL A   1      34.587  34.266  29.468  1.00  0.00     0.060 A 
BRANCH  57  58
ATOM     58  S   UNL A   1      33.259  35.263  28.759  1.00  0.00     0.124 S 
ATOM     59  O   UNL A   1      34.012  36.257  28.003  1.00  0.00    -0.237 OA
ATOM     60  O   UNL A   1      32.529  34.279  27.968  1.00  0.00    -0.237 OA
ATOM     61  O   UNL A   1      32.553  35.770  29.933  1.00  0.00    -0.744 OA
ENDBRANCH  57  58
ENDBRANCH  25  50
BRANCH  37  62
ATOM     62  C   UNL A   1      39.297  33.605  37.139  1.00  0.00     0.058 A 
ATOM     63  C   UNL A   1      39.897  34.869  37.267  1.00  0.00     0.135 A 
ATOM     64  C   UNL A   1      38.506  33.143  38.203  1.00  0.00     0.135 A 
ATOM     65  F   UNL A   1      40.663  35.357  36.279  1.00  0.00    -0.206 F 
ATOM     66  C   UNL A   1      39.766  35.622  38.428  1.00  0.00     0.059 A 
ATOM     67  C   UNL A   1      38.342  33.891  39.365  1.00  0.00     0.059 A 
ATOM     68  F   UNL A   1      37.899  31.948  38.122  1.00  0.00    -0.206 F 
ATOM     69  C   UNL A   1      39.001  35.116  39.479  1.00  0.00     0.060 A 
BRANCH  69  70
ATOM     70  S   UNL A   1      38.902  36.075  41.005  1.00  0.00     0.124 S 
ATOM     71  O   UNL A   1      37.804  35.415  41.704  1.00  0.00    -0.237 OA
ATOM     72  O   UNL A   1      40.230  35.877  41.579  1.00  0.00    -0.237 OA
ATOM     73  O   UNL A   1      38.625  37.430  40.539  1.00  0.00    -0.744 OA
ENDBRANCH  69  70
ENDBRANCH  37  62
ENDBRANCH  11  12
ENDBRANCH   4   6
ENDBRANCH   1   2
BRANCH   1  74
ATOM     74  C   UNL A   1      40.436  22.063  27.277  1.00  0.00     0.042 C 
BRANCH  74  75
ATOM     75  C   UNL A   1      39.337  22.742  26.462  1.00  0.00     0.117 C 
BRANCH  75  76
ATOM     76  N   UNL A   1      38.555  21.783  25.713  1.00  0.00    -0.354 N 
ATOM     77  C   UNL A   1      37.220  21.677  25.495  1.00  0.00     0.249 C 
ATOM     78  H   UNL A   1      39.090  21.079  25.281  1.00  0.00     0.163 HD
ATOM     79  O   UNL A   1      36.861  20.606  25.004  1.00  0.00    -0.272 OA
BRANCH  77  80
ATOM     80  C   UNL A   1      36.243  22.838  25.793  1.00  0.00     0.211 C 
ATOM     81  C   UNL A   1      36.147  23.769  24.585  1.00  0.00     0.085 C 
ATOM     82  O   UNL A   1      34.931  22.370  26.101  1.00  0.00    -0.357 OA
ATOM     83  C   UNL A   1      34.675  23.795  24.153  1.00  0.00     0.123 C 
ATOM     84  C   UNL A   1      34.027  22.671  25.020  1.00  0.00     0.186 C 
BRANCH  83  85
ATOM     85  C   UNL A   1      34.069  25.210  24.230  1.00  0.00    -0.013 A 
ATOM     86  C   UNL A   1      34.022  25.852  25.491  1.00  0.00     0.010 A 
ATOM     87  C   UNL A   1      33.652  25.962  23.116  1.00  0.00     0.010 A 
ATOM     88  C   UNL A   1      33.620  27.184  25.626  1.00  0.00     0.039 A 
ATOM     89  C   UNL A   1      33.254  27.300  23.251  1.00  0.00     0.039 A 
ATOM     90  C   UNL A   1      33.251  27.901  24.500  1.00  0.00     0.123 A 
ATOM     91  F   UNL A   1      32.903  29.189  24.615  1.00  0.00    -0.207 F 
ENDBRANCH  83  85
BRANCH  83  92
ATOM     92  O   UNL A   1      34.623  23.494  22.746  1.00  0.00    -0.382 OA
ATOM     93  H   UNL A   1      34.173  22.644  22.614  1.00  0.00     0.212 HD
ENDBRANCH  83  92
BRANCH  84  94
ATOM     94  C   UNL A   1      33.602  21.356  24.380  1.00  0.00    -0.016 A 
ATOM     95  C   UNL A   1      34.008  20.108  24.874  1.00  0.00     0.009 A 
ATOM     96  C   UNL A   1      32.680  21.373  23.315  1.00  0.00     0.009 A 
ATOM     97  C   UNL A   1      33.455  18.921  24.391  1.00  0.00     0.039 A 
ATOM     98  C   UNL A   1      32.153  20.185  22.803  1.00  0.00     0.039 A 
ATOM     99  C   UNL A   1      32.528  18.971  23.363  1.00  0.00     0.123 A 
ATOM    100  F   UNL A   1      31.983  17.835  22.909  1.00  0.00    -0.207 F 
ENDBRANCH  84  94
ENDBRANCH  77  80
ENDBRANCH  75  76
ENDBRANCH  74  75
ENDBRANCH   1  74
TORSDOF 16
ENDMDL
