MODEL 1
REMARK VINA RESULT:     -12.3      0.000      0.000
REMARK SMILES NS(=O)(=O)c1ccc(/N=N/c2ccc(O)c(C(=O)NCCCNC(=O)c3ccc(-c4c5nc(c(-c6c(F)cc(S(=O)(=O)[O-])cc6F)c6ccc([nH]6)c(-c6c(F)cc(S(=O)(=O)[O-])cc6F)c6nc(c(-c7c(F)cc(S(=O)(=O)[O-])cc7F)c7ccc4[nH]7)C=C6)C=C5)cc3)c2)cc1
REMARK SMILES IDX 20 1 19 2 17 3 18 4 16 6 11 7 12 8 92 9 13 10 14 11 10 12
REMARK SMILES IDX 9 13 8 14 5 15 6 16 94 17 7 18 93 19 2 20 3 21 4 22 1 23
REMARK SMILES IDX 15 26 21 28 22 29 23 30 24 31 25 33 26 34 27 35 91 36 28 37
REMARK SMILES IDX 90 38 29 39 30 40 31 41 84 42 32 43 89 44 83 45 85 46 33 47
REMARK SMILES IDX 88 48 82 49 81 50 34 52 68 53 47 54 67 55 48 56 51 57 66 58
REMARK SMILES IDX 86 59 49 60 50 61 65 63 87 64 52 65 35 66 36 67 45 68 37 69
REMARK SMILES IDX 38 70 44 71 46 72 39 73 40 74 41 75 42 76 43 77 69 78 70 79
REMARK SMILES IDX 79 80 71 81 72 82 78 83 80 84 73 85 74 86 75 87 76 88 77 89
REMARK SMILES IDX 53 90 54 91 63 92 55 93 56 94 62 95 64 96 57 97 58 98 59 99
REMARK SMILES IDX 60 100 61 101
REMARK H PARENT 19 5 1 24 1 25 15 27 23 32 85 51 51 62
REMARK Flexibility Score: inf
ROOT
ATOM      1  C   UNL A   1      33.304  29.281  24.921  1.00  0.00     0.118 C 
ENDROOT
BRANCH   1   2
ATOM      2  N   UNL A   1      33.732  28.983  23.558  1.00  0.00    -0.352 N 
ATOM      3  C   UNL A   1      33.482  27.960  22.675  1.00  0.00     0.255 C 
ATOM      4  O   UNL A   1      34.071  27.986  21.589  1.00  0.00    -0.269 OA
ATOM      5  H   UNL A   1      34.336  29.668  23.188  1.00  0.00     0.163 HD
BRANCH   3   6
ATOM      6  C   UNL A   1      32.597  26.795  22.946  1.00  0.00     0.083 A 
ATOM      7  C   UNL A   1      32.225  24.383  23.152  1.00  0.00     0.087 A 
ATOM      8  C   UNL A   1      30.849  24.611  23.254  1.00  0.00     0.034 A 
ATOM      9  C   UNL A   1      33.082  25.497  23.091  1.00  0.00     0.048 A 
ATOM     10  C   UNL A   1      30.347  25.915  23.262  1.00  0.00     0.049 A 
ATOM     11  C   UNL A   1      31.215  26.995  23.096  1.00  0.00     0.128 A 
BRANCH   7  12
ATOM     12  N   UNL A   1      32.705  23.051  23.098  1.00  0.00    -0.151 NA
ATOM     13  N   UNL A   1      31.994  22.302  23.806  1.00  0.00    -0.151 NA
BRANCH  13  14
ATOM     14  C   UNL A   1      32.493  20.995  23.907  1.00  0.00     0.086 A 
ATOM     15  C   UNL A   1      33.232  18.302  24.163  1.00  0.00     0.082 A 
ATOM     16  C   UNL A   1      32.549  18.729  23.020  1.00  0.00     0.024 A 
ATOM     17  C   UNL A   1      33.540  19.206  25.183  1.00  0.00     0.024 A 
ATOM     18  C   UNL A   1      32.185  20.072  22.897  1.00  0.00     0.031 A 
ATOM     19  C   UNL A   1      33.165  20.547  25.052  1.00  0.00     0.031 A 
BRANCH  15  20
ATOM     20  S   UNL A   1      33.648  16.588  24.310  1.00  0.00     0.238 S 
ATOM     21  O   UNL A   1      34.048  16.118  23.003  1.00  0.00    -0.207 OA
ATOM     22  O   UNL A   1      32.624  15.934  25.090  1.00  0.00    -0.207 OA
BRANCH  20  23
ATOM     23  N   UNL A   1      35.027  16.580  25.260  1.00  0.00    -0.225 NA
ATOM     24  H   UNL A   1      35.295  15.616  25.462  1.00  0.00     0.137 HD
ATOM     25  H   UNL A   1      34.840  17.070  26.135  1.00  0.00     0.137 HD
ENDBRANCH  20  23
ENDBRANCH  15  20
ENDBRANCH  13  14
ENDBRANCH   7  12
BRANCH  11  26
ATOM     26  O   UNL A   1      30.631  28.235  23.108  1.00  0.00    -0.507 OA
ATOM     27  H   UNL A   1      30.127  28.508  23.849  1.00  0.00     0.293 HD
ENDBRANCH  11  26
ENDBRANCH   3   6
ENDBRANCH   1   2
BRANCH   1  28
ATOM     28  C   UNL A   1      33.887  28.343  25.972  1.00  0.00     0.042 C 
BRANCH  28  29
ATOM     29  C   UNL A   1      33.406  28.595  27.396  1.00  0.00     0.118 C 
BRANCH  29  30
ATOM     30  N   UNL A   1      33.469  30.002  27.778  1.00  0.00    -0.352 N 
ATOM     31  C   UNL A   1      34.468  30.734  28.379  1.00  0.00     0.251 C 
ATOM     32  H   UNL A   1      32.656  30.517  27.572  1.00  0.00     0.163 HD
ATOM     33  O   UNL A   1      34.212  31.861  28.796  1.00  0.00    -0.269 OA
BRANCH  31  34
ATOM     34  C   UNL A   1      35.829  30.177  28.552  1.00  0.00     0.039 A 
ATOM     35  C   UNL A   1      36.689  30.128  27.450  1.00  0.00     0.014 A 
ATOM     36  C   UNL A   1      36.255  29.678  29.784  1.00  0.00     0.014 A 
ATOM     37  C   UNL A   1      38.003  29.675  27.610  1.00  0.00     0.010 A 
ATOM     38  C   UNL A   1      37.585  29.307  29.962  1.00  0.00     0.010 A 
ATOM     39  C   UNL A   1      38.479  29.318  28.881  1.00  0.00    -0.014 A 
BRANCH  39  40
ATOM     40  C   UNL A   1      39.912  28.999  29.124  1.00  0.00     0.031 A 
ATOM     41  C   UNL A   1      40.869  30.079  29.552  1.00  0.00     0.074 A 
ATOM     42  C   UNL A   1      40.370  27.763  28.837  1.00  0.00     0.049 A 
ATOM     43  N   UNL A   1      42.172  30.034  29.652  1.00  0.00    -0.248 NA
ATOM     44  C   UNL A   1      40.287  31.390  29.884  1.00  0.00     0.031 C 
ATOM     45  C   UNL A   1      39.550  26.645  28.362  1.00  0.00     0.029 A 
ATOM     46  N   UNL A   1      41.642  27.246  28.870  1.00  0.00    -0.354 N 
ATOM     47  C   UNL A   1      42.569  31.312  30.030  1.00  0.00     0.074 A 
ATOM     48  C   UNL A   1      41.370  32.120  30.109  1.00  0.00     0.031 C 
ATOM     49  C   UNL A   1      40.337  25.579  28.148  1.00  0.00     0.029 A 
ATOM     50  C   UNL A   1      41.722  25.946  28.422  1.00  0.00     0.049 A 
ATOM     51  H   UNL A   1      42.423  27.755  29.184  1.00  0.00     0.167 HD
ATOM     52  C   UNL A   1      43.817  31.765  30.296  1.00  0.00     0.037 A 
ATOM     53  C   UNL A   1      42.789  25.149  28.222  1.00  0.00     0.037 A 
ATOM     54  C   UNL A   1      44.999  30.943  30.251  1.00  0.00     0.049 A 
ATOM     55  C   UNL A   1      44.164  25.675  28.530  1.00  0.00     0.074 A 
ATOM     56  C   UNL A   1      46.295  31.284  30.596  1.00  0.00     0.029 A 
ATOM     57  N   UNL A   1      45.033  29.623  29.829  1.00  0.00    -0.354 N 
ATOM     58  N   UNL A   1      44.511  26.863  28.964  1.00  0.00    -0.248 NA
ATOM     59  C   UNL A   1      45.292  24.758  28.321  1.00  0.00     0.031 C 
ATOM     60  C   UNL A   1      47.121  30.187  30.333  1.00  0.00     0.029 A 
ATOM     61  C   UNL A   1      46.332  29.145  29.872  1.00  0.00     0.049 A 
ATOM     62  H   UNL A   1      44.248  29.101  29.540  1.00  0.00     0.167 HD
ATOM     63  C   UNL A   1      45.895  26.831  29.094  1.00  0.00     0.074 A 
ATOM     64  C   UNL A   1      46.320  25.500  28.711  1.00  0.00     0.031 C 
ATOM     65  C   UNL A   1      46.738  27.816  29.488  1.00  0.00     0.037 A 
BRANCH  52  66
ATOM     66  C   UNL A   1      43.979  33.213  30.669  1.00  0.00     0.058 A 
ATOM     67  C   UNL A   1      43.956  33.640  32.005  1.00  0.00     0.135 A 
ATOM     68  C   UNL A   1      44.232  34.177  29.678  1.00  0.00     0.135 A 
ATOM     69  F   UNL A   1      43.705  32.764  32.990  1.00  0.00    -0.206 F 
ATOM     70  C   UNL A   1      44.160  34.973  32.346  1.00  0.00     0.059 A 
ATOM     71  C   UNL A   1      44.465  35.511  29.999  1.00  0.00     0.059 A 
ATOM     72  F   UNL A   1      44.264  33.823  28.383  1.00  0.00    -0.206 F 
ATOM     73  C   UNL A   1      44.417  35.901  31.336  1.00  0.00     0.060 A 
BRANCH  73  74
ATOM     74  S   UNL A   1      44.710  37.621  31.801  1.00  0.00     0.124 S 
ATOM     75  O   UNL A   1      46.150  37.738  31.590  1.00  0.00    -0.237 OA
ATOM     76  O   UNL A   1      43.870  38.347  30.853  1.00  0.00    -0.237 OA
ATOM     77  O   UNL A   1      44.274  37.677  33.193  1.00  0.00    -0.744 OA
ENDBRANCH  73  74
ENDBRANCH  52  66
BRANCH  53  78
ATOM     78  C   UNL A   1      42.602  23.771  27.689  1.00  0.00     0.058 A 
ATOM     79  C   UNL A   1      42.489  23.537  26.311  1.00  0.00     0.135 A 
ATOM     80  C   UNL A   1      42.541  22.662  28.547  1.00  0.00     0.135 A 
ATOM     81  F   UNL A   1      42.532  24.566  25.450  1.00  0.00    -0.206 F 
ATOM     82  C   UNL A   1      42.304  22.255  25.803  1.00  0.00     0.059 A 
ATOM     83  C   UNL A   1      42.384  21.368  28.061  1.00  0.00     0.059 A 
ATOM     84  F   UNL A   1      42.662  22.829  29.874  1.00  0.00    -0.206 F 
ATOM     85  C   UNL A   1      42.256  21.176  26.686  1.00  0.00     0.060 A 
BRANCH  85  86
ATOM     86  S   UNL A   1      42.068  19.510  26.013  1.00  0.00     0.124 S 
ATOM     87  O   UNL A   1      42.560  18.691  27.113  1.00  0.00    -0.237 OA
ATOM     88  O   UNL A   1      40.633  19.442  25.755  1.00  0.00    -0.237 OA
ATOM     89  O   UNL A   1      42.906  19.535  24.818  1.00  0.00    -0.744 OA
ENDBRANCH  85  86
ENDBRANCH  53  78
BRANCH  65  90
ATOM     90  C   UNL A   1      48.205  27.493  29.542  1.00  0.00     0.058 A 
ATOM     91  C   UNL A   1      49.082  27.893  28.522  1.00  0.00     0.135 A 
ATOM     92  C   UNL A   1      48.749  26.830  30.654  1.00  0.00     0.135 A 
ATOM     93  F   UNL A   1      48.611  28.521  27.434  1.00  0.00    -0.206 F 
ATOM     94  C   UNL A   1      50.447  27.636  28.596  1.00  0.00     0.059 A 
ATOM     95  C   UNL A   1      50.115  26.586  30.761  1.00  0.00     0.059 A 
ATOM     96  F   UNL A   1      47.955  26.432  31.660  1.00  0.00    -0.206 F 
ATOM     97  C   UNL A   1      50.955  26.986  29.722  1.00  0.00     0.060 A 
BRANCH  97  98
ATOM     98  S   UNL A   1      52.735  26.702  29.827  1.00  0.00     0.124 S 
ATOM     99  O   UNL A   1      52.836  25.929  31.060  1.00  0.00    -0.237 OA
ATOM    100  O   UNL A   1      53.007  25.969  28.594  1.00  0.00    -0.237 OA
ATOM    101  O   UNL A   1      53.291  28.050  29.884  1.00  0.00    -0.744 OA
ENDBRANCH  97  98
ENDBRANCH  65  90
ENDBRANCH  39  40
ENDBRANCH  31  34
ENDBRANCH  29  30
ENDBRANCH  28  29
ENDBRANCH   1  28
TORSDOF 18
ENDMDL
MODEL 2
REMARK VINA RESULT:     -12.0      2.390      3.216
REMARK SMILES NS(=O)(=O)c1ccc(/N=N/c2ccc(O)c(C(=O)NCCCNC(=O)c3ccc(-c4c5nc(c(-c6c(F)cc(S(=O)(=O)[O-])cc6F)c6ccc([nH]6)c(-c6c(F)cc(S(=O)(=O)[O-])cc6F)c6nc(c(-c7c(F)cc(S(=O)(=O)[O-])cc7F)c7ccc4[nH]7)C=C6)C=C5)cc3)c2)cc1
REMARK SMILES IDX 20 1 19 2 17 3 18 4 16 6 11 7 12 8 92 9 13 10 14 11 10 12
REMARK SMILES IDX 9 13 8 14 5 15 6 16 94 17 7 18 93 19 2 20 3 21 4 22 1 23
REMARK SMILES IDX 15 26 21 28 22 29 23 30 24 31 25 33 26 34 27 35 91 36 28 37
REMARK SMILES IDX 90 38 29 39 30 40 31 41 84 42 32 43 89 44 83 45 85 46 33 47
REMARK SMILES IDX 88 48 82 49 81 50 34 52 68 53 47 54 67 55 48 56 51 57 66 58
REMARK SMILES IDX 86 59 49 60 50 61 65 63 87 64 52 65 35 66 36 67 45 68 37 69
REMARK SMILES IDX 38 70 44 71 46 72 39 73 40 74 41 75 42 76 43 77 69 78 70 79
REMARK SMILES IDX 79 80 71 81 72 82 78 83 80 84 73 85 74 86 75 87 76 88 77 89
REMARK SMILES IDX 53 90 54 91 63 92 55 93 56 94 62 95 64 96 57 97 58 98 59 99
REMARK SMILES IDX 60 100 61 101
REMARK H PARENT 19 5 1 24 1 25 15 27 23 32 85 51 51 62
REMARK Flexibility Score: inf
ROOT
ATOM      1  C   UNL A   1      33.774  28.938  26.375  1.00  0.00     0.118 C 
ENDROOT
BRANCH   1   2
ATOM      2  N   UNL A   1      33.886  29.228  24.949  1.00  0.00    -0.352 N 
ATOM      3  C   UNL A   1      33.137  28.909  23.842  1.00  0.00     0.255 C 
ATOM      4  O   UNL A   1      33.560  29.276  22.741  1.00  0.00    -0.269 OA
ATOM      5  H   UNL A   1      34.676  29.775  24.730  1.00  0.00     0.163 HD
BRANCH   3   6
ATOM      6  C   UNL A   1      31.881  28.110  23.862  1.00  0.00     0.083 A 
ATOM      7  C   UNL A   1      30.702  25.968  23.984  1.00  0.00     0.087 A 
ATOM      8  C   UNL A   1      29.502  26.618  23.681  1.00  0.00     0.034 A 
ATOM      9  C   UNL A   1      31.859  26.749  24.158  1.00  0.00     0.048 A 
ATOM     10  C   UNL A   1      29.471  28.006  23.526  1.00  0.00     0.049 A 
ATOM     11  C   UNL A   1      30.654  28.741  23.603  1.00  0.00     0.128 A 
BRANCH   7  12
ATOM     12  N   UNL A   1      30.717  24.555  24.089  1.00  0.00    -0.151 NA
ATOM     13  N   UNL A   1      31.890  24.123  24.002  1.00  0.00    -0.151 NA
BRANCH  13  14
ATOM     14  C   UNL A   1      31.965  22.723  23.961  1.00  0.00     0.086 A 
ATOM     15  C   UNL A   1      32.387  19.951  23.919  1.00  0.00     0.082 A 
ATOM     16  C   UNL A   1      32.442  20.643  25.132  1.00  0.00     0.024 A 
ATOM     17  C   UNL A   1      32.134  20.633  22.726  1.00  0.00     0.024 A 
ATOM     18  C   UNL A   1      32.229  22.024  25.148  1.00  0.00     0.031 A 
ATOM     19  C   UNL A   1      31.928  22.016  22.752  1.00  0.00     0.031 A 
BRANCH  15  20
ATOM     20  S   UNL A   1      32.698  18.208  23.922  1.00  0.00     0.238 S 
ATOM     21  O   UNL A   1      31.859  17.614  24.937  1.00  0.00    -0.207 OA
ATOM     22  O   UNL A   1      34.126  17.998  23.875  1.00  0.00    -0.207 OA
BRANCH  20  23
ATOM     23  N   UNL A   1      32.105  17.682  22.448  1.00  0.00    -0.225 NA
ATOM     24  H   UNL A   1      32.848  17.720  21.749  1.00  0.00     0.137 HD
ATOM     25  H   UNL A   1      31.335  18.284  22.157  1.00  0.00     0.137 HD
ENDBRANCH  20  23
ENDBRANCH  15  20
ENDBRANCH  13  14
ENDBRANCH   7  12
BRANCH  11  26
ATOM     26  O   UNL A   1      30.526  30.095  23.429  1.00  0.00    -0.507 OA
ATOM     27  H   UNL A   1      30.623  30.469  22.576  1.00  0.00     0.293 HD
ENDBRANCH  11  26
ENDBRANCH   3   6
ENDBRANCH   1   2
BRANCH   1  28
ATOM     28  C   UNL A   1      34.248  30.071  27.277  1.00  0.00     0.042 C 
BRANCH  28  29
ATOM     29  C   UNL A   1      35.510  29.772  28.076  1.00  0.00     0.118 C 
BRANCH  29  30
ATOM     30  N   UNL A   1      35.467  30.308  29.432  1.00  0.00    -0.352 N 
ATOM     31  C   UNL A   1      36.453  30.454  30.381  1.00  0.00     0.251 C 
ATOM     32  H   UNL A   1      34.578  30.618  29.718  1.00  0.00     0.163 HD
ATOM     33  O   UNL A   1      36.134  30.738  31.533  1.00  0.00    -0.269 OA
BRANCH  31  34
ATOM     34  C   UNL A   1      37.879  30.249  30.042  1.00  0.00     0.039 A 
ATOM     35  C   UNL A   1      38.794  30.002  31.072  1.00  0.00     0.014 A 
ATOM     36  C   UNL A   1      38.329  30.328  28.723  1.00  0.00     0.014 A 
ATOM     37  C   UNL A   1      40.132  29.732  30.767  1.00  0.00     0.010 A 
ATOM     38  C   UNL A   1      39.640  29.977  28.413  1.00  0.00     0.010 A 
ATOM     39  C   UNL A   1      40.553  29.659  29.430  1.00  0.00    -0.014 A 
BRANCH  39  40
ATOM     40  C   UNL A   1      41.920  29.205  29.058  1.00  0.00     0.031 A 
ATOM     41  C   UNL A   1      43.041  30.202  28.924  1.00  0.00     0.074 A 
ATOM     42  C   UNL A   1      42.119  27.914  28.722  1.00  0.00     0.049 A 
ATOM     43  N   UNL A   1      44.249  30.026  28.455  1.00  0.00    -0.248 NA
ATOM     44  C   UNL A   1      42.757  31.583  29.347  1.00  0.00     0.031 C 
ATOM     45  C   UNL A   1      41.098  26.864  28.759  1.00  0.00     0.029 A 
ATOM     46  N   UNL A   1      43.237  27.269  28.252  1.00  0.00    -0.354 N 
ATOM     47  C   UNL A   1      44.859  31.275  28.498  1.00  0.00     0.074 A 
ATOM     48  C   UNL A   1      43.877  32.207  29.009  1.00  0.00     0.031 C 
ATOM     49  C   UNL A   1      41.634  25.710  28.330  1.00  0.00     0.029 A 
ATOM     50  C   UNL A   1      43.021  25.945  27.942  1.00  0.00     0.049 A 
ATOM     51  H   UNL A   1      44.109  27.710  28.147  1.00  0.00     0.167 HD
ATOM     52  C   UNL A   1      46.125  31.608  28.154  1.00  0.00     0.037 A 
ATOM     53  C   UNL A   1      43.833  25.030  27.378  1.00  0.00     0.037 A 
ATOM     54  C   UNL A   1      47.106  30.666  27.681  1.00  0.00     0.049 A 
ATOM     55  C   UNL A   1      45.236  25.426  27.008  1.00  0.00     0.074 A 
ATOM     56  C   UNL A   1      48.443  30.888  27.396  1.00  0.00     0.029 A 
ATOM     57  N   UNL A   1      46.860  29.328  27.415  1.00  0.00    -0.354 N 
ATOM     58  N   UNL A   1      45.820  26.593  27.132  1.00  0.00    -0.248 NA
ATOM     59  C   UNL A   1      46.090  24.385  26.422  1.00  0.00     0.031 C 
ATOM     60  C   UNL A   1      48.991  29.697  26.910  1.00  0.00     0.029 A 
ATOM     61  C   UNL A   1      48.009  28.719  26.938  1.00  0.00     0.049 A 
ATOM     62  H   UNL A   1      45.994  28.876  27.546  1.00  0.00     0.167 HD
ATOM     63  C   UNL A   1      47.114  26.424  26.653  1.00  0.00     0.074 A 
ATOM     64  C   UNL A   1      47.234  25.037  26.255  1.00  0.00     0.031 C 
ATOM     65  C   UNL A   1      48.111  27.336  26.546  1.00  0.00     0.037 A 
BRANCH  52  66
ATOM     66  C   UNL A   1      46.535  33.050  28.277  1.00  0.00     0.058 A 
ATOM     67  C   UNL A   1      46.377  33.957  27.218  1.00  0.00     0.135 A 
ATOM     68  C   UNL A   1      47.028  33.547  29.495  1.00  0.00     0.135 A 
ATOM     69  F   UNL A   1      45.925  33.533  26.027  1.00  0.00    -0.206 F 
ATOM     70  C   UNL A   1      46.709  35.301  27.355  1.00  0.00     0.059 A 
ATOM     71  C   UNL A   1      47.341  34.893  29.663  1.00  0.00     0.059 A 
ATOM     72  F   UNL A   1      47.199  32.723  30.541  1.00  0.00    -0.206 F 
ATOM     73  C   UNL A   1      47.187  35.761  28.583  1.00  0.00     0.060 A 
BRANCH  73  74
ATOM     74  S   UNL A   1      47.584  37.514  28.752  1.00  0.00     0.124 S 
ATOM     75  O   UNL A   1      46.271  38.081  29.048  1.00  0.00    -0.237 OA
ATOM     76  O   UNL A   1      48.537  37.513  29.857  1.00  0.00    -0.237 OA
ATOM     77  O   UNL A   1      48.138  37.865  27.448  1.00  0.00    -0.744 OA
ENDBRANCH  73  74
ENDBRANCH  52  66
BRANCH  53  78
ATOM     78  C   UNL A   1      43.335  23.652  27.114  1.00  0.00     0.058 A 
ATOM     79  C   UNL A   1      43.007  23.237  25.815  1.00  0.00     0.135 A 
ATOM     80  C   UNL A   1      43.186  22.722  28.154  1.00  0.00     0.135 A 
ATOM     81  F   UNL A   1      43.124  24.092  24.788  1.00  0.00    -0.206 F 
ATOM     82  C   UNL A   1      42.532  21.954  25.558  1.00  0.00     0.059 A 
ATOM     83  C   UNL A   1      42.739  21.425  27.918  1.00  0.00     0.059 A 
ATOM     84  F   UNL A   1      43.503  23.063  29.414  1.00  0.00    -0.206 F 
ATOM     85  C   UNL A   1      42.404  21.054  26.618  1.00  0.00     0.060 A 
BRANCH  85  86
ATOM     86  S   UNL A   1      41.836  19.376  26.266  1.00  0.00     0.124 S 
ATOM     87  O   UNL A   1      42.547  19.077  25.030  1.00  0.00    -0.237 OA
ATOM     88  O   UNL A   1      42.276  18.647  27.452  1.00  0.00    -0.237 OA
ATOM     89  O   UNL A   1      40.389  19.531  26.143  1.00  0.00    -0.744 OA
ENDBRANCH  85  86
ENDBRANCH  53  78
BRANCH  65  90
ATOM     90  C   UNL A   1      49.426  26.864  25.991  1.00  0.00     0.058 A 
ATOM     91  C   UNL A   1      49.746  27.017  24.634  1.00  0.00     0.135 A 
ATOM     92  C   UNL A   1      50.400  26.310  26.838  1.00  0.00     0.135 A 
ATOM     93  F   UNL A   1      48.845  27.531  23.781  1.00  0.00    -0.206 F 
ATOM     94  C   UNL A   1      50.981  26.624  24.130  1.00  0.00     0.059 A 
ATOM     95  C   UNL A   1      51.653  25.936  26.361  1.00  0.00     0.059 A 
ATOM     96  F   UNL A   1      50.148  26.149  28.146  1.00  0.00    -0.206 F 
ATOM     97  C   UNL A   1      51.931  26.089  25.003  1.00  0.00     0.060 A 
BRANCH  97  98
ATOM     98  S   UNL A   1      53.548  25.628  24.345  1.00  0.00     0.124 S 
ATOM     99  O   UNL A   1      54.436  26.479  25.129  1.00  0.00    -0.237 OA
ATOM    100  O   UNL A   1      53.610  24.200  24.642  1.00  0.00    -0.237 OA
ATOM    101  O   UNL A   1      53.446  25.964  22.928  1.00  0.00    -0.744 OA
ENDBRANCH  97  98
ENDBRANCH  65  90
ENDBRANCH  39  40
ENDBRANCH  31  34
ENDBRANCH  29  30
ENDBRANCH  28  29
ENDBRANCH   1  28
TORSDOF 18
ENDMDL
MODEL 3
REMARK VINA RESULT:     -11.8      5.488     10.936
REMARK SMILES NS(=O)(=O)c1ccc(/N=N/c2ccc(O)c(C(=O)NCCCNC(=O)c3ccc(-c4c5nc(c(-c6c(F)cc(S(=O)(=O)[O-])cc6F)c6ccc([nH]6)c(-c6c(F)cc(S(=O)(=O)[O-])cc6F)c6nc(c(-c7c(F)cc(S(=O)(=O)[O-])cc7F)c7ccc4[nH]7)C=C6)C=C5)cc3)c2)cc1
REMARK SMILES IDX 20 1 19 2 17 3 18 4 16 6 11 7 12 8 92 9 13 10 14 11 10 12
REMARK SMILES IDX 9 13 8 14 5 15 6 16 94 17 7 18 93 19 2 20 3 21 4 22 1 23
REMARK SMILES IDX 15 26 21 28 22 29 23 30 24 31 25 33 26 34 27 35 91 36 28 37
REMARK SMILES IDX 90 38 29 39 30 40 31 41 84 42 32 43 89 44 83 45 85 46 33 47
REMARK SMILES IDX 88 48 82 49 81 50 34 52 68 53 47 54 67 55 48 56 51 57 66 58
REMARK SMILES IDX 86 59 49 60 50 61 65 63 87 64 52 65 35 66 36 67 45 68 37 69
REMARK SMILES IDX 38 70 44 71 46 72 39 73 40 74 41 75 42 76 43 77 69 78 70 79
REMARK SMILES IDX 79 80 71 81 72 82 78 83 80 84 73 85 74 86 75 87 76 88 77 89
REMARK SMILES IDX 53 90 54 91 63 92 55 93 56 94 62 95 64 96 57 97 58 98 59 99
REMARK SMILES IDX 60 100 61 101
REMARK H PARENT 19 5 1 24 1 25 15 27 23 32 85 51 51 62
REMARK Flexibility Score: inf
ROOT
ATOM      1  C   UNL A   1      37.512  23.134  26.076  1.00  0.00     0.118 C 
ENDROOT
BRANCH   1   2
ATOM      2  N   UNL A   1      37.395  23.039  24.624  1.00  0.00    -0.352 N 
ATOM      3  C   UNL A   1      36.360  22.774  23.760  1.00  0.00     0.255 C 
ATOM      4  O   UNL A   1      36.626  22.708  22.555  1.00  0.00    -0.269 OA
ATOM      5  H   UNL A   1      38.249  23.201  24.159  1.00  0.00     0.163 HD
BRANCH   3   6
ATOM      6  C   UNL A   1      34.954  22.506  24.167  1.00  0.00     0.083 A 
ATOM      7  C   UNL A   1      32.605  23.177  24.342  1.00  0.00     0.087 A 
ATOM      8  C   UNL A   1      32.352  22.057  25.140  1.00  0.00     0.034 A 
ATOM      9  C   UNL A   1      33.892  23.328  23.794  1.00  0.00     0.048 A 
ATOM     10  C   UNL A   1      33.367  21.135  25.406  1.00  0.00     0.049 A 
ATOM     11  C   UNL A   1      34.659  21.367  24.934  1.00  0.00     0.128 A 
BRANCH   7  12
ATOM     12  N   UNL A   1      31.572  24.122  24.126  1.00  0.00    -0.151 NA
ATOM     13  N   UNL A   1      31.872  24.889  23.182  1.00  0.00    -0.151 NA
BRANCH  13  14
ATOM     14  C   UNL A   1      30.956  25.935  23.003  1.00  0.00     0.086 A 
ATOM     15  C   UNL A   1      29.283  28.177  22.811  1.00  0.00     0.082 A 
ATOM     16  C   UNL A   1      30.507  28.164  22.135  1.00  0.00     0.024 A 
ATOM     17  C   UNL A   1      28.892  27.084  23.589  1.00  0.00     0.024 A 
ATOM     18  C   UNL A   1      31.335  27.044  22.233  1.00  0.00     0.031 A 
ATOM     19  C   UNL A   1      29.732  25.971  23.685  1.00  0.00     0.031 A 
BRANCH  15  20
ATOM     20  S   UNL A   1      28.269  29.624  22.702  1.00  0.00     0.238 S 
ATOM     21  O   UNL A   1      28.108  29.943  21.301  1.00  0.00    -0.207 OA
ATOM     22  O   UNL A   1      28.741  30.588  23.667  1.00  0.00    -0.207 OA
BRANCH  20  23
ATOM     23  N   UNL A   1      26.770  29.118  23.249  1.00  0.00    -0.225 NA
ATOM     24  H   UNL A   1      26.077  29.247  22.510  1.00  0.00     0.137 HD
ATOM     25  H   UNL A   1      26.502  29.669  24.064  1.00  0.00     0.137 HD
ENDBRANCH  20  23
ENDBRANCH  15  20
ENDBRANCH  13  14
ENDBRANCH   7  12
BRANCH  11  26
ATOM     26  O   UNL A   1      35.591  20.413  25.251  1.00  0.00    -0.507 OA
ATOM     27  H   UNL A   1      36.220  20.142  24.613  1.00  0.00     0.293 HD
ENDBRANCH  11  26
ENDBRANCH   3   6
ENDBRANCH   1   2
BRANCH   1  28
ATOM     28  C   UNL A   1      38.557  24.139  26.548  1.00  0.00     0.042 C 
BRANCH  28  29
ATOM     29  C   UNL A   1      39.914  23.539  26.895  1.00  0.00     0.118 C 
BRANCH  29  30
ATOM     30  N   UNL A   1      40.988  24.024  26.036  1.00  0.00    -0.352 N 
ATOM     31  C   UNL A   1      41.778  25.148  26.118  1.00  0.00     0.251 C 
ATOM     32  H   UNL A   1      41.182  23.448  25.262  1.00  0.00     0.163 HD
ATOM     33  O   UNL A   1      42.480  25.456  25.157  1.00  0.00    -0.269 OA
BRANCH  31  34
ATOM     34  C   UNL A   1      41.775  26.001  27.328  1.00  0.00     0.039 A 
ATOM     35  C   UNL A   1      42.690  27.056  27.420  1.00  0.00     0.014 A 
ATOM     36  C   UNL A   1      40.899  25.753  28.386  1.00  0.00     0.014 A 
ATOM     37  C   UNL A   1      42.653  27.918  28.521  1.00  0.00     0.010 A 
ATOM     38  C   UNL A   1      40.806  26.659  29.440  1.00  0.00     0.010 A 
ATOM     39  C   UNL A   1      41.671  27.761  29.511  1.00  0.00    -0.014 A 
BRANCH  39  40
ATOM     40  C   UNL A   1      41.488  28.754  30.603  1.00  0.00     0.031 A 
ATOM     41  C   UNL A   1      42.294  28.649  31.870  1.00  0.00     0.074 A 
ATOM     42  C   UNL A   1      40.507  29.675  30.499  1.00  0.00     0.049 A 
ATOM     43  N   UNL A   1      42.162  29.313  32.989  1.00  0.00    -0.248 NA
ATOM     44  C   UNL A   1      43.371  27.645  31.891  1.00  0.00     0.031 C 
ATOM     45  C   UNL A   1      39.622  29.842  29.344  1.00  0.00     0.029 A 
ATOM     46  N   UNL A   1      40.066  30.623  31.390  1.00  0.00    -0.354 N 
ATOM     47  C   UNL A   1      43.117  28.791  33.855  1.00  0.00     0.074 A 
ATOM     48  C   UNL A   1      43.799  27.732  33.143  1.00  0.00     0.031 C 
ATOM     49  C   UNL A   1      38.746  30.828  29.596  1.00  0.00     0.029 A 
ATOM     50  C   UNL A   1      38.973  31.332  30.946  1.00  0.00     0.049 A 
ATOM     51  H   UNL A   1      40.490  30.781  32.263  1.00  0.00     0.167 HD
ATOM     52  C   UNL A   1      43.403  29.169  35.123  1.00  0.00     0.037 A 
ATOM     53  C   UNL A   1      38.216  32.259  31.564  1.00  0.00     0.037 A 
ATOM     54  C   UNL A   1      42.743  30.250  35.810  1.00  0.00     0.049 A 
ATOM     55  C   UNL A   1      38.558  32.664  32.971  1.00  0.00     0.074 A 
ATOM     56  C   UNL A   1      43.026  30.772  37.060  1.00  0.00     0.029 A 
ATOM     57  N   UNL A   1      41.667  30.967  35.313  1.00  0.00    -0.354 N 
ATOM     58  N   UNL A   1      39.516  32.216  33.745  1.00  0.00    -0.248 NA
ATOM     59  C   UNL A   1      37.719  33.699  33.591  1.00  0.00     0.031 C 
ATOM     60  C   UNL A   1      42.088  31.770  37.340  1.00  0.00     0.029 A 
ATOM     61  C   UNL A   1      41.251  31.905  36.244  1.00  0.00     0.049 A 
ATOM     62  H   UNL A   1      41.257  30.831  34.427  1.00  0.00     0.167 HD
ATOM     63  C   UNL A   1      39.405  32.922  34.938  1.00  0.00     0.074 A 
ATOM     64  C   UNL A   1      38.298  33.842  34.775  1.00  0.00     0.031 C 
ATOM     65  C   UNL A   1      40.147  32.815  36.066  1.00  0.00     0.037 A 
BRANCH  52  66
ATOM     66  C   UNL A   1      44.481  28.420  35.858  1.00  0.00     0.058 A 
ATOM     67  C   UNL A   1      44.190  27.308  36.662  1.00  0.00     0.135 A 
ATOM     68  C   UNL A   1      45.830  28.778  35.699  1.00  0.00     0.135 A 
ATOM     69  F   UNL A   1      42.917  26.931  36.861  1.00  0.00    -0.206 F 
ATOM     70  C   UNL A   1      45.196  26.587  37.298  1.00  0.00     0.059 A 
ATOM     71  C   UNL A   1      46.855  28.055  36.304  1.00  0.00     0.059 A 
ATOM     72  F   UNL A   1      46.164  29.835  34.941  1.00  0.00    -0.206 F 
ATOM     73  C   UNL A   1      46.526  26.966  37.110  1.00  0.00     0.060 A 
BRANCH  73  74
ATOM     74  S   UNL A   1      47.820  26.000  37.918  1.00  0.00     0.124 S 
ATOM     75  O   UNL A   1      48.824  27.027  38.186  1.00  0.00    -0.237 OA
ATOM     76  O   UNL A   1      47.128  25.470  39.088  1.00  0.00    -0.237 OA
ATOM     77  O   UNL A   1      48.189  25.013  36.908  1.00  0.00    -0.744 OA
ENDBRANCH  73  74
ENDBRANCH  52  66
BRANCH  53  78
ATOM     78  C   UNL A   1      37.048  32.859  30.861  1.00  0.00     0.058 A 
ATOM     79  C   UNL A   1      35.747  32.386  31.085  1.00  0.00     0.135 A 
ATOM     80  C   UNL A   1      37.211  33.921  29.958  1.00  0.00     0.135 A 
ATOM     81  F   UNL A   1      35.540  31.367  31.932  1.00  0.00    -0.206 F 
ATOM     82  C   UNL A   1      34.650  32.933  30.426  1.00  0.00     0.059 A 
ATOM     83  C   UNL A   1      36.126  34.502  29.308  1.00  0.00     0.059 A 
ATOM     84  F   UNL A   1      38.434  34.423  29.721  1.00  0.00    -0.206 F 
ATOM     85  C   UNL A   1      34.850  33.994  29.541  1.00  0.00     0.060 A 
BRANCH  85  86
ATOM     86  S   UNL A   1      33.414  34.730  28.730  1.00  0.00     0.124 S 
ATOM     87  O   UNL A   1      34.002  35.905  28.099  1.00  0.00    -0.237 OA
ATOM     88  O   UNL A   1      32.988  33.664  27.828  1.00  0.00    -0.237 OA
ATOM     89  O   UNL A   1      32.502  34.996  29.839  1.00  0.00    -0.744 OA
ENDBRANCH  85  86
ENDBRANCH  53  78
BRANCH  65  90
ATOM     90  C   UNL A   1      39.801  33.723  37.213  1.00  0.00     0.058 A 
ATOM     91  C   UNL A   1      38.854  33.354  38.180  1.00  0.00     0.135 A 
ATOM     92  C   UNL A   1      40.469  34.947  37.380  1.00  0.00     0.135 A 
ATOM     93  F   UNL A   1      38.181  32.199  38.060  1.00  0.00    -0.206 F 
ATOM     94  C   UNL A   1      38.569  34.173  39.267  1.00  0.00     0.059 A 
ATOM     95  C   UNL A   1      40.220  35.769  38.474  1.00  0.00     0.059 A 
ATOM     96  F   UNL A   1      41.389  35.343  36.488  1.00  0.00    -0.206 F 
ATOM     97  C   UNL A   1      39.261  35.378  39.409  1.00  0.00     0.060 A 
BRANCH  97  98
ATOM     98  S   UNL A   1      38.917  36.409  40.850  1.00  0.00     0.124 S 
ATOM     99  O   UNL A   1      40.233  36.488  41.475  1.00  0.00    -0.237 OA
ATOM    100  O   UNL A   1      38.426  37.642  40.242  1.00  0.00    -0.237 OA
ATOM    101  O   UNL A   1      37.918  35.640  41.587  1.00  0.00    -0.744 OA
ENDBRANCH  97  98
ENDBRANCH  65  90
ENDBRANCH  39  40
ENDBRANCH  31  34
ENDBRANCH  29  30
ENDBRANCH  28  29
ENDBRANCH   1  28
TORSDOF 18
ENDMDL
