MODEL 1
REMARK VINA RESULT:     -10.9      0.000      0.000
REMARK SMILES CC(C)C[C@@H]([NH3+])C(=O)N1CC[C@H](C(=O)NCCCNC(=O)c2ccc(-c3c4nc(c(-c5c(F)cc(S(=O)(=O)[O-])cc5F)c5ccc([nH]5)c(-c5c(F)cc(S(=O)(=O)[O-])cc5F)c5nc(c(-c6c(F)cc(S(=O)(=O)[O-])cc6F)c6ccc3[nH]6)C=C5)C=C4)cc2)[C@@H]1C
REMARK SMILES IDX 16 1 15 2 13 3 14 4 12 6 9 7 10 8 88 9 11 10 89 11 7 12 8 13
REMARK SMILES IDX 5 14 4 15 2 16 1 17 3 18 6 19 17 23 18 24 19 25 20 26 21 28
REMARK SMILES IDX 22 29 23 30 87 31 24 32 86 33 25 34 26 35 27 36 80 37 28 38
REMARK SMILES IDX 85 39 79 40 81 41 29 42 84 43 78 44 77 45 30 47 64 48 43 49
REMARK SMILES IDX 63 50 44 51 47 52 62 53 82 54 45 55 46 56 61 58 83 59 48 60
REMARK SMILES IDX 31 61 32 62 41 63 33 64 34 65 40 66 42 67 35 68 36 69 37 70
REMARK SMILES IDX 38 71 39 72 65 73 66 74 75 75 67 76 68 77 74 78 76 79 69 80
REMARK SMILES IDX 70 81 71 82 72 83 73 84 49 85 50 86 59 87 51 88 52 89 58 90
REMARK SMILES IDX 60 91 53 92 54 93 55 94 56 95 57 96
REMARK H PARENT 15 5 6 20 6 21 6 22 19 27 81 46 47 57
REMARK Flexibility Score: inf
ROOT
ATOM      1  C   UNL A   1      31.799  30.817  26.195  1.00  0.00     0.117 C 
ENDROOT
BRANCH   1   2
ATOM      2  N   UNL A   1      30.988  30.678  24.996  1.00  0.00    -0.356 N 
ATOM      3  C   UNL A   1      30.781  29.586  24.202  1.00  0.00     0.225 C 
ATOM      4  O   UNL A   1      29.999  29.713  23.264  1.00  0.00    -0.275 OA
ATOM      5  H   UNL A   1      30.517  31.495  24.714  1.00  0.00     0.163 HD
BRANCH   3   6
ATOM      6  C   UNL A   1      31.478  28.282  24.577  1.00  0.00     0.102 C 
ATOM      7  N   UNL A   1      32.335  26.732  22.955  1.00  0.00    -0.334 N 
ATOM      8  C   UNL A   1      30.891  26.642  22.937  1.00  0.00     0.121 C 
ATOM      9  C   UNL A   1      32.754  27.849  23.809  1.00  0.00     0.094 C 
ATOM     10  C   UNL A   1      30.502  27.124  24.325  1.00  0.00     0.037 C 
ATOM     11  C   UNL A   1      33.437  28.951  23.000  1.00  0.00     0.032 C 
BRANCH   7  12
ATOM     12  C   UNL A   1      33.076  25.758  22.321  1.00  0.00     0.280 C 
ATOM     13  O   UNL A   1      33.506  25.957  21.175  1.00  0.00    -0.268 OA
BRANCH  12  14
ATOM     14  C   UNL A   1      33.171  24.307  22.888  1.00  0.00     0.271 C 
BRANCH  14  15
ATOM     15  C   UNL A   1      32.791  24.063  24.351  1.00  0.00     0.078 C 
BRANCH  15  16
ATOM     16  C   UNL A   1      33.960  24.039  25.362  1.00  0.00    -0.011 C 
ATOM     17  C   UNL A   1      34.421  25.439  25.760  1.00  0.00     0.007 C 
ATOM     18  C   UNL A   1      33.541  23.252  26.607  1.00  0.00     0.007 C 
ENDBRANCH  15  16
ENDBRANCH  14  15
BRANCH  14  19
ATOM     19  N   UNL A   1      32.422  23.418  21.969  1.00  0.00    -0.347 N 
ATOM     20  H   UNL A   1      31.439  23.691  21.957  1.00  0.00     0.345 HD
ATOM     21  H   UNL A   1      32.503  22.452  22.289  1.00  0.00     0.345 HD
ATOM     22  H   UNL A   1      32.809  23.498  21.029  1.00  0.00     0.345 HD
ENDBRANCH  14  19
ENDBRANCH  12  14
ENDBRANCH   7  12
ENDBRANCH   3   6
ENDBRANCH   1   2
BRANCH   1  23
ATOM     23  C   UNL A   1      31.551  32.137  26.911  1.00  0.00     0.042 C 
BRANCH  23  24
ATOM     24  C   UNL A   1      32.812  32.806  27.445  1.00  0.00     0.118 C 
BRANCH  24  25
ATOM     25  N   UNL A   1      32.608  34.206  27.796  1.00  0.00    -0.352 N 
ATOM     26  C   UNL A   1      33.181  34.961  28.790  1.00  0.00     0.251 C 
ATOM     27  H   UNL A   1      31.959  34.685  27.234  1.00  0.00     0.163 HD
ATOM     28  O   UNL A   1      32.742  36.086  29.021  1.00  0.00    -0.269 OA
BRANCH  26  29
ATOM     29  C   UNL A   1      34.297  34.420  29.595  1.00  0.00     0.039 A 
ATOM     30  C   UNL A   1      34.009  33.788  30.807  1.00  0.00     0.014 A 
ATOM     31  C   UNL A   1      35.621  34.537  29.165  1.00  0.00     0.014 A 
ATOM     32  C   UNL A   1      35.041  33.211  31.550  1.00  0.00     0.010 A 
ATOM     33  C   UNL A   1      36.637  33.890  29.862  1.00  0.00     0.010 A 
ATOM     34  C   UNL A   1      36.358  33.220  31.063  1.00  0.00    -0.014 A 
BRANCH  34  35
ATOM     35  C   UNL A   1      37.454  32.523  31.788  1.00  0.00     0.031 A 
ATOM     36  C   UNL A   1      37.959  33.059  33.100  1.00  0.00     0.074 A 
ATOM     37  C   UNL A   1      38.043  31.450  31.225  1.00  0.00     0.049 A 
ATOM     38  N   UNL A   1      38.948  32.630  33.841  1.00  0.00    -0.248 NA
ATOM     39  C   UNL A   1      37.281  34.251  33.635  1.00  0.00     0.031 C 
ATOM     40  C   UNL A   1      37.683  30.870  29.928  1.00  0.00     0.029 A 
ATOM     41  N   UNL A   1      39.081  30.664  31.660  1.00  0.00    -0.354 N 
ATOM     42  C   UNL A   1      39.024  33.507  34.916  1.00  0.00     0.074 A 
ATOM     43  C   UNL A   1      38.015  34.522  34.705  1.00  0.00     0.031 C 
ATOM     44  C   UNL A   1      38.475  29.814  29.683  1.00  0.00     0.029 A 
ATOM     45  C   UNL A   1      39.426  29.665  30.779  1.00  0.00     0.049 A 
ATOM     46  H   UNL A   1      39.536  30.802  32.523  1.00  0.00     0.167 HD
ATOM     47  C   UNL A   1      39.846  33.459  35.993  1.00  0.00     0.037 A 
ATOM     48  C   UNL A   1      40.407  28.743  30.838  1.00  0.00     0.037 A 
ATOM     49  C   UNL A   1      40.835  32.432  36.204  1.00  0.00     0.049 A 
ATOM     50  C   UNL A   1      41.304  28.704  32.044  1.00  0.00     0.074 A 
ATOM     51  C   UNL A   1      41.666  32.251  37.296  1.00  0.00     0.029 A 
ATOM     52  N   UNL A   1      41.135  31.420  35.303  1.00  0.00    -0.354 N 
ATOM     53  N   UNL A   1      41.307  29.491  33.094  1.00  0.00    -0.248 NA
ATOM     54  C   UNL A   1      42.327  27.649  32.080  1.00  0.00     0.031 C 
ATOM     55  C   UNL A   1      42.508  31.167  37.031  1.00  0.00     0.029 A 
ATOM     56  C   UNL A   1      42.159  30.631  35.800  1.00  0.00     0.049 A 
ATOM     57  H   UNL A   1      40.686  31.283  34.438  1.00  0.00     0.167 HD
ATOM     58  C   UNL A   1      42.314  29.012  33.926  1.00  0.00     0.074 A 
ATOM     59  C   UNL A   1      42.888  27.858  33.264  1.00  0.00     0.031 C 
ATOM     60  C   UNL A   1      42.723  29.484  35.130  1.00  0.00     0.037 A 
BRANCH  47  61
ATOM     61  C   UNL A   1      39.718  34.551  37.020  1.00  0.00     0.058 A 
ATOM     62  C   UNL A   1      38.855  34.436  38.123  1.00  0.00     0.135 A 
ATOM     63  C   UNL A   1      40.489  35.721  36.916  1.00  0.00     0.135 A 
ATOM     64  F   UNL A   1      38.083  33.347  38.267  1.00  0.00    -0.206 F 
ATOM     65  C   UNL A   1      38.732  35.455  39.062  1.00  0.00     0.059 A 
ATOM     66  C   UNL A   1      40.407  36.739  37.862  1.00  0.00     0.059 A 
ATOM     67  F   UNL A   1      41.334  35.885  35.885  1.00  0.00    -0.206 F 
ATOM     68  C   UNL A   1      39.512  36.605  38.922  1.00  0.00     0.060 A 
BRANCH  68  69
ATOM     69  S   UNL A   1      39.335  37.919  40.145  1.00  0.00     0.124 S 
ATOM     70  O   UNL A   1      40.607  38.621  40.004  1.00  0.00    -0.237 OA
ATOM     71  O   UNL A   1      38.160  38.638  39.663  1.00  0.00    -0.237 OA
ATOM     72  O   UNL A   1      39.154  37.195  41.400  1.00  0.00    -0.744 OA
ENDBRANCH  68  69
ENDBRANCH  47  61
BRANCH  48  73
ATOM     73  C   UNL A   1      40.579  27.778  29.719  1.00  0.00     0.058 A 
ATOM     74  C   UNL A   1      39.697  26.701  29.546  1.00  0.00     0.135 A 
ATOM     75  C   UNL A   1      41.613  27.932  28.781  1.00  0.00     0.135 A 
ATOM     76  F   UNL A   1      38.697  26.507  30.419  1.00  0.00    -0.206 F 
ATOM     77  C   UNL A   1      39.838  25.805  28.491  1.00  0.00     0.059 A 
ATOM     78  C   UNL A   1      41.758  27.065  27.702  1.00  0.00     0.059 A 
ATOM     79  F   UNL A   1      42.473  28.956  28.891  1.00  0.00    -0.206 F 
ATOM     80  C   UNL A   1      40.870  26.000  27.570  1.00  0.00     0.060 A 
BRANCH  80  81
ATOM     81  S   UNL A   1      41.005  24.869  26.168  1.00  0.00     0.124 S 
ATOM     82  O   UNL A   1      41.235  25.794  25.065  1.00  0.00    -0.237 OA
ATOM     83  O   UNL A   1      42.142  24.039  26.555  1.00  0.00    -0.237 OA
ATOM     84  O   UNL A   1      39.715  24.187  26.162  1.00  0.00    -0.744 OA
ENDBRANCH  80  81
ENDBRANCH  48  73
BRANCH  60  85
ATOM     85  C   UNL A   1      43.827  28.738  35.830  1.00  0.00     0.058 A 
ATOM     86  C   UNL A   1      43.563  27.649  36.677  1.00  0.00     0.135 A 
ATOM     87  C   UNL A   1      45.171  29.082  35.606  1.00  0.00     0.135 A 
ATOM     88  F   UNL A   1      42.297  27.283  36.932  1.00  0.00    -0.206 F 
ATOM     89  C   UNL A   1      44.591  26.943  37.295  1.00  0.00     0.059 A 
ATOM     90  C   UNL A   1      46.214  28.370  36.188  1.00  0.00     0.059 A 
ATOM     91  F   UNL A   1      45.480  30.107  34.798  1.00  0.00    -0.206 F 
ATOM     92  C   UNL A   1      45.914  27.310  37.041  1.00  0.00     0.060 A 
BRANCH  92  93
ATOM     93  S   UNL A   1      47.238  26.361  37.820  1.00  0.00     0.124 S 
ATOM     94  O   UNL A   1      47.532  25.368  36.792  1.00  0.00    -0.237 OA
ATOM     95  O   UNL A   1      48.264  27.376  38.034  1.00  0.00    -0.237 OA
ATOM     96  O   UNL A   1      46.616  25.841  39.034  1.00  0.00    -0.744 OA
ENDBRANCH  92  93
ENDBRANCH  60  85
ENDBRANCH  34  35
ENDBRANCH  26  29
ENDBRANCH  24  25
ENDBRANCH  23  24
ENDBRANCH   1  23
TORSDOF 18
ENDMDL
MODEL 2
REMARK VINA RESULT:     -10.9      2.546      8.954
REMARK SMILES CC(C)C[C@@H]([NH3+])C(=O)N1CC[C@H](C(=O)NCCCNC(=O)c2ccc(-c3c4nc(c(-c5c(F)cc(S(=O)(=O)[O-])cc5F)c5ccc([nH]5)c(-c5c(F)cc(S(=O)(=O)[O-])cc5F)c5nc(c(-c6c(F)cc(S(=O)(=O)[O-])cc6F)c6ccc3[nH]6)C=C5)C=C4)cc2)[C@@H]1C
REMARK SMILES IDX 16 1 15 2 13 3 14 4 12 6 9 7 10 8 88 9 11 10 89 11 7 12 8 13
REMARK SMILES IDX 5 14 4 15 2 16 1 17 3 18 6 19 17 23 18 24 19 25 20 26 21 28
REMARK SMILES IDX 22 29 23 30 87 31 24 32 86 33 25 34 26 35 27 36 80 37 28 38
REMARK SMILES IDX 85 39 79 40 81 41 29 42 84 43 78 44 77 45 30 47 64 48 43 49
REMARK SMILES IDX 63 50 44 51 47 52 62 53 82 54 45 55 46 56 61 58 83 59 48 60
REMARK SMILES IDX 31 61 32 62 41 63 33 64 34 65 40 66 42 67 35 68 36 69 37 70
REMARK SMILES IDX 38 71 39 72 65 73 66 74 75 75 67 76 68 77 74 78 76 79 69 80
REMARK SMILES IDX 70 81 71 82 72 83 73 84 49 85 50 86 59 87 51 88 52 89 58 90
REMARK SMILES IDX 60 91 53 92 54 93 55 94 56 95 57 96
REMARK H PARENT 15 5 6 20 6 21 6 22 19 27 81 46 47 57
REMARK Flexibility Score: inf
ROOT
ATOM      1  C   UNL A   1      37.874  22.153  25.648  1.00  0.00     0.117 C 
ENDROOT
BRANCH   1   2
ATOM      2  N   UNL A   1      37.350  22.377  24.311  1.00  0.00    -0.356 N 
ATOM      3  C   UNL A   1      36.163  22.927  23.917  1.00  0.00     0.225 C 
ATOM      4  O   UNL A   1      35.976  23.057  22.711  1.00  0.00    -0.275 OA
ATOM      5  H   UNL A   1      37.940  22.089  23.577  1.00  0.00     0.163 HD
BRANCH   3   6
ATOM      6  C   UNL A   1      35.196  23.399  24.998  1.00  0.00     0.102 C 
ATOM      7  N   UNL A   1      32.845  23.709  24.619  1.00  0.00    -0.334 N 
ATOM      8  C   UNL A   1      33.548  24.782  23.951  1.00  0.00     0.121 C 
ATOM      9  C   UNL A   1      33.806  22.723  25.127  1.00  0.00     0.094 C 
ATOM     10  C   UNL A   1      34.851  24.870  24.728  1.00  0.00     0.037 C 
ATOM     11  C   UNL A   1      33.662  21.378  24.417  1.00  0.00     0.032 C 
BRANCH   7  12
ATOM     12  C   UNL A   1      31.480  23.804  24.788  1.00  0.00     0.280 C 
ATOM     13  O   UNL A   1      30.717  23.402  23.897  1.00  0.00    -0.268 OA
BRANCH  12  14
ATOM     14  C   UNL A   1      30.860  24.643  25.949  1.00  0.00     0.271 C 
BRANCH  14  15
ATOM     15  C   UNL A   1      30.190  25.979  25.616  1.00  0.00     0.078 C 
BRANCH  15  16
ATOM     16  C   UNL A   1      31.067  27.240  25.787  1.00  0.00    -0.011 C 
ATOM     17  C   UNL A   1      32.338  26.967  26.587  1.00  0.00     0.007 C 
ATOM     18  C   UNL A   1      31.427  27.802  24.408  1.00  0.00     0.007 C 
ENDBRANCH  15  16
ENDBRANCH  14  15
BRANCH  14  19
ATOM     19  N   UNL A   1      29.956  23.750  26.712  1.00  0.00    -0.347 N 
ATOM     20  H   UNL A   1      29.540  24.268  27.487  1.00  0.00     0.345 HD
ATOM     21  H   UNL A   1      30.488  22.960  27.078  1.00  0.00     0.345 HD
ATOM     22  H   UNL A   1      29.218  23.407  26.097  1.00  0.00     0.345 HD
ENDBRANCH  14  19
ENDBRANCH  12  14
ENDBRANCH   7  12
ENDBRANCH   3   6
ENDBRANCH   1   2
BRANCH   1  23
ATOM     23  C   UNL A   1      38.364  23.438  26.299  1.00  0.00     0.042 C 
BRANCH  23  24
ATOM     24  C   UNL A   1      39.698  23.304  27.026  1.00  0.00     0.118 C 
BRANCH  24  25
ATOM     25  N   UNL A   1      40.836  23.698  26.205  1.00  0.00    -0.352 N 
ATOM     26  C   UNL A   1      41.542  24.875  26.180  1.00  0.00     0.251 C 
ATOM     27  H   UNL A   1      41.145  23.015  25.569  1.00  0.00     0.163 HD
ATOM     28  O   UNL A   1      42.367  25.064  25.288  1.00  0.00    -0.269 OA
BRANCH  26  29
ATOM     29  C   UNL A   1      41.298  25.919  27.198  1.00  0.00     0.039 A 
ATOM     30  C   UNL A   1      40.297  25.709  28.151  1.00  0.00     0.014 A 
ATOM     31  C   UNL A   1      42.043  27.100  27.214  1.00  0.00     0.014 A 
ATOM     32  C   UNL A   1      40.096  26.651  29.161  1.00  0.00     0.010 A 
ATOM     33  C   UNL A   1      41.899  27.997  28.269  1.00  0.00     0.010 A 
ATOM     34  C   UNL A   1      40.922  27.783  29.254  1.00  0.00    -0.014 A 
BRANCH  34  35
ATOM     35  C   UNL A   1      40.790  28.744  30.380  1.00  0.00     0.031 A 
ATOM     36  C   UNL A   1      41.645  28.598  31.610  1.00  0.00     0.074 A 
ATOM     37  C   UNL A   1      39.846  29.706  30.324  1.00  0.00     0.049 A 
ATOM     38  N   UNL A   1      41.624  29.295  32.717  1.00  0.00    -0.248 NA
ATOM     39  C   UNL A   1      42.633  27.508  31.606  1.00  0.00     0.031 C 
ATOM     40  C   UNL A   1      38.916  29.913  29.211  1.00  0.00     0.029 A 
ATOM     41  N   UNL A   1      39.500  30.677  31.229  1.00  0.00    -0.354 N 
ATOM     42  C   UNL A   1      42.579  28.718  33.546  1.00  0.00     0.074 A 
ATOM     43  C   UNL A   1      43.124  27.583  32.835  1.00  0.00     0.031 C 
ATOM     44  C   UNL A   1      38.118  30.955  29.493  1.00  0.00     0.029 A 
ATOM     45  C   UNL A   1      38.447  31.463  30.820  1.00  0.00     0.049 A 
ATOM     46  H   UNL A   1      39.961  30.801  32.090  1.00  0.00     0.167 HD
ATOM     47  C   UNL A   1      42.979  29.112  34.780  1.00  0.00     0.037 A 
ATOM     48  C   UNL A   1      37.807  32.469  31.448  1.00  0.00     0.037 A 
ATOM     49  C   UNL A   1      42.444  30.256  35.472  1.00  0.00     0.049 A 
ATOM     50  C   UNL A   1      38.272  32.893  32.814  1.00  0.00     0.074 A 
ATOM     51  C   UNL A   1      42.833  30.782  36.691  1.00  0.00     0.029 A 
ATOM     52  N   UNL A   1      41.399  31.046  35.013  1.00  0.00    -0.354 N 
ATOM     53  N   UNL A   1      39.234  32.389  33.550  1.00  0.00    -0.248 NA
ATOM     54  C   UNL A   1      37.571  34.026  33.435  1.00  0.00     0.031 C 
ATOM     55  C   UNL A   1      41.986  31.852  36.997  1.00  0.00     0.029 A 
ATOM     56  C   UNL A   1      41.109  32.034  35.939  1.00  0.00     0.049 A 
ATOM     57  H   UNL A   1      40.931  30.921  34.155  1.00  0.00     0.167 HD
ATOM     58  C   UNL A   1      39.270  33.157  34.709  1.00  0.00     0.074 A 
ATOM     59  C   UNL A   1      38.243  34.170  34.569  1.00  0.00     0.031 C 
ATOM     60  C   UNL A   1      40.082  33.037  35.789  1.00  0.00     0.037 A 
BRANCH  47  61
ATOM     61  C   UNL A   1      44.041  28.293  35.464  1.00  0.00     0.058 A 
ATOM     62  C   UNL A   1      45.411  28.541  35.269  1.00  0.00     0.135 A 
ATOM     63  C   UNL A   1      43.686  27.262  36.350  1.00  0.00     0.135 A 
ATOM     64  F   UNL A   1      45.810  29.504  34.423  1.00  0.00    -0.206 F 
ATOM     65  C   UNL A   1      46.387  27.773  35.895  1.00  0.00     0.059 A 
ATOM     66  C   UNL A   1      44.645  26.503  37.013  1.00  0.00     0.059 A 
ATOM     67  F   UNL A   1      42.392  26.983  36.578  1.00  0.00    -0.206 F 
ATOM     68  C   UNL A   1      45.994  26.754  36.765  1.00  0.00     0.060 A 
BRANCH  68  69
ATOM     69  S   UNL A   1      47.273  25.762  37.563  1.00  0.00     0.124 S 
ATOM     70  O   UNL A   1      48.377  25.897  36.618  1.00  0.00    -0.237 OA
ATOM     71  O   UNL A   1      47.445  26.445  38.841  1.00  0.00    -0.237 OA
ATOM     72  O   UNL A   1      46.674  24.433  37.642  1.00  0.00    -0.744 OA
ENDBRANCH  68  69
ENDBRANCH  47  61
BRANCH  48  73
ATOM     73  C   UNL A   1      36.664  33.147  30.779  1.00  0.00     0.058 A 
ATOM     74  C   UNL A   1      35.343  32.922  31.193  1.00  0.00     0.135 A 
ATOM     75  C   UNL A   1      36.874  34.059  29.732  1.00  0.00     0.135 A 
ATOM     76  F   UNL A   1      35.090  32.056  32.186  1.00  0.00    -0.206 F 
ATOM     77  C   UNL A   1      34.269  33.567  30.587  1.00  0.00     0.059 A 
ATOM     78  C   UNL A   1      35.819  34.737  29.128  1.00  0.00     0.059 A 
ATOM     79  F   UNL A   1      38.120  34.323  29.309  1.00  0.00    -0.206 F 
ATOM     80  C   UNL A   1      34.519  34.478  29.559  1.00  0.00     0.060 A 
BRANCH  80  81
ATOM     81  S   UNL A   1      33.123  35.358  28.823  1.00  0.00     0.124 S 
ATOM     82  O   UNL A   1      33.802  36.379  28.035  1.00  0.00    -0.237 OA
ATOM     83  O   UNL A   1      32.462  34.299  28.066  1.00  0.00    -0.237 OA
ATOM     84  O   UNL A   1      32.383  35.843  29.984  1.00  0.00    -0.744 OA
ENDBRANCH  80  81
ENDBRANCH  48  73
BRANCH  60  85
ATOM     85  C   UNL A   1      39.919  34.042  36.897  1.00  0.00     0.058 A 
ATOM     86  C   UNL A   1      40.485  35.324  36.823  1.00  0.00     0.135 A 
ATOM     87  C   UNL A   1      39.137  33.736  38.023  1.00  0.00     0.135 A 
ATOM     88  F   UNL A   1      41.248  35.667  35.773  1.00  0.00    -0.206 F 
ATOM     89  C   UNL A   1      40.302  36.260  37.837  1.00  0.00     0.059 A 
ATOM     90  C   UNL A   1      38.914  34.665  39.033  1.00  0.00     0.059 A 
ATOM     91  F   UNL A   1      38.563  32.528  38.141  1.00  0.00    -0.206 F 
ATOM     92  C   UNL A   1      39.511  35.921  38.937  1.00  0.00     0.060 A 
BRANCH  92  93
ATOM     93  S   UNL A   1      39.251  37.157  40.227  1.00  0.00     0.124 S 
ATOM     94  O   UNL A   1      38.518  38.190  39.501  1.00  0.00    -0.237 OA
ATOM     95  O   UNL A   1      38.483  36.414  41.221  1.00  0.00    -0.237 OA
ATOM     96  O   UNL A   1      40.607  37.518  40.631  1.00  0.00    -0.744 OA
ENDBRANCH  92  93
ENDBRANCH  60  85
ENDBRANCH  34  35
ENDBRANCH  26  29
ENDBRANCH  24  25
ENDBRANCH  23  24
ENDBRANCH   1  23
TORSDOF 18
ENDMDL
MODEL 3
REMARK VINA RESULT:     -10.8      0.635      8.476
REMARK SMILES CC(C)C[C@@H]([NH3+])C(=O)N1CC[C@H](C(=O)NCCCNC(=O)c2ccc(-c3c4nc(c(-c5c(F)cc(S(=O)(=O)[O-])cc5F)c5ccc([nH]5)c(-c5c(F)cc(S(=O)(=O)[O-])cc5F)c5nc(c(-c6c(F)cc(S(=O)(=O)[O-])cc6F)c6ccc3[nH]6)C=C5)C=C4)cc2)[C@@H]1C
REMARK SMILES IDX 16 1 15 2 13 3 14 4 12 6 9 7 10 8 88 9 11 10 89 11 7 12 8 13
REMARK SMILES IDX 5 14 4 15 2 16 1 17 3 18 6 19 17 23 18 24 19 25 20 26 21 28
REMARK SMILES IDX 22 29 23 30 87 31 24 32 86 33 25 34 26 35 27 36 80 37 28 38
REMARK SMILES IDX 85 39 79 40 81 41 29 42 84 43 78 44 77 45 30 47 64 48 43 49
REMARK SMILES IDX 63 50 44 51 47 52 62 53 82 54 45 55 46 56 61 58 83 59 48 60
REMARK SMILES IDX 31 61 32 62 41 63 33 64 34 65 40 66 42 67 35 68 36 69 37 70
REMARK SMILES IDX 38 71 39 72 65 73 66 74 75 75 67 76 68 77 74 78 76 79 69 80
REMARK SMILES IDX 70 81 71 82 72 83 73 84 49 85 50 86 59 87 51 88 52 89 58 90
REMARK SMILES IDX 60 91 53 92 54 93 55 94 56 95 57 96
REMARK H PARENT 15 5 6 20 6 21 6 22 19 27 81 46 47 57
REMARK Flexibility Score: inf
ROOT
ATOM      1  C   UNL A   1      31.866  30.607  26.186  1.00  0.00     0.117 C 
ENDROOT
BRANCH   1   2
ATOM      2  N   UNL A   1      31.034  30.493  25.000  1.00  0.00    -0.356 N 
ATOM      3  C   UNL A   1      30.856  29.433  24.156  1.00  0.00     0.225 C 
ATOM      4  O   UNL A   1      30.046  29.572  23.242  1.00  0.00    -0.275 OA
ATOM      5  H   UNL A   1      30.521  31.301  24.770  1.00  0.00     0.163 HD
BRANCH   3   6
ATOM      6  C   UNL A   1      31.617  28.145  24.448  1.00  0.00     0.102 C 
ATOM      7  N   UNL A   1      32.430  26.676  22.730  1.00  0.00    -0.334 N 
ATOM      8  C   UNL A   1      30.992  26.534  22.793  1.00  0.00     0.121 C 
ATOM      9  C   UNL A   1      32.860  27.782  23.594  1.00  0.00     0.094 C 
ATOM     10  C   UNL A   1      30.669  26.961  24.215  1.00  0.00     0.037 C 
ATOM     11  C   UNL A   1      33.457  28.931  22.782  1.00  0.00     0.032 C 
BRANCH   7  12
ATOM     12  C   UNL A   1      33.165  25.749  22.023  1.00  0.00     0.280 C 
ATOM     13  O   UNL A   1      33.352  25.905  20.807  1.00  0.00    -0.268 OA
BRANCH  12  14
ATOM     14  C   UNL A   1      33.550  24.369  22.644  1.00  0.00     0.271 C 
BRANCH  14  15
ATOM     15  C   UNL A   1      33.926  24.309  24.127  1.00  0.00     0.078 C 
BRANCH  15  16
ATOM     16  C   UNL A   1      35.022  23.288  24.508  1.00  0.00    -0.011 C 
ATOM     17  C   UNL A   1      36.104  23.159  23.438  1.00  0.00     0.007 C 
ATOM     18  C   UNL A   1      35.652  23.692  25.844  1.00  0.00     0.007 C 
ENDBRANCH  15  16
ENDBRANCH  14  15
BRANCH  14  19
ATOM     19  N   UNL A   1      32.469  23.412  22.310  1.00  0.00    -0.347 N 
ATOM     20  H   UNL A   1      32.563  22.577  22.890  1.00  0.00     0.345 HD
ATOM     21  H   UNL A   1      32.537  23.152  21.326  1.00  0.00     0.345 HD
ATOM     22  H   UNL A   1      31.564  23.847  22.486  1.00  0.00     0.345 HD
ENDBRANCH  14  19
ENDBRANCH  12  14
ENDBRANCH   7  12
ENDBRANCH   3   6
ENDBRANCH   1   2
BRANCH   1  23
ATOM     23  C   UNL A   1      31.585  31.881  26.969  1.00  0.00     0.042 C 
BRANCH  23  24
ATOM     24  C   UNL A   1      32.834  32.633  27.414  1.00  0.00     0.118 C 
BRANCH  24  25
ATOM     25  N   UNL A   1      32.579  34.037  27.709  1.00  0.00    -0.352 N 
ATOM     26  C   UNL A   1      33.159  34.865  28.638  1.00  0.00     0.251 C 
ATOM     27  H   UNL A   1      31.881  34.457  27.157  1.00  0.00     0.163 HD
ATOM     28  O   UNL A   1      32.677  35.978  28.838  1.00  0.00    -0.269 OA
BRANCH  26  29
ATOM     29  C   UNL A   1      34.337  34.416  29.411  1.00  0.00     0.039 A 
ATOM     30  C   UNL A   1      34.142  33.899  30.695  1.00  0.00     0.014 A 
ATOM     31  C   UNL A   1      35.626  34.507  28.882  1.00  0.00     0.014 A 
ATOM     32  C   UNL A   1      35.232  33.408  31.416  1.00  0.00     0.010 A 
ATOM     33  C   UNL A   1      36.698  33.941  29.566  1.00  0.00     0.010 A 
ATOM     34  C   UNL A   1      36.513  33.385  30.841  1.00  0.00    -0.014 A 
BRANCH  34  35
ATOM     35  C   UNL A   1      37.668  32.774  31.552  1.00  0.00     0.031 A 
ATOM     36  C   UNL A   1      38.345  31.552  30.993  1.00  0.00     0.074 A 
ATOM     37  C   UNL A   1      38.057  33.278  32.740  1.00  0.00     0.049 A 
ATOM     38  N   UNL A   1      39.317  30.841  31.503  1.00  0.00    -0.248 NA
ATOM     39  C   UNL A   1      37.843  31.046  29.704  1.00  0.00     0.031 C 
ATOM     40  C   UNL A   1      37.442  34.424  33.415  1.00  0.00     0.029 A 
ATOM     41  N   UNL A   1      39.050  32.883  33.600  1.00  0.00    -0.354 N 
ATOM     42  C   UNL A   1      39.531  29.797  30.612  1.00  0.00     0.074 A 
ATOM     43  C   UNL A   1      38.553  29.937  29.555  1.00  0.00     0.031 C 
ATOM     44  C   UNL A   1      38.081  34.648  34.574  1.00  0.00     0.029 A 
ATOM     45  C   UNL A   1      39.122  33.639  34.748  1.00  0.00     0.049 A 
ATOM     46  H   UNL A   1      39.656  32.129  33.414  1.00  0.00     0.167 HD
ATOM     47  C   UNL A   1      40.471  28.822  30.659  1.00  0.00     0.037 A 
ATOM     48  C   UNL A   1      39.922  33.526  35.826  1.00  0.00     0.037 A 
ATOM     49  C   UNL A   1      41.454  28.702  31.706  1.00  0.00     0.049 A 
ATOM     50  C   UNL A   1      40.962  32.439  35.855  1.00  0.00     0.074 A 
ATOM     51  C   UNL A   1      42.495  27.795  31.808  1.00  0.00     0.029 A 
ATOM     52  N   UNL A   1      41.513  29.505  32.836  1.00  0.00    -0.354 N 
ATOM     53  N   UNL A   1      41.206  31.510  34.962  1.00  0.00    -0.248 NA
ATOM     54  C   UNL A   1      41.840  32.389  37.032  1.00  0.00     0.031 C 
ATOM     55  C   UNL A   1      43.146  28.011  33.026  1.00  0.00     0.029 A 
ATOM     56  C   UNL A   1      42.551  29.094  33.656  1.00  0.00     0.049 A 
ATOM     57  H   UNL A   1      40.905  30.255  33.028  1.00  0.00     0.167 HD
ATOM     58  C   UNL A   1      42.281  30.778  35.458  1.00  0.00     0.074 A 
ATOM     59  C   UNL A   1      42.648  31.384  36.721  1.00  0.00     0.031 C 
ATOM     60  C   UNL A   1      42.907  29.705  34.914  1.00  0.00     0.037 A 
BRANCH  47  61
ATOM     61  C   UNL A   1      40.476  27.802  29.552  1.00  0.00     0.058 A 
ATOM     62  C   UNL A   1      41.390  27.867  28.486  1.00  0.00     0.135 A 
ATOM     63  C   UNL A   1      39.572  26.726  29.570  1.00  0.00     0.135 A 
ATOM     64  F   UNL A   1      42.268  28.879  28.409  1.00  0.00    -0.206 F 
ATOM     65  C   UNL A   1      41.381  26.928  27.460  1.00  0.00     0.059 A 
ATOM     66  C   UNL A   1      39.568  25.756  28.572  1.00  0.00     0.059 A 
ATOM     67  F   UNL A   1      38.679  26.610  30.565  1.00  0.00    -0.206 F 
ATOM     68  C   UNL A   1      40.464  25.876  27.511  1.00  0.00     0.060 A 
BRANCH  68  69
ATOM     69  S   UNL A   1      40.461  24.671  26.168  1.00  0.00     0.124 S 
ATOM     70  O   UNL A   1      39.036  24.385  26.036  1.00  0.00    -0.237 OA
ATOM     71  O   UNL A   1      41.060  25.424  25.071  1.00  0.00    -0.237 OA
ATOM     72  O   UNL A   1      41.274  23.576  26.691  1.00  0.00    -0.744 OA
ENDBRANCH  68  69
ENDBRANCH  47  61
BRANCH  48  73
ATOM     73  C   UNL A   1      39.771  34.477  36.960  1.00  0.00     0.058 A 
ATOM     74  C   UNL A   1      40.483  35.685  36.993  1.00  0.00     0.135 A 
ATOM     75  C   UNL A   1      38.887  34.210  38.017  1.00  0.00     0.135 A 
ATOM     76  F   UNL A   1      41.345  35.983  36.009  1.00  0.00    -0.206 F 
ATOM     77  C   UNL A   1      40.333  36.591  38.040  1.00  0.00     0.059 A 
ATOM     78  C   UNL A   1      38.700  35.112  39.061  1.00  0.00     0.059 A 
ATOM     79  F   UNL A   1      38.169  33.076  38.024  1.00  0.00    -0.206 F 
ATOM     80  C   UNL A   1      39.434  36.297  39.066  1.00  0.00     0.060 A 
BRANCH  80  81
ATOM     81  S   UNL A   1      39.199  37.508  40.385  1.00  0.00     0.124 S 
ATOM     82  O   UNL A   1      40.535  38.081  40.499  1.00  0.00    -0.237 OA
ATOM     83  O   UNL A   1      38.174  38.380  39.819  1.00  0.00    -0.237 OA
ATOM     84  O   UNL A   1      38.763  36.693  41.515  1.00  0.00    -0.744 OA
ENDBRANCH  80  81
ENDBRANCH  48  73
BRANCH  60  85
ATOM     85  C   UNL A   1      44.078  29.130  35.664  1.00  0.00     0.058 A 
ATOM     86  C   UNL A   1      45.378  29.637  35.510  1.00  0.00     0.135 A 
ATOM     87  C   UNL A   1      43.886  28.093  36.593  1.00  0.00     0.135 A 
ATOM     88  F   UNL A   1      45.619  30.622  34.630  1.00  0.00    -0.206 F 
ATOM     89  C   UNL A   1      46.450  29.122  36.232  1.00  0.00     0.059 A 
ATOM     90  C   UNL A   1      44.937  27.584  37.348  1.00  0.00     0.059 A 
ATOM     91  F   UNL A   1      42.662  27.578  36.788  1.00  0.00    -0.206 F 
ATOM     92  C   UNL A   1      46.218  28.097  37.152  1.00  0.00     0.060 A 
BRANCH  92  93
ATOM     93  S   UNL A   1      47.611  27.464  38.109  1.00  0.00     0.124 S 
ATOM     94  O   UNL A   1      47.078  27.504  39.467  1.00  0.00    -0.237 OA
ATOM     95  O   UNL A   1      47.802  26.133  37.540  1.00  0.00    -0.237 OA
ATOM     96  O   UNL A   1      48.680  28.418  37.828  1.00  0.00    -0.744 OA
ENDBRANCH  92  93
ENDBRANCH  60  85
ENDBRANCH  34  35
ENDBRANCH  26  29
ENDBRANCH  24  25
ENDBRANCH  23  24
ENDBRANCH   1  23
TORSDOF 18
ENDMDL
