MODEL 1
REMARK VINA RESULT:      -9.9      0.000      0.000
REMARK SMILES COc1ccc(/C=C2/SC(=S)N(c3ccc(C(=O)NCCCNC(=O)c4ccc(-c5c6nc(c(-c7c(F)cc(S(=O)(=O)[O-])cc7F)c7ccc([nH]7)c(-c7c(F)cc(S(=O)(=O)[O-])cc7F)c7nc(c(-c8c(F)cc(S(=O)(=O)[O-])cc8F)c8ccc5[nH]8)C=C7)C=C6)cc4)c(O)c3)C2=O)cc1OC
REMARK SMILES IDX 21 1 20 2 19 3 17 4 18 5 16 7 13 8 14 9 94 10 15 11 92 12
REMARK SMILES IDX 12 13 7 14 8 15 9 16 95 17 10 18 96 19 11 20 6 21 3 22 4 23
REMARK SMILES IDX 98 24 5 25 97 26 2 27 1 28 99 29 100 30 93 31 22 33 23 34
REMARK SMILES IDX 24 35 25 37 26 38 27 39 91 40 28 41 90 42 29 43 30 44 31 45
REMARK SMILES IDX 84 46 32 47 89 48 83 49 85 50 33 51 88 52 82 53 81 54 34 56
REMARK SMILES IDX 68 57 47 58 67 59 48 60 51 61 66 62 86 63 49 64 50 65 65 67
REMARK SMILES IDX 87 68 52 69 35 70 36 71 45 72 37 73 38 74 44 75 46 76 39 77
REMARK SMILES IDX 40 78 41 79 42 80 43 81 69 82 70 83 79 84 71 85 72 86 78 87
REMARK SMILES IDX 80 88 73 89 74 90 75 91 76 92 77 93 53 94 54 95 63 96 55 97
REMARK SMILES IDX 56 98 62 99 64 100 57 101 58 102 59 103 60 104 61 105
REMARK H PARENT 19 6 93 32 23 36 85 55 51 66
REMARK Flexibility Score: inf
ROOT
ATOM      1  C   UNL A   1      35.793  32.593  30.308  1.00  0.00     0.042 C 
ENDROOT
BRANCH   1   2
ATOM      2  C   UNL A   1      34.722  32.596  31.401  1.00  0.00     0.118 C 
BRANCH   2   3
ATOM      3  N   UNL A   1      34.325  33.949  31.736  1.00  0.00    -0.352 N 
ATOM      4  C   UNL A   1      34.797  34.837  32.666  1.00  0.00     0.255 C 
ATOM      5  O   UNL A   1      34.249  35.942  32.705  1.00  0.00    -0.269 OA
ATOM      6  H   UNL A   1      33.579  34.294  31.194  1.00  0.00     0.163 HD
BRANCH   4   7
ATOM      7  C   UNL A   1      35.969  34.598  33.558  1.00  0.00     0.081 A 
ATOM      8  C   UNL A   1      37.985  33.886  35.427  1.00  0.00     0.054 A 
ATOM      9  C   UNL A   1      36.636  33.770  35.764  1.00  0.00     0.028 A 
ATOM     10  C   UNL A   1      38.322  34.350  34.151  1.00  0.00     0.073 A 
ATOM     11  C   UNL A   1      35.646  34.142  34.849  1.00  0.00     0.020 A 
ATOM     12  C   UNL A   1      37.324  34.662  33.215  1.00  0.00     0.130 A 
BRANCH   8  13
ATOM     13  N   UNL A   1      39.005  33.385  36.284  1.00  0.00    -0.261 N 
ATOM     14  C   UNL A   1      41.797  31.100  36.480  1.00  0.00     0.029 C 
ATOM     15  C   UNL A   1      40.806  31.954  36.781  1.00  0.00     0.081 C 
ATOM     16  S   UNL A   1      40.933  33.166  37.995  1.00  0.00    -0.054 SA
ATOM     17  C   UNL A   1      39.520  32.115  36.041  1.00  0.00     0.270 C 
ATOM     18  C   UNL A   1      39.590  34.097  37.319  1.00  0.00     0.152 C 
ATOM     19  O   UNL A   1      39.033  31.241  35.341  1.00  0.00    -0.268 OA
ATOM     20  S   UNL A   1      39.143  35.568  37.979  1.00  0.00    -0.051 S 
BRANCH  14  21
ATOM     21  C   UNL A   1      41.790  30.256  35.281  1.00  0.00    -0.020 A 
ATOM     22  C   UNL A   1      41.921  28.541  33.068  1.00  0.00     0.160 A 
ATOM     23  C   UNL A   1      42.276  29.893  32.946  1.00  0.00     0.051 A 
ATOM     24  C   UNL A   1      41.498  28.033  34.300  1.00  0.00     0.161 A 
ATOM     25  C   UNL A   1      42.205  30.751  34.047  1.00  0.00     0.012 A 
ATOM     26  C   UNL A   1      41.418  28.908  35.392  1.00  0.00     0.058 A 
BRANCH  22  27
ATOM     27  O   UNL A   1      42.087  27.729  31.977  1.00  0.00    -0.493 OA
ATOM     28  C   UNL A   1      43.444  27.316  31.835  1.00  0.00     0.278 C 
ENDBRANCH  22  27
BRANCH  24  29
ATOM     29  O   UNL A   1      41.129  26.757  34.624  1.00  0.00    -0.493 OA
ATOM     30  C   UNL A   1      42.018  25.963  35.394  1.00  0.00     0.278 C 
ENDBRANCH  24  29
ENDBRANCH  14  21
ENDBRANCH   8  13
BRANCH  12  31
ATOM     31  O   UNL A   1      37.732  34.942  31.946  1.00  0.00    -0.507 OA
ATOM     32  H   UNL A   1      37.927  35.824  31.700  1.00  0.00     0.293 HD
ENDBRANCH  12  31
ENDBRANCH   4   7
ENDBRANCH   2   3
ENDBRANCH   1   2
BRANCH   1  33
ATOM     33  C   UNL A   1      35.234  32.606  28.893  1.00  0.00     0.118 C 
BRANCH  33  34
ATOM     34  N   UNL A   1      34.455  31.413  28.608  1.00  0.00    -0.352 N 
ATOM     35  C   UNL A   1      34.872  30.162  28.231  1.00  0.00     0.251 C 
ATOM     36  H   UNL A   1      33.480  31.519  28.699  1.00  0.00     0.163 HD
ATOM     37  O   UNL A   1      34.034  29.359  27.822  1.00  0.00    -0.269 OA
BRANCH  35  38
ATOM     38  C   UNL A   1      36.300  29.766  28.305  1.00  0.00     0.039 A 
ATOM     39  C   UNL A   1      36.796  29.293  29.526  1.00  0.00     0.014 A 
ATOM     40  C   UNL A   1      37.174  29.932  27.225  1.00  0.00     0.014 A 
ATOM     41  C   UNL A   1      38.152  28.987  29.661  1.00  0.00     0.010 A 
ATOM     42  C   UNL A   1      38.512  29.555  27.338  1.00  0.00     0.010 A 
ATOM     43  C   UNL A   1      39.022  29.116  28.568  1.00  0.00    -0.014 A 
BRANCH  43  44
ATOM     44  C   UNL A   1      40.480  28.878  28.723  1.00  0.00     0.031 A 
ATOM     45  C   UNL A   1      41.064  27.543  28.335  1.00  0.00     0.074 A 
ATOM     46  C   UNL A   1      41.273  29.842  29.227  1.00  0.00     0.049 A 
ATOM     47  N   UNL A   1      42.304  27.132  28.398  1.00  0.00    -0.248 NA
ATOM     48  C   UNL A   1      40.123  26.528  27.836  1.00  0.00     0.031 C 
ATOM     49  C   UNL A   1      40.821  31.160  29.673  1.00  0.00     0.029 A 
ATOM     50  N   UNL A   1      42.627  29.862  29.443  1.00  0.00    -0.354 N 
ATOM     51  C   UNL A   1      42.287  25.808  27.975  1.00  0.00     0.074 A 
ATOM     52  C   UNL A   1      40.907  25.470  27.702  1.00  0.00     0.031 C 
ATOM     53  C   UNL A   1      41.886  31.875  30.075  1.00  0.00     0.029 A 
ATOM     54  C   UNL A   1      43.088  31.059  29.937  1.00  0.00     0.049 A 
ATOM     55  H   UNL A   1      43.213  29.092  29.262  1.00  0.00     0.167 HD
ATOM     56  C   UNL A   1      43.327  24.954  27.807  1.00  0.00     0.037 A 
ATOM     57  C   UNL A   1      44.342  31.456  30.228  1.00  0.00     0.037 A 
ATOM     58  C   UNL A   1      44.702  25.308  28.036  1.00  0.00     0.049 A 
ATOM     59  C   UNL A   1      45.486  30.509  29.993  1.00  0.00     0.074 A 
ATOM     60  C   UNL A   1      45.837  24.540  27.838  1.00  0.00     0.029 A 
ATOM     61  N   UNL A   1      45.130  26.539  28.512  1.00  0.00    -0.354 N 
ATOM     62  N   UNL A   1      45.458  29.278  29.542  1.00  0.00    -0.248 NA
ATOM     63  C   UNL A   1      46.834  31.011  30.296  1.00  0.00     0.031 C 
ATOM     64  C   UNL A   1      46.950  25.302  28.216  1.00  0.00     0.029 A 
ATOM     65  C   UNL A   1      46.510  26.553  28.619  1.00  0.00     0.049 A 
ATOM     66  H   UNL A   1      44.539  27.293  28.739  1.00  0.00     0.167 HD
ATOM     67  C   UNL A   1      46.785  28.868  29.474  1.00  0.00     0.074 A 
ATOM     68  C   UNL A   1      47.590  29.983  29.931  1.00  0.00     0.031 C 
ATOM     69  C   UNL A   1      47.292  27.679  29.064  1.00  0.00     0.037 A 
BRANCH  56  70
ATOM     70  C   UNL A   1      43.000  23.557  27.356  1.00  0.00     0.058 A 
ATOM     71  C   UNL A   1      42.512  22.588  28.250  1.00  0.00     0.135 A 
ATOM     72  C   UNL A   1      43.201  23.172  26.021  1.00  0.00     0.135 A 
ATOM     73  F   UNL A   1      42.316  22.898  29.542  1.00  0.00    -0.206 F 
ATOM     74  C   UNL A   1      42.285  21.275  27.848  1.00  0.00     0.059 A 
ATOM     75  C   UNL A   1      42.955  21.871  25.592  1.00  0.00     0.059 A 
ATOM     76  F   UNL A   1      43.662  24.057  25.125  1.00  0.00    -0.206 F 
ATOM     77  C   UNL A   1      42.522  20.923  26.519  1.00  0.00     0.060 A 
BRANCH  77  78
ATOM     78  S   UNL A   1      42.268  19.209  26.015  1.00  0.00     0.124 S 
ATOM     79  O   UNL A   1      43.070  19.144  24.796  1.00  0.00    -0.237 OA
ATOM     80  O   UNL A   1      42.791  18.461  27.155  1.00  0.00    -0.237 OA
ATOM     81  O   UNL A   1      40.824  19.124  25.823  1.00  0.00    -0.744 OA
ENDBRANCH  77  78
ENDBRANCH  56  70
BRANCH  57  82
ATOM     82  C   UNL A   1      44.582  32.843  30.703  1.00  0.00     0.058 A 
ATOM     83  C   UNL A   1      44.619  33.911  29.794  1.00  0.00     0.135 A 
ATOM     84  C   UNL A   1      44.738  33.135  32.066  1.00  0.00     0.135 A 
ATOM     85  F   UNL A   1      44.480  33.677  28.480  1.00  0.00    -0.206 F 
ATOM     86  C   UNL A   1      44.808  35.221  30.218  1.00  0.00     0.059 A 
ATOM     87  C   UNL A   1      44.910  34.441  32.516  1.00  0.00     0.059 A 
ATOM     88  F   UNL A   1      44.694  32.149  32.974  1.00  0.00    -0.206 F 
ATOM     89  C   UNL A   1      44.948  35.478  31.583  1.00  0.00     0.060 A 
BRANCH  89  90
ATOM     90  S   UNL A   1      45.117  37.191  32.130  1.00  0.00     0.124 S 
ATOM     91  O   UNL A   1      46.365  37.137  32.883  1.00  0.00    -0.237 OA
ATOM     92  O   UNL A   1      45.167  37.915  30.863  1.00  0.00    -0.237 OA
ATOM     93  O   UNL A   1      43.909  37.411  32.919  1.00  0.00    -0.744 OA
ENDBRANCH  89  90
ENDBRANCH  57  82
BRANCH  69  94
ATOM     94  C   UNL A   1      48.788  27.541  29.050  1.00  0.00     0.058 A 
ATOM     95  C   UNL A   1      49.544  27.828  27.904  1.00  0.00     0.135 A 
ATOM     96  C   UNL A   1      49.473  27.145  30.210  1.00  0.00     0.135 A 
ATOM     97  F   UNL A   1      48.934  28.204  26.768  1.00  0.00    -0.206 F 
ATOM     98  C   UNL A   1      50.929  27.703  27.899  1.00  0.00     0.059 A 
ATOM     99  C   UNL A   1      50.859  27.034  30.234  1.00  0.00     0.059 A 
ATOM    100  F   UNL A   1      48.795  26.869  31.335  1.00  0.00    -0.206 F 
ATOM    101  C   UNL A   1      51.578  27.301  29.069  1.00  0.00     0.060 A 
BRANCH 101 102
ATOM    102  S   UNL A   1      53.377  27.159  29.062  1.00  0.00     0.124 S 
ATOM    103  O   UNL A   1      53.777  28.469  29.567  1.00  0.00    -0.237 OA
ATOM    104  O   UNL A   1      53.610  26.035  29.965  1.00  0.00    -0.237 OA
ATOM    105  O   UNL A   1      53.690  26.902  27.660  1.00  0.00    -0.744 OA
ENDBRANCH 101 102
ENDBRANCH  69  94
ENDBRANCH  43  44
ENDBRANCH  35  38
ENDBRANCH  33  34
ENDBRANCH   1  33
TORSDOF 18
ENDMDL
MODEL 2
REMARK VINA RESULT:      -9.7      1.245      8.056
REMARK SMILES COc1ccc(/C=C2/SC(=S)N(c3ccc(C(=O)NCCCNC(=O)c4ccc(-c5c6nc(c(-c7c(F)cc(S(=O)(=O)[O-])cc7F)c7ccc([nH]7)c(-c7c(F)cc(S(=O)(=O)[O-])cc7F)c7nc(c(-c8c(F)cc(S(=O)(=O)[O-])cc8F)c8ccc5[nH]8)C=C7)C=C6)cc4)c(O)c3)C2=O)cc1OC
REMARK SMILES IDX 21 1 20 2 19 3 17 4 18 5 16 7 13 8 14 9 94 10 15 11 92 12
REMARK SMILES IDX 12 13 7 14 8 15 9 16 95 17 10 18 96 19 11 20 6 21 3 22 4 23
REMARK SMILES IDX 98 24 5 25 97 26 2 27 1 28 99 29 100 30 93 31 22 33 23 34
REMARK SMILES IDX 24 35 25 37 26 38 27 39 91 40 28 41 90 42 29 43 30 44 31 45
REMARK SMILES IDX 84 46 32 47 89 48 83 49 85 50 33 51 88 52 82 53 81 54 34 56
REMARK SMILES IDX 68 57 47 58 67 59 48 60 51 61 66 62 86 63 49 64 50 65 65 67
REMARK SMILES IDX 87 68 52 69 35 70 36 71 45 72 37 73 38 74 44 75 46 76 39 77
REMARK SMILES IDX 40 78 41 79 42 80 43 81 69 82 70 83 79 84 71 85 72 86 78 87
REMARK SMILES IDX 80 88 73 89 74 90 75 91 76 92 77 93 53 94 54 95 63 96 55 97
REMARK SMILES IDX 56 98 62 99 64 100 57 101 58 102 59 103 60 104 61 105
REMARK H PARENT 19 6 93 32 23 36 85 55 51 66
REMARK Flexibility Score: inf
ROOT
ATOM      1  C   UNL A   1      35.845  33.032  29.440  1.00  0.00     0.042 C 
ENDROOT
BRANCH   1   2
ATOM      2  C   UNL A   1      35.121  33.040  30.787  1.00  0.00     0.118 C 
BRANCH   2   3
ATOM      3  N   UNL A   1      34.968  34.392  31.287  1.00  0.00    -0.352 N 
ATOM      4  C   UNL A   1      35.475  35.021  32.393  1.00  0.00     0.255 C 
ATOM      5  O   UNL A   1      35.168  36.206  32.547  1.00  0.00    -0.269 OA
ATOM      6  H   UNL A   1      34.395  34.965  30.728  1.00  0.00     0.163 HD
BRANCH   4   7
ATOM      7  C   UNL A   1      36.432  34.408  33.361  1.00  0.00     0.081 A 
ATOM      8  C   UNL A   1      38.500  33.499  35.082  1.00  0.00     0.054 A 
ATOM      9  C   UNL A   1      38.809  34.090  33.856  1.00  0.00     0.028 A 
ATOM     10  C   UNL A   1      37.155  33.374  35.448  1.00  0.00     0.073 A 
ATOM     11  C   UNL A   1      37.787  34.517  33.001  1.00  0.00     0.020 A 
ATOM     12  C   UNL A   1      36.137  33.860  34.615  1.00  0.00     0.130 A 
BRANCH   8  13
ATOM     13  N   UNL A   1      39.517  33.185  36.026  1.00  0.00    -0.261 N 
ATOM     14  C   UNL A   1      42.318  31.000  36.686  1.00  0.00     0.029 C 
ATOM     15  C   UNL A   1      41.322  31.891  36.806  1.00  0.00     0.081 C 
ATOM     16  S   UNL A   1      41.437  33.323  37.754  1.00  0.00    -0.054 SA
ATOM     17  C   UNL A   1      40.039  31.895  36.043  1.00  0.00     0.270 C 
ATOM     18  C   UNL A   1      40.094  34.093  36.901  1.00  0.00     0.152 C 
ATOM     19  O   UNL A   1      39.559  30.896  35.530  1.00  0.00    -0.268 OA
ATOM     20  S   UNL A   1      39.637  35.663  37.251  1.00  0.00    -0.051 S 
BRANCH  14  21
ATOM     21  C   UNL A   1      42.321  29.933  35.680  1.00  0.00    -0.020 A 
ATOM     22  C   UNL A   1      42.453  27.799  33.867  1.00  0.00     0.160 A 
ATOM     23  C   UNL A   1      42.953  29.063  33.520  1.00  0.00     0.051 A 
ATOM     24  C   UNL A   1      41.882  27.590  35.126  1.00  0.00     0.161 A 
ATOM     25  C   UNL A   1      42.883  30.131  34.421  1.00  0.00     0.012 A 
ATOM     26  C   UNL A   1      41.805  28.672  36.014  1.00  0.00     0.058 A 
BRANCH  22  27
ATOM     27  O   UNL A   1      42.622  26.772  32.977  1.00  0.00    -0.493 OA
ATOM     28  C   UNL A   1      43.870  26.110  33.174  1.00  0.00     0.278 C 
ENDBRANCH  22  27
BRANCH  24  29
ATOM     29  O   UNL A   1      41.359  26.442  35.655  1.00  0.00    -0.493 OA
ATOM     30  C   UNL A   1      41.461  26.225  37.053  1.00  0.00     0.278 C 
ENDBRANCH  24  29
ENDBRANCH  14  21
ENDBRANCH   8  13
BRANCH  12  31
ATOM     31  O   UNL A   1      34.871  33.854  35.117  1.00  0.00    -0.507 OA
ATOM     32  H   UNL A   1      34.227  34.439  34.772  1.00  0.00     0.293 HD
ENDBRANCH  12  31
ENDBRANCH   4   7
ENDBRANCH   2   3
ENDBRANCH   1   2
BRANCH   1  33
ATOM     33  C   UNL A   1      34.915  33.043  28.235  1.00  0.00     0.118 C 
BRANCH  33  34
ATOM     34  N   UNL A   1      34.058  31.870  28.203  1.00  0.00    -0.352 N 
ATOM     35  C   UNL A   1      34.390  30.544  28.098  1.00  0.00     0.251 C 
ATOM     36  H   UNL A   1      33.093  32.056  28.266  1.00  0.00     0.163 HD
ATOM     37  O   UNL A   1      33.499  29.729  27.863  1.00  0.00    -0.269 OA
BRANCH  35  38
ATOM     38  C   UNL A   1      35.790  30.080  28.259  1.00  0.00     0.039 A 
ATOM     39  C   UNL A   1      36.204  29.642  29.523  1.00  0.00     0.014 A 
ATOM     40  C   UNL A   1      36.721  30.150  27.217  1.00  0.00     0.014 A 
ATOM     41  C   UNL A   1      37.534  29.274  29.738  1.00  0.00     0.010 A 
ATOM     42  C   UNL A   1      38.030  29.711  27.412  1.00  0.00     0.010 A 
ATOM     43  C   UNL A   1      38.459  29.306  28.684  1.00  0.00    -0.014 A 
BRANCH  43  44
ATOM     44  C   UNL A   1      39.894  29.002  28.920  1.00  0.00     0.031 A 
ATOM     45  C   UNL A   1      40.781  30.037  29.563  1.00  0.00     0.074 A 
ATOM     46  C   UNL A   1      40.405  27.815  28.542  1.00  0.00     0.049 A 
ATOM     47  N   UNL A   1      42.056  29.974  29.850  1.00  0.00    -0.248 NA
ATOM     48  C   UNL A   1      40.155  31.325  29.905  1.00  0.00     0.031 C 
ATOM     49  C   UNL A   1      39.658  26.747  27.876  1.00  0.00     0.029 A 
ATOM     50  N   UNL A   1      41.673  27.308  28.668  1.00  0.00    -0.354 N 
ATOM     51  C   UNL A   1      42.389  31.216  30.377  1.00  0.00     0.074 A 
ATOM     52  C   UNL A   1      41.194  32.029  30.328  1.00  0.00     0.031 C 
ATOM     53  C   UNL A   1      40.473  25.695  27.687  1.00  0.00     0.029 A 
ATOM     54  C   UNL A   1      41.802  26.023  28.196  1.00  0.00     0.049 A 
ATOM     55  H   UNL A   1      42.420  27.815  29.061  1.00  0.00     0.167 HD
ATOM     56  C   UNL A   1      43.576  31.638  30.878  1.00  0.00     0.037 A 
ATOM     57  C   UNL A   1      42.867  25.200  28.191  1.00  0.00     0.037 A 
ATOM     58  C   UNL A   1      44.750  30.812  30.965  1.00  0.00     0.049 A 
ATOM     59  C   UNL A   1      44.163  25.672  28.790  1.00  0.00     0.074 A 
ATOM     60  C   UNL A   1      45.985  31.119  31.511  1.00  0.00     0.029 A 
ATOM     61  N   UNL A   1      44.832  29.507  30.499  1.00  0.00    -0.354 N 
ATOM     62  N   UNL A   1      44.448  26.831  29.332  1.00  0.00    -0.248 NA
ATOM     63  C   UNL A   1      45.280  24.717  28.786  1.00  0.00     0.031 C 
ATOM     64  C   UNL A   1      46.821  30.006  31.353  1.00  0.00     0.029 A 
ATOM     65  C   UNL A   1      46.097  28.996  30.738  1.00  0.00     0.049 A 
ATOM     66  H   UNL A   1      44.099  29.017  30.063  1.00  0.00     0.167 HD
ATOM     67  C   UNL A   1      45.765  26.735  29.767  1.00  0.00     0.074 A 
ATOM     68  C   UNL A   1      46.221  25.403  29.422  1.00  0.00     0.031 C 
ATOM     69  C   UNL A   1      46.526  27.663  30.398  1.00  0.00     0.037 A 
BRANCH  56  70
ATOM     70  C   UNL A   1      43.650  33.060  31.361  1.00  0.00     0.058 A 
ATOM     71  C   UNL A   1      44.279  34.065  30.606  1.00  0.00     0.135 A 
ATOM     72  C   UNL A   1      43.107  33.420  32.604  1.00  0.00     0.135 A 
ATOM     73  F   UNL A   1      44.829  33.772  29.416  1.00  0.00    -0.206 F 
ATOM     74  C   UNL A   1      44.415  35.362  31.090  1.00  0.00     0.059 A 
ATOM     75  C   UNL A   1      43.207  34.719  33.096  1.00  0.00     0.059 A 
ATOM     76  F   UNL A   1      42.491  32.502  33.364  1.00  0.00    -0.206 F 
ATOM     77  C   UNL A   1      43.886  35.676  32.343  1.00  0.00     0.060 A 
BRANCH  77  78
ATOM     78  S   UNL A   1      44.104  37.350  32.984  1.00  0.00     0.124 S 
ATOM     79  O   UNL A   1      43.043  37.415  33.986  1.00  0.00    -0.237 OA
ATOM     80  O   UNL A   1      45.466  37.315  33.508  1.00  0.00    -0.237 OA
ATOM     81  O   UNL A   1      43.911  38.189  31.807  1.00  0.00    -0.744 OA
ENDBRANCH  77  78
ENDBRANCH  56  70
BRANCH  57  82
ATOM     82  C   UNL A   1      42.727  23.819  27.663  1.00  0.00     0.058 A 
ATOM     83  C   UNL A   1      42.498  22.743  28.535  1.00  0.00     0.135 A 
ATOM     84  C   UNL A   1      42.776  23.549  26.287  1.00  0.00     0.135 A 
ATOM     85  F   UNL A   1      42.448  22.954  29.859  1.00  0.00    -0.206 F 
ATOM     86  C   UNL A   1      42.328  21.447  28.063  1.00  0.00     0.059 A 
ATOM     87  C   UNL A   1      42.591  22.262  25.790  1.00  0.00     0.059 A 
ATOM     88  F   UNL A   1      42.977  24.548  25.414  1.00  0.00    -0.206 F 
ATOM     89  C   UNL A   1      42.372  21.217  26.686  1.00  0.00     0.060 A 
BRANCH  89  90
ATOM     90  S   UNL A   1      42.076  19.542  26.078  1.00  0.00     0.124 S 
ATOM     91  O   UNL A   1      42.504  18.736  27.216  1.00  0.00    -0.237 OA
ATOM     92  O   UNL A   1      40.640  19.560  25.813  1.00  0.00    -0.237 OA
ATOM     93  O   UNL A   1      42.922  19.463  24.892  1.00  0.00    -0.744 OA
ENDBRANCH  89  90
ENDBRANCH  57  82
BRANCH  69  94
ATOM     94  C   UNL A   1      47.915  27.253  30.798  1.00  0.00     0.058 A 
ATOM     95  C   UNL A   1      49.031  27.564  30.009  1.00  0.00     0.135 A 
ATOM     96  C   UNL A   1      48.130  26.566  32.004  1.00  0.00     0.135 A 
ATOM     97  F   UNL A   1      48.877  28.215  28.845  1.00  0.00    -0.206 F 
ATOM     98  C   UNL A   1      50.315  27.186  30.389  1.00  0.00     0.059 A 
ATOM     99  C   UNL A   1      49.406  26.196  32.412  1.00  0.00     0.059 A 
ATOM    100  F   UNL A   1      47.094  26.253  32.799  1.00  0.00    -0.206 F 
ATOM    101  C   UNL A   1      50.492  26.498  31.592  1.00  0.00     0.060 A 
BRANCH 101 102
ATOM    102  S   UNL A   1      52.162  26.026  32.087  1.00  0.00     0.124 S 
ATOM    103  O   UNL A   1      52.813  25.849  30.793  1.00  0.00    -0.237 OA
ATOM    104  O   UNL A   1      52.601  27.181  32.864  1.00  0.00    -0.237 OA
ATOM    105  O   UNL A   1      51.952  24.804  32.859  1.00  0.00    -0.744 OA
ENDBRANCH 101 102
ENDBRANCH  69  94
ENDBRANCH  43  44
ENDBRANCH  35  38
ENDBRANCH  33  34
ENDBRANCH   1  33
TORSDOF 18
ENDMDL
MODEL 3
REMARK VINA RESULT:      -9.6      2.102      8.645
REMARK SMILES COc1ccc(/C=C2/SC(=S)N(c3ccc(C(=O)NCCCNC(=O)c4ccc(-c5c6nc(c(-c7c(F)cc(S(=O)(=O)[O-])cc7F)c7ccc([nH]7)c(-c7c(F)cc(S(=O)(=O)[O-])cc7F)c7nc(c(-c8c(F)cc(S(=O)(=O)[O-])cc8F)c8ccc5[nH]8)C=C7)C=C6)cc4)c(O)c3)C2=O)cc1OC
REMARK SMILES IDX 21 1 20 2 19 3 17 4 18 5 16 7 13 8 14 9 94 10 15 11 92 12
REMARK SMILES IDX 12 13 7 14 8 15 9 16 95 17 10 18 96 19 11 20 6 21 3 22 4 23
REMARK SMILES IDX 98 24 5 25 97 26 2 27 1 28 99 29 100 30 93 31 22 33 23 34
REMARK SMILES IDX 24 35 25 37 26 38 27 39 91 40 28 41 90 42 29 43 30 44 31 45
REMARK SMILES IDX 84 46 32 47 89 48 83 49 85 50 33 51 88 52 82 53 81 54 34 56
REMARK SMILES IDX 68 57 47 58 67 59 48 60 51 61 66 62 86 63 49 64 50 65 65 67
REMARK SMILES IDX 87 68 52 69 35 70 36 71 45 72 37 73 38 74 44 75 46 76 39 77
REMARK SMILES IDX 40 78 41 79 42 80 43 81 69 82 70 83 79 84 71 85 72 86 78 87
REMARK SMILES IDX 80 88 73 89 74 90 75 91 76 92 77 93 53 94 54 95 63 96 55 97
REMARK SMILES IDX 56 98 62 99 64 100 57 101 58 102 59 103 60 104 61 105
REMARK H PARENT 19 6 93 32 23 36 85 55 51 66
REMARK Flexibility Score: inf
ROOT
ATOM      1  C   UNL A   1      35.500  33.801  29.345  1.00  0.00     0.042 C 
ENDROOT
BRANCH   1   2
ATOM      2  C   UNL A   1      34.289  33.848  30.278  1.00  0.00     0.118 C 
BRANCH   2   3
ATOM      3  N   UNL A   1      34.343  35.011  31.142  1.00  0.00    -0.352 N 
ATOM      4  C   UNL A   1      35.061  35.274  32.278  1.00  0.00     0.255 C 
ATOM      5  O   UNL A   1      34.898  36.383  32.794  1.00  0.00    -0.269 OA
ATOM      6  H   UNL A   1      33.757  35.749  30.858  1.00  0.00     0.163 HD
BRANCH   4   7
ATOM      7  C   UNL A   1      36.079  34.361  32.877  1.00  0.00     0.081 A 
ATOM      8  C   UNL A   1      38.272  32.880  33.908  1.00  0.00     0.054 A 
ATOM      9  C   UNL A   1      38.443  33.724  32.810  1.00  0.00     0.028 A 
ATOM     10  C   UNL A   1      37.004  32.787  34.494  1.00  0.00     0.073 A 
ATOM     11  C   UNL A   1      37.356  34.436  32.291  1.00  0.00     0.020 A 
ATOM     12  C   UNL A   1      35.932  33.550  34.008  1.00  0.00     0.130 A 
BRANCH   8  13
ATOM     13  N   UNL A   1      39.384  32.256  34.538  1.00  0.00    -0.261 N 
ATOM     14  C   UNL A   1      41.551  32.374  37.427  1.00  0.00     0.029 C 
ATOM     15  C   UNL A   1      41.013  32.095  36.230  1.00  0.00     0.081 C 
ATOM     16  S   UNL A   1      41.048  30.531  35.513  1.00  0.00    -0.054 SA
ATOM     17  C   UNL A   1      40.175  33.010  35.401  1.00  0.00     0.270 C 
ATOM     18  C   UNL A   1      39.713  30.915  34.419  1.00  0.00     0.152 C 
ATOM     19  O   UNL A   1      40.210  34.227  35.498  1.00  0.00    -0.268 OA
ATOM     20  S   UNL A   1      39.087  29.758  33.385  1.00  0.00    -0.051 S 
BRANCH  14  21
ATOM     21  C   UNL A   1      41.292  33.622  38.151  1.00  0.00    -0.020 A 
ATOM     22  C   UNL A   1      40.648  36.039  39.418  1.00  0.00     0.160 A 
ATOM     23  C   UNL A   1      41.842  35.909  38.692  1.00  0.00     0.051 A 
ATOM     24  C   UNL A   1      39.763  34.961  39.516  1.00  0.00     0.161 A 
ATOM     25  C   UNL A   1      42.167  34.702  38.064  1.00  0.00     0.012 A 
ATOM     26  C   UNL A   1      40.109  33.753  38.895  1.00  0.00     0.058 A 
BRANCH  22  27
ATOM     27  O   UNL A   1      40.343  37.267  39.942  1.00  0.00    -0.493 OA
ATOM     28  C   UNL A   1      41.476  38.132  39.941  1.00  0.00     0.278 C 
ENDBRANCH  22  27
BRANCH  24  29
ATOM     29  O   UNL A   1      38.557  34.893  40.156  1.00  0.00    -0.493 OA
ATOM     30  C   UNL A   1      38.493  35.231  41.532  1.00  0.00     0.278 C 
ENDBRANCH  24  29
ENDBRANCH  14  21
ENDBRANCH   8  13
BRANCH  12  31
ATOM     31  O   UNL A   1      34.780  33.532  34.735  1.00  0.00    -0.507 OA
ATOM     32  H   UNL A   1      34.750  33.079  35.553  1.00  0.00     0.293 HD
ENDBRANCH  12  31
ENDBRANCH   4   7
ENDBRANCH   2   3
ENDBRANCH   1   2
BRANCH   1  33
ATOM     33  C   UNL A   1      35.199  33.227  27.968  1.00  0.00     0.118 C 
BRANCH  33  34
ATOM     34  N   UNL A   1      34.273  32.110  28.038  1.00  0.00    -0.352 N 
ATOM     35  C   UNL A   1      34.525  30.761  28.039  1.00  0.00     0.251 C 
ATOM     36  H   UNL A   1      33.322  32.358  28.092  1.00  0.00     0.163 HD
ATOM     37  O   UNL A   1      33.584  29.986  27.876  1.00  0.00    -0.269 OA
BRANCH  35  38
ATOM     38  C   UNL A   1      35.897  30.228  28.226  1.00  0.00     0.039 A 
ATOM     39  C   UNL A   1      36.258  29.755  29.494  1.00  0.00     0.014 A 
ATOM     40  C   UNL A   1      36.854  30.266  27.208  1.00  0.00     0.014 A 
ATOM     41  C   UNL A   1      37.563  29.320  29.735  1.00  0.00     0.010 A 
ATOM     42  C   UNL A   1      38.136  29.762  27.428  1.00  0.00     0.010 A 
ATOM     43  C   UNL A   1      38.514  29.321  28.704  1.00  0.00    -0.014 A 
BRANCH  43  44
ATOM     44  C   UNL A   1      39.926  28.945  28.970  1.00  0.00     0.031 A 
ATOM     45  C   UNL A   1      40.844  29.926  29.652  1.00  0.00     0.074 A 
ATOM     46  C   UNL A   1      40.390  27.741  28.584  1.00  0.00     0.049 A 
ATOM     47  N   UNL A   1      42.108  29.797  29.969  1.00  0.00    -0.248 NA
ATOM     48  C   UNL A   1      40.273  31.237  30.000  1.00  0.00     0.031 C 
ATOM     49  C   UNL A   1      39.610  26.720  27.883  1.00  0.00     0.029 A 
ATOM     50  N   UNL A   1      41.628  27.171  28.734  1.00  0.00    -0.354 N 
ATOM     51  C   UNL A   1      42.486  31.014  30.525  1.00  0.00     0.074 A 
ATOM     52  C   UNL A   1      41.332  31.884  30.461  1.00  0.00     0.031 C 
ATOM     53  C   UNL A   1      40.378  25.634  27.696  1.00  0.00     0.029 A 
ATOM     54  C   UNL A   1      41.708  25.890  28.243  1.00  0.00     0.049 A 
ATOM     55  H   UNL A   1      42.388  27.636  29.153  1.00  0.00     0.167 HD
ATOM     56  C   UNL A   1      43.679  31.370  31.061  1.00  0.00     0.037 A 
ATOM     57  C   UNL A   1      42.733  25.017  28.250  1.00  0.00     0.037 A 
ATOM     58  C   UNL A   1      44.809  30.488  31.164  1.00  0.00     0.049 A 
ATOM     59  C   UNL A   1      44.034  25.416  28.888  1.00  0.00     0.074 A 
ATOM     60  C   UNL A   1      46.043  30.727  31.745  1.00  0.00     0.029 A 
ATOM     61  N   UNL A   1      44.841  29.188  30.678  1.00  0.00    -0.354 N 
ATOM     62  N   UNL A   1      44.360  26.552  29.457  1.00  0.00    -0.248 NA
ATOM     63  C   UNL A   1      45.105  24.409  28.896  1.00  0.00     0.031 C 
ATOM     64  C   UNL A   1      46.829  29.578  31.588  1.00  0.00     0.029 A 
ATOM     65  C   UNL A   1      46.074  28.614  30.939  1.00  0.00     0.049 A 
ATOM     66  H   UNL A   1      44.097  28.740  30.216  1.00  0.00     0.167 HD
ATOM     67  C   UNL A   1      45.660  26.387  29.922  1.00  0.00     0.074 A 
ATOM     68  C   UNL A   1      46.060  25.040  29.566  1.00  0.00     0.031 C 
ATOM     69  C   UNL A   1      46.448  27.267  30.588  1.00  0.00     0.037 A 
BRANCH  56  70
ATOM     70  C   UNL A   1      43.807  32.780  31.570  1.00  0.00     0.058 A 
ATOM     71  C   UNL A   1      43.593  33.100  32.921  1.00  0.00     0.135 A 
ATOM     72  C   UNL A   1      44.123  33.829  30.692  1.00  0.00     0.135 A 
ATOM     73  F   UNL A   1      43.273  32.138  33.801  1.00  0.00    -0.206 F 
ATOM     74  C   UNL A   1      43.635  34.416  33.374  1.00  0.00     0.059 A 
ATOM     75  C   UNL A   1      44.197  35.149  31.129  1.00  0.00     0.059 A 
ATOM     76  F   UNL A   1      44.341  33.579  29.392  1.00  0.00    -0.206 F 
ATOM     77  C   UNL A   1      43.925  35.435  32.466  1.00  0.00     0.060 A 
BRANCH  77  78
ATOM     78  S   UNL A   1      43.935  37.143  33.050  1.00  0.00     0.124 S 
ATOM     79  O   UNL A   1      43.875  37.879  31.790  1.00  0.00    -0.237 OA
ATOM     80  O   UNL A   1      42.732  37.204  33.875  1.00  0.00    -0.237 OA
ATOM     81  O   UNL A   1      45.195  37.243  33.778  1.00  0.00    -0.744 OA
ENDBRANCH  77  78
ENDBRANCH  56  70
BRANCH  57  82
ATOM     82  C   UNL A   1      42.540  23.652  27.696  1.00  0.00     0.058 A 
ATOM     83  C   UNL A   1      42.639  23.423  26.315  1.00  0.00     0.135 A 
ATOM     84  C   UNL A   1      42.296  22.549  28.528  1.00  0.00     0.135 A 
ATOM     85  F   UNL A   1      42.867  24.449  25.481  1.00  0.00    -0.206 F 
ATOM     86  C   UNL A   1      42.497  22.150  25.777  1.00  0.00     0.059 A 
ATOM     87  C   UNL A   1      42.168  21.262  28.014  1.00  0.00     0.059 A 
ATOM     88  F   UNL A   1      42.209  22.717  29.857  1.00  0.00    -0.206 F 
ATOM     89  C   UNL A   1      42.266  21.073  26.635  1.00  0.00     0.060 A 
BRANCH  89  90
ATOM     90  S   UNL A   1      42.158  19.413  25.933  1.00  0.00     0.124 S 
ATOM     91  O   UNL A   1      40.727  19.293  25.681  1.00  0.00    -0.237 OA
ATOM     92  O   UNL A   1      43.008  19.522  24.751  1.00  0.00    -0.237 OA
ATOM     93  O   UNL A   1      42.686  18.565  26.997  1.00  0.00    -0.744 OA
ENDBRANCH  89  90
ENDBRANCH  57  82
BRANCH  69  94
ATOM     94  C   UNL A   1      47.805  26.784  31.014  1.00  0.00     0.058 A 
ATOM     95  C   UNL A   1      48.015  26.187  32.265  1.00  0.00     0.135 A 
ATOM     96  C   UNL A   1      48.901  26.895  30.143  1.00  0.00     0.135 A 
ATOM     97  F   UNL A   1      47.000  26.063  33.135  1.00  0.00    -0.206 F 
ATOM     98  C   UNL A   1      49.273  25.737  32.650  1.00  0.00     0.059 A 
ATOM     99  C   UNL A   1      50.163  26.434  30.500  1.00  0.00     0.059 A 
ATOM    100  F   UNL A   1      48.748  27.451  28.930  1.00  0.00    -0.206 F 
ATOM    101  C   UNL A   1      50.344  25.869  31.762  1.00  0.00     0.060 A 
BRANCH 101 102
ATOM    102  S   UNL A   1      51.970  25.266  32.261  1.00  0.00     0.124 S 
ATOM    103  O   UNL A   1      51.752  23.824  32.289  1.00  0.00    -0.237 OA
ATOM    104  O   UNL A   1      52.832  25.756  31.189  1.00  0.00    -0.237 OA
ATOM    105  O   UNL A   1      52.179  25.898  33.560  1.00  0.00    -0.744 OA
ENDBRANCH 101 102
ENDBRANCH  69  94
ENDBRANCH  43  44
ENDBRANCH  35  38
ENDBRANCH  33  34
ENDBRANCH   1  33
TORSDOF 18
ENDMDL
