MODEL 1
REMARK VINA RESULT:     -12.6      0.000      0.000
REMARK SMILES CC1(C)C(NC(=O)[C@@H]2CCC[C@@H](C(=O)NCCCNC(=O)c3ccc(-c4c5nc(c(-c6c(F)cc(S(=O)(=O)[O-])cc6F)c6ccc([nH]6)c(-c6c(F)cc(S(=O)(=O)[O-])cc6F)c6nc(c(-c7c(F)cc(S(=O)(=O)[O-])cc7F)c7ccc4[nH]7)C=C6)C=C5)cc3)C2)C1(C)C
REMARK SMILES IDX 17 1 16 2 15 3 13 4 14 5 12 7 8 8 9 9 88 10 10 11 11 12 6 13
REMARK SMILES IDX 5 14 7 16 4 17 1 18 2 19 3 20 89 21 90 22 91 23 18 24 19 25
REMARK SMILES IDX 20 26 21 28 22 29 23 30 87 31 24 32 86 33 25 34 26 35 27 36
REMARK SMILES IDX 80 37 28 38 85 39 79 40 81 41 29 42 84 43 78 44 77 45 30 47
REMARK SMILES IDX 64 48 43 49 63 50 44 51 47 52 62 53 82 54 45 55 46 56 61 58
REMARK SMILES IDX 83 59 48 60 31 61 32 62 41 63 33 64 34 65 40 66 42 67 35 68
REMARK SMILES IDX 36 69 37 70 38 71 39 72 65 73 66 74 75 75 67 76 68 77 74 78
REMARK SMILES IDX 76 79 69 80 70 81 71 82 72 83 73 84 49 85 50 86 59 87 51 88
REMARK SMILES IDX 52 89 58 90 60 91 53 92 54 93 55 94 56 95 57 96
REMARK H PARENT 15 6 5 15 19 27 81 46 47 57
REMARK Flexibility Score: inf
ROOT
ATOM      1  C   UNL A   1      34.232  31.224  27.728  1.00  0.00     0.042 C 
ENDROOT
BRANCH   1   2
ATOM      2  C   UNL A   1      33.440  30.343  26.775  1.00  0.00     0.117 C 
BRANCH   2   3
ATOM      3  N   UNL A   1      32.352  29.655  27.442  1.00  0.00    -0.356 N 
ATOM      4  C   UNL A   1      31.925  28.371  27.326  1.00  0.00     0.223 C 
ATOM      5  O   UNL A   1      30.989  28.014  28.042  1.00  0.00    -0.275 OA
ATOM      6  H   UNL A   1      31.841  30.208  28.077  1.00  0.00     0.163 HD
BRANCH   4   7
ATOM      7  C   UNL A   1      32.570  27.450  26.297  1.00  0.00     0.079 C 
ATOM      8  C   UNL A   1      30.751  25.586  26.152  1.00  0.00     0.079 C 
ATOM      9  C   UNL A   1      30.373  26.196  24.794  1.00  0.00     0.013 C 
ATOM     10  C   UNL A   1      32.189  25.990  26.541  1.00  0.00     0.027 C 
ATOM     11  C   UNL A   1      30.773  27.647  24.559  1.00  0.00     0.002 C 
ATOM     12  C   UNL A   1      32.230  27.903  24.880  1.00  0.00     0.013 C 
BRANCH   8  13
ATOM     13  C   UNL A   1      30.663  24.040  26.335  1.00  0.00     0.223 C 
ATOM     14  N   UNL A   1      31.189  23.142  25.447  1.00  0.00    -0.352 N 
ATOM     15  H   UNL A   1      30.930  22.203  25.586  1.00  0.00     0.163 HD
ATOM     16  O   UNL A   1      30.023  23.552  27.276  1.00  0.00    -0.275 OA
BRANCH  14  17
ATOM     17  C   UNL A   1      32.054  23.386  24.356  1.00  0.00     0.094 C 
ATOM     18  C   UNL A   1      34.349  24.526  24.186  1.00  0.00     0.014 C 
ATOM     19  C   UNL A   1      33.557  23.295  24.572  1.00  0.00    -0.007 C 
ATOM     20  C   UNL A   1      34.138  22.627  25.802  1.00  0.00     0.014 C 
ATOM     21  C   UNL A   1      32.845  22.411  23.530  1.00  0.00    -0.007 C 
ATOM     22  C   UNL A   1      32.964  22.768  22.057  1.00  0.00     0.014 C 
ATOM     23  C   UNL A   1      32.587  20.940  23.733  1.00  0.00     0.014 C 
ENDBRANCH  14  17
ENDBRANCH   8  13
ENDBRANCH   4   7
ENDBRANCH   2   3
ENDBRANCH   1   2
BRANCH   1  24
ATOM     24  C   UNL A   1      35.451  30.543  28.339  1.00  0.00     0.118 C 
BRANCH  24  25
ATOM     25  N   UNL A   1      35.465  30.618  29.794  1.00  0.00    -0.352 N 
ATOM     26  C   UNL A   1      36.449  30.286  30.690  1.00  0.00     0.251 C 
ATOM     27  H   UNL A   1      34.636  30.962  30.199  1.00  0.00     0.163 HD
ATOM     28  O   UNL A   1      36.178  30.238  31.887  1.00  0.00    -0.269 OA
BRANCH  26  29
ATOM     29  C   UNL A   1      37.817  29.975  30.225  1.00  0.00     0.039 A 
ATOM     30  C   UNL A   1      38.761  29.538  31.157  1.00  0.00     0.014 A 
ATOM     31  C   UNL A   1      38.182  30.141  28.886  1.00  0.00     0.014 A 
ATOM     32  C   UNL A   1      40.053  29.216  30.735  1.00  0.00     0.010 A 
ATOM     33  C   UNL A   1      39.440  29.734  28.452  1.00  0.00     0.010 A 
ATOM     34  C   UNL A   1      40.394  29.281  29.374  1.00  0.00    -0.014 A 
BRANCH  34  35
ATOM     35  C   UNL A   1      41.748  28.892  28.906  1.00  0.00     0.031 A 
ATOM     36  C   UNL A   1      42.848  29.917  28.831  1.00  0.00     0.074 A 
ATOM     37  C   UNL A   1      41.973  27.627  28.502  1.00  0.00     0.049 A 
ATOM     38  N   UNL A   1      44.082  29.775  28.419  1.00  0.00    -0.248 NA
ATOM     39  C   UNL A   1      42.511  31.288  29.245  1.00  0.00     0.031 C 
ATOM     40  C   UNL A   1      40.970  26.560  28.466  1.00  0.00     0.029 A 
ATOM     41  N   UNL A   1      43.114  27.023  28.036  1.00  0.00    -0.354 N 
ATOM     42  C   UNL A   1      44.663  31.033  28.516  1.00  0.00     0.074 A 
ATOM     43  C   UNL A   1      43.629  31.941  28.963  1.00  0.00     0.031 C 
ATOM     44  C   UNL A   1      41.543  25.430  28.024  1.00  0.00     0.029 A 
ATOM     45  C   UNL A   1      42.945  25.697  27.715  1.00  0.00     0.049 A 
ATOM     46  H   UNL A   1      43.972  27.495  27.940  1.00  0.00     0.167 HD
ATOM     47  C   UNL A   1      45.947  31.396  28.286  1.00  0.00     0.037 A 
ATOM     48  C   UNL A   1      43.819  24.797  27.223  1.00  0.00     0.037 A 
ATOM     49  C   UNL A   1      46.976  30.483  27.859  1.00  0.00     0.049 A 
ATOM     50  C   UNL A   1      45.244  25.215  26.988  1.00  0.00     0.074 A 
ATOM     51  C   UNL A   1      48.319  30.737  27.643  1.00  0.00     0.029 A 
ATOM     52  N   UNL A   1      46.774  29.139  27.579  1.00  0.00    -0.354 N 
ATOM     53  N   UNL A   1      45.793  26.396  27.154  1.00  0.00    -0.248 NA
ATOM     54  C   UNL A   1      46.173  24.180  26.517  1.00  0.00     0.031 C 
ATOM     55  C   UNL A   1      48.920  29.557  27.193  1.00  0.00     0.029 A 
ATOM     56  C   UNL A   1      47.964  28.553  27.178  1.00  0.00     0.049 A 
ATOM     57  H   UNL A   1      45.912  28.669  27.655  1.00  0.00     0.167 HD
ATOM     58  C   UNL A   1      47.136  26.239  26.828  1.00  0.00     0.074 A 
ATOM     59  C   UNL A   1      47.317  24.847  26.471  1.00  0.00     0.031 C 
ATOM     60  C   UNL A   1      48.128  27.164  26.828  1.00  0.00     0.037 A 
BRANCH  47  61
ATOM     61  C   UNL A   1      46.309  32.842  28.501  1.00  0.00     0.058 A 
ATOM     62  C   UNL A   1      46.233  33.783  27.460  1.00  0.00     0.135 A 
ATOM     63  C   UNL A   1      46.721  33.299  29.764  1.00  0.00     0.135 A 
ATOM     64  F   UNL A   1      45.859  33.401  26.229  1.00  0.00    -0.206 F 
ATOM     65  C   UNL A   1      46.594  35.112  27.652  1.00  0.00     0.059 A 
ATOM     66  C   UNL A   1      47.055  34.631  29.986  1.00  0.00     0.059 A 
ATOM     67  F   UNL A   1      46.808  32.445  30.797  1.00  0.00    -0.206 F 
ATOM     68  C   UNL A   1      47.007  35.527  28.919  1.00  0.00     0.060 A 
BRANCH  68  69
ATOM     69  S   UNL A   1      47.484  37.253  29.147  1.00  0.00     0.124 S 
ATOM     70  O   UNL A   1      48.832  37.258  28.587  1.00  0.00    -0.237 OA
ATOM     71  O   UNL A   1      46.473  37.962  28.370  1.00  0.00    -0.237 OA
ATOM     72  O   UNL A   1      47.405  37.439  30.593  1.00  0.00    -0.744 OA
ENDBRANCH  68  69
ENDBRANCH  47  61
BRANCH  48  73
ATOM     73  C   UNL A   1      43.366  23.408  26.947  1.00  0.00     0.058 A 
ATOM     74  C   UNL A   1      43.151  22.962  25.636  1.00  0.00     0.135 A 
ATOM     75  C   UNL A   1      43.178  22.487  27.989  1.00  0.00     0.135 A 
ATOM     76  F   UNL A   1      43.314  23.806  24.605  1.00  0.00    -0.206 F 
ATOM     77  C   UNL A   1      42.754  21.656  25.365  1.00  0.00     0.059 A 
ATOM     78  C   UNL A   1      42.806  21.169  27.744  1.00  0.00     0.059 A 
ATOM     79  F   UNL A   1      43.390  22.858  29.262  1.00  0.00    -0.206 F 
ATOM     80  C   UNL A   1      42.589  20.765  26.427  1.00  0.00     0.060 A 
BRANCH  80  81
ATOM     81  S   UNL A   1      42.138  19.055  26.061  1.00  0.00     0.124 S 
ATOM     82  O   UNL A   1      42.504  18.382  27.303  1.00  0.00    -0.237 OA
ATOM     83  O   UNL A   1      40.708  19.166  25.792  1.00  0.00    -0.237 OA
ATOM     84  O   UNL A   1      42.963  18.732  24.901  1.00  0.00    -0.744 OA
ENDBRANCH  80  81
ENDBRANCH  48  73
BRANCH  60  85
ATOM     85  C   UNL A   1      49.510  26.696  26.459  1.00  0.00     0.058 A 
ATOM     86  C   UNL A   1      50.331  26.021  27.374  1.00  0.00     0.135 A 
ATOM     87  C   UNL A   1      49.995  26.882  25.154  1.00  0.00     0.135 A 
ATOM     88  F   UNL A   1      49.918  25.823  28.636  1.00  0.00    -0.206 F 
ATOM     89  C   UNL A   1      51.597  25.569  27.016  1.00  0.00     0.059 A 
ATOM     90  C   UNL A   1      51.246  26.413  24.767  1.00  0.00     0.059 A 
ATOM     91  F   UNL A   1      49.246  27.513  24.236  1.00  0.00    -0.206 F 
ATOM     92  C   UNL A   1      52.046  25.767  25.709  1.00  0.00     0.060 A 
BRANCH  92  93
ATOM     93  S   UNL A   1      53.677  25.147  25.250  1.00  0.00     0.124 S 
ATOM     94  O   UNL A   1      54.522  25.760  26.269  1.00  0.00    -0.237 OA
ATOM     95  O   UNL A   1      53.503  23.702  25.355  1.00  0.00    -0.237 OA
ATOM     96  O   UNL A   1      53.862  25.652  23.892  1.00  0.00    -0.744 OA
ENDBRANCH  92  93
ENDBRANCH  60  85
ENDBRANCH  34  35
ENDBRANCH  26  29
ENDBRANCH  24  25
ENDBRANCH   1  24
TORSDOF 15
ENDMDL
MODEL 2
REMARK VINA RESULT:     -12.5      6.551     12.078
REMARK SMILES CC1(C)C(NC(=O)[C@@H]2CCC[C@@H](C(=O)NCCCNC(=O)c3ccc(-c4c5nc(c(-c6c(F)cc(S(=O)(=O)[O-])cc6F)c6ccc([nH]6)c(-c6c(F)cc(S(=O)(=O)[O-])cc6F)c6nc(c(-c7c(F)cc(S(=O)(=O)[O-])cc7F)c7ccc4[nH]7)C=C6)C=C5)cc3)C2)C1(C)C
REMARK SMILES IDX 17 1 16 2 15 3 13 4 14 5 12 7 8 8 9 9 88 10 10 11 11 12 6 13
REMARK SMILES IDX 5 14 7 16 4 17 1 18 2 19 3 20 89 21 90 22 91 23 18 24 19 25
REMARK SMILES IDX 20 26 21 28 22 29 23 30 87 31 24 32 86 33 25 34 26 35 27 36
REMARK SMILES IDX 80 37 28 38 85 39 79 40 81 41 29 42 84 43 78 44 77 45 30 47
REMARK SMILES IDX 64 48 43 49 63 50 44 51 47 52 62 53 82 54 45 55 46 56 61 58
REMARK SMILES IDX 83 59 48 60 31 61 32 62 41 63 33 64 34 65 40 66 42 67 35 68
REMARK SMILES IDX 36 69 37 70 38 71 39 72 65 73 66 74 75 75 67 76 68 77 74 78
REMARK SMILES IDX 76 79 69 80 70 81 71 82 72 83 73 84 49 85 50 86 59 87 51 88
REMARK SMILES IDX 52 89 58 90 60 91 53 92 54 93 55 94 56 95 57 96
REMARK H PARENT 15 6 5 15 19 27 81 46 47 57
REMARK Flexibility Score: inf
ROOT
ATOM      1  C   UNL A   1      39.241  22.242  26.360  1.00  0.00     0.042 C 
ENDROOT
BRANCH   1   2
ATOM      2  C   UNL A   1      37.879  22.836  26.039  1.00  0.00     0.117 C 
BRANCH   2   3
ATOM      3  N   UNL A   1      37.554  22.729  24.630  1.00  0.00    -0.356 N 
ATOM      4  C   UNL A   1      36.454  23.147  23.951  1.00  0.00     0.223 C 
ATOM      5  O   UNL A   1      36.435  22.969  22.732  1.00  0.00    -0.275 OA
ATOM      6  H   UNL A   1      38.237  22.281  24.081  1.00  0.00     0.163 HD
BRANCH   4   7
ATOM      7  C   UNL A   1      35.283  23.759  24.711  1.00  0.00     0.079 C 
ATOM      8  C   UNL A   1      33.710  24.356  22.717  1.00  0.00     0.079 C 
ATOM      9  C   UNL A   1      32.860  23.154  23.155  1.00  0.00     0.013 C 
ATOM     10  C   UNL A   1      34.592  24.845  23.885  1.00  0.00     0.027 C 
ATOM     11  C   UNL A   1      33.559  22.087  23.990  1.00  0.00     0.002 C 
ATOM     12  C   UNL A   1      34.310  22.676  25.165  1.00  0.00     0.013 C 
BRANCH   8  13
ATOM     13  C   UNL A   1      32.994  25.618  22.147  1.00  0.00     0.223 C 
ATOM     14  N   UNL A   1      32.036  26.317  22.829  1.00  0.00    -0.352 N 
ATOM     15  H   UNL A   1      31.546  26.991  22.306  1.00  0.00     0.163 HD
ATOM     16  O   UNL A   1      33.212  25.998  20.989  1.00  0.00    -0.275 OA
BRANCH  14  17
ATOM     17  C   UNL A   1      31.658  26.197  24.186  1.00  0.00     0.094 C 
ATOM     18  C   UNL A   1      32.100  27.667  26.244  1.00  0.00     0.014 C 
ATOM     19  C   UNL A   1      31.313  27.455  24.969  1.00  0.00    -0.007 C 
ATOM     20  C   UNL A   1      31.031  28.769  24.268  1.00  0.00     0.014 C 
ATOM     21  C   UNL A   1      30.294  26.310  24.808  1.00  0.00    -0.007 C 
ATOM     22  C   UNL A   1      30.046  25.375  25.982  1.00  0.00     0.014 C 
ATOM     23  C   UNL A   1      29.101  26.388  23.891  1.00  0.00     0.014 C 
ENDBRANCH  14  17
ENDBRANCH   8  13
ENDBRANCH   4   7
ENDBRANCH   2   3
ENDBRANCH   1   2
BRANCH   1  24
ATOM     24  C   UNL A   1      40.198  23.211  27.044  1.00  0.00     0.118 C 
BRANCH  24  25
ATOM     25  N   UNL A   1      41.083  23.885  26.103  1.00  0.00    -0.352 N 
ATOM     26  C   UNL A   1      41.565  25.169  26.101  1.00  0.00     0.251 C 
ATOM     27  H   UNL A   1      41.383  23.329  25.348  1.00  0.00     0.163 HD
ATOM     28  O   UNL A   1      42.138  25.593  25.100  1.00  0.00    -0.269 OA
BRANCH  26  29
ATOM     29  C   UNL A   1      41.385  26.042  27.280  1.00  0.00     0.039 A 
ATOM     30  C   UNL A   1      42.275  27.101  27.474  1.00  0.00     0.014 A 
ATOM     31  C   UNL A   1      40.368  25.804  28.209  1.00  0.00     0.014 A 
ATOM     32  C   UNL A   1      42.110  27.952  28.569  1.00  0.00     0.010 A 
ATOM     33  C   UNL A   1      40.151  26.705  29.247  1.00  0.00     0.010 A 
ATOM     34  C   UNL A   1      41.027  27.780  29.448  1.00  0.00    -0.014 A 
BRANCH  34  35
ATOM     35  C   UNL A   1      40.811  28.709  30.585  1.00  0.00     0.031 A 
ATOM     36  C   UNL A   1      41.628  28.571  31.842  1.00  0.00     0.074 A 
ATOM     37  C   UNL A   1      39.845  29.645  30.504  1.00  0.00     0.049 A 
ATOM     38  N   UNL A   1      41.561  29.266  32.950  1.00  0.00    -0.248 NA
ATOM     39  C   UNL A   1      42.631  27.495  31.871  1.00  0.00     0.031 C 
ATOM     40  C   UNL A   1      38.944  29.833  29.365  1.00  0.00     0.029 A 
ATOM     41  N   UNL A   1      39.452  30.608  31.399  1.00  0.00    -0.354 N 
ATOM     42  C   UNL A   1      42.503  28.707  33.805  1.00  0.00     0.074 A 
ATOM     43  C   UNL A   1      43.081  27.575  33.114  1.00  0.00     0.031 C 
ATOM     44  C   UNL A   1      38.120  30.861  29.619  1.00  0.00     0.029 A 
ATOM     45  C   UNL A   1      38.410  31.385  30.951  1.00  0.00     0.049 A 
ATOM     46  H   UNL A   1      39.876  30.731  32.279  1.00  0.00     0.167 HD
ATOM     47  C   UNL A   1      42.876  29.117  35.041  1.00  0.00     0.037 A 
ATOM     48  C   UNL A   1      37.757  32.402  31.546  1.00  0.00     0.037 A 
ATOM     49  C   UNL A   1      42.308  30.256  35.716  1.00  0.00     0.049 A 
ATOM     50  C   UNL A   1      38.196  32.852  32.913  1.00  0.00     0.074 A 
ATOM     51  C   UNL A   1      42.648  30.785  36.948  1.00  0.00     0.029 A 
ATOM     52  N   UNL A   1      41.280  31.040  35.214  1.00  0.00    -0.354 N 
ATOM     53  N   UNL A   1      39.139  32.355  33.679  1.00  0.00    -0.248 NA
ATOM     54  C   UNL A   1      37.498  34.008  33.489  1.00  0.00     0.031 C 
ATOM     55  C   UNL A   1      41.797  31.863  37.210  1.00  0.00     0.029 A 
ATOM     56  C   UNL A   1      40.961  32.040  36.118  1.00  0.00     0.049 A 
ATOM     57  H   UNL A   1      40.840  30.907  34.343  1.00  0.00     0.167 HD
ATOM     58  C   UNL A   1      39.161  33.152  34.819  1.00  0.00     0.074 A 
ATOM     59  C   UNL A   1      38.149  34.172  34.632  1.00  0.00     0.031 C 
ATOM     60  C   UNL A   1      39.951  33.050  35.916  1.00  0.00     0.037 A 
BRANCH  47  61
ATOM     61  C   UNL A   1      43.956  28.330  35.736  1.00  0.00     0.058 A 
ATOM     62  C   UNL A   1      45.318  28.621  35.546  1.00  0.00     0.135 A 
ATOM     63  C   UNL A   1      43.629  27.283  36.613  1.00  0.00     0.135 A 
ATOM     64  F   UNL A   1      45.689  29.602  34.708  1.00  0.00    -0.206 F 
ATOM     65  C   UNL A   1      46.315  27.876  36.165  1.00  0.00     0.059 A 
ATOM     66  C   UNL A   1      44.611  26.545  37.269  1.00  0.00     0.059 A 
ATOM     67  F   UNL A   1      42.345  26.962  36.837  1.00  0.00    -0.206 F 
ATOM     68  C   UNL A   1      45.952  26.836  37.023  1.00  0.00     0.060 A 
BRANCH  68  69
ATOM     69  S   UNL A   1      47.260  25.872  37.808  1.00  0.00     0.124 S 
ATOM     70  O   UNL A   1      48.298  26.882  37.989  1.00  0.00    -0.237 OA
ATOM     71  O   UNL A   1      46.613  25.403  39.029  1.00  0.00    -0.237 OA
ATOM     72  O   UNL A   1      47.557  24.837  36.822  1.00  0.00    -0.744 OA
ENDBRANCH  68  69
ENDBRANCH  47  61
BRANCH  48  73
ATOM     73  C   UNL A   1      36.638  33.074  30.835  1.00  0.00     0.058 A 
ATOM     74  C   UNL A   1      35.305  32.861  31.215  1.00  0.00     0.135 A 
ATOM     75  C   UNL A   1      36.882  33.973  29.786  1.00  0.00     0.135 A 
ATOM     76  F   UNL A   1      35.020  32.007  32.210  1.00  0.00    -0.206 F 
ATOM     77  C   UNL A   1      34.252  33.505  30.574  1.00  0.00     0.059 A 
ATOM     78  C   UNL A   1      35.849  34.650  29.146  1.00  0.00     0.059 A 
ATOM     79  F   UNL A   1      38.141  34.228  29.397  1.00  0.00    -0.206 F 
ATOM     80  C   UNL A   1      34.535  34.403  29.543  1.00  0.00     0.060 A 
BRANCH  80  81
ATOM     81  S   UNL A   1      33.166  35.285  28.761  1.00  0.00     0.124 S 
ATOM     82  O   UNL A   1      33.873  36.308  27.998  1.00  0.00    -0.237 OA
ATOM     83  O   UNL A   1      32.530  34.231  27.979  1.00  0.00    -0.237 OA
ATOM     84  O   UNL A   1      32.388  35.769  29.897  1.00  0.00    -0.744 OA
ENDBRANCH  80  81
ENDBRANCH  48  73
BRANCH  60  85
ATOM     85  C   UNL A   1      39.775  34.086  36.994  1.00  0.00     0.058 A 
ATOM     86  C   UNL A   1      39.037  33.825  38.157  1.00  0.00     0.135 A 
ATOM     87  C   UNL A   1      40.400  35.339  36.880  1.00  0.00     0.135 A 
ATOM     88  F   UNL A   1      38.415  32.645  38.313  1.00  0.00    -0.206 F 
ATOM     89  C   UNL A   1      38.902  34.779  39.161  1.00  0.00     0.059 A 
ATOM     90  C   UNL A   1      40.302  36.296  37.884  1.00  0.00     0.059 A 
ATOM     91  F   UNL A   1      41.128  35.637  35.792  1.00  0.00    -0.206 F 
ATOM     92  C   UNL A   1      39.540  36.012  39.016  1.00  0.00     0.060 A 
BRANCH  92  93
ATOM     93  S   UNL A   1      39.383  37.229  40.339  1.00  0.00     0.124 S 
ATOM     94  O   UNL A   1      38.769  38.350  39.637  1.00  0.00    -0.237 OA
ATOM     95  O   UNL A   1      38.529  36.538  41.300  1.00  0.00    -0.237 OA
ATOM     96  O   UNL A   1      40.761  37.438  40.773  1.00  0.00    -0.744 OA
ENDBRANCH  92  93
ENDBRANCH  60  85
ENDBRANCH  34  35
ENDBRANCH  26  29
ENDBRANCH  24  25
ENDBRANCH   1  24
TORSDOF 15
ENDMDL
MODEL 3
REMARK VINA RESULT:     -12.4      6.482     12.035
REMARK SMILES CC1(C)C(NC(=O)[C@@H]2CCC[C@@H](C(=O)NCCCNC(=O)c3ccc(-c4c5nc(c(-c6c(F)cc(S(=O)(=O)[O-])cc6F)c6ccc([nH]6)c(-c6c(F)cc(S(=O)(=O)[O-])cc6F)c6nc(c(-c7c(F)cc(S(=O)(=O)[O-])cc7F)c7ccc4[nH]7)C=C6)C=C5)cc3)C2)C1(C)C
REMARK SMILES IDX 17 1 16 2 15 3 13 4 14 5 12 7 8 8 9 9 88 10 10 11 11 12 6 13
REMARK SMILES IDX 5 14 7 16 4 17 1 18 2 19 3 20 89 21 90 22 91 23 18 24 19 25
REMARK SMILES IDX 20 26 21 28 22 29 23 30 87 31 24 32 86 33 25 34 26 35 27 36
REMARK SMILES IDX 80 37 28 38 85 39 79 40 81 41 29 42 84 43 78 44 77 45 30 47
REMARK SMILES IDX 64 48 43 49 63 50 44 51 47 52 62 53 82 54 45 55 46 56 61 58
REMARK SMILES IDX 83 59 48 60 31 61 32 62 41 63 33 64 34 65 40 66 42 67 35 68
REMARK SMILES IDX 36 69 37 70 38 71 39 72 65 73 66 74 75 75 67 76 68 77 74 78
REMARK SMILES IDX 76 79 69 80 70 81 71 82 72 83 73 84 49 85 50 86 59 87 51 88
REMARK SMILES IDX 52 89 58 90 60 91 53 92 54 93 55 94 56 95 57 96
REMARK H PARENT 15 6 5 15 19 27 81 46 47 57
REMARK Flexibility Score: inf
ROOT
ATOM      1  C   UNL A   1      38.520  23.469  26.511  1.00  0.00     0.042 C 
ENDROOT
BRANCH   1   2
ATOM      2  C   UNL A   1      37.996  22.318  25.667  1.00  0.00     0.117 C 
BRANCH   2   3
ATOM      3  N   UNL A   1      37.026  22.758  24.683  1.00  0.00    -0.356 N 
ATOM      4  C   UNL A   1      35.669  22.710  24.709  1.00  0.00     0.223 C 
ATOM      5  O   UNL A   1      35.063  23.192  23.752  1.00  0.00    -0.275 OA
ATOM      6  H   UNL A   1      37.413  23.152  23.868  1.00  0.00     0.163 HD
BRANCH   4   7
ATOM      7  C   UNL A   1      34.959  22.026  25.872  1.00  0.00     0.079 C 
ATOM      8  C   UNL A   1      32.615  23.160  25.703  1.00  0.00     0.079 C 
ATOM      9  C   UNL A   1      32.120  21.826  25.125  1.00  0.00     0.013 C 
ATOM     10  C   UNL A   1      33.916  22.948  26.505  1.00  0.00     0.027 C 
ATOM     11  C   UNL A   1      33.172  20.911  24.511  1.00  0.00     0.002 C 
ATOM     12  C   UNL A   1      34.356  20.697  25.429  1.00  0.00     0.013 C 
BRANCH   8  13
ATOM     13  C   UNL A   1      31.662  23.985  26.619  1.00  0.00     0.223 C 
ATOM     14  N   UNL A   1      31.808  25.325  26.852  1.00  0.00    -0.352 N 
ATOM     15  H   UNL A   1      31.248  25.698  27.570  1.00  0.00     0.163 HD
ATOM     16  O   UNL A   1      30.758  23.426  27.255  1.00  0.00    -0.275 OA
BRANCH  14  17
ATOM     17  C   UNL A   1      32.660  26.244  26.198  1.00  0.00     0.094 C 
ATOM     18  C   UNL A   1      32.945  26.887  23.728  1.00  0.00     0.014 C 
ATOM     19  C   UNL A   1      32.131  27.015  24.997  1.00  0.00    -0.007 C 
ATOM     20  C   UNL A   1      30.646  27.086  24.698  1.00  0.00     0.014 C 
ATOM     21  C   UNL A   1      32.658  27.746  26.247  1.00  0.00    -0.007 C 
ATOM     22  C   UNL A   1      34.035  28.391  26.196  1.00  0.00     0.014 C 
ATOM     23  C   UNL A   1      31.759  28.421  27.251  1.00  0.00     0.014 C 
ENDBRANCH  14  17
ENDBRANCH   8  13
ENDBRANCH   4   7
ENDBRANCH   2   3
ENDBRANCH   1   2
BRANCH   1  24
ATOM     24  C   UNL A   1      39.946  23.277  27.011  1.00  0.00     0.118 C 
BRANCH  24  25
ATOM     25  N   UNL A   1      40.937  23.875  26.126  1.00  0.00    -0.352 N 
ATOM     26  C   UNL A   1      41.522  25.116  26.157  1.00  0.00     0.251 C 
ATOM     27  H   UNL A   1      41.234  23.296  25.387  1.00  0.00     0.163 HD
ATOM     28  O   UNL A   1      42.185  25.490  25.194  1.00  0.00    -0.269 OA
BRANCH  26  29
ATOM     29  C   UNL A   1      41.345  26.001  27.327  1.00  0.00     0.039 A 
ATOM     30  C   UNL A   1      42.300  26.991  27.571  1.00  0.00     0.014 A 
ATOM     31  C   UNL A   1      40.266  25.841  28.200  1.00  0.00     0.014 A 
ATOM     32  C   UNL A   1      42.141  27.853  28.658  1.00  0.00     0.010 A 
ATOM     33  C   UNL A   1      40.061  26.756  29.228  1.00  0.00     0.010 A 
ATOM     34  C   UNL A   1      41.003  27.764  29.478  1.00  0.00    -0.014 A 
BRANCH  34  35
ATOM     35  C   UNL A   1      40.798  28.708  30.605  1.00  0.00     0.031 A 
ATOM     36  C   UNL A   1      41.620  28.582  31.859  1.00  0.00     0.074 A 
ATOM     37  C   UNL A   1      39.835  29.646  30.517  1.00  0.00     0.049 A 
ATOM     38  N   UNL A   1      41.563  29.290  32.958  1.00  0.00    -0.248 NA
ATOM     39  C   UNL A   1      42.619  27.502  31.896  1.00  0.00     0.031 C 
ATOM     40  C   UNL A   1      38.928  29.824  29.381  1.00  0.00     0.029 A 
ATOM     41  N   UNL A   1      39.450  30.622  31.402  1.00  0.00    -0.354 N 
ATOM     42  C   UNL A   1      42.507  28.738  33.816  1.00  0.00     0.074 A 
ATOM     43  C   UNL A   1      43.077  27.596  33.136  1.00  0.00     0.031 C 
ATOM     44  C   UNL A   1      38.110  30.858  29.627  1.00  0.00     0.029 A 
ATOM     45  C   UNL A   1      38.409  31.397  30.950  1.00  0.00     0.049 A 
ATOM     46  H   UNL A   1      39.879  30.753  32.279  1.00  0.00     0.167 HD
ATOM     47  C   UNL A   1      42.888  29.162  35.044  1.00  0.00     0.037 A 
ATOM     48  C   UNL A   1      37.763  32.424  31.537  1.00  0.00     0.037 A 
ATOM     49  C   UNL A   1      42.329  30.312  35.708  1.00  0.00     0.049 A 
ATOM     50  C   UNL A   1      38.212  32.889  32.895  1.00  0.00     0.074 A 
ATOM     51  C   UNL A   1      42.678  30.855  36.932  1.00  0.00     0.029 A 
ATOM     52  N   UNL A   1      41.301  31.094  35.202  1.00  0.00    -0.354 N 
ATOM     53  N   UNL A   1      39.156  32.398  33.662  1.00  0.00    -0.248 NA
ATOM     54  C   UNL A   1      37.521  34.055  33.461  1.00  0.00     0.031 C 
ATOM     55  C   UNL A   1      41.832  31.940  37.184  1.00  0.00     0.029 A 
ATOM     56  C   UNL A   1      40.991  32.106  36.095  1.00  0.00     0.049 A 
ATOM     57  H   UNL A   1      40.856  30.951  34.335  1.00  0.00     0.167 HD
ATOM     58  C   UNL A   1      39.188  33.209  34.792  1.00  0.00     0.074 A 
ATOM     59  C   UNL A   1      38.179  34.230  34.599  1.00  0.00     0.031 C 
ATOM     60  C   UNL A   1      39.984  33.117  35.887  1.00  0.00     0.037 A 
BRANCH  47  61
ATOM     61  C   UNL A   1      43.969  28.379  35.743  1.00  0.00     0.058 A 
ATOM     62  C   UNL A   1      45.331  28.663  35.543  1.00  0.00     0.135 A 
ATOM     63  C   UNL A   1      43.643  27.344  36.634  1.00  0.00     0.135 A 
ATOM     64  F   UNL A   1      45.701  29.633  34.693  1.00  0.00    -0.206 F 
ATOM     65  C   UNL A   1      46.328  27.922  36.166  1.00  0.00     0.059 A 
ATOM     66  C   UNL A   1      44.625  26.610  37.293  1.00  0.00     0.059 A 
ATOM     67  F   UNL A   1      42.358  27.030  36.867  1.00  0.00    -0.206 F 
ATOM     68  C   UNL A   1      45.966  26.894  37.038  1.00  0.00     0.060 A 
BRANCH  68  69
ATOM     69  S   UNL A   1      47.274  25.934  37.827  1.00  0.00     0.124 S 
ATOM     70  O   UNL A   1      47.146  26.357  39.219  1.00  0.00    -0.237 OA
ATOM     71  O   UNL A   1      46.870  24.561  37.544  1.00  0.00    -0.237 OA
ATOM     72  O   UNL A   1      48.484  26.382  37.145  1.00  0.00    -0.744 OA
ENDBRANCH  68  69
ENDBRANCH  47  61
BRANCH  48  73
ATOM     73  C   UNL A   1      36.643  33.092  30.823  1.00  0.00     0.058 A 
ATOM     74  C   UNL A   1      35.312  32.900  31.222  1.00  0.00     0.135 A 
ATOM     75  C   UNL A   1      36.884  33.966  29.753  1.00  0.00     0.135 A 
ATOM     76  F   UNL A   1      35.030  32.071  32.239  1.00  0.00    -0.206 F 
ATOM     77  C   UNL A   1      34.258  33.541  30.579  1.00  0.00     0.059 A 
ATOM     78  C   UNL A   1      35.850  34.639  29.109  1.00  0.00     0.059 A 
ATOM     79  F   UNL A   1      38.141  34.200  29.345  1.00  0.00    -0.206 F 
ATOM     80  C   UNL A   1      34.539  34.414  29.526  1.00  0.00     0.060 A 
BRANCH  80  81
ATOM     81  S   UNL A   1      33.170  35.292  28.740  1.00  0.00     0.124 S 
ATOM     82  O   UNL A   1      33.875  36.332  27.998  1.00  0.00    -0.237 OA
ATOM     83  O   UNL A   1      32.553  34.242  27.937  1.00  0.00    -0.237 OA
ATOM     84  O   UNL A   1      32.374  35.753  29.873  1.00  0.00    -0.744 OA
ENDBRANCH  80  81
ENDBRANCH  48  73
BRANCH  60  85
ATOM     85  C   UNL A   1      39.818  34.167  36.952  1.00  0.00     0.058 A 
ATOM     86  C   UNL A   1      39.003  33.959  38.074  1.00  0.00     0.135 A 
ATOM     87  C   UNL A   1      40.528  35.377  36.871  1.00  0.00     0.135 A 
ATOM     88  F   UNL A   1      38.299  32.823  38.198  1.00  0.00    -0.206 F 
ATOM     89  C   UNL A   1      38.877  34.925  39.068  1.00  0.00     0.059 A 
ATOM     90  C   UNL A   1      40.438  36.343  37.867  1.00  0.00     0.059 A 
ATOM     91  F   UNL A   1      41.330  35.622  35.823  1.00  0.00    -0.206 F 
ATOM     92  C   UNL A   1      39.600  36.114  38.957  1.00  0.00     0.060 A 
BRANCH  92  93
ATOM     93  S   UNL A   1      39.451  37.344  40.269  1.00  0.00     0.124 S 
ATOM     94  O   UNL A   1      40.838  37.770  40.431  1.00  0.00    -0.237 OA
ATOM     95  O   UNL A   1      38.551  38.327  39.675  1.00  0.00    -0.237 OA
ATOM     96  O   UNL A   1      38.893  36.585  41.384  1.00  0.00    -0.744 OA
ENDBRANCH  92  93
ENDBRANCH  60  85
ENDBRANCH  34  35
ENDBRANCH  26  29
ENDBRANCH  24  25
ENDBRANCH   1  24
TORSDOF 15
ENDMDL
