MODEL 1
REMARK VINA RESULT:     -11.7      0.000      0.000
REMARK SMILES Cc1ccc(C)n1-c1ccccc1S[C@H](C)C(=O)NCCCNC(=O)c1ccc(-c2c3nc(c(-c4c(F)cc(S(=O)(=O)[O-])cc4F)c4ccc([nH]4)c(-c4c(F)cc(S(=O)(=O)[O-])cc4F)c4nc(c(-c5c(F)cc(S(=O)(=O)[O-])cc5F)c5ccc2[nH]5)C=C4)C=C3)cc1
REMARK SMILES IDX 21 1 20 2 19 3 17 4 18 5 15 7 16 8 14 9 13 10 8 11 9 12
REMARK SMILES IDX 10 13 12 14 11 15 7 16 1 17 2 18 3 19 4 20 5 21 6 22 22 23
REMARK SMILES IDX 23 24 24 25 25 27 26 28 27 29 91 30 28 31 90 32 29 33 30 34
REMARK SMILES IDX 31 35 84 36 32 37 89 38 83 39 85 40 33 41 88 42 82 43 81 44
REMARK SMILES IDX 34 46 68 47 47 48 67 49 48 50 51 51 66 52 86 53 49 54 50 55
REMARK SMILES IDX 65 57 87 58 52 59 35 60 36 61 45 62 37 63 38 64 44 65 46 66
REMARK SMILES IDX 39 67 40 68 41 69 42 70 43 71 69 72 70 73 79 74 71 75 72 76
REMARK SMILES IDX 78 77 80 78 73 79 74 80 75 81 76 82 77 83 53 84 54 85 63 86
REMARK SMILES IDX 55 87 56 88 62 89 64 90 57 91 58 92 59 93 60 94 61 95
REMARK H PARENT 19 6 23 26 85 45 51 56
REMARK Flexibility Score: inf
ROOT
ATOM      1  C   UNL A   1      34.099  28.660  25.750  1.00  0.00     0.042 C 
ENDROOT
BRANCH   1   2
ATOM      2  C   UNL A   1      33.534  27.361  25.169  1.00  0.00     0.117 C 
BRANCH   2   3
ATOM      3  N   UNL A   1      33.800  27.184  23.755  1.00  0.00    -0.355 N 
ATOM      4  C   UNL A   1      33.408  26.282  22.823  1.00  0.00     0.233 C 
ATOM      5  O   UNL A   1      33.774  26.529  21.663  1.00  0.00    -0.274 OA
ATOM      6  H   UNL A   1      34.400  27.873  23.390  1.00  0.00     0.163 HD
BRANCH   4   7
ATOM      7  C   UNL A   1      32.654  24.978  23.094  1.00  0.00     0.137 C 
ATOM      8  C   UNL A   1      31.185  25.142  23.432  1.00  0.00     0.030 C 
BRANCH   7   9
ATOM      9  S   UNL A   1      33.260  23.523  22.153  1.00  0.00    -0.111 SA
BRANCH   9  10
ATOM     10  C   UNL A   1      33.041  21.988  23.055  1.00  0.00     0.032 A 
ATOM     11  C   UNL A   1      33.809  21.734  24.220  1.00  0.00     0.059 A 
ATOM     12  C   UNL A   1      33.807  20.461  24.825  1.00  0.00     0.028 A 
ATOM     13  C   UNL A   1      33.014  19.441  24.315  1.00  0.00     0.002 A 
ATOM     14  C   UNL A   1      32.181  20.967  22.633  1.00  0.00     0.017 A 
ATOM     15  C   UNL A   1      32.180  19.702  23.236  1.00  0.00     0.001 A 
BRANCH  11  16
ATOM     16  N   UNL A   1      34.596  22.743  24.854  1.00  0.00    -0.317 N 
ATOM     17  C   UNL A   1      32.890  23.476  26.630  1.00  0.00     0.065 C 
ATOM     18  C   UNL A   1      34.204  23.546  25.928  1.00  0.00     0.020 A 
ATOM     19  C   UNL A   1      35.263  24.372  26.257  1.00  0.00     0.023 A 
ATOM     20  C   UNL A   1      36.351  24.024  25.439  1.00  0.00     0.023 A 
ATOM     21  C   UNL A   1      35.942  23.007  24.598  1.00  0.00     0.020 A 
ATOM     22  C   UNL A   1      36.754  22.352  23.532  1.00  0.00     0.065 C 
ENDBRANCH  11  16
ENDBRANCH   9  10
ENDBRANCH   7   9
ENDBRANCH   4   7
ENDBRANCH   2   3
ENDBRANCH   1   2
BRANCH   1  23
ATOM     23  C   UNL A   1      33.800  28.892  27.246  1.00  0.00     0.118 C 
BRANCH  23  24
ATOM     24  N   UNL A   1      33.663  30.290  27.589  1.00  0.00    -0.352 N 
ATOM     25  C   UNL A   1      34.558  31.115  28.243  1.00  0.00     0.251 C 
ATOM     26  H   UNL A   1      32.816  30.712  27.320  1.00  0.00     0.163 HD
ATOM     27  O   UNL A   1      34.158  32.233  28.563  1.00  0.00    -0.269 OA
BRANCH  25  28
ATOM     28  C   UNL A   1      35.912  30.639  28.700  1.00  0.00     0.039 A 
ATOM     29  C   UNL A   1      36.895  30.528  27.730  1.00  0.00     0.014 A 
ATOM     30  C   UNL A   1      36.213  30.108  29.967  1.00  0.00     0.014 A 
ATOM     31  C   UNL A   1      38.154  29.942  28.036  1.00  0.00     0.010 A 
ATOM     32  C   UNL A   1      37.466  29.414  30.243  1.00  0.00     0.010 A 
ATOM     33  C   UNL A   1      38.482  29.282  29.274  1.00  0.00    -0.014 A 
BRANCH  33  34
ATOM     34  C   UNL A   1      39.574  28.104  29.153  1.00  0.00     0.031 A 
ATOM     35  C   UNL A   1      40.173  28.091  30.522  1.00  0.00     0.074 A 
ATOM     36  C   UNL A   1      40.178  27.218  28.263  1.00  0.00     0.049 A 
ATOM     37  N   UNL A   1      40.665  29.189  31.025  1.00  0.00    -0.248 NA
ATOM     38  C   UNL A   1      39.860  27.053  31.509  1.00  0.00     0.031 C 
ATOM     39  C   UNL A   1      39.990  27.108  26.808  1.00  0.00     0.029 A 
ATOM     40  N   UNL A   1      41.130  26.166  28.457  1.00  0.00    -0.354 N 
ATOM     41  C   UNL A   1      41.005  28.898  32.319  1.00  0.00     0.074 A 
ATOM     42  C   UNL A   1      40.269  27.676  32.620  1.00  0.00     0.031 C 
ATOM     43  C   UNL A   1      40.647  26.026  26.289  1.00  0.00     0.029 A 
ATOM     44  C   UNL A   1      41.404  25.314  27.321  1.00  0.00     0.049 A 
ATOM     45  H   UNL A   1      41.577  26.028  29.324  1.00  0.00     0.167 HD
ATOM     46  C   UNL A   1      42.272  29.233  32.692  1.00  0.00     0.037 A 
ATOM     47  C   UNL A   1      42.218  24.185  27.196  1.00  0.00     0.037 A 
ATOM     48  C   UNL A   1      43.133  28.081  32.732  1.00  0.00     0.049 A 
ATOM     49  C   UNL A   1      43.202  24.293  28.282  1.00  0.00     0.074 A 
ATOM     50  C   UNL A   1      42.978  26.809  33.247  1.00  0.00     0.029 A 
ATOM     51  N   UNL A   1      44.101  27.996  31.752  1.00  0.00    -0.354 N 
ATOM     52  N   UNL A   1      44.211  25.103  28.212  1.00  0.00    -0.248 NA
ATOM     53  C   UNL A   1      43.162  23.427  29.455  1.00  0.00     0.031 C 
ATOM     54  C   UNL A   1      43.423  25.955  32.213  1.00  0.00     0.029 A 
ATOM     55  C   UNL A   1      44.170  26.693  31.303  1.00  0.00     0.049 A 
ATOM     56  H   UNL A   1      44.652  28.743  31.426  1.00  0.00     0.167 HD
ATOM     57  C   UNL A   1      44.621  25.199  29.502  1.00  0.00     0.074 A 
ATOM     58  C   UNL A   1      44.158  23.984  30.146  1.00  0.00     0.031 C 
ATOM     59  C   UNL A   1      44.756  26.448  30.007  1.00  0.00     0.037 A 
BRANCH  46  60
ATOM     60  C   UNL A   1      42.692  30.605  32.237  1.00  0.00     0.058 A 
ATOM     61  C   UNL A   1      42.836  31.617  33.191  1.00  0.00     0.135 A 
ATOM     62  C   UNL A   1      42.789  30.976  30.878  1.00  0.00     0.135 A 
ATOM     63  F   UNL A   1      42.791  31.319  34.500  1.00  0.00    -0.206 F 
ATOM     64  C   UNL A   1      43.005  32.948  32.818  1.00  0.00     0.059 A 
ATOM     65  C   UNL A   1      42.908  32.304  30.481  1.00  0.00     0.059 A 
ATOM     66  F   UNL A   1      42.746  30.040  29.915  1.00  0.00    -0.206 F 
ATOM     67  C   UNL A   1      43.006  33.286  31.464  1.00  0.00     0.060 A 
BRANCH  67  68
ATOM     68  S   UNL A   1      43.073  35.031  31.000  1.00  0.00     0.124 S 
ATOM     69  O   UNL A   1      42.693  35.702  32.249  1.00  0.00    -0.237 OA
ATOM     70  O   UNL A   1      44.486  35.182  30.632  1.00  0.00    -0.237 OA
ATOM     71  O   UNL A   1      42.115  35.150  29.926  1.00  0.00    -0.744 OA
ENDBRANCH  67  68
ENDBRANCH  46  60
BRANCH  47  72
ATOM     72  C   UNL A   1      42.597  22.956  26.302  1.00  0.00     0.058 A 
ATOM     73  C   UNL A   1      43.741  23.009  25.426  1.00  0.00     0.135 A 
ATOM     74  C   UNL A   1      42.173  21.644  26.561  1.00  0.00     0.135 A 
ATOM     75  F   UNL A   1      44.247  24.177  25.006  1.00  0.00    -0.206 F 
ATOM     76  C   UNL A   1      44.485  21.893  25.003  1.00  0.00     0.059 A 
ATOM     77  C   UNL A   1      42.888  20.496  26.109  1.00  0.00     0.059 A 
ATOM     78  F   UNL A   1      41.100  21.432  27.336  1.00  0.00    -0.206 F 
ATOM     79  C   UNL A   1      44.078  20.631  25.386  1.00  0.00     0.060 A 
BRANCH  79  80
ATOM     80  S   UNL A   1      45.195  19.227  25.060  1.00  0.00     0.124 S 
ATOM     81  O   UNL A   1      45.008  18.992  23.631  1.00  0.00    -0.237 OA
ATOM     82  O   UNL A   1      46.496  19.771  25.442  1.00  0.00    -0.237 OA
ATOM     83  O   UNL A   1      44.687  18.179  25.938  1.00  0.00    -0.744 OA
ENDBRANCH  79  80
ENDBRANCH  47  72
BRANCH  59  84
ATOM     84  C   UNL A   1      45.374  27.505  29.100  1.00  0.00     0.058 A 
ATOM     85  C   UNL A   1      46.745  27.845  28.989  1.00  0.00     0.135 A 
ATOM     86  C   UNL A   1      44.489  28.285  28.339  1.00  0.00     0.135 A 
ATOM     87  F   UNL A   1      47.710  27.107  29.557  1.00  0.00    -0.206 F 
ATOM     88  C   UNL A   1      47.182  28.956  28.262  1.00  0.00     0.059 A 
ATOM     89  C   UNL A   1      44.909  29.359  27.558  1.00  0.00     0.059 A 
ATOM     90  F   UNL A   1      43.175  28.006  28.350  1.00  0.00    -0.206 F 
ATOM     91  C   UNL A   1      46.253  29.719  27.562  1.00  0.00     0.060 A 
BRANCH  91  92
ATOM     92  S   UNL A   1      46.809  31.175  26.651  1.00  0.00     0.124 S 
ATOM     93  O   UNL A   1      46.051  31.059  25.408  1.00  0.00    -0.237 OA
ATOM     94  O   UNL A   1      46.418  32.274  27.526  1.00  0.00    -0.237 OA
ATOM     95  O   UNL A   1      48.248  30.960  26.517  1.00  0.00    -0.744 OA
ENDBRANCH  91  92
ENDBRANCH  59  84
ENDBRANCH  33  34
ENDBRANCH  25  28
ENDBRANCH  23  24
ENDBRANCH   1  23
TORSDOF 16
ENDMDL
MODEL 2
REMARK VINA RESULT:     -11.7      1.279      2.303
REMARK SMILES Cc1ccc(C)n1-c1ccccc1S[C@H](C)C(=O)NCCCNC(=O)c1ccc(-c2c3nc(c(-c4c(F)cc(S(=O)(=O)[O-])cc4F)c4ccc([nH]4)c(-c4c(F)cc(S(=O)(=O)[O-])cc4F)c4nc(c(-c5c(F)cc(S(=O)(=O)[O-])cc5F)c5ccc2[nH]5)C=C4)C=C3)cc1
REMARK SMILES IDX 21 1 20 2 19 3 17 4 18 5 15 7 16 8 14 9 13 10 8 11 9 12
REMARK SMILES IDX 10 13 12 14 11 15 7 16 1 17 2 18 3 19 4 20 5 21 6 22 22 23
REMARK SMILES IDX 23 24 24 25 25 27 26 28 27 29 91 30 28 31 90 32 29 33 30 34
REMARK SMILES IDX 31 35 84 36 32 37 89 38 83 39 85 40 33 41 88 42 82 43 81 44
REMARK SMILES IDX 34 46 68 47 47 48 67 49 48 50 51 51 66 52 86 53 49 54 50 55
REMARK SMILES IDX 65 57 87 58 52 59 35 60 36 61 45 62 37 63 38 64 44 65 46 66
REMARK SMILES IDX 39 67 40 68 41 69 42 70 43 71 69 72 70 73 79 74 71 75 72 76
REMARK SMILES IDX 78 77 80 78 73 79 74 80 75 81 76 82 77 83 53 84 54 85 63 86
REMARK SMILES IDX 55 87 56 88 62 89 64 90 57 91 58 92 59 93 60 94 61 95
REMARK H PARENT 19 6 23 26 85 45 51 56
REMARK Flexibility Score: inf
ROOT
ATOM      1  C   UNL A   1      32.145  28.500  27.640  1.00  0.00     0.042 C 
ENDROOT
BRANCH   1   2
ATOM      2  C   UNL A   1      31.551  27.966  26.334  1.00  0.00     0.117 C 
BRANCH   2   3
ATOM      3  N   UNL A   1      30.889  26.682  26.469  1.00  0.00    -0.355 N 
ATOM      4  C   UNL A   1      31.268  25.396  26.274  1.00  0.00     0.233 C 
ATOM      5  O   UNL A   1      30.428  24.544  26.603  1.00  0.00    -0.274 OA
ATOM      6  H   UNL A   1      29.956  26.764  26.769  1.00  0.00     0.163 HD
BRANCH   4   7
ATOM      7  C   UNL A   1      32.568  24.930  25.615  1.00  0.00     0.137 C 
ATOM      8  C   UNL A   1      33.341  26.011  24.884  1.00  0.00     0.030 C 
BRANCH   7   9
ATOM      9  S   UNL A   1      33.429  23.561  26.481  1.00  0.00    -0.111 SA
BRANCH   9  10
ATOM     10  C   UNL A   1      35.022  23.184  25.747  1.00  0.00     0.032 A 
ATOM     11  C   UNL A   1      35.111  22.249  24.685  1.00  0.00     0.059 A 
ATOM     12  C   UNL A   1      36.362  21.784  24.232  1.00  0.00     0.028 A 
ATOM     13  C   UNL A   1      37.537  22.269  24.792  1.00  0.00     0.002 A 
ATOM     14  C   UNL A   1      36.227  23.722  26.214  1.00  0.00     0.017 A 
ATOM     15  C   UNL A   1      37.470  23.259  25.763  1.00  0.00     0.001 A 
BRANCH  11  16
ATOM     16  N   UNL A   1      33.958  21.751  24.004  1.00  0.00    -0.317 N 
ATOM     17  C   UNL A   1      33.487  19.725  25.513  1.00  0.00     0.065 C 
ATOM     18  C   UNL A   1      33.220  20.616  24.347  1.00  0.00     0.020 A 
ATOM     19  C   UNL A   1      32.172  20.498  23.452  1.00  0.00     0.023 A 
ATOM     20  C   UNL A   1      32.207  21.612  22.598  1.00  0.00     0.023 A 
ATOM     21  C   UNL A   1      33.291  22.390  22.958  1.00  0.00     0.020 A 
ATOM     22  C   UNL A   1      33.741  23.651  22.300  1.00  0.00     0.065 C 
ENDBRANCH  11  16
ENDBRANCH   9  10
ENDBRANCH   7   9
ENDBRANCH   4   7
ENDBRANCH   2   3
ENDBRANCH   1   2
BRANCH   1  23
ATOM     23  C   UNL A   1      33.574  29.069  27.524  1.00  0.00     0.118 C 
BRANCH  23  24
ATOM     24  N   UNL A   1      33.623  30.511  27.619  1.00  0.00    -0.352 N 
ATOM     25  C   UNL A   1      34.628  31.314  28.122  1.00  0.00     0.251 C 
ATOM     26  H   UNL A   1      32.831  30.986  27.279  1.00  0.00     0.163 HD
ATOM     27  O   UNL A   1      34.380  32.513  28.243  1.00  0.00    -0.269 OA
BRANCH  25  28
ATOM     28  C   UNL A   1      35.920  30.753  28.657  1.00  0.00     0.039 A 
ATOM     29  C   UNL A   1      36.959  30.606  27.753  1.00  0.00     0.014 A 
ATOM     30  C   UNL A   1      36.104  30.182  29.929  1.00  0.00     0.014 A 
ATOM     31  C   UNL A   1      38.160  29.945  28.128  1.00  0.00     0.010 A 
ATOM     32  C   UNL A   1      37.297  29.413  30.271  1.00  0.00     0.010 A 
ATOM     33  C   UNL A   1      38.367  29.243  29.370  1.00  0.00    -0.014 A 
BRANCH  33  34
ATOM     34  C   UNL A   1      39.398  28.008  29.295  1.00  0.00     0.031 A 
ATOM     35  C   UNL A   1      40.067  28.078  30.629  1.00  0.00     0.074 A 
ATOM     36  C   UNL A   1      39.915  27.025  28.454  1.00  0.00     0.049 A 
ATOM     37  N   UNL A   1      40.633  29.189  31.014  1.00  0.00    -0.248 NA
ATOM     38  C   UNL A   1      39.761  27.141  31.713  1.00  0.00     0.031 C 
ATOM     39  C   UNL A   1      39.646  26.806  27.024  1.00  0.00     0.029 A 
ATOM     40  N   UNL A   1      40.829  25.947  28.689  1.00  0.00    -0.354 N 
ATOM     41  C   UNL A   1      41.027  28.988  32.310  1.00  0.00     0.074 A 
ATOM     42  C   UNL A   1      40.255  27.831  32.747  1.00  0.00     0.031 C 
ATOM     43  C   UNL A   1      40.227  25.655  26.566  1.00  0.00     0.029 A 
ATOM     44  C   UNL A   1      41.005  24.994  27.615  1.00  0.00     0.049 A 
ATOM     45  H   UNL A   1      41.315  25.859  29.541  1.00  0.00     0.167 HD
ATOM     46  C   UNL A   1      42.326  29.291  32.591  1.00  0.00     0.037 A 
ATOM     47  C   UNL A   1      41.761  23.821  27.546  1.00  0.00     0.037 A 
ATOM     48  C   UNL A   1      43.137  28.106  32.685  1.00  0.00     0.049 A 
ATOM     49  C   UNL A   1      42.805  23.970  28.570  1.00  0.00     0.074 A 
ATOM     50  C   UNL A   1      42.953  26.889  33.312  1.00  0.00     0.029 A 
ATOM     51  N   UNL A   1      44.046  27.895  31.670  1.00  0.00    -0.354 N 
ATOM     52  N   UNL A   1      43.843  24.722  28.383  1.00  0.00    -0.248 NA
ATOM     53  C   UNL A   1      42.789  23.205  29.812  1.00  0.00     0.031 C 
ATOM     54  C   UNL A   1      43.305  25.933  32.332  1.00  0.00     0.029 A 
ATOM     55  C   UNL A   1      44.035  26.558  31.329  1.00  0.00     0.049 A 
ATOM     56  H   UNL A   1      44.612  28.586  31.256  1.00  0.00     0.167 HD
ATOM     57  C   UNL A   1      44.325  24.902  29.639  1.00  0.00     0.074 A 
ATOM     58  C   UNL A   1      43.843  23.768  30.404  1.00  0.00     0.031 C 
ATOM     59  C   UNL A   1      44.541  26.181  30.030  1.00  0.00     0.037 A 
BRANCH  46  60
ATOM     60  C   UNL A   1      42.781  30.599  32.003  1.00  0.00     0.058 A 
ATOM     61  C   UNL A   1      42.880  31.716  32.839  1.00  0.00     0.135 A 
ATOM     62  C   UNL A   1      42.955  30.809  30.617  1.00  0.00     0.135 A 
ATOM     63  F   UNL A   1      42.762  31.574  34.169  1.00  0.00    -0.206 F 
ATOM     64  C   UNL A   1      43.080  32.994  32.322  1.00  0.00     0.059 A 
ATOM     65  C   UNL A   1      43.105  32.081  30.075  1.00  0.00     0.059 A 
ATOM     66  F   UNL A   1      42.957  29.766  29.769  1.00  0.00    -0.206 F 
ATOM     67  C   UNL A   1      43.158  33.172  30.940  1.00  0.00     0.060 A 
BRANCH  67  68
ATOM     68  S   UNL A   1      43.264  34.850  30.280  1.00  0.00     0.124 S 
ATOM     69  O   UNL A   1      42.839  35.664  31.426  1.00  0.00    -0.237 OA
ATOM     70  O   UNL A   1      44.693  34.948  29.958  1.00  0.00    -0.237 OA
ATOM     71  O   UNL A   1      42.353  34.849  29.160  1.00  0.00    -0.744 OA
ENDBRANCH  67  68
ENDBRANCH  46  60
BRANCH  47  72
ATOM     72  C   UNL A   1      42.039  22.506  26.741  1.00  0.00     0.058 A 
ATOM     73  C   UNL A   1      43.005  22.489  25.671  1.00  0.00     0.135 A 
ATOM     74  C   UNL A   1      41.735  21.223  27.218  1.00  0.00     0.135 A 
ATOM     75  F   UNL A   1      43.368  23.614  25.038  1.00  0.00    -0.206 F 
ATOM     76  C   UNL A   1      43.719  21.354  25.247  1.00  0.00     0.059 A 
ATOM     77  C   UNL A   1      42.417  20.051  26.773  1.00  0.00     0.059 A 
ATOM     78  F   UNL A   1      40.829  21.072  28.193  1.00  0.00    -0.206 F 
ATOM     79  C   UNL A   1      43.451  20.135  25.836  1.00  0.00     0.060 A 
BRANCH  79  80
ATOM     80  S   UNL A   1      44.563  18.737  25.470  1.00  0.00     0.124 S 
ATOM     81  O   UNL A   1      44.278  18.456  24.067  1.00  0.00    -0.237 OA
ATOM     82  O   UNL A   1      45.880  19.310  25.741  1.00  0.00    -0.237 OA
ATOM     83  O   UNL A   1      44.136  17.709  26.414  1.00  0.00    -0.744 OA
ENDBRANCH  79  80
ENDBRANCH  47  72
BRANCH  59  84
ATOM     84  C   UNL A   1      45.156  27.129  29.009  1.00  0.00     0.058 A 
ATOM     85  C   UNL A   1      44.497  27.777  27.935  1.00  0.00     0.135 A 
ATOM     86  C   UNL A   1      46.542  27.335  29.088  1.00  0.00     0.135 A 
ATOM     87  F   UNL A   1      43.162  27.772  27.810  1.00  0.00    -0.206 F 
ATOM     88  C   UNL A   1      45.194  28.480  26.948  1.00  0.00     0.059 A 
ATOM     89  C   UNL A   1      47.249  28.085  28.150  1.00  0.00     0.059 A 
ATOM     90  F   UNL A   1      47.241  26.795  30.099  1.00  0.00    -0.206 F 
ATOM     91  C   UNL A   1      46.574  28.615  27.055  1.00  0.00     0.060 A 
BRANCH  91  92
ATOM     92  S   UNL A   1      47.482  29.493  25.764  1.00  0.00     0.124 S 
ATOM     93  O   UNL A   1      46.398  30.088  24.988  1.00  0.00    -0.237 OA
ATOM     94  O   UNL A   1      48.301  30.430  26.523  1.00  0.00    -0.237 OA
ATOM     95  O   UNL A   1      48.214  28.427  25.083  1.00  0.00    -0.744 OA
ENDBRANCH  91  92
ENDBRANCH  59  84
ENDBRANCH  33  34
ENDBRANCH  25  28
ENDBRANCH  23  24
ENDBRANCH   1  23
TORSDOF 16
ENDMDL
MODEL 3
REMARK VINA RESULT:     -11.6      4.226      9.226
REMARK SMILES Cc1ccc(C)n1-c1ccccc1S[C@H](C)C(=O)NCCCNC(=O)c1ccc(-c2c3nc(c(-c4c(F)cc(S(=O)(=O)[O-])cc4F)c4ccc([nH]4)c(-c4c(F)cc(S(=O)(=O)[O-])cc4F)c4nc(c(-c5c(F)cc(S(=O)(=O)[O-])cc5F)c5ccc2[nH]5)C=C4)C=C3)cc1
REMARK SMILES IDX 21 1 20 2 19 3 17 4 18 5 15 7 16 8 14 9 13 10 8 11 9 12
REMARK SMILES IDX 10 13 12 14 11 15 7 16 1 17 2 18 3 19 4 20 5 21 6 22 22 23
REMARK SMILES IDX 23 24 24 25 25 27 26 28 27 29 91 30 28 31 90 32 29 33 30 34
REMARK SMILES IDX 31 35 84 36 32 37 89 38 83 39 85 40 33 41 88 42 82 43 81 44
REMARK SMILES IDX 34 46 68 47 47 48 67 49 48 50 51 51 66 52 86 53 49 54 50 55
REMARK SMILES IDX 65 57 87 58 52 59 35 60 36 61 45 62 37 63 38 64 44 65 46 66
REMARK SMILES IDX 39 67 40 68 41 69 42 70 43 71 69 72 70 73 79 74 71 75 72 76
REMARK SMILES IDX 78 77 80 78 73 79 74 80 75 81 76 82 77 83 53 84 54 85 63 86
REMARK SMILES IDX 55 87 56 88 62 89 64 90 57 91 58 92 59 93 60 94 61 95
REMARK H PARENT 19 6 23 26 85 45 51 56
REMARK Flexibility Score: inf
ROOT
ATOM      1  C   UNL A   1      38.042  21.221  25.380  1.00  0.00     0.042 C 
ENDROOT
BRANCH   1   2
ATOM      2  C   UNL A   1      36.804  22.122  25.382  1.00  0.00     0.117 C 
BRANCH   2   3
ATOM      3  N   UNL A   1      35.862  21.827  26.445  1.00  0.00    -0.355 N 
ATOM      4  C   UNL A   1      34.521  21.954  26.584  1.00  0.00     0.233 C 
ATOM      5  O   UNL A   1      34.053  21.484  27.633  1.00  0.00    -0.274 OA
ATOM      6  H   UNL A   1      36.295  21.451  27.244  1.00  0.00     0.163 HD
BRANCH   4   7
ATOM      7  C   UNL A   1      33.582  22.690  25.626  1.00  0.00     0.137 C 
ATOM      8  C   UNL A   1      32.190  22.100  25.510  1.00  0.00     0.030 C 
BRANCH   7   9
ATOM      9  S   UNL A   1      33.866  24.498  25.499  1.00  0.00    -0.111 SA
BRANCH   9  10
ATOM     10  C   UNL A   1      33.203  25.189  23.982  1.00  0.00     0.032 A 
ATOM     11  C   UNL A   1      32.292  26.274  24.035  1.00  0.00     0.059 A 
ATOM     12  C   UNL A   1      31.603  26.699  22.881  1.00  0.00     0.028 A 
ATOM     13  C   UNL A   1      31.839  26.087  21.657  1.00  0.00     0.002 A 
ATOM     14  C   UNL A   1      33.487  24.667  22.714  1.00  0.00     0.017 A 
ATOM     15  C   UNL A   1      32.801  25.091  21.568  1.00  0.00     0.001 A 
BRANCH  11  16
ATOM     16  N   UNL A   1      32.043  27.007  25.235  1.00  0.00    -0.317 N 
ATOM     17  C   UNL A   1      30.079  25.605  26.119  1.00  0.00     0.065 C 
ATOM     18  C   UNL A   1      31.049  26.736  26.180  1.00  0.00     0.020 A 
ATOM     19  C   UNL A   1      31.162  27.662  27.201  1.00  0.00     0.023 A 
ATOM     20  C   UNL A   1      32.284  28.463  26.934  1.00  0.00     0.023 A 
ATOM     21  C   UNL A   1      32.834  28.040  25.739  1.00  0.00     0.020 A 
ATOM     22  C   UNL A   1      34.016  28.628  25.044  1.00  0.00     0.065 C 
ENDBRANCH  11  16
ENDBRANCH   9  10
ENDBRANCH   7   9
ENDBRANCH   4   7
ENDBRANCH   2   3
ENDBRANCH   1   2
BRANCH   1  23
ATOM     23  C   UNL A   1      39.254  21.773  26.157  1.00  0.00     0.118 C 
BRANCH  23  24
ATOM     24  N   UNL A   1      40.416  20.915  26.086  1.00  0.00    -0.352 N 
ATOM     25  C   UNL A   1      41.727  21.200  26.414  1.00  0.00     0.251 C 
ATOM     26  H   UNL A   1      40.250  20.002  25.757  1.00  0.00     0.163 HD
ATOM     27  O   UNL A   1      42.574  20.357  26.122  1.00  0.00    -0.269 OA
BRANCH  25  28
ATOM     28  C   UNL A   1      42.152  22.539  26.958  1.00  0.00     0.039 A 
ATOM     29  C   UNL A   1      41.914  22.771  28.303  1.00  0.00     0.014 A 
ATOM     30  C   UNL A   1      42.578  23.640  26.193  1.00  0.00     0.014 A 
ATOM     31  C   UNL A   1      42.138  24.055  28.869  1.00  0.00     0.010 A 
ATOM     32  C   UNL A   1      42.703  24.979  26.760  1.00  0.00     0.010 A 
ATOM     33  C   UNL A   1      42.462  25.245  28.123  1.00  0.00    -0.014 A 
BRANCH  33  34
ATOM     34  C   UNL A   1      41.948  26.624  28.776  1.00  0.00     0.031 A 
ATOM     35  C   UNL A   1      43.225  27.381  28.955  1.00  0.00     0.074 A 
ATOM     36  C   UNL A   1      40.827  27.280  29.282  1.00  0.00     0.049 A 
ATOM     37  N   UNL A   1      44.211  26.842  29.618  1.00  0.00    -0.248 NA
ATOM     38  C   UNL A   1      43.612  28.491  28.080  1.00  0.00     0.031 C 
ATOM     39  C   UNL A   1      39.463  26.759  29.462  1.00  0.00     0.029 A 
ATOM     40  N   UNL A   1      40.635  28.615  29.765  1.00  0.00    -0.354 N 
ATOM     41  C   UNL A   1      45.271  27.700  29.492  1.00  0.00     0.074 A 
ATOM     42  C   UNL A   1      44.920  28.543  28.355  1.00  0.00     0.031 C 
ATOM     43  C   UNL A   1      38.592  27.737  29.856  1.00  0.00     0.029 A 
ATOM     44  C   UNL A   1      39.275  29.018  30.046  1.00  0.00     0.049 A 
ATOM     45  H   UNL A   1      41.393  29.230  29.899  1.00  0.00     0.167 HD
ATOM     46  C   UNL A   1      45.885  28.063  30.653  1.00  0.00     0.037 A 
ATOM     47  C   UNL A   1      38.750  30.244  30.463  1.00  0.00     0.037 A 
ATOM     48  C   UNL A   1      45.501  29.388  31.062  1.00  0.00     0.049 A 
ATOM     49  C   UNL A   1      39.869  30.948  31.105  1.00  0.00     0.074 A 
ATOM     50  C   UNL A   1      45.380  30.584  30.382  1.00  0.00     0.029 A 
ATOM     51  N   UNL A   1      44.693  29.483  32.176  1.00  0.00    -0.354 N 
ATOM     52  N   UNL A   1      40.272  30.645  32.300  1.00  0.00    -0.248 NA
ATOM     53  C   UNL A   1      40.527  32.093  30.484  1.00  0.00     0.031 C 
ATOM     54  C   UNL A   1      44.128  31.095  30.791  1.00  0.00     0.029 A 
ATOM     55  C   UNL A   1      43.724  30.438  31.946  1.00  0.00     0.049 A 
ATOM     56  H   UNL A   1      44.792  28.956  33.001  1.00  0.00     0.167 HD
ATOM     57  C   UNL A   1      41.506  31.206  32.361  1.00  0.00     0.074 A 
ATOM     58  C   UNL A   1      41.493  32.278  31.385  1.00  0.00     0.031 C 
ATOM     59  C   UNL A   1      42.522  30.398  32.746  1.00  0.00     0.037 A 
BRANCH  46  60
ATOM     60  C   UNL A   1      46.131  26.911  31.590  1.00  0.00     0.058 A 
ATOM     61  C   UNL A   1      45.056  26.396  32.322  1.00  0.00     0.135 A 
ATOM     62  C   UNL A   1      47.419  26.425  31.902  1.00  0.00     0.135 A 
ATOM     63  F   UNL A   1      43.802  26.792  32.046  1.00  0.00    -0.206 F 
ATOM     64  C   UNL A   1      45.252  25.487  33.359  1.00  0.00     0.059 A 
ATOM     65  C   UNL A   1      47.645  25.556  32.964  1.00  0.00     0.059 A 
ATOM     66  F   UNL A   1      48.483  26.815  31.179  1.00  0.00    -0.206 F 
ATOM     67  C   UNL A   1      46.550  25.099  33.694  1.00  0.00     0.060 A 
BRANCH  67  68
ATOM     68  S   UNL A   1      46.799  24.040  35.136  1.00  0.00     0.124 S 
ATOM     69  O   UNL A   1      46.844  22.700  34.537  1.00  0.00    -0.237 OA
ATOM     70  O   UNL A   1      48.089  24.526  35.639  1.00  0.00    -0.237 OA
ATOM     71  O   UNL A   1      45.648  24.298  35.969  1.00  0.00    -0.744 OA
ENDBRANCH  67  68
ENDBRANCH  46  60
BRANCH  47  72
ATOM     72  C   UNL A   1      37.451  31.097  30.657  1.00  0.00     0.058 A 
ATOM     73  C   UNL A   1      36.657  30.968  31.854  1.00  0.00     0.135 A 
ATOM     74  C   UNL A   1      37.186  32.283  29.956  1.00  0.00     0.135 A 
ATOM     75  F   UNL A   1      36.719  29.868  32.619  1.00  0.00    -0.206 F 
ATOM     76  C   UNL A   1      35.835  31.975  32.389  1.00  0.00     0.059 A 
ATOM     77  C   UNL A   1      36.323  33.302  30.459  1.00  0.00     0.059 A 
ATOM     78  F   UNL A   1      37.823  32.532  28.804  1.00  0.00    -0.206 F 
ATOM     79  C   UNL A   1      35.703  33.167  31.705  1.00  0.00     0.060 A 
BRANCH  79  80
ATOM     80  S   UNL A   1      34.857  34.551  32.537  1.00  0.00     0.124 S 
ATOM     81  O   UNL A   1      34.132  33.884  33.614  1.00  0.00    -0.237 OA
ATOM     82  O   UNL A   1      35.976  35.390  32.959  1.00  0.00    -0.237 OA
ATOM     83  O   UNL A   1      34.025  35.123  31.483  1.00  0.00    -0.744 OA
ENDBRANCH  79  80
ENDBRANCH  47  72
BRANCH  59  84
ATOM     84  C   UNL A   1      42.248  29.423  33.884  1.00  0.00     0.058 A 
ATOM     85  C   UNL A   1      42.478  29.631  35.266  1.00  0.00     0.135 A 
ATOM     86  C   UNL A   1      41.784  28.147  33.528  1.00  0.00     0.135 A 
ATOM     87  F   UNL A   1      42.798  30.835  35.762  1.00  0.00    -0.206 F 
ATOM     88  C   UNL A   1      42.362  28.601  36.205  1.00  0.00     0.059 A 
ATOM     89  C   UNL A   1      41.602  27.123  34.456  1.00  0.00     0.059 A 
ATOM     90  F   UNL A   1      41.498  27.874  32.244  1.00  0.00    -0.206 F 
ATOM     91  C   UNL A   1      41.940  27.344  35.787  1.00  0.00     0.060 A 
BRANCH  91  92
ATOM     92  S   UNL A   1      41.825  26.003  36.990  1.00  0.00     0.124 S 
ATOM     93  O   UNL A   1      42.862  26.371  37.950  1.00  0.00    -0.237 OA
ATOM     94  O   UNL A   1      40.453  26.116  37.472  1.00  0.00    -0.237 OA
ATOM     95  O   UNL A   1      42.115  24.811  36.196  1.00  0.00    -0.744 OA
ENDBRANCH  91  92
ENDBRANCH  59  84
ENDBRANCH  33  34
ENDBRANCH  25  28
ENDBRANCH  23  24
ENDBRANCH   1  23
TORSDOF 16
ENDMDL
