MODEL 1
REMARK VINA RESULT:     -10.6      0.000      0.000
REMARK SMILES Cc1cc(N(C)[C@H](C)C(=O)NCCCNC(=O)c2ccc(-c3c4nc(c(-c5c(F)cc(S(=O)(=O)[O-])cc5F)c5ccc([nH]5)c(-c5c(F)cc(S(=O)(=O)[O-])cc5F)c5nc(c(-c6c(F)cc(S(=O)(=O)[O-])cc6F)c6ccc3[nH]6)C=C5)C=C4)cc2)ncc1[N+](=O)[O-]
REMARK SMILES IDX 13 1 12 2 11 3 9 4 10 5 7 7 8 8 5 9 6 10 4 11 1 12 2 13 3 14
REMARK SMILES IDX 86 15 85 16 84 17 87 18 88 19 89 20 14 21 15 22 16 23 17 25
REMARK SMILES IDX 18 26 19 27 83 28 20 29 82 30 21 31 22 32 23 33 76 34 24 35
REMARK SMILES IDX 81 36 75 37 77 38 25 39 80 40 74 41 73 42 26 44 60 45 39 46
REMARK SMILES IDX 59 47 40 48 43 49 58 50 78 51 41 52 42 53 57 55 79 56 44 57
REMARK SMILES IDX 27 58 28 59 37 60 29 61 30 62 36 63 38 64 31 65 32 66 33 67
REMARK SMILES IDX 34 68 35 69 61 70 62 71 71 72 63 73 64 74 70 75 72 76 65 77
REMARK SMILES IDX 66 78 67 79 68 80 69 81 45 82 46 83 55 84 47 85 48 86 54 87
REMARK SMILES IDX 56 88 49 89 50 90 51 91 52 92 53 93
REMARK H PARENT 11 6 15 24 77 43 43 54
REMARK Flexibility Score: inf
ROOT
ATOM      1  C   UNL A   1      43.542  22.907  29.023  1.00  0.00     0.042 C 
ENDROOT
BRANCH   1   2
ATOM      2  C   UNL A   1      44.353  24.184  29.114  1.00  0.00     0.117 C 
BRANCH   2   3
ATOM      3  N   UNL A   1      45.699  24.034  28.595  1.00  0.00    -0.354 N 
ATOM      4  C   UNL A   1      46.180  24.118  27.321  1.00  0.00     0.242 C 
ATOM      5  O   UNL A   1      47.412  24.163  27.212  1.00  0.00    -0.273 OA
ATOM      6  H   UNL A   1      46.382  23.839  29.277  1.00  0.00     0.163 HD
BRANCH   4   7
ATOM      7  C   UNL A   1      45.273  24.152  26.069  1.00  0.00     0.169 C 
ATOM      8  C   UNL A   1      45.163  25.555  25.467  1.00  0.00     0.042 C 
BRANCH   7   9
ATOM      9  N   UNL A   1      45.557  23.107  25.045  1.00  0.00    -0.348 N 
ATOM     10  C   UNL A   1      46.551  23.289  24.002  1.00  0.00     0.146 C 
BRANCH   9  11
ATOM     11  C   UNL A   1      44.989  21.851  25.226  1.00  0.00     0.129 A 
ATOM     12  C   UNL A   1      46.223  18.290  25.523  1.00  0.00     0.052 C 
ATOM     13  C   UNL A   1      45.233  19.419  25.525  1.00  0.00     0.032 A 
ATOM     14  C   UNL A   1      45.749  20.679  25.159  1.00  0.00     0.057 A 
ATOM     15  C   UNL A   1      43.882  19.369  25.871  1.00  0.00     0.290 A 
ATOM     16  C   UNL A   1      43.154  20.552  25.846  1.00  0.00     0.199 A 
ATOM     17  N   UNL A   1      43.680  21.763  25.532  1.00  0.00    -0.232 NA
BRANCH  15  18
ATOM     18  N   UNL A   1      43.167  18.157  26.259  1.00  0.00     0.064 N 
ATOM     19  O   UNL A   1      42.340  17.700  25.456  1.00  0.00    -0.258 OA
ATOM     20  O   UNL A   1      43.431  17.635  27.349  1.00  0.00    -0.258 OA
ENDBRANCH  15  18
ENDBRANCH   9  11
ENDBRANCH   7   9
ENDBRANCH   4   7
ENDBRANCH   2   3
ENDBRANCH   1   2
BRANCH   1  21
ATOM     21  C   UNL A   1      42.110  23.142  28.558  1.00  0.00     0.118 C 
BRANCH  21  22
ATOM     22  N   UNL A   1      42.026  23.645  27.189  1.00  0.00    -0.352 N 
ATOM     23  C   UNL A   1      41.584  24.856  26.703  1.00  0.00     0.251 C 
ATOM     24  H   UNL A   1      42.338  23.015  26.499  1.00  0.00     0.163 HD
ATOM     25  O   UNL A   1      41.418  25.003  25.502  1.00  0.00    -0.269 OA
BRANCH  23  26
ATOM     26  C   UNL A   1      41.287  25.959  27.643  1.00  0.00     0.039 A 
ATOM     27  C   UNL A   1      40.121  25.910  28.412  1.00  0.00     0.014 A 
ATOM     28  C   UNL A   1      42.169  27.029  27.781  1.00  0.00     0.014 A 
ATOM     29  C   UNL A   1      39.898  26.886  29.387  1.00  0.00     0.010 A 
ATOM     30  C   UNL A   1      42.010  27.923  28.830  1.00  0.00     0.010 A 
ATOM     31  C   UNL A   1      40.868  27.868  29.642  1.00  0.00    -0.014 A 
BRANCH  31  32
ATOM     32  C   UNL A   1      40.717  28.860  30.738  1.00  0.00     0.031 A 
ATOM     33  C   UNL A   1      41.566  28.738  31.977  1.00  0.00     0.074 A 
ATOM     34  C   UNL A   1      39.763  29.809  30.658  1.00  0.00     0.049 A 
ATOM     35  N   UNL A   1      41.504  29.419  33.092  1.00  0.00    -0.248 NA
ATOM     36  C   UNL A   1      42.597  27.685  31.979  1.00  0.00     0.031 C 
ATOM     37  C   UNL A   1      38.837  29.990  29.536  1.00  0.00     0.029 A 
ATOM     38  N   UNL A   1      39.402  30.793  31.544  1.00  0.00    -0.354 N 
ATOM     39  C   UNL A   1      42.465  28.865  33.928  1.00  0.00     0.074 A 
ATOM     40  C   UNL A   1      43.052  27.750  33.221  1.00  0.00     0.031 C 
ATOM     41  C   UNL A   1      38.036  31.039  29.789  1.00  0.00     0.029 A 
ATOM     42  C   UNL A   1      38.357  31.576  31.107  1.00  0.00     0.049 A 
ATOM     43  H   UNL A   1      39.848  30.926  32.411  1.00  0.00     0.167 HD
ATOM     44  C   UNL A   1      42.851  29.269  35.162  1.00  0.00     0.037 A 
ATOM     45  C   UNL A   1      37.726  32.605  31.705  1.00  0.00     0.037 A 
ATOM     46  C   UNL A   1      42.293  30.409  35.841  1.00  0.00     0.049 A 
ATOM     47  C   UNL A   1      38.179  33.042  33.072  1.00  0.00     0.074 A 
ATOM     48  C   UNL A   1      42.652  30.939  37.067  1.00  0.00     0.029 A 
ATOM     49  N   UNL A   1      41.265  31.199  35.348  1.00  0.00    -0.354 N 
ATOM     50  N   UNL A   1      39.131  32.540  33.825  1.00  0.00    -0.248 NA
ATOM     51  C   UNL A   1      37.480  34.186  33.672  1.00  0.00     0.031 C 
ATOM     52  C   UNL A   1      41.817  32.027  37.333  1.00  0.00     0.029 A 
ATOM     53  C   UNL A   1      40.969  32.205  36.251  1.00  0.00     0.049 A 
ATOM     54  H   UNL A   1      40.814  31.064  34.484  1.00  0.00     0.167 HD
ATOM     55  C   UNL A   1      39.165  33.328  34.970  1.00  0.00     0.074 A 
ATOM     56  C   UNL A   1      38.147  34.346  34.806  1.00  0.00     0.031 C 
ATOM     57  C   UNL A   1      39.964  33.220  36.060  1.00  0.00     0.037 A 
BRANCH  44  58
ATOM     58  C   UNL A   1      43.942  28.493  35.845  1.00  0.00     0.058 A 
ATOM     59  C   UNL A   1      45.296  28.817  35.667  1.00  0.00     0.135 A 
ATOM     60  C   UNL A   1      43.631  27.442  36.724  1.00  0.00     0.135 A 
ATOM     61  F   UNL A   1      45.652  29.798  34.822  1.00  0.00    -0.206 F 
ATOM     62  C   UNL A   1      46.306  28.115  36.316  1.00  0.00     0.059 A 
ATOM     63  C   UNL A   1      44.624  26.746  37.410  1.00  0.00     0.059 A 
ATOM     64  F   UNL A   1      42.354  27.087  36.930  1.00  0.00    -0.206 F 
ATOM     65  C   UNL A   1      45.958  27.083  37.190  1.00  0.00     0.060 A 
BRANCH  65  66
ATOM     66  S   UNL A   1      47.281  26.201  38.045  1.00  0.00     0.124 S 
ATOM     67  O   UNL A   1      46.537  25.135  38.710  1.00  0.00    -0.237 OA
ATOM     68  O   UNL A   1      48.139  25.782  36.941  1.00  0.00    -0.237 OA
ATOM     69  O   UNL A   1      47.850  27.214  38.927  1.00  0.00    -0.744 OA
ENDBRANCH  65  66
ENDBRANCH  44  58
BRANCH  45  70
ATOM     70  C   UNL A   1      36.613  33.309  31.012  1.00  0.00     0.058 A 
ATOM     71  C   UNL A   1      35.283  33.140  31.429  1.00  0.00     0.135 A 
ATOM     72  C   UNL A   1      36.851  34.153  29.916  1.00  0.00     0.135 A 
ATOM     73  F   UNL A   1      35.003  32.341  32.469  1.00  0.00    -0.206 F 
ATOM     74  C   UNL A   1      34.227  33.758  30.767  1.00  0.00     0.059 A 
ATOM     75  C   UNL A   1      35.813  34.804  29.256  1.00  0.00     0.059 A 
ATOM     76  F   UNL A   1      38.105  34.366  29.490  1.00  0.00    -0.206 F 
ATOM     77  C   UNL A   1      34.502  34.587  29.679  1.00  0.00     0.060 A 
BRANCH  77  78
ATOM     78  S   UNL A   1      33.125  35.404  28.842  1.00  0.00     0.124 S 
ATOM     79  O   UNL A   1      33.820  36.418  28.059  1.00  0.00    -0.237 OA
ATOM     80  O   UNL A   1      32.531  34.307  28.087  1.00  0.00    -0.237 OA
ATOM     81  O   UNL A   1      32.313  35.906  29.948  1.00  0.00    -0.744 OA
ENDBRANCH  77  78
ENDBRANCH  45  70
BRANCH  57  82
ATOM     82  C   UNL A   1      39.806  34.252  37.140  1.00  0.00     0.058 A 
ATOM     83  C   UNL A   1      39.052  34.002  38.296  1.00  0.00     0.135 A 
ATOM     84  C   UNL A   1      40.468  35.487  37.041  1.00  0.00     0.135 A 
ATOM     85  F   UNL A   1      38.395  32.839  38.436  1.00  0.00    -0.206 F 
ATOM     86  C   UNL A   1      38.940  34.949  39.308  1.00  0.00     0.059 A 
ATOM     87  C   UNL A   1      40.394  36.438  38.053  1.00  0.00     0.059 A 
ATOM     88  F   UNL A   1      41.212  35.771  35.961  1.00  0.00    -0.206 F 
ATOM     89  C   UNL A   1      39.618  36.163  39.178  1.00  0.00     0.060 A 
BRANCH  89  90
ATOM     90  S   UNL A   1      39.496  37.368  40.516  1.00  0.00     0.124 S 
ATOM     91  O   UNL A   1      38.730  38.435  39.882  1.00  0.00    -0.237 OA
ATOM     92  O   UNL A   1      38.795  36.614  41.552  1.00  0.00    -0.237 OA
ATOM     93  O   UNL A   1      40.889  37.686  40.816  1.00  0.00    -0.744 OA
ENDBRANCH  89  90
ENDBRANCH  57  82
ENDBRANCH  31  32
ENDBRANCH  23  26
ENDBRANCH  21  22
ENDBRANCH   1  21
TORSDOF 16
ENDMDL
MODEL 2
REMARK VINA RESULT:     -10.5      5.659     11.840
REMARK SMILES Cc1cc(N(C)[C@H](C)C(=O)NCCCNC(=O)c2ccc(-c3c4nc(c(-c5c(F)cc(S(=O)(=O)[O-])cc5F)c5ccc([nH]5)c(-c5c(F)cc(S(=O)(=O)[O-])cc5F)c5nc(c(-c6c(F)cc(S(=O)(=O)[O-])cc6F)c6ccc3[nH]6)C=C5)C=C4)cc2)ncc1[N+](=O)[O-]
REMARK SMILES IDX 13 1 12 2 11 3 9 4 10 5 7 7 8 8 5 9 6 10 4 11 1 12 2 13 3 14
REMARK SMILES IDX 86 15 85 16 84 17 87 18 88 19 89 20 14 21 15 22 16 23 17 25
REMARK SMILES IDX 18 26 19 27 83 28 20 29 82 30 21 31 22 32 23 33 76 34 24 35
REMARK SMILES IDX 81 36 75 37 77 38 25 39 80 40 74 41 73 42 26 44 60 45 39 46
REMARK SMILES IDX 59 47 40 48 43 49 58 50 78 51 41 52 42 53 57 55 79 56 44 57
REMARK SMILES IDX 27 58 28 59 37 60 29 61 30 62 36 63 38 64 31 65 32 66 33 67
REMARK SMILES IDX 34 68 35 69 61 70 62 71 71 72 63 73 64 74 70 75 72 76 65 77
REMARK SMILES IDX 66 78 67 79 68 80 69 81 45 82 46 83 55 84 47 85 48 86 54 87
REMARK SMILES IDX 56 88 49 89 50 90 51 91 52 92 53 93
REMARK H PARENT 11 6 15 24 77 43 43 54
REMARK Flexibility Score: inf
ROOT
ATOM      1  C   UNL A   1      33.333  27.933  26.927  1.00  0.00     0.042 C 
ENDROOT
BRANCH   1   2
ATOM      2  C   UNL A   1      31.843  27.796  26.689  1.00  0.00     0.117 C 
BRANCH   2   3
ATOM      3  N   UNL A   1      31.329  26.494  27.069  1.00  0.00    -0.354 N 
ATOM      4  C   UNL A   1      31.472  25.271  26.481  1.00  0.00     0.242 C 
ATOM      5  O   UNL A   1      31.101  24.302  27.157  1.00  0.00    -0.273 OA
ATOM      6  H   UNL A   1      30.784  26.491  27.889  1.00  0.00     0.163 HD
BRANCH   4   7
ATOM      7  C   UNL A   1      32.052  25.070  25.063  1.00  0.00     0.169 C 
ATOM      8  C   UNL A   1      33.047  23.909  24.998  1.00  0.00     0.042 C 
BRANCH   7   9
ATOM      9  N   UNL A   1      31.049  25.029  23.961  1.00  0.00    -0.348 N 
ATOM     10  C   UNL A   1      30.655  23.792  23.312  1.00  0.00     0.146 C 
BRANCH   9  11
ATOM     11  C   UNL A   1      30.332  26.191  23.694  1.00  0.00     0.129 A 
ATOM     12  C   UNL A   1      31.000  29.509  22.010  1.00  0.00     0.052 C 
ATOM     13  C   UNL A   1      30.201  28.438  22.695  1.00  0.00     0.032 A 
ATOM     14  C   UNL A   1      30.940  27.325  23.146  1.00  0.00     0.057 A 
ATOM     15  C   UNL A   1      28.822  28.406  22.908  1.00  0.00     0.290 A 
ATOM     16  C   UNL A   1      28.280  27.286  23.527  1.00  0.00     0.199 A 
ATOM     17  N   UNL A   1      29.004  26.206  23.916  1.00  0.00    -0.232 NA
BRANCH  15  18
ATOM     18  N   UNL A   1      27.896  29.468  22.528  1.00  0.00     0.064 N 
ATOM     19  O   UNL A   1      27.963  29.894  21.365  1.00  0.00    -0.258 OA
ATOM     20  O   UNL A   1      27.082  29.875  23.366  1.00  0.00    -0.258 OA
ENDBRANCH  15  18
ENDBRANCH   9  11
ENDBRANCH   7   9
ENDBRANCH   4   7
ENDBRANCH   2   3
ENDBRANCH   1   2
BRANCH   1  21
ATOM     21  C   UNL A   1      33.976  29.019  26.073  1.00  0.00     0.118 C 
BRANCH  21  22
ATOM     22  N   UNL A   1      33.795  30.362  26.621  1.00  0.00    -0.352 N 
ATOM     23  C   UNL A   1      34.487  31.029  27.608  1.00  0.00     0.251 C 
ATOM     24  H   UNL A   1      33.058  30.875  26.217  1.00  0.00     0.163 HD
ATOM     25  O   UNL A   1      34.050  32.080  28.050  1.00  0.00    -0.269 OA
BRANCH  23  26
ATOM     26  C   UNL A   1      35.738  30.451  28.145  1.00  0.00     0.039 A 
ATOM     27  C   UNL A   1      36.960  30.796  27.561  1.00  0.00     0.014 A 
ATOM     28  C   UNL A   1      35.707  29.586  29.237  1.00  0.00     0.014 A 
ATOM     29  C   UNL A   1      38.151  30.349  28.140  1.00  0.00     0.010 A 
ATOM     30  C   UNL A   1      36.888  29.248  29.883  1.00  0.00     0.010 A 
ATOM     31  C   UNL A   1      38.126  29.618  29.339  1.00  0.00    -0.014 A 
BRANCH  31  32
ATOM     32  C   UNL A   1      39.370  29.214  30.043  1.00  0.00     0.031 A 
ATOM     33  C   UNL A   1      39.814  29.969  31.268  1.00  0.00     0.074 A 
ATOM     34  C   UNL A   1      40.141  28.233  29.532  1.00  0.00     0.049 A 
ATOM     35  N   UNL A   1      40.924  29.859  31.950  1.00  0.00    -0.248 NA
ATOM     36  C   UNL A   1      38.907  31.017  31.772  1.00  0.00     0.031 C 
ATOM     37  C   UNL A   1      39.849  27.468  28.316  1.00  0.00     0.029 A 
ATOM     38  N   UNL A   1      41.338  27.717  29.964  1.00  0.00    -0.354 N 
ATOM     39  C   UNL A   1      40.857  30.830  32.942  1.00  0.00     0.074 A 
ATOM     40  C   UNL A   1      39.631  31.566  32.734  1.00  0.00     0.031 C 
ATOM     41  C   UNL A   1      40.823  26.564  28.117  1.00  0.00     0.029 A 
ATOM     42  C   UNL A   1      41.831  26.714  29.162  1.00  0.00     0.049 A 
ATOM     43  H   UNL A   1      41.800  28.037  30.772  1.00  0.00     0.167 HD
ATOM     44  C   UNL A   1      41.722  31.067  33.957  1.00  0.00     0.037 A 
ATOM     45  C   UNL A   1      42.971  26.001  29.254  1.00  0.00     0.037 A 
ATOM     46  C   UNL A   1      42.919  30.300  34.183  1.00  0.00     0.049 A 
ATOM     47  C   UNL A   1      43.911  26.276  30.396  1.00  0.00     0.074 A 
ATOM     48  C   UNL A   1      43.833  30.419  35.214  1.00  0.00     0.029 A 
ATOM     49  N   UNL A   1      43.362  29.267  33.372  1.00  0.00    -0.354 N 
ATOM     50  N   UNL A   1      43.802  27.162  31.359  1.00  0.00    -0.248 NA
ATOM     51  C   UNL A   1      45.126  25.454  30.471  1.00  0.00     0.031 C 
ATOM     52  C   UNL A   1      44.849  29.483  35.006  1.00  0.00     0.029 A 
ATOM     53  C   UNL A   1      44.543  28.747  33.872  1.00  0.00     0.049 A 
ATOM     54  H   UNL A   1      42.904  28.949  32.560  1.00  0.00     0.167 HD
ATOM     55  C   UNL A   1      44.917  26.980  32.170  1.00  0.00     0.074 A 
ATOM     56  C   UNL A   1      45.680  25.894  31.592  1.00  0.00     0.031 C 
ATOM     57  C   UNL A   1      45.278  27.652  33.291  1.00  0.00     0.037 A 
BRANCH  44  58
ATOM     58  C   UNL A   1      41.395  32.181  34.912  1.00  0.00     0.058 A 
ATOM     59  C   UNL A   1      40.553  31.977  36.018  1.00  0.00     0.135 A 
ATOM     60  C   UNL A   1      41.963  33.455  34.750  1.00  0.00     0.135 A 
ATOM     61  F   UNL A   1      39.966  30.784  36.210  1.00  0.00    -0.206 F 
ATOM     62  C   UNL A   1      40.268  32.999  36.915  1.00  0.00     0.059 A 
ATOM     63  C   UNL A   1      41.716  34.485  35.653  1.00  0.00     0.059 A 
ATOM     64  F   UNL A   1      42.771  33.708  33.709  1.00  0.00    -0.206 F 
ATOM     65  C   UNL A   1      40.859  34.250  36.727  1.00  0.00     0.060 A 
BRANCH  65  66
ATOM     66  S   UNL A   1      40.499  35.557  37.918  1.00  0.00     0.124 S 
ATOM     67  O   UNL A   1      41.814  35.782  38.511  1.00  0.00    -0.237 OA
ATOM     68  O   UNL A   1      39.999  36.629  37.061  1.00  0.00    -0.237 OA
ATOM     69  O   UNL A   1      39.507  34.950  38.799  1.00  0.00    -0.744 OA
ENDBRANCH  65  66
ENDBRANCH  44  58
BRANCH  45  70
ATOM     70  C   UNL A   1      43.280  24.945  28.252  1.00  0.00     0.058 A 
ATOM     71  C   UNL A   1      43.919  25.263  27.044  1.00  0.00     0.135 A 
ATOM     72  C   UNL A   1      42.934  23.602  28.473  1.00  0.00     0.135 A 
ATOM     73  F   UNL A   1      44.266  26.532  26.783  1.00  0.00    -0.206 F 
ATOM     74  C   UNL A   1      44.178  24.295  26.078  1.00  0.00     0.059 A 
ATOM     75  C   UNL A   1      43.209  22.612  27.535  1.00  0.00     0.059 A 
ATOM     76  F   UNL A   1      42.341  23.241  29.621  1.00  0.00    -0.206 F 
ATOM     77  C   UNL A   1      43.817  22.971  26.333  1.00  0.00     0.060 A 
BRANCH  77  78
ATOM     78  S   UNL A   1      44.181  21.718  25.083  1.00  0.00     0.124 S 
ATOM     79  O   UNL A   1      44.002  22.475  23.850  1.00  0.00    -0.237 OA
ATOM     80  O   UNL A   1      45.552  21.346  25.412  1.00  0.00    -0.237 OA
ATOM     81  O   UNL A   1      43.180  20.687  25.343  1.00  0.00    -0.744 OA
ENDBRANCH  77  78
ENDBRANCH  45  70
BRANCH  57  82
ATOM     82  C   UNL A   1      46.527  27.204  33.995  1.00  0.00     0.058 A 
ATOM     83  C   UNL A   1      46.503  26.207  34.982  1.00  0.00     0.135 A 
ATOM     84  C   UNL A   1      47.774  27.742  33.635  1.00  0.00     0.135 A 
ATOM     85  F   UNL A   1      45.335  25.665  35.366  1.00  0.00    -0.206 F 
ATOM     86  C   UNL A   1      47.668  25.773  35.603  1.00  0.00     0.059 A 
ATOM     87  C   UNL A   1      48.955  27.303  34.222  1.00  0.00     0.059 A 
ATOM     88  F   UNL A   1      47.853  28.690  32.688  1.00  0.00    -0.206 F 
ATOM     89  C   UNL A   1      48.891  26.325  35.214  1.00  0.00     0.060 A 
BRANCH  89  90
ATOM     90  S   UNL A   1      50.399  25.725  36.001  1.00  0.00     0.124 S 
ATOM     91  O   UNL A   1      50.776  26.869  36.825  1.00  0.00    -0.237 OA
ATOM     92  O   UNL A   1      49.927  24.549  36.727  1.00  0.00    -0.237 OA
ATOM     93  O   UNL A   1      51.283  25.444  34.873  1.00  0.00    -0.744 OA
ENDBRANCH  89  90
ENDBRANCH  57  82
ENDBRANCH  31  32
ENDBRANCH  23  26
ENDBRANCH  21  22
ENDBRANCH   1  21
TORSDOF 16
ENDMDL
MODEL 3
REMARK VINA RESULT:     -10.5      6.155     11.918
REMARK SMILES Cc1cc(N(C)[C@H](C)C(=O)NCCCNC(=O)c2ccc(-c3c4nc(c(-c5c(F)cc(S(=O)(=O)[O-])cc5F)c5ccc([nH]5)c(-c5c(F)cc(S(=O)(=O)[O-])cc5F)c5nc(c(-c6c(F)cc(S(=O)(=O)[O-])cc6F)c6ccc3[nH]6)C=C5)C=C4)cc2)ncc1[N+](=O)[O-]
REMARK SMILES IDX 13 1 12 2 11 3 9 4 10 5 7 7 8 8 5 9 6 10 4 11 1 12 2 13 3 14
REMARK SMILES IDX 86 15 85 16 84 17 87 18 88 19 89 20 14 21 15 22 16 23 17 25
REMARK SMILES IDX 18 26 19 27 83 28 20 29 82 30 21 31 22 32 23 33 76 34 24 35
REMARK SMILES IDX 81 36 75 37 77 38 25 39 80 40 74 41 73 42 26 44 60 45 39 46
REMARK SMILES IDX 59 47 40 48 43 49 58 50 78 51 41 52 42 53 57 55 79 56 44 57
REMARK SMILES IDX 27 58 28 59 37 60 29 61 30 62 36 63 38 64 31 65 32 66 33 67
REMARK SMILES IDX 34 68 35 69 61 70 62 71 71 72 63 73 64 74 70 75 72 76 65 77
REMARK SMILES IDX 66 78 67 79 68 80 69 81 45 82 46 83 55 84 47 85 48 86 54 87
REMARK SMILES IDX 56 88 49 89 50 90 51 91 52 92 53 93
REMARK H PARENT 11 6 15 24 77 43 43 54
REMARK Flexibility Score: inf
ROOT
ATOM      1  C   UNL A   1      33.392  28.439  25.519  1.00  0.00     0.042 C 
ENDROOT
BRANCH   1   2
ATOM      2  C   UNL A   1      31.928  28.367  25.135  1.00  0.00     0.117 C 
BRANCH   2   3
ATOM      3  N   UNL A   1      31.170  27.457  25.973  1.00  0.00    -0.354 N 
ATOM      4  C   UNL A   1      30.423  26.361  25.653  1.00  0.00     0.242 C 
ATOM      5  O   UNL A   1      30.072  25.652  26.605  1.00  0.00    -0.273 OA
ATOM      6  H   UNL A   1      31.200  27.664  26.935  1.00  0.00     0.163 HD
BRANCH   4   7
ATOM      7  C   UNL A   1      30.018  26.000  24.206  1.00  0.00     0.169 C 
ATOM      8  C   UNL A   1      29.133  27.070  23.563  1.00  0.00     0.042 C 
BRANCH   7   9
ATOM      9  N   UNL A   1      31.134  25.568  23.318  1.00  0.00    -0.348 N 
ATOM     10  C   UNL A   1      31.512  26.307  22.126  1.00  0.00     0.146 C 
BRANCH   9  11
ATOM     11  C   UNL A   1      31.956  24.538  23.764  1.00  0.00     0.129 A 
ATOM     12  C   UNL A   1      35.396  24.236  25.304  1.00  0.00     0.052 C 
ATOM     13  C   UNL A   1      34.055  23.780  24.806  1.00  0.00     0.032 A 
ATOM     14  C   UNL A   1      33.273  24.770  24.176  1.00  0.00     0.057 A 
ATOM     15  C   UNL A   1      33.489  22.509  24.919  1.00  0.00     0.290 A 
ATOM     16  C   UNL A   1      32.206  22.316  24.424  1.00  0.00     0.199 A 
ATOM     17  N   UNL A   1      31.452  23.293  23.858  1.00  0.00    -0.232 NA
BRANCH  15  18
ATOM     18  N   UNL A   1      34.149  21.355  25.523  1.00  0.00     0.064 N 
ATOM     19  O   UNL A   1      33.781  21.017  26.658  1.00  0.00    -0.258 OA
ATOM     20  O   UNL A   1      35.018  20.761  24.874  1.00  0.00    -0.258 OA
ENDBRANCH  15  18
ENDBRANCH   9  11
ENDBRANCH   7   9
ENDBRANCH   4   7
ENDBRANCH   2   3
ENDBRANCH   1   2
BRANCH   1  21
ATOM     21  C   UNL A   1      33.610  28.560  27.022  1.00  0.00     0.118 C 
BRANCH  21  22
ATOM     22  N   UNL A   1      33.590  29.941  27.496  1.00  0.00    -0.352 N 
ATOM     23  C   UNL A   1      34.538  30.669  28.182  1.00  0.00     0.251 C 
ATOM     24  H   UNL A   1      32.763  30.435  27.291  1.00  0.00     0.163 HD
ATOM     25  O   UNL A   1      34.243  31.756  28.654  1.00  0.00    -0.269 OA
BRANCH  23  26
ATOM     26  C   UNL A   1      35.896  30.113  28.369  1.00  0.00     0.039 A 
ATOM     27  C   UNL A   1      36.831  30.227  27.337  1.00  0.00     0.014 A 
ATOM     28  C   UNL A   1      36.251  29.498  29.567  1.00  0.00     0.014 A 
ATOM     29  C   UNL A   1      38.149  29.813  27.554  1.00  0.00     0.010 A 
ATOM     30  C   UNL A   1      37.583  29.204  29.824  1.00  0.00     0.010 A 
ATOM     31  C   UNL A   1      38.548  29.351  28.818  1.00  0.00    -0.014 A 
BRANCH  31  32
ATOM     32  C   UNL A   1      39.959  28.999  29.119  1.00  0.00     0.031 A 
ATOM     33  C   UNL A   1      40.867  30.025  29.746  1.00  0.00     0.074 A 
ATOM     34  C   UNL A   1      40.445  27.796  28.751  1.00  0.00     0.049 A 
ATOM     35  N   UNL A   1      42.153  29.963  29.972  1.00  0.00    -0.248 NA
ATOM     36  C   UNL A   1      40.256  31.310  30.133  1.00  0.00     0.031 C 
ATOM     37  C   UNL A   1      39.681  26.739  28.081  1.00  0.00     0.029 A 
ATOM     38  N   UNL A   1      41.703  27.262  28.875  1.00  0.00    -0.354 N 
ATOM     39  C   UNL A   1      42.505  31.198  30.505  1.00  0.00     0.074 A 
ATOM     40  C   UNL A   1      41.313  32.014  30.506  1.00  0.00     0.031 C 
ATOM     41  C   UNL A   1      40.477  25.677  27.881  1.00  0.00     0.029 A 
ATOM     42  C   UNL A   1      41.818  25.989  28.364  1.00  0.00     0.049 A 
ATOM     43  H   UNL A   1      42.454  27.744  29.290  1.00  0.00     0.167 HD
ATOM     44  C   UNL A   1      43.704  31.605  30.983  1.00  0.00     0.037 A 
ATOM     45  C   UNL A   1      42.885  25.171  28.286  1.00  0.00     0.037 A 
ATOM     46  C   UNL A   1      44.876  30.770  31.019  1.00  0.00     0.049 A 
ATOM     47  C   UNL A   1      44.206  25.642  28.834  1.00  0.00     0.074 A 
ATOM     48  C   UNL A   1      46.125  31.064  31.536  1.00  0.00     0.029 A 
ATOM     49  N   UNL A   1      44.940  29.474  30.529  1.00  0.00    -0.354 N 
ATOM     50  N   UNL A   1      44.505  26.795  29.387  1.00  0.00    -0.248 NA
ATOM     51  C   UNL A   1      45.333  24.705  28.753  1.00  0.00     0.031 C 
ATOM     52  C   UNL A   1      46.955  29.961  31.324  1.00  0.00     0.029 A 
ATOM     53  C   UNL A   1      46.211  28.960  30.720  1.00  0.00     0.049 A 
ATOM     54  H   UNL A   1      44.193  28.992  30.108  1.00  0.00     0.167 HD
ATOM     55  C   UNL A   1      45.844  26.706  29.748  1.00  0.00     0.074 A 
ATOM     56  C   UNL A   1      46.294  25.385  29.362  1.00  0.00     0.031 C 
ATOM     57  C   UNL A   1      46.633  27.634  30.345  1.00  0.00     0.037 A 
BRANCH  44  58
ATOM     58  C   UNL A   1      43.805  33.003  31.527  1.00  0.00     0.058 A 
ATOM     59  C   UNL A   1      43.571  33.281  32.883  1.00  0.00     0.135 A 
ATOM     60  C   UNL A   1      44.184  34.070  30.696  1.00  0.00     0.135 A 
ATOM     61  F   UNL A   1      43.186  32.303  33.718  1.00  0.00    -0.206 F 
ATOM     62  C   UNL A   1      43.686  34.570  33.393  1.00  0.00     0.059 A 
ATOM     63  C   UNL A   1      44.336  35.363  31.191  1.00  0.00     0.059 A 
ATOM     64  F   UNL A   1      44.416  33.862  29.391  1.00  0.00    -0.206 F 
ATOM     65  C   UNL A   1      44.074  35.603  32.539  1.00  0.00     0.060 A 
BRANCH  65  66
ATOM     66  S   UNL A   1      44.245  37.264  33.225  1.00  0.00     0.124 S 
ATOM     67  O   UNL A   1      42.942  37.455  33.855  1.00  0.00    -0.237 OA
ATOM     68  O   UNL A   1      45.373  37.109  34.138  1.00  0.00    -0.237 OA
ATOM     69  O   UNL A   1      44.502  38.092  32.051  1.00  0.00    -0.744 OA
ENDBRANCH  65  66
ENDBRANCH  44  58
BRANCH  45  70
ATOM     70  C   UNL A   1      42.751  23.815  27.688  1.00  0.00     0.058 A 
ATOM     71  C   UNL A   1      42.506  22.692  28.495  1.00  0.00     0.135 A 
ATOM     72  C   UNL A   1      42.875  23.609  26.305  1.00  0.00     0.135 A 
ATOM     73  F   UNL A   1      42.384  22.835  29.823  1.00  0.00    -0.206 F 
ATOM     74  C   UNL A   1      42.419  21.412  27.958  1.00  0.00     0.059 A 
ATOM     75  C   UNL A   1      42.763  22.342  25.741  1.00  0.00     0.059 A 
ATOM     76  F   UNL A   1      43.087  24.650  25.486  1.00  0.00    -0.206 F 
ATOM     77  C   UNL A   1      42.551  21.247  26.578  1.00  0.00     0.060 A 
BRANCH  77  78
ATOM     78  S   UNL A   1      42.410  19.583  25.887  1.00  0.00     0.124 S 
ATOM     79  O   UNL A   1      41.031  19.578  25.417  1.00  0.00    -0.237 OA
ATOM     80  O   UNL A   1      43.440  19.592  24.854  1.00  0.00    -0.237 OA
ATOM     81  O   UNL A   1      42.691  18.722  27.033  1.00  0.00    -0.744 OA
ENDBRANCH  77  78
ENDBRANCH  45  70
BRANCH  57  82
ATOM     82  C   UNL A   1      48.048  27.242  30.660  1.00  0.00     0.058 A 
ATOM     83  C   UNL A   1      48.392  26.629  31.875  1.00  0.00     0.135 A 
ATOM     84  C   UNL A   1      49.064  27.429  29.707  1.00  0.00     0.135 A 
ATOM     85  F   UNL A   1      47.458  26.433  32.820  1.00  0.00    -0.206 F 
ATOM     86  C   UNL A   1      49.698  26.236  32.144  1.00  0.00     0.059 A 
ATOM     87  C   UNL A   1      50.371  27.018  29.944  1.00  0.00     0.059 A 
ATOM     88  F   UNL A   1      48.785  28.000  28.525  1.00  0.00    -0.206 F 
ATOM     89  C   UNL A   1      50.680  26.432  31.171  1.00  0.00     0.060 A 
BRANCH  89  90
ATOM     90  S   UNL A   1      52.363  25.882  31.519  1.00  0.00     0.124 S 
ATOM     91  O   UNL A   1      52.811  26.892  32.473  1.00  0.00    -0.237 OA
ATOM     92  O   UNL A   1      52.149  24.545  32.065  1.00  0.00    -0.237 OA
ATOM     93  O   UNL A   1      53.011  25.922  30.211  1.00  0.00    -0.744 OA
ENDBRANCH  89  90
ENDBRANCH  57  82
ENDBRANCH  31  32
ENDBRANCH  23  26
ENDBRANCH  21  22
ENDBRANCH   1  21
TORSDOF 16
ENDMDL
