MODEL 1
REMARK VINA RESULT:     -12.8      0.000      0.000
REMARK SMILES C[NH+]1CCC2(CC1)OC[C@H](C(=O)NCCCNC(=O)c1ccc(-c3c4nc(c(-c5c(F)cc(S(=O)(=O)[O-])cc5F)c5ccc([nH]5)c(-c5c(F)cc(S(=O)(=O)[O-])cc5F)c5nc(c(-c6c(F)cc(S(=O)(=O)[O-])cc6F)c6ccc3[nH]6)C=C5)C=C4)cc1)N2C(=O)c1cc(C(F)(F)F)cc(C(F)(F)F)c1
REMARK SMILES IDX 15 1 14 2 13 3 11 4 12 5 10 7 1 8 2 9 3 10 7 11 4 13 6 14
REMARK SMILES IDX 5 15 8 16 86 17 9 18 87 19 88 20 89 21 90 22 102 23 91 24
REMARK SMILES IDX 97 25 96 26 92 27 93 28 94 29 95 30 98 31 99 32 100 33
REMARK SMILES IDX 101 34 16 35 17 36 18 37 19 39 20 40 21 41 85 42 22 43 84 44
REMARK SMILES IDX 23 45 24 46 25 47 78 48 26 49 83 50 77 51 79 52 27 53 82 54
REMARK SMILES IDX 76 55 75 56 28 58 62 59 41 60 61 61 42 62 45 63 60 64 80 65
REMARK SMILES IDX 43 66 44 67 59 69 81 70 46 71 29 72 30 73 39 74 31 75 32 76
REMARK SMILES IDX 38 77 40 78 33 79 34 80 35 81 36 82 37 83 63 84 64 85 73 86
REMARK SMILES IDX 65 87 66 88 72 89 74 90 67 91 68 92 69 93 70 94 71 95 47 96
REMARK SMILES IDX 48 97 57 98 49 99 50 100 56 101 58 102 51 103 52 104 53 105
REMARK SMILES IDX 54 106 55 107
REMARK H PARENT 13 6 2 12 17 38 79 57 45 68
REMARK Flexibility Score: inf
ROOT
ATOM      1  C   UNL A   1      39.948  21.708  26.542  1.00  0.00     0.042 C 
ENDROOT
BRANCH   1   2
ATOM      2  C   UNL A   1      38.646  21.893  25.770  1.00  0.00     0.117 C 
BRANCH   2   3
ATOM      3  N   UNL A   1      37.788  22.872  26.408  1.00  0.00    -0.354 N 
ATOM      4  C   UNL A   1      36.611  23.409  25.978  1.00  0.00     0.245 C 
ATOM      5  O   UNL A   1      36.228  24.423  26.567  1.00  0.00    -0.273 OA
ATOM      6  H   UNL A   1      38.102  23.198  27.282  1.00  0.00     0.163 HD
BRANCH   4   7
ATOM      7  C   UNL A   1      35.775  22.697  24.896  1.00  0.00     0.203 C 
ATOM      8  C   UNL A   1      29.752  22.807  27.091  1.00  0.00     0.332 C 
ATOM      9  N   UNL A   1      30.796  23.387  26.259  1.00  0.00    -0.337 N 
ATOM     10  C   UNL A   1      31.960  23.798  27.037  1.00  0.00     0.267 C 
ATOM     11  C   UNL A   1      31.040  22.616  25.039  1.00  0.00     0.267 C 
ATOM     12  H   UNL A   1      30.455  24.272  25.884  1.00  0.00     0.347 HD
ATOM     13  C   UNL A   1      33.131  22.850  27.027  1.00  0.00     0.120 C 
ATOM     14  C   UNL A   1      32.286  21.744  24.973  1.00  0.00     0.120 C 
ATOM     15  C   UNL A   1      33.525  22.344  25.636  1.00  0.00     0.155 C 
ATOM     16  O   UNL A   1      34.350  21.166  25.953  1.00  0.00    -0.352 OA
ATOM     17  N   UNL A   1      34.411  23.193  24.798  1.00  0.00    -0.295 N 
ATOM     18  C   UNL A   1      35.599  21.251  25.267  1.00  0.00     0.198 C 
BRANCH  17  19
ATOM     19  C   UNL A   1      34.261  24.263  23.918  1.00  0.00     0.256 C 
ATOM     20  O   UNL A   1      34.729  24.239  22.777  1.00  0.00    -0.269 OA
BRANCH  19  21
ATOM     21  C   UNL A   1      33.498  25.478  24.230  1.00  0.00     0.041 A 
ATOM     22  C   UNL A   1      32.258  25.715  23.618  1.00  0.00     0.027 A 
ATOM     23  C   UNL A   1      34.070  26.461  25.031  1.00  0.00     0.027 A 
ATOM     24  C   UNL A   1      31.522  26.873  23.935  1.00  0.00     0.057 A 
ATOM     25  C   UNL A   1      33.304  27.552  25.467  1.00  0.00     0.057 A 
ATOM     26  C   UNL A   1      32.037  27.759  24.898  1.00  0.00     0.026 A 
BRANCH  24  27
ATOM     27  C   UNL A   1      30.189  27.145  23.276  1.00  0.00     0.416 C 
ATOM     28  F   UNL A   1      30.311  27.496  21.968  1.00  0.00    -0.166 F 
ATOM     29  F   UNL A   1      29.370  26.057  23.301  1.00  0.00    -0.166 F 
ATOM     30  F   UNL A   1      29.487  28.150  23.870  1.00  0.00    -0.166 F 
ENDBRANCH  24  27
BRANCH  25  31
ATOM     31  C   UNL A   1      33.789  28.436  26.592  1.00  0.00     0.416 C 
ATOM     32  F   UNL A   1      35.065  28.155  26.969  1.00  0.00    -0.166 F 
ATOM     33  F   UNL A   1      33.790  29.755  26.244  1.00  0.00    -0.166 F 
ATOM     34  F   UNL A   1      33.033  28.352  27.721  1.00  0.00    -0.166 F 
ENDBRANCH  25  31
ENDBRANCH  19  21
ENDBRANCH  17  19
ENDBRANCH   4   7
ENDBRANCH   2   3
ENDBRANCH   1   2
BRANCH   1  35
ATOM     35  C   UNL A   1      40.558  23.012  27.055  1.00  0.00     0.118 C 
BRANCH  35  36
ATOM     36  N   UNL A   1      41.505  23.599  26.115  1.00  0.00    -0.352 N 
ATOM     37  C   UNL A   1      41.982  24.883  26.019  1.00  0.00     0.251 C 
ATOM     38  H   UNL A   1      41.860  22.975  25.441  1.00  0.00     0.163 HD
ATOM     39  O   UNL A   1      42.624  25.213  25.027  1.00  0.00    -0.269 OA
BRANCH  37  40
ATOM     40  C   UNL A   1      41.710  25.868  27.089  1.00  0.00     0.039 A 
ATOM     41  C   UNL A   1      40.691  25.602  28.007  1.00  0.00     0.014 A 
ATOM     42  C   UNL A   1      42.433  27.060  27.177  1.00  0.00     0.014 A 
ATOM     43  C   UNL A   1      40.444  26.498  29.050  1.00  0.00     0.010 A 
ATOM     44  C   UNL A   1      42.241  27.911  28.262  1.00  0.00     0.010 A 
ATOM     45  C   UNL A   1      41.243  27.642  29.210  1.00  0.00    -0.014 A 
BRANCH  45  46
ATOM     46  C   UNL A   1      41.051  28.561  30.363  1.00  0.00     0.031 A 
ATOM     47  C   UNL A   1      41.908  28.427  31.594  1.00  0.00     0.074 A 
ATOM     48  C   UNL A   1      40.065  29.481  30.323  1.00  0.00     0.049 A 
ATOM     49  N   UNL A   1      41.850  29.095  32.717  1.00  0.00    -0.248 NA
ATOM     50  C   UNL A   1      42.952  27.390  31.568  1.00  0.00     0.031 C 
ATOM     51  C   UNL A   1      39.139  29.681  29.206  1.00  0.00     0.029 A 
ATOM     52  N   UNL A   1      39.672  30.416  31.247  1.00  0.00    -0.354 N 
ATOM     53  C   UNL A   1      42.839  28.556  33.532  1.00  0.00     0.074 A 
ATOM     54  C   UNL A   1      43.443  27.466  32.796  1.00  0.00     0.031 C 
ATOM     55  C   UNL A   1      38.305  30.690  29.500  1.00  0.00     0.029 A 
ATOM     56  C   UNL A   1      38.605  31.183  30.840  1.00  0.00     0.049 A 
ATOM     57  H   UNL A   1      40.113  30.528  32.121  1.00  0.00     0.167 HD
ATOM     58  C   UNL A   1      43.228  28.949  34.769  1.00  0.00     0.037 A 
ATOM     59  C   UNL A   1      37.938  32.165  31.477  1.00  0.00     0.037 A 
ATOM     60  C   UNL A   1      42.631  30.044  35.490  1.00  0.00     0.049 A 
ATOM     61  C   UNL A   1      38.374  32.569  32.859  1.00  0.00     0.074 A 
ATOM     62  C   UNL A   1      42.981  30.550  36.730  1.00  0.00     0.029 A 
ATOM     63  N   UNL A   1      41.559  30.801  35.040  1.00  0.00    -0.354 N 
ATOM     64  N   UNL A   1      39.352  32.088  33.591  1.00  0.00    -0.248 NA
ATOM     65  C   UNL A   1      37.622  33.656  33.502  1.00  0.00     0.031 C 
ATOM     66  C   UNL A   1      42.090  31.578  37.052  1.00  0.00     0.029 A 
ATOM     67  C   UNL A   1      41.221  31.756  35.987  1.00  0.00     0.049 A 
ATOM     68  H   UNL A   1      41.104  30.679  34.175  1.00  0.00     0.167 HD
ATOM     69  C   UNL A   1      39.352  32.834  34.764  1.00  0.00     0.074 A 
ATOM     70  C   UNL A   1      38.286  33.807  34.640  1.00  0.00     0.031 C 
ATOM     71  C   UNL A   1      40.163  32.725  35.846  1.00  0.00     0.037 A 
BRANCH  58  72
ATOM     72  C   UNL A   1      44.355  28.193  35.421  1.00  0.00     0.058 A 
ATOM     73  C   UNL A   1      45.695  28.577  35.250  1.00  0.00     0.135 A 
ATOM     74  C   UNL A   1      44.092  27.098  36.260  1.00  0.00     0.135 A 
ATOM     75  F   UNL A   1      46.007  29.607  34.448  1.00  0.00    -0.206 F 
ATOM     76  C   UNL A   1      46.735  27.884  35.861  1.00  0.00     0.059 A 
ATOM     77  C   UNL A   1      45.115  26.409  36.908  1.00  0.00     0.059 A 
ATOM     78  F   UNL A   1      42.830  26.687  36.462  1.00  0.00    -0.206 F 
ATOM     79  C   UNL A   1      46.435  26.802  36.690  1.00  0.00     0.060 A 
BRANCH  79  80
ATOM     80  S   UNL A   1      47.798  25.920  37.480  1.00  0.00     0.124 S 
ATOM     81  O   UNL A   1      47.404  24.529  37.274  1.00  0.00    -0.237 OA
ATOM     82  O   UNL A   1      48.950  26.373  36.708  1.00  0.00    -0.237 OA
ATOM     83  O   UNL A   1      47.750  26.386  38.863  1.00  0.00    -0.744 OA
ENDBRANCH  79  80
ENDBRANCH  58  72
BRANCH  59  84
ATOM     84  C   UNL A   1      36.799  32.851  30.805  1.00  0.00     0.058 A 
ATOM     85  C   UNL A   1      35.472  32.552  31.150  1.00  0.00     0.135 A 
ATOM     86  C   UNL A   1      37.012  33.816  29.809  1.00  0.00     0.135 A 
ATOM     87  F   UNL A   1      35.215  31.632  32.092  1.00  0.00    -0.206 F 
ATOM     88  C   UNL A   1      34.397  33.167  30.517  1.00  0.00     0.059 A 
ATOM     89  C   UNL A   1      35.954  34.467  29.182  1.00  0.00     0.059 A 
ATOM     90  F   UNL A   1      38.262  34.152  29.454  1.00  0.00    -0.206 F 
ATOM     91  C   UNL A   1      34.650  34.125  29.533  1.00  0.00     0.060 A 
BRANCH  91  92
ATOM     92  S   UNL A   1      33.247  34.944  28.744  1.00  0.00     0.124 S 
ATOM     93  O   UNL A   1      33.899  36.063  28.073  1.00  0.00    -0.237 OA
ATOM     94  O   UNL A   1      32.727  33.892  27.877  1.00  0.00    -0.237 OA
ATOM     95  O   UNL A   1      32.388  35.298  29.870  1.00  0.00    -0.744 OA
ENDBRANCH  91  92
ENDBRANCH  59  84
BRANCH  71  96
ATOM     96  C   UNL A   1      39.962  33.712  36.965  1.00  0.00     0.058 A 
ATOM     97  C   UNL A   1      40.601  34.962  36.977  1.00  0.00     0.135 A 
ATOM     98  C   UNL A   1      39.081  33.418  38.019  1.00  0.00     0.135 A 
ATOM     99  F   UNL A   1      41.458  35.292  35.997  1.00  0.00    -0.206 F 
ATOM    100  C   UNL A   1      40.397  35.873  38.009  1.00  0.00     0.059 A 
ATOM    101  C   UNL A   1      38.838  34.327  39.044  1.00  0.00     0.059 A 
ATOM    102  F   UNL A   1      38.435  32.242  38.053  1.00  0.00    -0.206 F 
ATOM    103  C   UNL A   1      39.511  35.547  39.036  1.00  0.00     0.060 A 
BRANCH 103 104
ATOM    104  S   UNL A   1      39.234  36.749  40.355  1.00  0.00     0.124 S 
ATOM    105  O   UNL A   1      40.587  36.949  40.860  1.00  0.00    -0.237 OA
ATOM    106  O   UNL A   1      38.655  37.877  39.630  1.00  0.00    -0.237 OA
ATOM    107  O   UNL A   1      38.320  36.059  41.259  1.00  0.00    -0.744 OA
ENDBRANCH 103 104
ENDBRANCH  71  96
ENDBRANCH  45  46
ENDBRANCH  37  40
ENDBRANCH  35  36
ENDBRANCH   1  35
TORSDOF 17
ENDMDL
MODEL 2
REMARK VINA RESULT:     -12.7      0.333      1.834
REMARK SMILES C[NH+]1CCC2(CC1)OC[C@H](C(=O)NCCCNC(=O)c1ccc(-c3c4nc(c(-c5c(F)cc(S(=O)(=O)[O-])cc5F)c5ccc([nH]5)c(-c5c(F)cc(S(=O)(=O)[O-])cc5F)c5nc(c(-c6c(F)cc(S(=O)(=O)[O-])cc6F)c6ccc3[nH]6)C=C5)C=C4)cc1)N2C(=O)c1cc(C(F)(F)F)cc(C(F)(F)F)c1
REMARK SMILES IDX 15 1 14 2 13 3 11 4 12 5 10 7 1 8 2 9 3 10 7 11 4 13 6 14
REMARK SMILES IDX 5 15 8 16 86 17 9 18 87 19 88 20 89 21 90 22 102 23 91 24
REMARK SMILES IDX 97 25 96 26 92 27 93 28 94 29 95 30 98 31 99 32 100 33
REMARK SMILES IDX 101 34 16 35 17 36 18 37 19 39 20 40 21 41 85 42 22 43 84 44
REMARK SMILES IDX 23 45 24 46 25 47 78 48 26 49 83 50 77 51 79 52 27 53 82 54
REMARK SMILES IDX 76 55 75 56 28 58 62 59 41 60 61 61 42 62 45 63 60 64 80 65
REMARK SMILES IDX 43 66 44 67 59 69 81 70 46 71 29 72 30 73 39 74 31 75 32 76
REMARK SMILES IDX 38 77 40 78 33 79 34 80 35 81 36 82 37 83 63 84 64 85 73 86
REMARK SMILES IDX 65 87 66 88 72 89 74 90 67 91 68 92 69 93 70 94 71 95 47 96
REMARK SMILES IDX 48 97 57 98 49 99 50 100 56 101 58 102 51 103 52 104 53 105
REMARK SMILES IDX 54 106 55 107
REMARK H PARENT 13 6 2 12 17 38 79 57 45 68
REMARK Flexibility Score: inf
ROOT
ATOM      1  C   UNL A   1      39.752  21.649  26.180  1.00  0.00     0.042 C 
ENDROOT
BRANCH   1   2
ATOM      2  C   UNL A   1      38.362  21.750  25.560  1.00  0.00     0.117 C 
BRANCH   2   3
ATOM      3  N   UNL A   1      37.556  22.751  26.232  1.00  0.00    -0.354 N 
ATOM      4  C   UNL A   1      36.407  23.361  25.823  1.00  0.00     0.245 C 
ATOM      5  O   UNL A   1      36.078  24.373  26.445  1.00  0.00    -0.273 OA
ATOM      6  H   UNL A   1      37.888  23.033  27.115  1.00  0.00     0.163 HD
BRANCH   4   7
ATOM      7  C   UNL A   1      35.535  22.726  24.721  1.00  0.00     0.203 C 
ATOM      8  C   UNL A   1      29.569  22.788  27.067  1.00  0.00     0.332 C 
ATOM      9  N   UNL A   1      30.601  23.402  26.246  1.00  0.00    -0.337 N 
ATOM     10  C   UNL A   1      31.790  23.749  27.018  1.00  0.00     0.267 C 
ATOM     11  C   UNL A   1      30.804  22.703  24.976  1.00  0.00     0.267 C 
ATOM     12  H   UNL A   1      30.265  24.313  25.933  1.00  0.00     0.347 HD
ATOM     13  C   UNL A   1      32.946  22.788  26.922  1.00  0.00     0.120 C 
ATOM     14  C   UNL A   1      32.035  21.819  24.827  1.00  0.00     0.120 C 
ATOM     15  C   UNL A   1      33.298  22.361  25.494  1.00  0.00     0.155 C 
ATOM     16  O   UNL A   1      34.112  21.155  25.719  1.00  0.00    -0.352 OA
ATOM     17  N   UNL A   1      34.177  23.247  24.687  1.00  0.00    -0.295 N 
ATOM     18  C   UNL A   1      35.346  21.264  25.009  1.00  0.00     0.198 C 
BRANCH  17  19
ATOM     19  C   UNL A   1      34.022  24.370  23.876  1.00  0.00     0.256 C 
ATOM     20  O   UNL A   1      34.446  24.400  22.718  1.00  0.00    -0.269 OA
BRANCH  19  21
ATOM     21  C   UNL A   1      33.306  25.583  24.288  1.00  0.00     0.041 A 
ATOM     22  C   UNL A   1      33.850  26.434  25.261  1.00  0.00     0.027 A 
ATOM     23  C   UNL A   1      32.021  25.817  23.808  1.00  0.00     0.027 A 
ATOM     24  C   UNL A   1      33.167  27.606  25.639  1.00  0.00     0.057 A 
ATOM     25  C   UNL A   1      31.384  27.040  24.063  1.00  0.00     0.057 A 
ATOM     26  C   UNL A   1      31.957  27.920  24.996  1.00  0.00     0.026 A 
BRANCH  24  27
ATOM     27  C   UNL A   1      33.738  28.526  26.694  1.00  0.00     0.416 C 
ATOM     28  F   UNL A   1      33.098  28.418  27.888  1.00  0.00    -0.166 F 
ATOM     29  F   UNL A   1      35.052  28.271  26.944  1.00  0.00    -0.166 F 
ATOM     30  F   UNL A   1      33.676  29.844  26.353  1.00  0.00    -0.166 F 
ENDBRANCH  24  27
BRANCH  25  31
ATOM     31  C   UNL A   1      30.154  27.447  23.286  1.00  0.00     0.416 C 
ATOM     32  F   UNL A   1      29.107  26.600  23.477  1.00  0.00    -0.166 F 
ATOM     33  F   UNL A   1      29.701  28.681  23.651  1.00  0.00    -0.166 F 
ATOM     34  F   UNL A   1      30.351  27.508  21.940  1.00  0.00    -0.166 F 
ENDBRANCH  25  31
ENDBRANCH  19  21
ENDBRANCH  17  19
ENDBRANCH   4   7
ENDBRANCH   2   3
ENDBRANCH   1   2
BRANCH   1  35
ATOM     35  C   UNL A   1      40.312  22.982  26.677  1.00  0.00     0.118 C 
BRANCH  35  36
ATOM     36  N   UNL A   1      41.517  23.386  25.964  1.00  0.00    -0.352 N 
ATOM     37  C   UNL A   1      42.237  24.554  26.027  1.00  0.00     0.251 C 
ATOM     38  H   UNL A   1      41.873  22.715  25.339  1.00  0.00     0.163 HD
ATOM     39  O   UNL A   1      43.111  24.767  25.193  1.00  0.00    -0.269 OA
BRANCH  37  40
ATOM     40  C   UNL A   1      41.951  25.558  27.076  1.00  0.00     0.039 A 
ATOM     41  C   UNL A   1      40.952  25.286  28.014  1.00  0.00     0.014 A 
ATOM     42  C   UNL A   1      42.640  26.772  27.124  1.00  0.00     0.014 A 
ATOM     43  C   UNL A   1      40.694  26.201  29.037  1.00  0.00     0.010 A 
ATOM     44  C   UNL A   1      42.438  27.645  28.190  1.00  0.00     0.010 A 
ATOM     45  C   UNL A   1      41.461  27.371  29.157  1.00  0.00    -0.014 A 
BRANCH  45  46
ATOM     46  C   UNL A   1      41.258  28.314  30.290  1.00  0.00     0.031 A 
ATOM     47  C   UNL A   1      42.113  28.214  31.526  1.00  0.00     0.074 A 
ATOM     48  C   UNL A   1      40.265  29.224  30.228  1.00  0.00     0.049 A 
ATOM     49  N   UNL A   1      42.046  28.906  32.634  1.00  0.00    -0.248 NA
ATOM     50  C   UNL A   1      43.166  27.186  31.525  1.00  0.00     0.031 C 
ATOM     51  C   UNL A   1      39.339  29.391  29.105  1.00  0.00     0.029 A 
ATOM     52  N   UNL A   1      39.861  30.175  31.131  1.00  0.00    -0.354 N 
ATOM     53  C   UNL A   1      43.039  28.394  33.463  1.00  0.00     0.074 A 
ATOM     54  C   UNL A   1      43.654  27.293  32.752  1.00  0.00     0.031 C 
ATOM     55  C   UNL A   1      38.496  30.399  29.374  1.00  0.00     0.029 A 
ATOM     56  C   UNL A   1      38.788  30.924  30.704  1.00  0.00     0.049 A 
ATOM     57  H   UNL A   1      40.298  30.310  32.002  1.00  0.00     0.167 HD
ATOM     58  C   UNL A   1      43.420  28.817  34.692  1.00  0.00     0.037 A 
ATOM     59  C   UNL A   1      38.111  31.914  31.318  1.00  0.00     0.037 A 
ATOM     60  C   UNL A   1      42.813  29.922  35.387  1.00  0.00     0.049 A 
ATOM     61  C   UNL A   1      38.540  32.352  32.692  1.00  0.00     0.074 A 
ATOM     62  C   UNL A   1      43.155  30.458  36.616  1.00  0.00     0.029 A 
ATOM     63  N   UNL A   1      41.735  30.660  34.918  1.00  0.00    -0.354 N 
ATOM     64  N   UNL A   1      39.520  31.895  33.436  1.00  0.00    -0.248 NA
ATOM     65  C   UNL A   1      37.776  33.445  33.309  1.00  0.00     0.031 C 
ATOM     66  C   UNL A   1      42.254  31.485  36.914  1.00  0.00     0.029 A 
ATOM     67  C   UNL A   1      41.386  31.632  35.843  1.00  0.00     0.049 A 
ATOM     68  H   UNL A   1      41.284  30.515  34.055  1.00  0.00     0.167 HD
ATOM     69  C   UNL A   1      39.511  32.667  34.592  1.00  0.00     0.074 A 
ATOM     70  C   UNL A   1      38.437  33.627  34.445  1.00  0.00     0.031 C 
ATOM     71  C   UNL A   1      40.320  32.589  35.678  1.00  0.00     0.037 A 
BRANCH  58  72
ATOM     72  C   UNL A   1      44.553  28.086  35.363  1.00  0.00     0.058 A 
ATOM     73  C   UNL A   1      45.889  28.481  35.192  1.00  0.00     0.135 A 
ATOM     74  C   UNL A   1      44.298  27.003  36.220  1.00  0.00     0.135 A 
ATOM     75  F   UNL A   1      46.194  29.500  34.373  1.00  0.00    -0.206 F 
ATOM     76  C   UNL A   1      46.934  27.811  35.820  1.00  0.00     0.059 A 
ATOM     77  C   UNL A   1      45.325  26.337  36.885  1.00  0.00     0.059 A 
ATOM     78  F   UNL A   1      43.039  26.581  36.422  1.00  0.00    -0.206 F 
ATOM     79  C   UNL A   1      46.642  26.740  36.667  1.00  0.00     0.060 A 
BRANCH  79  80
ATOM     80  S   UNL A   1      48.010  25.888  37.479  1.00  0.00     0.124 S 
ATOM     81  O   UNL A   1      48.258  26.759  38.624  1.00  0.00    -0.237 OA
ATOM     82  O   UNL A   1      47.425  24.587  37.788  1.00  0.00    -0.237 OA
ATOM     83  O   UNL A   1      49.057  25.876  36.462  1.00  0.00    -0.744 OA
ENDBRANCH  79  80
ENDBRANCH  58  72
BRANCH  59  84
ATOM     84  C   UNL A   1      36.968  32.575  30.629  1.00  0.00     0.058 A 
ATOM     85  C   UNL A   1      35.644  32.205  30.911  1.00  0.00     0.135 A 
ATOM     86  C   UNL A   1      37.174  33.585  29.678  1.00  0.00     0.135 A 
ATOM     87  F   UNL A   1      35.394  31.239  31.808  1.00  0.00    -0.206 F 
ATOM     88  C   UNL A   1      34.567  32.797  30.260  1.00  0.00     0.059 A 
ATOM     89  C   UNL A   1      36.112  34.213  29.034  1.00  0.00     0.059 A 
ATOM     90  F   UNL A   1      38.419  33.988  29.382  1.00  0.00    -0.206 F 
ATOM     91  C   UNL A   1      34.811  33.802  29.323  1.00  0.00     0.060 A 
BRANCH  91  92
ATOM     92  S   UNL A   1      33.403  34.589  28.512  1.00  0.00     0.124 S 
ATOM     93  O   UNL A   1      34.043  35.711  27.835  1.00  0.00    -0.237 OA
ATOM     94  O   UNL A   1      32.910  33.519  27.649  1.00  0.00    -0.237 OA
ATOM     95  O   UNL A   1      32.526  34.939  29.625  1.00  0.00    -0.744 OA
ENDBRANCH  91  92
ENDBRANCH  59  84
BRANCH  71  96
ATOM     96  C   UNL A   1      40.108  33.597  36.776  1.00  0.00     0.058 A 
ATOM     97  C   UNL A   1      40.763  34.839  36.780  1.00  0.00     0.135 A 
ATOM     98  C   UNL A   1      39.200  33.334  37.815  1.00  0.00     0.135 A 
ATOM     99  F   UNL A   1      41.646  35.140  35.814  1.00  0.00    -0.206 F 
ATOM    100  C   UNL A   1      40.548  35.771  37.790  1.00  0.00     0.059 A 
ATOM    101  C   UNL A   1      38.946  34.264  38.817  1.00  0.00     0.059 A 
ATOM    102  F   UNL A   1      38.537  32.167  37.854  1.00  0.00    -0.206 F 
ATOM    103  C   UNL A   1      39.635  35.475  38.804  1.00  0.00     0.060 A 
BRANCH 103 104
ATOM    104  S   UNL A   1      39.345  36.704  40.094  1.00  0.00     0.124 S 
ATOM    105  O   UNL A   1      40.676  36.839  40.677  1.00  0.00    -0.237 OA
ATOM    106  O   UNL A   1      38.869  37.852  39.328  1.00  0.00    -0.237 OA
ATOM    107  O   UNL A   1      38.345  36.072  40.949  1.00  0.00    -0.744 OA
ENDBRANCH 103 104
ENDBRANCH  71  96
ENDBRANCH  45  46
ENDBRANCH  37  40
ENDBRANCH  35  36
ENDBRANCH   1  35
TORSDOF 17
ENDMDL
MODEL 3
REMARK VINA RESULT:     -12.4      0.466      7.889
REMARK SMILES C[NH+]1CCC2(CC1)OC[C@H](C(=O)NCCCNC(=O)c1ccc(-c3c4nc(c(-c5c(F)cc(S(=O)(=O)[O-])cc5F)c5ccc([nH]5)c(-c5c(F)cc(S(=O)(=O)[O-])cc5F)c5nc(c(-c6c(F)cc(S(=O)(=O)[O-])cc6F)c6ccc3[nH]6)C=C5)C=C4)cc1)N2C(=O)c1cc(C(F)(F)F)cc(C(F)(F)F)c1
REMARK SMILES IDX 15 1 14 2 13 3 11 4 12 5 10 7 1 8 2 9 3 10 7 11 4 13 6 14
REMARK SMILES IDX 5 15 8 16 86 17 9 18 87 19 88 20 89 21 90 22 102 23 91 24
REMARK SMILES IDX 97 25 96 26 92 27 93 28 94 29 95 30 98 31 99 32 100 33
REMARK SMILES IDX 101 34 16 35 17 36 18 37 19 39 20 40 21 41 85 42 22 43 84 44
REMARK SMILES IDX 23 45 24 46 25 47 78 48 26 49 83 50 77 51 79 52 27 53 82 54
REMARK SMILES IDX 76 55 75 56 28 58 62 59 41 60 61 61 42 62 45 63 60 64 80 65
REMARK SMILES IDX 43 66 44 67 59 69 81 70 46 71 29 72 30 73 39 74 31 75 32 76
REMARK SMILES IDX 38 77 40 78 33 79 34 80 35 81 36 82 37 83 63 84 64 85 73 86
REMARK SMILES IDX 65 87 66 88 72 89 74 90 67 91 68 92 69 93 70 94 71 95 47 96
REMARK SMILES IDX 48 97 57 98 49 99 50 100 56 101 58 102 51 103 52 104 53 105
REMARK SMILES IDX 54 106 55 107
REMARK H PARENT 13 6 2 12 17 38 79 57 45 68
REMARK Flexibility Score: inf
ROOT
ATOM      1  C   UNL A   1      39.998  21.769  26.426  1.00  0.00     0.042 C 
ENDROOT
BRANCH   1   2
ATOM      2  C   UNL A   1      38.640  21.870  25.738  1.00  0.00     0.117 C 
BRANCH   2   3
ATOM      3  N   UNL A   1      37.787  22.841  26.395  1.00  0.00    -0.354 N 
ATOM      4  C   UNL A   1      36.609  23.387  25.979  1.00  0.00     0.245 C 
ATOM      5  O   UNL A   1      36.231  24.392  26.586  1.00  0.00    -0.273 OA
ATOM      6  H   UNL A   1      38.106  23.153  27.273  1.00  0.00     0.163 HD
BRANCH   4   7
ATOM      7  C   UNL A   1      35.767  22.692  24.891  1.00  0.00     0.203 C 
ATOM      8  C   UNL A   1      29.740  22.863  27.072  1.00  0.00     0.332 C 
ATOM      9  N   UNL A   1      30.794  23.435  26.246  1.00  0.00    -0.337 N 
ATOM     10  C   UNL A   1      31.961  23.826  27.029  1.00  0.00     0.267 C 
ATOM     11  C   UNL A   1      31.031  22.669  25.022  1.00  0.00     0.267 C 
ATOM     12  H   UNL A   1      30.465  24.327  25.876  1.00  0.00     0.347 HD
ATOM     13  C   UNL A   1      33.120  22.864  27.016  1.00  0.00     0.120 C 
ATOM     14  C   UNL A   1      32.266  21.782  24.953  1.00  0.00     0.120 C 
ATOM     15  C   UNL A   1      33.510  22.362  25.623  1.00  0.00     0.155 C 
ATOM     16  O   UNL A   1      34.320  21.173  25.934  1.00  0.00    -0.352 OA
ATOM     17  N   UNL A   1      34.410  23.206  24.793  1.00  0.00    -0.295 N 
ATOM     18  C   UNL A   1      35.572  21.246  25.251  1.00  0.00     0.198 C 
BRANCH  17  19
ATOM     19  C   UNL A   1      34.275  24.284  23.919  1.00  0.00     0.256 C 
ATOM     20  O   UNL A   1      34.769  24.271  22.788  1.00  0.00    -0.269 OA
BRANCH  19  21
ATOM     21  C   UNL A   1      33.501  25.493  24.225  1.00  0.00     0.041 A 
ATOM     22  C   UNL A   1      32.261  25.717  23.610  1.00  0.00     0.027 A 
ATOM     23  C   UNL A   1      34.063  26.483  25.025  1.00  0.00     0.027 A 
ATOM     24  C   UNL A   1      31.514  26.870  23.921  1.00  0.00     0.057 A 
ATOM     25  C   UNL A   1      33.287  27.569  25.455  1.00  0.00     0.057 A 
ATOM     26  C   UNL A   1      32.019  27.763  24.882  1.00  0.00     0.026 A 
BRANCH  24  27
ATOM     27  C   UNL A   1      30.181  27.128  23.257  1.00  0.00     0.416 C 
ATOM     28  F   UNL A   1      29.494  28.148  23.836  1.00  0.00    -0.166 F 
ATOM     29  F   UNL A   1      30.314  27.459  21.943  1.00  0.00    -0.166 F 
ATOM     30  F   UNL A   1      29.346  26.051  23.284  1.00  0.00    -0.166 F 
ENDBRANCH  24  27
BRANCH  25  31
ATOM     31  C   UNL A   1      33.762  28.461  26.578  1.00  0.00     0.416 C 
ATOM     32  F   UNL A   1      33.204  28.141  27.775  1.00  0.00    -0.166 F 
ATOM     33  F   UNL A   1      35.110  28.378  26.765  1.00  0.00    -0.166 F 
ATOM     34  F   UNL A   1      33.497  29.782  26.378  1.00  0.00    -0.166 F 
ENDBRANCH  25  31
ENDBRANCH  19  21
ENDBRANCH  17  19
ENDBRANCH   4   7
ENDBRANCH   2   3
ENDBRANCH   1   2
BRANCH   1  35
ATOM     35  C   UNL A   1      40.508  23.092  26.996  1.00  0.00     0.118 C 
BRANCH  35  36
ATOM     36  N   UNL A   1      41.296  23.853  26.034  1.00  0.00    -0.352 N 
ATOM     37  C   UNL A   1      41.716  25.160  26.064  1.00  0.00     0.251 C 
ATOM     38  H   UNL A   1      41.573  23.348  25.235  1.00  0.00     0.163 HD
ATOM     39  O   UNL A   1      42.203  25.658  25.055  1.00  0.00    -0.269 OA
BRANCH  37  40
ATOM     40  C   UNL A   1      41.566  25.969  27.294  1.00  0.00     0.039 A 
ATOM     41  C   UNL A   1      42.472  27.006  27.533  1.00  0.00     0.014 A 
ATOM     42  C   UNL A   1      40.559  25.696  28.222  1.00  0.00     0.014 A 
ATOM     43  C   UNL A   1      42.325  27.807  28.668  1.00  0.00     0.010 A 
ATOM     44  C   UNL A   1      40.365  26.546  29.308  1.00  0.00     0.010 A 
ATOM     45  C   UNL A   1      41.247  27.609  29.545  1.00  0.00    -0.014 A 
BRANCH  45  46
ATOM     46  C   UNL A   1      41.025  28.508  30.710  1.00  0.00     0.031 A 
ATOM     47  C   UNL A   1      39.967  29.578  30.654  1.00  0.00     0.074 A 
ATOM     48  C   UNL A   1      41.817  28.397  31.796  1.00  0.00     0.049 A 
ATOM     49  N   UNL A   1      39.668  30.489  31.544  1.00  0.00    -0.248 NA
ATOM     50  C   UNL A   1      39.154  29.647  29.430  1.00  0.00     0.031 C 
ATOM     51  C   UNL A   1      42.907  27.430  31.953  1.00  0.00     0.029 A 
ATOM     52  N   UNL A   1      41.834  29.105  32.971  1.00  0.00    -0.354 N 
ATOM     53  C   UNL A   1      38.641  31.243  30.986  1.00  0.00     0.074 A 
ATOM     54  C   UNL A   1      38.410  30.719  29.656  1.00  0.00     0.031 C 
ATOM     55  C   UNL A   1      43.467  27.589  33.162  1.00  0.00     0.029 A 
ATOM     56  C   UNL A   1      42.809  28.695  33.851  1.00  0.00     0.049 A 
ATOM     57  H   UNL A   1      41.208  29.839  33.166  1.00  0.00     0.167 HD
ATOM     58  C   UNL A   1      37.938  32.261  31.538  1.00  0.00     0.037 A 
ATOM     59  C   UNL A   1      43.142  29.162  35.070  1.00  0.00     0.037 A 
ATOM     60  C   UNL A   1      38.165  32.768  32.867  1.00  0.00     0.049 A 
ATOM     61  C   UNL A   1      42.360  30.308  35.653  1.00  0.00     0.074 A 
ATOM     62  C   UNL A   1      37.478  33.766  33.536  1.00  0.00     0.029 A 
ATOM     63  N   UNL A   1      39.156  32.320  33.729  1.00  0.00    -0.354 N 
ATOM     64  N   UNL A   1      41.352  30.969  35.135  1.00  0.00    -0.248 NA
ATOM     65  C   UNL A   1      42.755  30.767  36.993  1.00  0.00     0.031 C 
ATOM     66  C   UNL A   1      38.084  33.957  34.781  1.00  0.00     0.029 A 
ATOM     67  C   UNL A   1      39.111  33.037  34.915  1.00  0.00     0.049 A 
ATOM     68  H   UNL A   1      39.796  31.600  33.529  1.00  0.00     0.167 HD
ATOM     69  C   UNL A   1      40.972  31.899  36.096  1.00  0.00     0.074 A 
ATOM     70  C   UNL A   1      41.850  31.707  37.231  1.00  0.00     0.031 C 
ATOM     71  C   UNL A   1      39.985  32.828  36.043  1.00  0.00     0.037 A 
BRANCH  58  72
ATOM     72  C   UNL A   1      36.852  32.893  30.707  1.00  0.00     0.058 A 
ATOM     73  C   UNL A   1      35.505  32.523  30.852  1.00  0.00     0.135 A 
ATOM     74  C   UNL A   1      37.154  33.908  29.786  1.00  0.00     0.135 A 
ATOM     75  F   UNL A   1      35.159  31.547  31.708  1.00  0.00    -0.206 F 
ATOM     76  C   UNL A   1      34.501  33.113  30.092  1.00  0.00     0.059 A 
ATOM     77  C   UNL A   1      36.161  34.536  29.036  1.00  0.00     0.059 A 
ATOM     78  F   UNL A   1      38.424  34.304  29.605  1.00  0.00    -0.206 F 
ATOM     79  C   UNL A   1      34.839  34.121  29.187  1.00  0.00     0.060 A 
BRANCH  79  80
ATOM     80  S   UNL A   1      33.522  34.881  28.214  1.00  0.00     0.124 S 
ATOM     81  O   UNL A   1      32.542  33.800  28.155  1.00  0.00    -0.237 OA
ATOM     82  O   UNL A   1      33.151  36.028  29.037  1.00  0.00    -0.237 OA
ATOM     83  O   UNL A   1      34.175  35.205  26.949  1.00  0.00    -0.744 OA
ENDBRANCH  79  80
ENDBRANCH  58  72
BRANCH  59  84
ATOM     84  C   UNL A   1      44.256  28.532  35.832  1.00  0.00     0.058 A 
ATOM     85  C   UNL A   1      45.563  29.033  35.747  1.00  0.00     0.135 A 
ATOM     86  C   UNL A   1      44.037  27.419  36.659  1.00  0.00     0.135 A 
ATOM     87  F   UNL A   1      45.825  30.092  34.965  1.00  0.00    -0.206 F 
ATOM     88  C   UNL A   1      46.618  28.443  36.435  1.00  0.00     0.059 A 
ATOM     89  C   UNL A   1      45.070  26.828  37.380  1.00  0.00     0.059 A 
ATOM     90  F   UNL A   1      42.802  26.910  36.790  1.00  0.00    -0.206 F 
ATOM     91  C   UNL A   1      46.360  27.340  37.251  1.00  0.00     0.060 A 
BRANCH  91  92
ATOM     92  S   UNL A   1      47.731  26.605  38.168  1.00  0.00     0.124 S 
ATOM     93  O   UNL A   1      48.395  25.824  37.130  1.00  0.00    -0.237 OA
ATOM     94  O   UNL A   1      48.451  27.784  38.640  1.00  0.00    -0.237 OA
ATOM     95  O   UNL A   1      47.062  25.831  39.209  1.00  0.00    -0.744 OA
ENDBRANCH  91  92
ENDBRANCH  59  84
BRANCH  71  96
ATOM     96  C   UNL A   1      39.767  33.679  37.266  1.00  0.00     0.058 A 
ATOM     97  C   UNL A   1      40.393  34.925  37.424  1.00  0.00     0.135 A 
ATOM     98  C   UNL A   1      38.883  33.258  38.273  1.00  0.00     0.135 A 
ATOM     99  F   UNL A   1      41.252  35.373  36.495  1.00  0.00    -0.206 F 
ATOM    100  C   UNL A   1      40.172  35.712  38.551  1.00  0.00     0.059 A 
ATOM    101  C   UNL A   1      38.623  34.043  39.392  1.00  0.00     0.059 A 
ATOM    102  F   UNL A   1      38.249  32.080  38.168  1.00  0.00    -0.206 F 
ATOM    103  C   UNL A   1      39.283  35.262  39.528  1.00  0.00     0.060 A 
BRANCH 103 104
ATOM    104  S   UNL A   1      38.984  36.305  40.972  1.00  0.00     0.124 S 
ATOM    105  O   UNL A   1      38.655  37.583  40.349  1.00  0.00    -0.237 OA
ATOM    106  O   UNL A   1      37.877  35.616  41.629  1.00  0.00    -0.237 OA
ATOM    107  O   UNL A   1      40.254  36.265  41.690  1.00  0.00    -0.744 OA
ENDBRANCH 103 104
ENDBRANCH  71  96
ENDBRANCH  45  46
ENDBRANCH  37  40
ENDBRANCH  35  36
ENDBRANCH   1  35
TORSDOF 17
ENDMDL
