MODEL 1
REMARK VINA RESULT:     -12.1      0.000      0.000
REMARK SMILES C[C@@H](c1ccccc1)[C@@H](CC(=O)Nc1ccccc1I)C(=O)NCCCNC(=O)c1ccc(-c2c3nc(c(-c4c(F)cc(S(=O)(=O)[O-])cc4F)c4ccc([nH]4)c(-c4c(F)cc(S(=O)(=O)[O-])cc4F)c4nc(c(-c5c(F)cc(S(=O)(=O)[O-])cc5F)c5ccc2[nH]5)C=C4)C=C3)cc1
REMARK SMILES IDX 25 1 24 2 23 3 21 4 22 5 9 7 2 8 1 9 3 10 4 11 8 12 5 13
REMARK SMILES IDX 7 14 6 15 10 16 11 17 12 18 13 19 14 21 15 22 19 23 16 24
REMARK SMILES IDX 18 25 20 26 17 27 26 28 27 29 28 30 29 32 30 33 31 34 95 35
REMARK SMILES IDX 32 36 94 37 33 38 34 39 35 40 88 41 36 42 93 43 87 44 89 45
REMARK SMILES IDX 37 46 92 47 86 48 85 49 38 51 72 52 51 53 71 54 52 55 55 56
REMARK SMILES IDX 70 57 90 58 53 59 54 60 69 62 91 63 56 64 39 65 40 66 49 67
REMARK SMILES IDX 41 68 42 69 48 70 50 71 43 72 44 73 45 74 46 75 47 76 73 77
REMARK SMILES IDX 74 78 83 79 75 80 76 81 82 82 84 83 77 84 78 85 79 86 80 87
REMARK SMILES IDX 81 88 57 89 58 90 67 91 59 92 60 93 66 94 68 95 61 96 62 97
REMARK SMILES IDX 63 98 64 99 65 100
REMARK H PARENT 23 6 13 20 27 31 89 50 55 61
REMARK Flexibility Score: inf
ROOT
ATOM      1  C   UNL A   1      37.171  23.689  25.126  1.00  0.00     0.042 C 
ENDROOT
BRANCH   1   2
ATOM      2  C   UNL A   1      37.200  22.242  24.667  1.00  0.00     0.117 C 
BRANCH   2   3
ATOM      3  N   UNL A   1      36.376  21.229  25.258  1.00  0.00    -0.356 N 
ATOM      4  C   UNL A   1      35.034  21.087  25.057  1.00  0.00     0.224 C 
ATOM      5  O   UNL A   1      34.629  19.916  25.060  1.00  0.00    -0.275 OA
ATOM      6  H   UNL A   1      36.814  20.583  25.858  1.00  0.00     0.163 HD
BRANCH   4   7
ATOM      7  C   UNL A   1      34.014  22.246  24.849  1.00  0.00     0.095 C 
BRANCH   7   8
ATOM      8  C   UNL A   1      33.805  22.765  23.404  1.00  0.00     0.029 C 
ATOM      9  C   UNL A   1      32.687  21.987  22.675  1.00  0.00     0.013 C 
BRANCH   8  10
ATOM     10  C   UNL A   1      33.629  24.249  23.095  1.00  0.00    -0.044 A 
ATOM     11  C   UNL A   1      33.949  25.297  23.961  1.00  0.00     0.004 A 
ATOM     12  C   UNL A   1      33.097  24.592  21.833  1.00  0.00     0.004 A 
ATOM     13  C   UNL A   1      33.828  26.631  23.546  1.00  0.00     0.000 A 
ATOM     14  C   UNL A   1      32.956  25.917  21.424  1.00  0.00     0.000 A 
ATOM     15  C   UNL A   1      33.341  26.940  22.277  1.00  0.00     0.000 A 
ENDBRANCH   8  10
ENDBRANCH   7   8
BRANCH   7  16
ATOM     16  C   UNL A   1      32.705  22.198  25.678  1.00  0.00     0.114 C 
BRANCH  16  17
ATOM     17  C   UNL A   1      32.249  23.144  26.799  1.00  0.00     0.225 C 
ATOM     18  O   UNL A   1      32.799  22.969  27.905  1.00  0.00    -0.275 OA
ATOM     19  N   UNL A   1      31.337  24.157  26.823  1.00  0.00    -0.325 N 
ATOM     20  H   UNL A   1      30.955  24.296  27.719  1.00  0.00     0.169 HD
BRANCH  19  21
ATOM     21  C   UNL A   1      30.811  25.055  25.872  1.00  0.00     0.054 A 
ATOM     22  C   UNL A   1      30.432  24.453  24.660  1.00  0.00     0.027 A 
ATOM     23  C   UNL A   1      30.932  26.457  25.848  1.00  0.00     0.037 A 
ATOM     24  C   UNL A   1      29.994  25.207  23.566  1.00  0.00     0.002 A 
ATOM     25  C   UNL A   1      30.351  27.214  24.815  1.00  0.00     0.017 A 
ATOM     26  I   UNL A   1      32.340  27.607  26.945  1.00  0.00    -0.042 I 
ATOM     27  C   UNL A   1      29.880  26.585  23.672  1.00  0.00     0.001 A 
ENDBRANCH  19  21
ENDBRANCH  16  17
ENDBRANCH   7  16
ENDBRANCH   4   7
ENDBRANCH   2   3
ENDBRANCH   1   2
BRANCH   1  28
ATOM     28  C   UNL A   1      37.853  24.023  26.431  1.00  0.00     0.118 C 
BRANCH  28  29
ATOM     29  N   UNL A   1      39.279  23.773  26.317  1.00  0.00    -0.352 N 
ATOM     30  C   UNL A   1      40.342  24.579  26.647  1.00  0.00     0.251 C 
ATOM     31  H   UNL A   1      39.521  22.893  25.949  1.00  0.00     0.163 HD
ATOM     32  O   UNL A   1      41.425  24.373  26.104  1.00  0.00    -0.269 OA
BRANCH  30  33
ATOM     33  C   UNL A   1      40.213  25.680  27.635  1.00  0.00     0.039 A 
ATOM     34  C   UNL A   1      41.101  26.761  27.560  1.00  0.00     0.014 A 
ATOM     35  C   UNL A   1      39.314  25.610  28.702  1.00  0.00     0.014 A 
ATOM     36  C   UNL A   1      41.076  27.764  28.536  1.00  0.00     0.010 A 
ATOM     37  C   UNL A   1      39.231  26.653  29.625  1.00  0.00     0.010 A 
ATOM     38  C   UNL A   1      40.132  27.725  29.574  1.00  0.00    -0.014 A 
BRANCH  38  39
ATOM     39  C   UNL A   1      40.110  28.756  30.648  1.00  0.00     0.031 A 
ATOM     40  C   UNL A   1      40.994  28.597  31.862  1.00  0.00     0.074 A 
ATOM     41  C   UNL A   1      39.257  29.796  30.568  1.00  0.00     0.049 A 
ATOM     42  N   UNL A   1      41.051  29.329  32.945  1.00  0.00    -0.248 NA
ATOM     43  C   UNL A   1      41.916  27.447  31.874  1.00  0.00     0.031 C 
ATOM     44  C   UNL A   1      38.315  30.035  29.472  1.00  0.00     0.029 A 
ATOM     45  N   UNL A   1      39.030  30.838  31.432  1.00  0.00    -0.354 N 
ATOM     46  C   UNL A   1      41.983  28.714  33.775  1.00  0.00     0.074 A 
ATOM     47  C   UNL A   1      42.441  27.527  33.087  1.00  0.00     0.031 C 
ATOM     48  C   UNL A   1      37.617  31.154  29.728  1.00  0.00     0.029 A 
ATOM     49  C   UNL A   1      38.035  31.693  31.018  1.00  0.00     0.049 A 
ATOM     50  H   UNL A   1      39.532  30.962  32.269  1.00  0.00     0.167 HD
ATOM     51  C   UNL A   1      42.430  29.112  34.989  1.00  0.00     0.037 A 
ATOM     52  C   UNL A   1      37.507  32.778  31.618  1.00  0.00     0.037 A 
ATOM     53  C   UNL A   1      42.016  30.325  35.643  1.00  0.00     0.049 A 
ATOM     54  C   UNL A   1      38.049  33.219  32.952  1.00  0.00     0.074 A 
ATOM     55  C   UNL A   1      42.484  30.863  36.830  1.00  0.00     0.029 A 
ATOM     56  N   UNL A   1      41.044  31.190  35.166  1.00  0.00    -0.354 N 
ATOM     57  N   UNL A   1      38.988  32.666  33.683  1.00  0.00    -0.248 NA
ATOM     58  C   UNL A   1      37.470  34.435  33.540  1.00  0.00     0.031 C 
ATOM     59  C   UNL A   1      41.764  32.033  37.092  1.00  0.00     0.029 A 
ATOM     60  C   UNL A   1      40.881  32.247  36.045  1.00  0.00     0.049 A 
ATOM     61  H   UNL A   1      40.544  31.071  34.327  1.00  0.00     0.167 HD
ATOM     62  C   UNL A   1      39.126  33.479  34.803  1.00  0.00     0.074 A 
ATOM     63  C   UNL A   1      38.188  34.571  34.646  1.00  0.00     0.031 C 
ATOM     64  C   UNL A   1      39.953  33.334  35.867  1.00  0.00     0.037 A 
BRANCH  51  65
ATOM     65  C   UNL A   1      43.434  28.244  35.698  1.00  0.00     0.058 A 
ATOM     66  C   UNL A   1      44.815  28.406  35.508  1.00  0.00     0.135 A 
ATOM     67  C   UNL A   1      43.010  27.296  36.646  1.00  0.00     0.135 A 
ATOM     68  F   UNL A   1      45.274  29.286  34.604  1.00  0.00    -0.206 F 
ATOM     69  C   UNL A   1      45.741  27.656  36.225  1.00  0.00     0.059 A 
ATOM     70  C   UNL A   1      43.919  26.553  37.393  1.00  0.00     0.059 A 
ATOM     71  F   UNL A   1      41.701  27.100  36.865  1.00  0.00    -0.206 F 
ATOM     72  C   UNL A   1      45.284  26.737  37.171  1.00  0.00     0.060 A 
BRANCH  72  73
ATOM     73  S   UNL A   1      46.502  25.809  38.129  1.00  0.00     0.124 S 
ATOM     74  O   UNL A   1      47.470  26.851  38.456  1.00  0.00    -0.237 OA
ATOM     75  O   UNL A   1      45.706  25.309  39.244  1.00  0.00    -0.237 OA
ATOM     76  O   UNL A   1      46.969  24.791  37.191  1.00  0.00    -0.744 OA
ENDBRANCH  72  73
ENDBRANCH  51  65
BRANCH  52  77
ATOM     77  C   UNL A   1      36.397  33.527  30.969  1.00  0.00     0.058 A 
ATOM     78  C   UNL A   1      35.117  33.570  31.543  1.00  0.00     0.135 A 
ATOM     79  C   UNL A   1      36.588  34.200  29.753  1.00  0.00     0.135 A 
ATOM     80  F   UNL A   1      34.881  32.937  32.703  1.00  0.00    -0.206 F 
ATOM     81  C   UNL A   1      34.060  34.226  30.921  1.00  0.00     0.059 A 
ATOM     82  C   UNL A   1      35.554  34.886  29.124  1.00  0.00     0.059 A 
ATOM     83  F   UNL A   1      37.798  34.208  29.171  1.00  0.00    -0.206 F 
ATOM     84  C   UNL A   1      34.288  34.878  29.708  1.00  0.00     0.060 A 
BRANCH  84  85
ATOM     85  S   UNL A   1      32.917  35.746  28.915  1.00  0.00     0.124 S 
ATOM     86  O   UNL A   1      32.403  34.721  28.016  1.00  0.00    -0.237 OA
ATOM     87  O   UNL A   1      32.066  36.086  30.051  1.00  0.00    -0.237 OA
ATOM     88  O   UNL A   1      33.570  36.883  28.271  1.00  0.00    -0.744 OA
ENDBRANCH  84  85
ENDBRANCH  52  77
BRANCH  64  89
ATOM     89  C   UNL A   1      39.911  34.396  36.930  1.00  0.00     0.058 A 
ATOM     90  C   UNL A   1      40.650  35.583  36.813  1.00  0.00     0.135 A 
ATOM     91  C   UNL A   1      39.077  34.249  38.050  1.00  0.00     0.135 A 
ATOM     92  F   UNL A   1      41.468  35.770  35.764  1.00  0.00    -0.206 F 
ATOM     93  C   UNL A   1      40.580  36.579  37.781  1.00  0.00     0.059 A 
ATOM     94  C   UNL A   1      38.971  35.243  39.015  1.00  0.00     0.059 A 
ATOM     95  F   UNL A   1      38.341  33.136  38.202  1.00  0.00    -0.206 F 
ATOM     96  C   UNL A   1      39.736  36.401  38.879  1.00  0.00     0.060 A 
BRANCH  96  97
ATOM     97  S   UNL A   1      39.625  37.716  40.110  1.00  0.00     0.124 S 
ATOM     98  O   UNL A   1      40.909  38.389  39.934  1.00  0.00    -0.237 OA
ATOM     99  O   UNL A   1      38.453  38.464  39.667  1.00  0.00    -0.237 OA
ATOM    100  O   UNL A   1      39.462  36.992  41.367  1.00  0.00    -0.744 OA
ENDBRANCH  96  97
ENDBRANCH  64  89
ENDBRANCH  38  39
ENDBRANCH  30  33
ENDBRANCH  28  29
ENDBRANCH   1  28
TORSDOF 18
ENDMDL
MODEL 2
REMARK VINA RESULT:     -11.8      6.854     12.142
REMARK SMILES C[C@@H](c1ccccc1)[C@@H](CC(=O)Nc1ccccc1I)C(=O)NCCCNC(=O)c1ccc(-c2c3nc(c(-c4c(F)cc(S(=O)(=O)[O-])cc4F)c4ccc([nH]4)c(-c4c(F)cc(S(=O)(=O)[O-])cc4F)c4nc(c(-c5c(F)cc(S(=O)(=O)[O-])cc5F)c5ccc2[nH]5)C=C4)C=C3)cc1
REMARK SMILES IDX 25 1 24 2 23 3 21 4 22 5 9 7 2 8 1 9 3 10 4 11 8 12 5 13
REMARK SMILES IDX 7 14 6 15 10 16 11 17 12 18 13 19 14 21 15 22 19 23 16 24
REMARK SMILES IDX 18 25 20 26 17 27 26 28 27 29 28 30 29 32 30 33 31 34 95 35
REMARK SMILES IDX 32 36 94 37 33 38 34 39 35 40 88 41 36 42 93 43 87 44 89 45
REMARK SMILES IDX 37 46 92 47 86 48 85 49 38 51 72 52 51 53 71 54 52 55 55 56
REMARK SMILES IDX 70 57 90 58 53 59 54 60 69 62 91 63 56 64 39 65 40 66 49 67
REMARK SMILES IDX 41 68 42 69 48 70 50 71 43 72 44 73 45 74 46 75 47 76 73 77
REMARK SMILES IDX 74 78 83 79 75 80 76 81 82 82 84 83 77 84 78 85 79 86 80 87
REMARK SMILES IDX 81 88 57 89 58 90 67 91 59 92 60 93 66 94 68 95 61 96 62 97
REMARK SMILES IDX 63 98 64 99 65 100
REMARK H PARENT 23 6 13 20 27 31 89 50 55 61
REMARK Flexibility Score: inf
ROOT
ATOM      1  C   UNL A   1      33.804  28.588  26.966  1.00  0.00     0.042 C 
ENDROOT
BRANCH   1   2
ATOM      2  C   UNL A   1      32.702  29.628  26.859  1.00  0.00     0.117 C 
BRANCH   2   3
ATOM      3  N   UNL A   1      32.134  30.023  25.604  1.00  0.00    -0.356 N 
ATOM      4  C   UNL A   1      31.423  29.211  24.769  1.00  0.00     0.224 C 
ATOM      5  O   UNL A   1      30.512  29.775  24.147  1.00  0.00    -0.275 OA
ATOM      6  H   UNL A   1      32.268  30.956  25.321  1.00  0.00     0.163 HD
BRANCH   4   7
ATOM      7  C   UNL A   1      31.676  27.690  24.541  1.00  0.00     0.095 C 
BRANCH   7   8
ATOM      8  C   UNL A   1      30.845  26.692  25.386  1.00  0.00     0.029 C 
ATOM      9  C   UNL A   1      29.510  26.335  24.696  1.00  0.00     0.013 C 
BRANCH   8  10
ATOM     10  C   UNL A   1      31.449  25.407  25.944  1.00  0.00    -0.044 A 
ATOM     11  C   UNL A   1      32.815  25.145  26.070  1.00  0.00     0.004 A 
ATOM     12  C   UNL A   1      30.555  24.398  26.365  1.00  0.00     0.004 A 
ATOM     13  C   UNL A   1      33.264  23.964  26.677  1.00  0.00     0.000 A 
ATOM     14  C   UNL A   1      30.999  23.212  26.950  1.00  0.00     0.000 A 
ATOM     15  C   UNL A   1      32.359  23.004  27.123  1.00  0.00     0.000 A 
ENDBRANCH   8  10
ENDBRANCH   7   8
BRANCH   7  16
ATOM     16  C   UNL A   1      31.901  27.219  23.082  1.00  0.00     0.114 C 
BRANCH  16  17
ATOM     17  C   UNL A   1      33.175  26.635  22.452  1.00  0.00     0.225 C 
ATOM     18  O   UNL A   1      34.069  27.463  22.187  1.00  0.00    -0.275 OA
ATOM     19  N   UNL A   1      33.524  25.361  22.115  1.00  0.00    -0.325 N 
ATOM     20  H   UNL A   1      34.176  25.334  21.379  1.00  0.00     0.169 HD
BRANCH  19  21
ATOM     21  C   UNL A   1      33.177  24.072  22.569  1.00  0.00     0.054 A 
ATOM     22  C   UNL A   1      31.802  23.896  22.801  1.00  0.00     0.027 A 
ATOM     23  C   UNL A   1      34.022  23.095  23.128  1.00  0.00     0.037 A 
ATOM     24  C   UNL A   1      31.292  22.718  23.358  1.00  0.00     0.002 A 
ATOM     25  C   UNL A   1      33.513  21.853  23.543  1.00  0.00     0.017 A 
ATOM     26  I   UNL A   1      35.968  23.428  23.907  1.00  0.00    -0.042 I 
ATOM     27  C   UNL A   1      32.143  21.665  23.657  1.00  0.00     0.001 A 
ENDBRANCH  19  21
ENDBRANCH  16  17
ENDBRANCH   7  16
ENDBRANCH   4   7
ENDBRANCH   2   3
ENDBRANCH   1   2
BRANCH   1  28
ATOM     28  C   UNL A   1      35.198  29.076  27.280  1.00  0.00     0.118 C 
BRANCH  28  29
ATOM     29  N   UNL A   1      35.175  29.888  28.483  1.00  0.00    -0.352 N 
ATOM     30  C   UNL A   1      36.134  30.047  29.454  1.00  0.00     0.251 C 
ATOM     31  H   UNL A   1      34.349  30.403  28.624  1.00  0.00     0.163 HD
ATOM     32  O   UNL A   1      35.782  30.426  30.570  1.00  0.00    -0.269 OA
BRANCH  30  33
ATOM     33  C   UNL A   1      37.570  29.776  29.190  1.00  0.00     0.039 A 
ATOM     34  C   UNL A   1      38.021  29.772  27.863  1.00  0.00     0.014 A 
ATOM     35  C   UNL A   1      38.451  29.413  30.210  1.00  0.00     0.014 A 
ATOM     36  C   UNL A   1      39.344  29.419  27.570  1.00  0.00     0.010 A 
ATOM     37  C   UNL A   1      39.790  29.146  29.926  1.00  0.00     0.010 A 
ATOM     38  C   UNL A   1      40.246  29.112  28.601  1.00  0.00    -0.014 A 
BRANCH  38  39
ATOM     39  C   UNL A   1      41.645  28.693  28.315  1.00  0.00     0.031 A 
ATOM     40  C   UNL A   1      42.745  29.726  28.266  1.00  0.00     0.074 A 
ATOM     41  C   UNL A   1      41.920  27.404  28.037  1.00  0.00     0.049 A 
ATOM     42  N   UNL A   1      44.004  29.579  27.940  1.00  0.00    -0.248 NA
ATOM     43  C   UNL A   1      42.377  31.113  28.599  1.00  0.00     0.031 C 
ATOM     44  C   UNL A   1      40.938  26.318  28.000  1.00  0.00     0.029 A 
ATOM     45  N   UNL A   1      43.105  26.788  27.714  1.00  0.00    -0.354 N 
ATOM     46  C   UNL A   1      44.565  30.851  27.996  1.00  0.00     0.074 A 
ATOM     47  C   UNL A   1      43.503  31.766  28.352  1.00  0.00     0.031 C 
ATOM     48  C   UNL A   1      41.560  25.171  27.680  1.00  0.00     0.029 A 
ATOM     49  C   UNL A   1      42.976  25.443  27.454  1.00  0.00     0.049 A 
ATOM     50  H   UNL A   1      43.964  27.265  27.673  1.00  0.00     0.167 HD
ATOM     51  C   UNL A   1      45.852  31.220  27.790  1.00  0.00     0.037 A 
ATOM     52  C   UNL A   1      43.892  24.536  27.061  1.00  0.00     0.037 A 
ATOM     53  C   UNL A   1      46.917  30.299  27.496  1.00  0.00     0.049 A 
ATOM     54  C   UNL A   1      45.323  24.967  26.875  1.00  0.00     0.074 A 
ATOM     55  C   UNL A   1      48.270  30.564  27.366  1.00  0.00     0.029 A 
ATOM     56  N   UNL A   1      46.755  28.938  27.292  1.00  0.00    -0.354 N 
ATOM     57  N   UNL A   1      45.847  26.163  27.011  1.00  0.00    -0.248 NA
ATOM     58  C   UNL A   1      46.289  23.928  26.491  1.00  0.00     0.031 C 
ATOM     59  C   UNL A   1      48.920  29.369  27.041  1.00  0.00     0.029 A 
ATOM     60  C   UNL A   1      47.978  28.353  27.015  1.00  0.00     0.049 A 
ATOM     61  H   UNL A   1      45.897  28.458  27.338  1.00  0.00     0.167 HD
ATOM     62  C   UNL A   1      47.206  26.013  26.754  1.00  0.00     0.074 A 
ATOM     63  C   UNL A   1      47.426  24.610  26.470  1.00  0.00     0.031 C 
ATOM     64  C   UNL A   1      48.183  26.953  26.749  1.00  0.00     0.037 A 
BRANCH  51  65
ATOM     65  C   UNL A   1      46.199  32.681  27.889  1.00  0.00     0.058 A 
ATOM     66  C   UNL A   1      45.971  33.567  26.825  1.00  0.00     0.135 A 
ATOM     67  C   UNL A   1      46.684  33.216  29.094  1.00  0.00     0.135 A 
ATOM     68  F   UNL A   1      45.523  33.107  25.646  1.00  0.00    -0.206 F 
ATOM     69  C   UNL A   1      46.219  34.931  26.948  1.00  0.00     0.059 A 
ATOM     70  C   UNL A   1      46.915  34.579  29.248  1.00  0.00     0.059 A 
ATOM     71  F   UNL A   1      46.921  32.412  30.143  1.00  0.00    -0.206 F 
ATOM     72  C   UNL A   1      46.684  35.428  28.167  1.00  0.00     0.060 A 
BRANCH  72  73
ATOM     73  S   UNL A   1      46.951  37.208  28.324  1.00  0.00     0.124 S 
ATOM     74  O   UNL A   1      48.396  37.303  28.145  1.00  0.00    -0.237 OA
ATOM     75  O   UNL A   1      46.139  37.743  27.237  1.00  0.00    -0.237 OA
ATOM     76  O   UNL A   1      46.465  37.506  29.670  1.00  0.00    -0.744 OA
ENDBRANCH  72  73
ENDBRANCH  51  65
BRANCH  52  77
ATOM     77  C   UNL A   1      43.489  23.126  26.810  1.00  0.00     0.058 A 
ATOM     78  C   UNL A   1      43.192  22.256  27.869  1.00  0.00     0.135 A 
ATOM     79  C   UNL A   1      43.410  22.615  25.505  1.00  0.00     0.135 A 
ATOM     80  F   UNL A   1      43.258  22.695  29.136  1.00  0.00    -0.206 F 
ATOM     81  C   UNL A   1      42.861  20.923  27.649  1.00  0.00     0.059 A 
ATOM     82  C   UNL A   1      43.056  21.293  25.257  1.00  0.00     0.059 A 
ATOM     83  F   UNL A   1      43.665  23.410  24.454  1.00  0.00    -0.206 F 
ATOM     84  C   UNL A   1      42.800  20.449  26.337  1.00  0.00     0.060 A 
BRANCH  84  85
ATOM     85  S   UNL A   1      42.350  18.723  26.055  1.00  0.00     0.124 S 
ATOM     86  O   UNL A   1      40.950  18.845  25.667  1.00  0.00    -0.237 OA
ATOM     87  O   UNL A   1      43.275  18.330  24.997  1.00  0.00    -0.237 OA
ATOM     88  O   UNL A   1      42.595  18.099  27.352  1.00  0.00    -0.744 OA
ENDBRANCH  84  85
ENDBRANCH  52  77
BRANCH  64  89
ATOM     89  C   UNL A   1      49.586  26.494  26.464  1.00  0.00     0.058 A 
ATOM     90  C   UNL A   1      50.438  26.053  27.488  1.00  0.00     0.135 A 
ATOM     91  C   UNL A   1      50.062  26.443  25.144  1.00  0.00     0.135 A 
ATOM     92  F   UNL A   1      50.032  26.088  28.767  1.00  0.00    -0.206 F 
ATOM     93  C   UNL A   1      51.723  25.596  27.215  1.00  0.00     0.059 A 
ATOM     94  C   UNL A   1      51.333  25.964  24.846  1.00  0.00     0.059 A 
ATOM     95  F   UNL A   1      49.282  26.844  24.128  1.00  0.00    -0.206 F 
ATOM     96  C   UNL A   1      52.161  25.553  25.890  1.00  0.00     0.060 A 
BRANCH  96  97
ATOM     97  S   UNL A   1      53.817  24.924  25.545  1.00  0.00     0.124 S 
ATOM     98  O   UNL A   1      54.278  25.857  24.522  1.00  0.00    -0.237 OA
ATOM     99  O   UNL A   1      54.472  25.035  26.845  1.00  0.00    -0.237 OA
ATOM    100  O   UNL A   1      53.573  23.559  25.087  1.00  0.00    -0.744 OA
ENDBRANCH  96  97
ENDBRANCH  64  89
ENDBRANCH  38  39
ENDBRANCH  30  33
ENDBRANCH  28  29
ENDBRANCH   1  28
TORSDOF 18
ENDMDL
MODEL 3
REMARK VINA RESULT:     -11.8      6.841     12.174
REMARK SMILES C[C@@H](c1ccccc1)[C@@H](CC(=O)Nc1ccccc1I)C(=O)NCCCNC(=O)c1ccc(-c2c3nc(c(-c4c(F)cc(S(=O)(=O)[O-])cc4F)c4ccc([nH]4)c(-c4c(F)cc(S(=O)(=O)[O-])cc4F)c4nc(c(-c5c(F)cc(S(=O)(=O)[O-])cc5F)c5ccc2[nH]5)C=C4)C=C3)cc1
REMARK SMILES IDX 25 1 24 2 23 3 21 4 22 5 9 7 2 8 1 9 3 10 4 11 8 12 5 13
REMARK SMILES IDX 7 14 6 15 10 16 11 17 12 18 13 19 14 21 15 22 19 23 16 24
REMARK SMILES IDX 18 25 20 26 17 27 26 28 27 29 28 30 29 32 30 33 31 34 95 35
REMARK SMILES IDX 32 36 94 37 33 38 34 39 35 40 88 41 36 42 93 43 87 44 89 45
REMARK SMILES IDX 37 46 92 47 86 48 85 49 38 51 72 52 51 53 71 54 52 55 55 56
REMARK SMILES IDX 70 57 90 58 53 59 54 60 69 62 91 63 56 64 39 65 40 66 49 67
REMARK SMILES IDX 41 68 42 69 48 70 50 71 43 72 44 73 45 74 46 75 47 76 73 77
REMARK SMILES IDX 74 78 83 79 75 80 76 81 82 82 84 83 77 84 78 85 79 86 80 87
REMARK SMILES IDX 81 88 57 89 58 90 67 91 59 92 60 93 66 94 68 95 61 96 62 97
REMARK SMILES IDX 63 98 64 99 65 100
REMARK H PARENT 23 6 13 20 27 31 89 50 55 61
REMARK Flexibility Score: inf
ROOT
ATOM      1  C   UNL A   1      33.481  29.653  27.205  1.00  0.00     0.042 C 
ENDROOT
BRANCH   1   2
ATOM      2  C   UNL A   1      33.034  30.072  25.815  1.00  0.00     0.117 C 
BRANCH   2   3
ATOM      3  N   UNL A   1      33.645  29.564  24.623  1.00  0.00    -0.356 N 
ATOM      4  C   UNL A   1      33.058  28.706  23.739  1.00  0.00     0.224 C 
ATOM      5  O   UNL A   1      33.382  28.878  22.555  1.00  0.00    -0.275 OA
ATOM      6  H   UNL A   1      34.564  29.856  24.426  1.00  0.00     0.163 HD
BRANCH   4   7
ATOM      7  C   UNL A   1      32.063  27.562  24.099  1.00  0.00     0.095 C 
BRANCH   7   8
ATOM      8  C   UNL A   1      30.752  27.469  23.278  1.00  0.00     0.029 C 
ATOM      9  C   UNL A   1      30.057  26.103  23.470  1.00  0.00     0.013 C 
BRANCH   8  10
ATOM     10  C   UNL A   1      29.684  28.557  23.334  1.00  0.00    -0.044 A 
ATOM     11  C   UNL A   1      29.926  29.915  23.553  1.00  0.00     0.004 A 
ATOM     12  C   UNL A   1      28.341  28.160  23.152  1.00  0.00     0.004 A 
ATOM     13  C   UNL A   1      28.879  30.846  23.500  1.00  0.00     0.000 A 
ATOM     14  C   UNL A   1      27.295  29.080  23.120  1.00  0.00     0.000 A 
ATOM     15  C   UNL A   1      27.568  30.431  23.275  1.00  0.00     0.000 A 
ENDBRANCH   8  10
ENDBRANCH   7   8
BRANCH   7  16
ATOM     16  C   UNL A   1      32.667  26.178  24.449  1.00  0.00     0.114 C 
BRANCH  16  17
ATOM     17  C   UNL A   1      32.744  25.488  25.819  1.00  0.00     0.225 C 
ATOM     18  O   UNL A   1      31.840  25.789  26.623  1.00  0.00    -0.275 OA
ATOM     19  N   UNL A   1      33.630  24.591  26.340  1.00  0.00    -0.325 N 
ATOM     20  H   UNL A   1      33.685  24.646  27.320  1.00  0.00     0.169 HD
BRANCH  19  21
ATOM     21  C   UNL A   1      34.487  23.605  25.810  1.00  0.00     0.054 A 
ATOM     22  C   UNL A   1      35.828  24.010  25.691  1.00  0.00     0.027 A 
ATOM     23  C   UNL A   1      34.133  22.445  25.096  1.00  0.00     0.037 A 
ATOM     24  C   UNL A   1      36.793  23.200  25.085  1.00  0.00     0.002 A 
ATOM     25  C   UNL A   1      35.116  21.560  24.623  1.00  0.00     0.017 A 
ATOM     26  I   UNL A   1      32.257  22.074  24.173  1.00  0.00    -0.042 I 
ATOM     27  C   UNL A   1      36.451  21.939  24.620  1.00  0.00     0.001 A 
ENDBRANCH  19  21
ENDBRANCH  16  17
ENDBRANCH   7  16
ENDBRANCH   4   7
ENDBRANCH   2   3
ENDBRANCH   1   2
BRANCH   1  28
ATOM     28  C   UNL A   1      34.954  29.749  27.524  1.00  0.00     0.118 C 
BRANCH  28  29
ATOM     29  N   UNL A   1      35.146  30.537  28.728  1.00  0.00    -0.352 N 
ATOM     30  C   UNL A   1      36.162  30.497  29.652  1.00  0.00     0.251 C 
ATOM     31  H   UNL A   1      34.442  31.200  28.910  1.00  0.00     0.163 HD
ATOM     32  O   UNL A   1      35.943  30.925  30.783  1.00  0.00    -0.269 OA
BRANCH  30  33
ATOM     33  C   UNL A   1      37.504  29.958  29.317  1.00  0.00     0.039 A 
ATOM     34  C   UNL A   1      38.394  29.671  30.359  1.00  0.00     0.014 A 
ATOM     35  C   UNL A   1      37.942  29.842  27.996  1.00  0.00     0.014 A 
ATOM     36  C   UNL A   1      39.703  29.261  30.077  1.00  0.00     0.010 A 
ATOM     37  C   UNL A   1      39.217  29.350  27.715  1.00  0.00     0.010 A 
ATOM     38  C   UNL A   1      40.124  29.086  28.750  1.00  0.00    -0.014 A 
BRANCH  38  39
ATOM     39  C   UNL A   1      41.522  28.691  28.420  1.00  0.00     0.031 A 
ATOM     40  C   UNL A   1      42.602  29.742  28.340  1.00  0.00     0.074 A 
ATOM     41  C   UNL A   1      41.809  27.406  28.132  1.00  0.00     0.049 A 
ATOM     42  N   UNL A   1      43.852  29.616  27.975  1.00  0.00    -0.248 NA
ATOM     43  C   UNL A   1      42.221  31.122  28.688  1.00  0.00     0.031 C 
ATOM     44  C   UNL A   1      40.844  26.304  28.122  1.00  0.00     0.029 A 
ATOM     45  N   UNL A   1      42.993  26.811  27.771  1.00  0.00    -0.354 N 
ATOM     46  C   UNL A   1      44.394  30.897  28.017  1.00  0.00     0.074 A 
ATOM     47  C   UNL A   1      43.329  31.793  28.408  1.00  0.00     0.031 C 
ATOM     48  C   UNL A   1      41.475  25.169  27.781  1.00  0.00     0.029 A 
ATOM     49  C   UNL A   1      42.879  25.464  27.512  1.00  0.00     0.049 A 
ATOM     50  H   UNL A   1      43.843  27.302  27.704  1.00  0.00     0.167 HD
ATOM     51  C   UNL A   1      45.667  31.287  27.773  1.00  0.00     0.037 A 
ATOM     52  C   UNL A   1      43.797  24.573  27.089  1.00  0.00     0.037 A 
ATOM     53  C   UNL A   1      46.739  30.384  27.444  1.00  0.00     0.049 A 
ATOM     54  C   UNL A   1      45.214  25.029  26.860  1.00  0.00     0.074 A 
ATOM     55  C   UNL A   1      48.082  30.673  27.273  1.00  0.00     0.029 A 
ATOM     56  N   UNL A   1      46.592  29.021  27.242  1.00  0.00    -0.354 N 
ATOM     57  N   UNL A   1      45.723  26.232  26.983  1.00  0.00    -0.248 NA
ATOM     58  C   UNL A   1      46.185  24.006  26.445  1.00  0.00     0.031 C 
ATOM     59  C   UNL A   1      48.741  29.489  26.925  1.00  0.00     0.029 A 
ATOM     60  C   UNL A   1      47.816  28.457  26.926  1.00  0.00     0.049 A 
ATOM     61  H   UNL A   1      45.744  28.527  27.313  1.00  0.00     0.167 HD
ATOM     62  C   UNL A   1      47.075  26.105  26.683  1.00  0.00     0.074 A 
ATOM     63  C   UNL A   1      47.309  24.707  26.390  1.00  0.00     0.031 C 
ATOM     64  C   UNL A   1      48.036  27.061  26.651  1.00  0.00     0.037 A 
BRANCH  51  65
ATOM     65  C   UNL A   1      45.993  32.754  27.864  1.00  0.00     0.058 A 
ATOM     66  C   UNL A   1      46.554  33.315  29.022  1.00  0.00     0.135 A 
ATOM     67  C   UNL A   1      45.822  33.590  26.748  1.00  0.00     0.135 A 
ATOM     68  F   UNL A   1      46.724  32.565  30.122  1.00  0.00    -0.206 F 
ATOM     69  C   UNL A   1      46.927  34.654  29.074  1.00  0.00     0.059 A 
ATOM     70  C   UNL A   1      46.212  34.926  26.768  1.00  0.00     0.059 A 
ATOM     71  F   UNL A   1      45.288  33.104  25.616  1.00  0.00    -0.206 F 
ATOM     72  C   UNL A   1      46.758  35.450  27.939  1.00  0.00     0.060 A 
BRANCH  72  73
ATOM     73  S   UNL A   1      47.297  37.173  28.008  1.00  0.00     0.124 S 
ATOM     74  O   UNL A   1      46.019  37.878  28.000  1.00  0.00    -0.237 OA
ATOM     75  O   UNL A   1      48.039  37.218  29.263  1.00  0.00    -0.237 OA
ATOM     76  O   UNL A   1      48.105  37.326  26.800  1.00  0.00    -0.744 OA
ENDBRANCH  72  73
ENDBRANCH  51  65
BRANCH  52  77
ATOM     77  C   UNL A   1      43.410  23.157  26.847  1.00  0.00     0.058 A 
ATOM     78  C   UNL A   1      43.170  22.278  27.914  1.00  0.00     0.135 A 
ATOM     79  C   UNL A   1      43.289  22.650  25.545  1.00  0.00     0.135 A 
ATOM     80  F   UNL A   1      43.277  22.713  29.178  1.00  0.00    -0.206 F 
ATOM     81  C   UNL A   1      42.854  20.940  27.700  1.00  0.00     0.059 A 
ATOM     82  C   UNL A   1      42.949  21.323  25.304  1.00  0.00     0.059 A 
ATOM     83  F   UNL A   1      43.489  23.453  24.488  1.00  0.00    -0.206 F 
ATOM     84  C   UNL A   1      42.751  20.470  26.389  1.00  0.00     0.060 A 
BRANCH  84  85
ATOM     85  S   UNL A   1      42.321  18.738  26.117  1.00  0.00     0.124 S 
ATOM     86  O   UNL A   1      42.609  18.156  27.422  1.00  0.00    -0.237 OA
ATOM     87  O   UNL A   1      40.911  18.821  25.751  1.00  0.00    -0.237 OA
ATOM     88  O   UNL A   1      43.216  18.338  25.034  1.00  0.00    -0.744 OA
ENDBRANCH  84  85
ENDBRANCH  52  77
BRANCH  64  89
ATOM     89  C   UNL A   1      49.437  26.627  26.322  1.00  0.00     0.058 A 
ATOM     90  C   UNL A   1      50.260  26.011  27.278  1.00  0.00     0.135 A 
ATOM     91  C   UNL A   1      49.940  26.776  25.020  1.00  0.00     0.135 A 
ATOM     92  F   UNL A   1      49.827  25.851  28.539  1.00  0.00    -0.206 F 
ATOM     93  C   UNL A   1      51.542  25.579  26.959  1.00  0.00     0.059 A 
ATOM     94  C   UNL A   1      51.209  26.326  24.672  1.00  0.00     0.059 A 
ATOM     95  F   UNL A   1      49.188  27.349  24.066  1.00  0.00    -0.206 F 
ATOM     96  C   UNL A   1      52.008  25.739  25.652  1.00  0.00     0.060 A 
BRANCH  96  97
ATOM     97  S   UNL A   1      53.660  25.139  25.242  1.00  0.00     0.124 S 
ATOM     98  O   UNL A   1      53.489  23.696  25.374  1.00  0.00    -0.237 OA
ATOM     99  O   UNL A   1      53.844  25.633  23.881  1.00  0.00    -0.237 OA
ATOM    100  O   UNL A   1      54.509  25.766  26.250  1.00  0.00    -0.744 OA
ENDBRANCH  96  97
ENDBRANCH  64  89
ENDBRANCH  38  39
ENDBRANCH  30  33
ENDBRANCH  28  29
ENDBRANCH   1  28
TORSDOF 18
ENDMDL
