MODEL 1
REMARK VINA RESULT:      -9.9      0.000      0.000
REMARK SMILES O=C(/C=C/c1cccs1)NCC(=O)NCCCNC(=O)c1ccc(-c2c3nc(c(-c4c(F)cc(S(=O)(=O)[O-])cc4F)c4ccc([nH]4)c(-c4c(F)cc(S(=O)(=O)[O-])cc4F)c4nc(c(-c5c(F)cc(S(=O)(=O)[O-])cc5F)c5ccc2[nH]5)C=C4)C=C3)cc1
REMARK SMILES IDX 16 1 15 2 14 3 12 4 13 5 11 7 10 8 1 9 2 10 3 12 4 13 5 14
REMARK SMILES IDX 6 15 9 16 7 17 8 18 17 19 18 20 19 21 20 23 21 24 22 25
REMARK SMILES IDX 86 26 23 27 85 28 24 29 25 30 26 31 79 32 27 33 84 34 78 35
REMARK SMILES IDX 80 36 28 37 83 38 77 39 76 40 29 42 63 43 42 44 62 45 43 46
REMARK SMILES IDX 46 47 61 48 81 49 44 50 45 51 60 53 82 54 47 55 30 56 31 57
REMARK SMILES IDX 40 58 32 59 33 60 39 61 41 62 34 63 35 64 36 65 37 66 38 67
REMARK SMILES IDX 64 68 65 69 74 70 66 71 67 72 73 73 75 74 68 75 69 76 70 77
REMARK SMILES IDX 71 78 72 79 48 80 49 81 58 82 50 83 51 84 57 85 59 86 52 87
REMARK SMILES IDX 53 88 54 89 55 90 56 91
REMARK H PARENT 14 6 10 11 18 22 80 41 46 52
REMARK Flexibility Score: inf
ROOT
ATOM      1  C   UNL A   1      34.380  34.118  28.239  1.00  0.00     0.042 C 
ENDROOT
BRANCH   1   2
ATOM      2  C   UNL A   1      33.031  34.544  28.816  1.00  0.00     0.117 C 
BRANCH   2   3
ATOM      3  N   UNL A   1      33.037  35.928  29.253  1.00  0.00    -0.355 N 
ATOM      4  C   UNL A   1      32.991  36.421  30.527  1.00  0.00     0.239 C 
ATOM      5  O   UNL A   1      33.007  37.642  30.690  1.00  0.00    -0.273 OA
ATOM      6  H   UNL A   1      33.078  36.602  28.537  1.00  0.00     0.163 HD
BRANCH   4   7
ATOM      7  C   UNL A   1      32.941  35.461  31.715  1.00  0.00     0.216 C 
BRANCH   7   8
ATOM      8  N   UNL A   1      34.270  35.028  32.115  1.00  0.00    -0.343 N 
ATOM      9  O   UNL A   1      33.651  32.875  32.563  1.00  0.00    -0.270 OA
ATOM     10  C   UNL A   1      34.517  33.745  32.510  1.00  0.00     0.244 C 
ATOM     11  H   UNL A   1      35.011  35.677  32.099  1.00  0.00     0.164 HD
BRANCH  10  12
ATOM     12  C   UNL A   1      35.909  33.395  32.887  1.00  0.00     0.072 C 
ATOM     13  C   UNL A   1      36.441  32.166  32.965  1.00  0.00     0.024 C 
BRANCH  13  14
ATOM     14  C   UNL A   1      37.806  31.970  33.331  1.00  0.00     0.027 A 
ATOM     15  C   UNL A   1      38.819  32.883  33.587  1.00  0.00     0.020 A 
ATOM     16  S   UNL A   1      38.396  30.361  33.531  1.00  0.00    -0.144 S 
ATOM     17  C   UNL A   1      40.063  32.267  33.909  1.00  0.00     0.012 A 
ATOM     18  C   UNL A   1      39.974  30.895  33.899  1.00  0.00     0.065 A 
ENDBRANCH  13  14
ENDBRANCH  10  12
ENDBRANCH   7   8
ENDBRANCH   4   7
ENDBRANCH   2   3
ENDBRANCH   1   2
BRANCH   1  19
ATOM     19  C   UNL A   1      34.934  32.824  28.837  1.00  0.00     0.118 C 
BRANCH  19  20
ATOM     20  N   UNL A   1      34.189  31.645  28.416  1.00  0.00    -0.352 N 
ATOM     21  C   UNL A   1      34.620  30.375  28.129  1.00  0.00     0.251 C 
ATOM     22  H   UNL A   1      33.219  31.783  28.322  1.00  0.00     0.163 HD
ATOM     23  O   UNL A   1      33.830  29.579  27.620  1.00  0.00    -0.269 OA
BRANCH  21  24
ATOM     24  C   UNL A   1      36.011  29.953  28.407  1.00  0.00     0.039 A 
ATOM     25  C   UNL A   1      36.964  30.081  27.391  1.00  0.00     0.014 A 
ATOM     26  C   UNL A   1      36.375  29.391  29.634  1.00  0.00     0.014 A 
ATOM     27  C   UNL A   1      38.287  29.700  27.624  1.00  0.00     0.010 A 
ATOM     28  C   UNL A   1      37.710  29.075  29.887  1.00  0.00     0.010 A 
ATOM     29  C   UNL A   1      38.681  29.223  28.885  1.00  0.00    -0.014 A 
BRANCH  29  30
ATOM     30  C   UNL A   1      40.101  28.891  29.171  1.00  0.00     0.031 A 
ATOM     31  C   UNL A   1      41.011  29.907  29.807  1.00  0.00     0.074 A 
ATOM     32  C   UNL A   1      40.586  27.689  28.802  1.00  0.00     0.049 A 
ATOM     33  N   UNL A   1      42.288  29.815  30.080  1.00  0.00    -0.248 NA
ATOM     34  C   UNL A   1      40.415  31.205  30.160  1.00  0.00     0.031 C 
ATOM     35  C   UNL A   1      39.819  26.638  28.130  1.00  0.00     0.029 A 
ATOM     36  N   UNL A   1      41.843  27.151  28.928  1.00  0.00    -0.354 N 
ATOM     37  C   UNL A   1      42.650  31.043  30.622  1.00  0.00     0.074 A 
ATOM     38  C   UNL A   1      41.469  31.880  30.595  1.00  0.00     0.031 C 
ATOM     39  C   UNL A   1      40.615  25.577  27.921  1.00  0.00     0.029 A 
ATOM     40  C   UNL A   1      41.956  25.883  28.410  1.00  0.00     0.049 A 
ATOM     41  H   UNL A   1      42.593  27.629  29.350  1.00  0.00     0.167 HD
ATOM     42  C   UNL A   1      43.851  31.432  31.115  1.00  0.00     0.037 A 
ATOM     43  C   UNL A   1      43.020  25.060  28.328  1.00  0.00     0.037 A 
ATOM     44  C   UNL A   1      45.017  30.587  31.162  1.00  0.00     0.049 A 
ATOM     45  C   UNL A   1      44.340  25.509  28.893  1.00  0.00     0.074 A 
ATOM     46  C   UNL A   1      46.262  30.867  31.699  1.00  0.00     0.029 A 
ATOM     47  N   UNL A   1      45.085  29.299  30.650  1.00  0.00    -0.354 N 
ATOM     48  N   UNL A   1      44.647  26.651  29.462  1.00  0.00    -0.248 NA
ATOM     49  C   UNL A   1      45.456  24.556  28.812  1.00  0.00     0.031 C 
ATOM     50  C   UNL A   1      47.094  29.764  31.475  1.00  0.00     0.029 A 
ATOM     51  C   UNL A   1      46.355  28.779  30.841  1.00  0.00     0.049 A 
ATOM     52  H   UNL A   1      44.339  28.824  30.216  1.00  0.00     0.167 HD
ATOM     53  C   UNL A   1      45.985  26.545  29.827  1.00  0.00     0.074 A 
ATOM     54  C   UNL A   1      46.423  25.223  29.429  1.00  0.00     0.031 C 
ATOM     55  C   UNL A   1      46.778  27.460  30.439  1.00  0.00     0.037 A 
BRANCH  42  56
ATOM     56  C   UNL A   1      43.967  32.835  31.647  1.00  0.00     0.058 A 
ATOM     57  C   UNL A   1      43.761  33.127  33.006  1.00  0.00     0.135 A 
ATOM     58  C   UNL A   1      44.320  33.896  30.798  1.00  0.00     0.135 A 
ATOM     59  F   UNL A   1      43.409  32.154  33.861  1.00  0.00    -0.206 F 
ATOM     60  C   UNL A   1      43.869  34.425  33.496  1.00  0.00     0.059 A 
ATOM     61  C   UNL A   1      44.461  35.197  31.272  1.00  0.00     0.059 A 
ATOM     62  F   UNL A   1      44.530  33.674  29.491  1.00  0.00    -0.206 F 
ATOM     63  C   UNL A   1      44.218  35.454  32.620  1.00  0.00     0.060 A 
BRANCH  63  64
ATOM     64  S   UNL A   1      44.354  37.132  33.272  1.00  0.00     0.124 S 
ATOM     65  O   UNL A   1      45.215  36.924  34.432  1.00  0.00    -0.237 OA
ATOM     66  O   UNL A   1      44.958  37.854  32.157  1.00  0.00    -0.237 OA
ATOM     67  O   UNL A   1      42.972  37.493  33.573  1.00  0.00    -0.744 OA
ENDBRANCH  63  64
ENDBRANCH  42  56
BRANCH  43  68
ATOM     68  C   UNL A   1      42.872  23.719  27.704  1.00  0.00     0.058 A 
ATOM     69  C   UNL A   1      43.122  23.528  26.336  1.00  0.00     0.135 A 
ATOM     70  C   UNL A   1      42.501  22.599  28.465  1.00  0.00     0.135 A 
ATOM     71  F   UNL A   1      43.473  24.569  25.568  1.00  0.00    -0.206 F 
ATOM     72  C   UNL A   1      42.993  22.278  25.740  1.00  0.00     0.059 A 
ATOM     73  C   UNL A   1      42.391  21.334  27.896  1.00  0.00     0.059 A 
ATOM     74  F   UNL A   1      42.270  22.725  29.780  1.00  0.00    -0.206 F 
ATOM     75  C   UNL A   1      42.629  21.185  26.530  1.00  0.00     0.060 A 
BRANCH  75  76
ATOM     76  S   UNL A   1      42.516  19.556  25.759  1.00  0.00     0.124 S 
ATOM     77  O   UNL A   1      41.098  19.486  25.427  1.00  0.00    -0.237 OA
ATOM     78  O   UNL A   1      43.431  19.686  24.629  1.00  0.00    -0.237 OA
ATOM     79  O   UNL A   1      42.963  18.654  26.816  1.00  0.00    -0.744 OA
ENDBRANCH  75  76
ENDBRANCH  43  68
BRANCH  55  80
ATOM     80  C   UNL A   1      48.194  27.052  30.742  1.00  0.00     0.058 A 
ATOM     81  C   UNL A   1      49.258  27.400  29.895  1.00  0.00     0.135 A 
ATOM     82  C   UNL A   1      48.493  26.338  31.913  1.00  0.00     0.135 A 
ATOM     83  F   UNL A   1      49.025  28.076  28.760  1.00  0.00    -0.206 F 
ATOM     84  C   UNL A   1      50.567  27.030  30.186  1.00  0.00     0.059 A 
ATOM     85  C   UNL A   1      49.798  25.981  32.237  1.00  0.00     0.059 A 
ATOM     86  F   UNL A   1      47.513  25.990  32.762  1.00  0.00    -0.206 F 
ATOM     87  C   UNL A   1      50.827  26.320  31.360  1.00  0.00     0.060 A 
BRANCH  87  88
ATOM     88  S   UNL A   1      52.533  25.866  31.738  1.00  0.00     0.124 S 
ATOM     89  O   UNL A   1      52.373  24.495  32.213  1.00  0.00    -0.237 OA
ATOM     90  O   UNL A   1      53.192  26.015  30.443  1.00  0.00    -0.237 OA
ATOM     91  O   UNL A   1      52.927  26.840  32.751  1.00  0.00    -0.744 OA
ENDBRANCH  87  88
ENDBRANCH  55  80
ENDBRANCH  29  30
ENDBRANCH  21  24
ENDBRANCH  19  20
ENDBRANCH   1  19
TORSDOF 16
ENDMDL
MODEL 2
REMARK VINA RESULT:      -9.9      4.412     12.347
REMARK SMILES O=C(/C=C/c1cccs1)NCC(=O)NCCCNC(=O)c1ccc(-c2c3nc(c(-c4c(F)cc(S(=O)(=O)[O-])cc4F)c4ccc([nH]4)c(-c4c(F)cc(S(=O)(=O)[O-])cc4F)c4nc(c(-c5c(F)cc(S(=O)(=O)[O-])cc5F)c5ccc2[nH]5)C=C4)C=C3)cc1
REMARK SMILES IDX 16 1 15 2 14 3 12 4 13 5 11 7 10 8 1 9 2 10 3 12 4 13 5 14
REMARK SMILES IDX 6 15 9 16 7 17 8 18 17 19 18 20 19 21 20 23 21 24 22 25
REMARK SMILES IDX 86 26 23 27 85 28 24 29 25 30 26 31 79 32 27 33 84 34 78 35
REMARK SMILES IDX 80 36 28 37 83 38 77 39 76 40 29 42 63 43 42 44 62 45 43 46
REMARK SMILES IDX 46 47 61 48 81 49 44 50 45 51 60 53 82 54 47 55 30 56 31 57
REMARK SMILES IDX 40 58 32 59 33 60 39 61 41 62 34 63 35 64 36 65 37 66 38 67
REMARK SMILES IDX 64 68 65 69 74 70 66 71 67 72 73 73 75 74 68 75 69 76 70 77
REMARK SMILES IDX 71 78 72 79 48 80 49 81 58 82 50 83 51 84 57 85 59 86 52 87
REMARK SMILES IDX 53 88 54 89 55 90 56 91
REMARK H PARENT 14 6 10 11 18 22 80 41 46 52
REMARK Flexibility Score: inf
ROOT
ATOM      1  C   UNL A   1      40.038  21.472  26.873  1.00  0.00     0.042 C 
ENDROOT
BRANCH   1   2
ATOM      2  C   UNL A   1      40.960  20.871  25.815  1.00  0.00     0.117 C 
BRANCH   2   3
ATOM      3  N   UNL A   1      41.392  19.530  26.163  1.00  0.00    -0.355 N 
ATOM      4  C   UNL A   1      42.587  18.923  25.899  1.00  0.00     0.239 C 
ATOM      5  O   UNL A   1      42.761  17.765  26.285  1.00  0.00    -0.273 OA
ATOM      6  H   UNL A   1      40.736  18.984  26.654  1.00  0.00     0.163 HD
BRANCH   4   7
ATOM      7  C   UNL A   1      43.682  19.685  25.155  1.00  0.00     0.216 C 
BRANCH   7   8
ATOM      8  N   UNL A   1      44.312  20.686  26.001  1.00  0.00    -0.343 N 
ATOM      9  O   UNL A   1      43.627  22.467  24.744  1.00  0.00    -0.270 OA
ATOM     10  C   UNL A   1      44.226  22.020  25.718  1.00  0.00     0.244 C 
ATOM     11  H   UNL A   1      44.812  20.396  26.798  1.00  0.00     0.164 HD
BRANCH  10  12
ATOM     12  C   UNL A   1      44.891  22.965  26.648  1.00  0.00     0.072 C 
ATOM     13  C   UNL A   1      44.360  23.530  27.743  1.00  0.00     0.024 C 
BRANCH  13  14
ATOM     14  C   UNL A   1      45.119  24.419  28.562  1.00  0.00     0.027 A 
ATOM     15  C   UNL A   1      44.811  25.030  29.769  1.00  0.00     0.020 A 
ATOM     16  S   UNL A   1      46.710  24.861  28.064  1.00  0.00    -0.144 S 
ATOM     17  C   UNL A   1      45.854  25.870  30.256  1.00  0.00     0.012 A 
ATOM     18  C   UNL A   1      46.940  25.880  29.414  1.00  0.00     0.065 A 
ENDBRANCH  13  14
ENDBRANCH  10  12
ENDBRANCH   7   8
ENDBRANCH   4   7
ENDBRANCH   2   3
ENDBRANCH   1   2
BRANCH   1  19
ATOM     19  C   UNL A   1      40.412  22.893  27.294  1.00  0.00     0.118 C 
BRANCH  19  20
ATOM     20  N   UNL A   1      41.081  23.636  26.236  1.00  0.00    -0.352 N 
ATOM     21  C   UNL A   1      41.416  24.964  26.155  1.00  0.00     0.251 C 
ATOM     22  H   UNL A   1      41.333  23.098  25.451  1.00  0.00     0.163 HD
ATOM     23  O   UNL A   1      41.824  25.410  25.082  1.00  0.00    -0.269 OA
BRANCH  21  24
ATOM     24  C   UNL A   1      41.284  25.863  27.323  1.00  0.00     0.039 A 
ATOM     25  C   UNL A   1      42.259  26.845  27.523  1.00  0.00     0.014 A 
ATOM     26  C   UNL A   1      40.244  25.719  28.244  1.00  0.00     0.014 A 
ATOM     27  C   UNL A   1      42.160  27.716  28.611  1.00  0.00     0.010 A 
ATOM     28  C   UNL A   1      40.108  26.632  29.291  1.00  0.00     0.010 A 
ATOM     29  C   UNL A   1      41.065  27.638  29.488  1.00  0.00    -0.014 A 
BRANCH  29  30
ATOM     30  C   UNL A   1      40.905  28.609  30.601  1.00  0.00     0.031 A 
ATOM     31  C   UNL A   1      41.756  28.503  31.838  1.00  0.00     0.074 A 
ATOM     32  C   UNL A   1      39.947  29.556  30.521  1.00  0.00     0.049 A 
ATOM     33  N   UNL A   1      41.720  29.225  32.930  1.00  0.00    -0.248 NA
ATOM     34  C   UNL A   1      42.763  27.431  31.862  1.00  0.00     0.031 C 
ATOM     35  C   UNL A   1      39.023  29.730  29.398  1.00  0.00     0.029 A 
ATOM     36  N   UNL A   1      39.584  30.541  31.405  1.00  0.00    -0.354 N 
ATOM     37  C   UNL A   1      42.685  28.686  33.773  1.00  0.00     0.074 A 
ATOM     38  C   UNL A   1      43.258  27.548  33.085  1.00  0.00     0.031 C 
ATOM     39  C   UNL A   1      38.213  30.770  29.652  1.00  0.00     0.029 A 
ATOM     40  C   UNL A   1      38.534  31.315  30.968  1.00  0.00     0.049 A 
ATOM     41  H   UNL A   1      40.032  30.682  32.269  1.00  0.00     0.167 HD
ATOM     42  C   UNL A   1      43.073  29.112  34.999  1.00  0.00     0.037 A 
ATOM     43  C   UNL A   1      37.895  32.341  31.562  1.00  0.00     0.037 A 
ATOM     44  C   UNL A   1      42.517  30.260  35.670  1.00  0.00     0.049 A 
ATOM     45  C   UNL A   1      38.351  32.804  32.919  1.00  0.00     0.074 A 
ATOM     46  C   UNL A   1      42.886  30.810  36.885  1.00  0.00     0.029 A 
ATOM     47  N   UNL A   1      41.472  31.034  35.183  1.00  0.00    -0.354 N 
ATOM     48  N   UNL A   1      39.311  32.324  33.673  1.00  0.00    -0.248 NA
ATOM     49  C   UNL A   1      37.644  33.953  33.501  1.00  0.00     0.031 C 
ATOM     50  C   UNL A   1      42.036  31.890  37.154  1.00  0.00     0.029 A 
ATOM     51  C   UNL A   1      41.170  32.043  36.083  1.00  0.00     0.049 A 
ATOM     52  H   UNL A   1      41.014  30.887  34.324  1.00  0.00     0.167 HD
ATOM     53  C   UNL A   1      39.338  33.125  34.809  1.00  0.00     0.074 A 
ATOM     54  C   UNL A   1      38.309  34.131  34.635  1.00  0.00     0.031 C 
ATOM     55  C   UNL A   1      40.143  33.038  35.897  1.00  0.00     0.037 A 
BRANCH  42  56
ATOM     56  C   UNL A   1      44.154  28.334  35.700  1.00  0.00     0.058 A 
ATOM     57  C   UNL A   1      45.515  28.626  35.507  1.00  0.00     0.135 A 
ATOM     58  C   UNL A   1      43.829  27.307  36.601  1.00  0.00     0.135 A 
ATOM     59  F   UNL A   1      45.885  29.589  34.647  1.00  0.00    -0.206 F 
ATOM     60  C   UNL A   1      46.513  27.906  36.156  1.00  0.00     0.059 A 
ATOM     61  C   UNL A   1      44.810  26.593  37.282  1.00  0.00     0.059 A 
ATOM     62  F   UNL A   1      42.544  26.987  36.824  1.00  0.00    -0.206 F 
ATOM     63  C   UNL A   1      46.150  26.889  37.040  1.00  0.00     0.060 A 
BRANCH  63  64
ATOM     64  S   UNL A   1      47.458  25.964  37.873  1.00  0.00     0.124 S 
ATOM     65  O   UNL A   1      48.219  27.040  38.501  1.00  0.00    -0.237 OA
ATOM     66  O   UNL A   1      46.704  25.106  38.783  1.00  0.00    -0.237 OA
ATOM     67  O   UNL A   1      48.134  25.272  36.781  1.00  0.00    -0.744 OA
ENDBRANCH  63  64
ENDBRANCH  42  56
BRANCH  43  68
ATOM     68  C   UNL A   1      36.767  33.014  30.864  1.00  0.00     0.058 A 
ATOM     69  C   UNL A   1      35.443  32.832  31.291  1.00  0.00     0.135 A 
ATOM     70  C   UNL A   1      36.992  33.868  29.772  1.00  0.00     0.135 A 
ATOM     71  F   UNL A   1      35.178  32.022  32.327  1.00  0.00    -0.206 F 
ATOM     72  C   UNL A   1      34.379  33.459  30.652  1.00  0.00     0.059 A 
ATOM     73  C   UNL A   1      35.946  34.525  29.133  1.00  0.00     0.059 A 
ATOM     74  F   UNL A   1      38.241  34.089  29.337  1.00  0.00    -0.206 F 
ATOM     75  C   UNL A   1      34.641  34.307  29.574  1.00  0.00     0.060 A 
BRANCH  75  76
ATOM     76  S   UNL A   1      33.259  35.158  28.783  1.00  0.00     0.124 S 
ATOM     77  O   UNL A   1      33.947  36.197  28.027  1.00  0.00    -0.237 OA
ATOM     78  O   UNL A   1      32.650  34.091  27.996  1.00  0.00    -0.237 OA
ATOM     79  O   UNL A   1      32.462  35.624  29.915  1.00  0.00    -0.744 OA
ENDBRANCH  75  76
ENDBRANCH  43  68
BRANCH  55  80
ATOM     80  C   UNL A   1      39.964  34.074  36.973  1.00  0.00     0.058 A 
ATOM     81  C   UNL A   1      40.657  35.294  36.945  1.00  0.00     0.135 A 
ATOM     82  C   UNL A   1      39.059  33.858  38.025  1.00  0.00     0.135 A 
ATOM     83  F   UNL A   1      41.539  35.548  35.965  1.00  0.00    -0.206 F 
ATOM     84  C   UNL A   1      40.478  36.254  37.936  1.00  0.00     0.059 A 
ATOM     85  C   UNL A   1      38.845  34.814  39.013  1.00  0.00     0.059 A 
ATOM     86  F   UNL A   1      38.363  32.712  38.094  1.00  0.00    -0.206 F 
ATOM     87  C   UNL A   1      39.571  36.004  38.967  1.00  0.00     0.060 A 
BRANCH  87  88
ATOM     88  S   UNL A   1      39.331  37.265  40.236  1.00  0.00     0.124 S 
ATOM     89  O   UNL A   1      40.703  37.696  40.484  1.00  0.00    -0.237 OA
ATOM     90  O   UNL A   1      38.476  38.234  39.557  1.00  0.00    -0.237 OA
ATOM     91  O   UNL A   1      38.695  36.533  41.327  1.00  0.00    -0.744 OA
ENDBRANCH  87  88
ENDBRANCH  55  80
ENDBRANCH  29  30
ENDBRANCH  21  24
ENDBRANCH  19  20
ENDBRANCH   1  19
TORSDOF 16
ENDMDL
MODEL 3
REMARK VINA RESULT:      -9.9      2.910      3.732
REMARK SMILES O=C(/C=C/c1cccs1)NCC(=O)NCCCNC(=O)c1ccc(-c2c3nc(c(-c4c(F)cc(S(=O)(=O)[O-])cc4F)c4ccc([nH]4)c(-c4c(F)cc(S(=O)(=O)[O-])cc4F)c4nc(c(-c5c(F)cc(S(=O)(=O)[O-])cc5F)c5ccc2[nH]5)C=C4)C=C3)cc1
REMARK SMILES IDX 16 1 15 2 14 3 12 4 13 5 11 7 10 8 1 9 2 10 3 12 4 13 5 14
REMARK SMILES IDX 6 15 9 16 7 17 8 18 17 19 18 20 19 21 20 23 21 24 22 25
REMARK SMILES IDX 86 26 23 27 85 28 24 29 25 30 26 31 79 32 27 33 84 34 78 35
REMARK SMILES IDX 80 36 28 37 83 38 77 39 76 40 29 42 63 43 42 44 62 45 43 46
REMARK SMILES IDX 46 47 61 48 81 49 44 50 45 51 60 53 82 54 47 55 30 56 31 57
REMARK SMILES IDX 40 58 32 59 33 60 39 61 41 62 34 63 35 64 36 65 37 66 38 67
REMARK SMILES IDX 64 68 65 69 74 70 66 71 67 72 73 73 75 74 68 75 69 76 70 77
REMARK SMILES IDX 71 78 72 79 48 80 49 81 58 82 50 83 51 84 57 85 59 86 52 87
REMARK SMILES IDX 53 88 54 89 55 90 56 91
REMARK H PARENT 14 6 10 11 18 22 80 41 46 52
REMARK Flexibility Score: inf
ROOT
ATOM      1  C   UNL A   1      35.437  33.518  28.164  1.00  0.00     0.042 C 
ENDROOT
BRANCH   1   2
ATOM      2  C   UNL A   1      33.947  33.843  28.250  1.00  0.00     0.117 C 
BRANCH   2   3
ATOM      3  N   UNL A   1      33.686  35.261  28.091  1.00  0.00    -0.355 N 
ATOM      4  C   UNL A   1      33.243  36.157  29.024  1.00  0.00     0.239 C 
ATOM      5  O   UNL A   1      33.085  37.332  28.687  1.00  0.00    -0.273 OA
ATOM      6  H   UNL A   1      33.851  35.628  27.193  1.00  0.00     0.163 HD
BRANCH   4   7
ATOM      7  C   UNL A   1      32.973  35.697  30.455  1.00  0.00     0.216 C 
BRANCH   7   8
ATOM      8  N   UNL A   1      34.189  35.666  31.251  1.00  0.00    -0.343 N 
ATOM      9  O   UNL A   1      34.148  33.407  31.588  1.00  0.00    -0.270 OA
ATOM     10  C   UNL A   1      34.684  34.499  31.757  1.00  0.00     0.244 C 
ATOM     11  H   UNL A   1      34.668  36.508  31.428  1.00  0.00     0.164 HD
BRANCH  10  12
ATOM     12  C   UNL A   1      35.939  34.567  32.546  1.00  0.00     0.072 C 
ATOM     13  C   UNL A   1      37.145  34.097  32.191  1.00  0.00     0.024 C 
BRANCH  13  14
ATOM     14  C   UNL A   1      38.279  34.241  33.045  1.00  0.00     0.027 A 
ATOM     15  C   UNL A   1      39.610  34.498  32.753  1.00  0.00     0.020 A 
ATOM     16  S   UNL A   1      38.062  34.106  34.752  1.00  0.00    -0.144 S 
ATOM     17  C   UNL A   1      40.440  34.550  33.910  1.00  0.00     0.012 A 
ATOM     18  C   UNL A   1      39.724  34.338  35.064  1.00  0.00     0.065 A 
ENDBRANCH  13  14
ENDBRANCH  10  12
ENDBRANCH   7   8
ENDBRANCH   4   7
ENDBRANCH   2   3
ENDBRANCH   1   2
BRANCH   1  19
ATOM     19  C   UNL A   1      35.758  32.026  28.260  1.00  0.00     0.118 C 
BRANCH  19  20
ATOM     20  N   UNL A   1      35.581  31.496  29.604  1.00  0.00    -0.352 N 
ATOM     21  C   UNL A   1      36.389  30.680  30.354  1.00  0.00     0.251 C 
ATOM     22  H   UNL A   1      34.745  31.769  30.048  1.00  0.00     0.163 HD
ATOM     23  O   UNL A   1      35.952  30.215  31.407  1.00  0.00    -0.269 OA
BRANCH  21  24
ATOM     24  C   UNL A   1      37.760  30.341  29.914  1.00  0.00     0.039 A 
ATOM     25  C   UNL A   1      38.778  30.297  30.872  1.00  0.00     0.014 A 
ATOM     26  C   UNL A   1      38.063  30.115  28.568  1.00  0.00     0.014 A 
ATOM     27  C   UNL A   1      40.082  29.972  30.490  1.00  0.00     0.010 A 
ATOM     28  C   UNL A   1      39.350  29.724  28.199  1.00  0.00     0.010 A 
ATOM     29  C   UNL A   1      40.375  29.651  29.155  1.00  0.00    -0.014 A 
BRANCH  29  30
ATOM     30  C   UNL A   1      41.739  29.225  28.750  1.00  0.00     0.031 A 
ATOM     31  C   UNL A   1      42.862  30.225  28.673  1.00  0.00     0.074 A 
ATOM     32  C   UNL A   1      41.955  27.942  28.395  1.00  0.00     0.049 A 
ATOM     33  N   UNL A   1      44.101  30.048  28.289  1.00  0.00    -0.248 NA
ATOM     34  C   UNL A   1      42.545  31.611  29.054  1.00  0.00     0.031 C 
ATOM     35  C   UNL A   1      40.937  26.888  28.377  1.00  0.00     0.029 A 
ATOM     36  N   UNL A   1      43.095  27.308  27.969  1.00  0.00    -0.354 N 
ATOM     37  C   UNL A   1      44.705  31.297  28.367  1.00  0.00     0.074 A 
ATOM     38  C   UNL A   1      43.685  32.233  28.790  1.00  0.00     0.031 C 
ATOM     39  C   UNL A   1      41.503  25.737  27.981  1.00  0.00     0.029 A 
ATOM     40  C   UNL A   1      42.912  25.976  27.682  1.00  0.00     0.049 A 
ATOM     41  H   UNL A   1      43.963  27.763  27.878  1.00  0.00     0.167 HD
ATOM     42  C   UNL A   1      45.996  31.632  28.128  1.00  0.00     0.037 A 
ATOM     43  C   UNL A   1      43.777  25.051  27.223  1.00  0.00     0.037 A 
ATOM     44  C   UNL A   1      47.014  30.692  27.731  1.00  0.00     0.049 A 
ATOM     45  C   UNL A   1      45.208  25.442  26.975  1.00  0.00     0.074 A 
ATOM     46  C   UNL A   1      48.364  30.920  27.525  1.00  0.00     0.029 A 
ATOM     47  N   UNL A   1      46.795  29.346  27.475  1.00  0.00    -0.354 N 
ATOM     48  N   UNL A   1      45.777  26.615  27.118  1.00  0.00    -0.248 NA
ATOM     49  C   UNL A   1      46.116  24.384  26.512  1.00  0.00     0.031 C 
ATOM     50  C   UNL A   1      48.953  29.721  27.105  1.00  0.00     0.029 A 
ATOM     51  C   UNL A   1      47.980  28.736  27.095  1.00  0.00     0.049 A 
ATOM     52  H   UNL A   1      45.925  28.891  27.553  1.00  0.00     0.167 HD
ATOM     53  C   UNL A   1      47.115  26.431  26.785  1.00  0.00     0.074 A 
ATOM     54  C   UNL A   1      47.272  25.031  26.449  1.00  0.00     0.031 C 
ATOM     55  C   UNL A   1      48.122  27.340  26.762  1.00  0.00     0.037 A 
BRANCH  42  56
ATOM     56  C   UNL A   1      46.386  33.076  28.291  1.00  0.00     0.058 A 
ATOM     57  C   UNL A   1      46.275  33.994  27.233  1.00  0.00     0.135 A 
ATOM     58  C   UNL A   1      46.843  33.559  29.528  1.00  0.00     0.135 A 
ATOM     59  F   UNL A   1      45.856  33.584  26.025  1.00  0.00    -0.206 F 
ATOM     60  C   UNL A   1      46.636  35.328  27.386  1.00  0.00     0.059 A 
ATOM     61  C   UNL A   1      47.183  34.896  29.712  1.00  0.00     0.059 A 
ATOM     62  F   UNL A   1      46.967  32.727  30.574  1.00  0.00    -0.206 F 
ATOM     63  C   UNL A   1      47.090  35.770  28.629  1.00  0.00     0.060 A 
BRANCH  63  64
ATOM     64  S   UNL A   1      47.554  37.505  28.811  1.00  0.00     0.124 S 
ATOM     65  O   UNL A   1      48.933  37.390  29.278  1.00  0.00    -0.237 OA
ATOM     66  O   UNL A   1      47.385  38.019  27.455  1.00  0.00    -0.237 OA
ATOM     67  O   UNL A   1      46.600  38.011  29.793  1.00  0.00    -0.744 OA
ENDBRANCH  63  64
ENDBRANCH  42  56
BRANCH  43  68
ATOM     68  C   UNL A   1      43.314  23.657  26.986  1.00  0.00     0.058 A 
ATOM     69  C   UNL A   1      43.048  23.195  25.688  1.00  0.00     0.135 A 
ATOM     70  C   UNL A   1      43.150  22.754  28.049  1.00  0.00     0.135 A 
ATOM     71  F   UNL A   1      43.185  24.023  24.641  1.00  0.00    -0.206 F 
ATOM     72  C   UNL A   1      42.620  21.893  25.452  1.00  0.00     0.059 A 
ATOM     73  C   UNL A   1      42.747  21.440  27.835  1.00  0.00     0.059 A 
ATOM     74  F   UNL A   1      43.409  23.142  29.307  1.00  0.00    -0.206 F 
ATOM     75  C   UNL A   1      42.475  21.021  26.533  1.00  0.00     0.060 A 
BRANCH  75  76
ATOM     76  S   UNL A   1      41.970  19.318  26.212  1.00  0.00     0.124 S 
ATOM     77  O   UNL A   1      42.842  18.957  25.100  1.00  0.00    -0.237 OA
ATOM     78  O   UNL A   1      42.256  18.667  27.486  1.00  0.00    -0.237 OA
ATOM     79  O   UNL A   1      40.552  19.446  25.887  1.00  0.00    -0.744 OA
ENDBRANCH  75  76
ENDBRANCH  43  68
BRANCH  55  80
ATOM     80  C   UNL A   1      49.491  26.842  26.387  1.00  0.00     0.058 A 
ATOM     81  C   UNL A   1      50.283  26.112  27.287  1.00  0.00     0.135 A 
ATOM     82  C   UNL A   1      50.001  27.067  25.098  1.00  0.00     0.135 A 
ATOM     83  F   UNL A   1      49.845  25.876  28.534  1.00  0.00    -0.206 F 
ATOM     84  C   UNL A   1      51.544  25.644  26.930  1.00  0.00     0.059 A 
ATOM     85  C   UNL A   1      51.248  26.586  24.711  1.00  0.00     0.059 A 
ATOM     86  F   UNL A   1      49.280  27.751  24.195  1.00  0.00    -0.206 F 
ATOM     87  C   UNL A   1      52.018  25.887  25.640  1.00  0.00     0.060 A 
BRANCH  87  88
ATOM     88  S   UNL A   1      53.646  25.256  25.182  1.00  0.00     0.124 S 
ATOM     89  O   UNL A   1      53.566  25.269  23.724  1.00  0.00    -0.237 OA
ATOM     90  O   UNL A   1      54.543  26.243  25.775  1.00  0.00    -0.237 OA
ATOM     91  O   UNL A   1      53.683  23.934  25.798  1.00  0.00    -0.744 OA
ENDBRANCH  87  88
ENDBRANCH  55  80
ENDBRANCH  29  30
ENDBRANCH  21  24
ENDBRANCH  19  20
ENDBRANCH   1  19
TORSDOF 16
ENDMDL
