MODEL 1
REMARK VINA RESULT:     -12.7      0.000      0.000
REMARK SMILES COc1ccc(S(=O)(=O)N2CCC[C@H](C(=O)N3CCC[C@H](C(=O)NCCCNC(=O)c4ccc(-c5c6nc(c(-c7c(F)cc(S(=O)(=O)[O-])cc7F)c7ccc([nH]7)c(-c7c(F)cc(S(=O)(=O)[O-])cc7F)c7nc(c(-c8c(F)cc(S(=O)(=O)[O-])cc8F)c8ccc5[nH]8)C=C7)C=C6)cc4)C3)C2)cc1
REMARK SMILES IDX 25 1 24 2 22 3 23 4 21 6 17 7 18 8 97 9 19 10 20 11 15 12
REMARK SMILES IDX 16 13 14 14 10 15 11 16 98 17 12 18 13 19 7 20 8 21 9 22
REMARK SMILES IDX 6 23 3 24 4 25 100 26 5 27 99 28 2 29 1 30 26 31 27 32 28 33
REMARK SMILES IDX 29 34 30 36 31 37 32 38 96 39 33 40 95 41 34 42 35 43 36 44
REMARK SMILES IDX 89 45 37 46 94 47 88 48 90 49 38 50 93 51 87 52 86 53 39 55
REMARK SMILES IDX 73 56 52 57 72 58 53 59 56 60 71 61 91 62 54 63 55 64 70 66
REMARK SMILES IDX 92 67 57 68 40 69 41 70 50 71 42 72 43 73 49 74 51 75 44 76
REMARK SMILES IDX 45 77 46 78 47 79 48 80 74 81 75 82 84 83 76 84 77 85 83 86
REMARK SMILES IDX 85 87 78 88 79 89 80 90 81 91 82 92 58 93 59 94 68 95 60 96
REMARK SMILES IDX 61 97 67 98 69 99 62 100 63 101 64 102 65 103 66 104
REMARK H PARENT 24 5 28 35 90 54 56 65
REMARK Flexibility Score: inf
ROOT
ATOM      1  C   UNL A   1      33.581  29.964  26.414  1.00  0.00     0.117 C 
ENDROOT
BRANCH   1   2
ATOM      2  N   UNL A   1      33.697  29.389  25.098  1.00  0.00    -0.356 N 
ATOM      3  C   UNL A   1      32.715  29.032  24.230  1.00  0.00     0.224 C 
ATOM      4  O   UNL A   1      33.068  28.756  23.077  1.00  0.00    -0.275 OA
ATOM      5  H   UNL A   1      34.617  29.234  24.784  1.00  0.00     0.163 HD
BRANCH   3   6
ATOM      6  C   UNL A   1      31.227  28.958  24.601  1.00  0.00     0.098 C 
ATOM      7  N   UNL A   1      30.110  26.693  24.567  1.00  0.00    -0.342 N 
ATOM      8  C   UNL A   1      29.063  27.175  23.670  1.00  0.00     0.119 C 
ATOM      9  C   UNL A   1      30.804  27.696  25.364  1.00  0.00     0.133 C 
ATOM     10  C   UNL A   1      29.533  28.299  22.757  1.00  0.00     0.022 C 
ATOM     11  C   UNL A   1      30.257  29.413  23.506  1.00  0.00     0.017 C 
BRANCH   7  12
ATOM     12  C   UNL A   1      30.531  25.382  24.436  1.00  0.00     0.227 C 
ATOM     13  O   UNL A   1      30.836  24.712  25.429  1.00  0.00    -0.275 OA
BRANCH  12  14
ATOM     14  C   UNL A   1      30.874  24.816  23.063  1.00  0.00     0.094 C 
ATOM     15  N   UNL A   1      32.675  23.360  23.887  1.00  0.00    -0.197 NA
ATOM     16  C   UNL A   1      33.741  24.224  23.355  1.00  0.00     0.102 C 
ATOM     17  C   UNL A   1      31.330  23.383  23.290  1.00  0.00     0.116 C 
ATOM     18  C   UNL A   1      33.308  25.313  22.377  1.00  0.00     0.018 C 
ATOM     19  C   UNL A   1      31.822  25.505  22.103  1.00  0.00     0.016 C 
BRANCH  15  20
ATOM     20  S   UNL A   1      33.152  21.973  24.739  1.00  0.00     0.243 S 
ATOM     21  O   UNL A   1      33.095  20.839  23.852  1.00  0.00    -0.207 OA
ATOM     22  O   UNL A   1      32.445  21.989  26.007  1.00  0.00    -0.207 OA
BRANCH  20  23
ATOM     23  C   UNL A   1      34.870  22.222  25.135  1.00  0.00     0.082 A 
ATOM     24  C   UNL A   1      37.534  22.814  25.717  1.00  0.00     0.118 A 
ATOM     25  C   UNL A   1      36.507  23.447  26.421  1.00  0.00     0.048 A 
ATOM     26  C   UNL A   1      37.228  21.843  24.766  1.00  0.00     0.048 A 
ATOM     27  C   UNL A   1      35.173  23.160  26.126  1.00  0.00     0.025 A 
ATOM     28  C   UNL A   1      35.898  21.554  24.467  1.00  0.00     0.025 A 
BRANCH  24  29
ATOM     29  O   UNL A   1      38.809  23.191  26.038  1.00  0.00    -0.497 OA
ATOM     30  C   UNL A   1      39.626  22.124  26.512  1.00  0.00     0.278 C 
ENDBRANCH  24  29
ENDBRANCH  20  23
ENDBRANCH  15  20
ENDBRANCH  12  14
ENDBRANCH   7  12
ENDBRANCH   3   6
ENDBRANCH   1   2
BRANCH   1  31
ATOM     31  C   UNL A   1      34.594  29.453  27.418  1.00  0.00     0.042 C 
BRANCH  31  32
ATOM     32  C   UNL A   1      35.446  30.558  28.007  1.00  0.00     0.118 C 
BRANCH  32  33
ATOM     33  N   UNL A   1      35.430  30.580  29.469  1.00  0.00    -0.352 N 
ATOM     34  C   UNL A   1      36.362  30.137  30.379  1.00  0.00     0.251 C 
ATOM     35  H   UNL A   1      34.620  30.975  29.868  1.00  0.00     0.163 HD
ATOM     36  O   UNL A   1      36.114  30.176  31.580  1.00  0.00    -0.269 OA
BRANCH  34  37
ATOM     37  C   UNL A   1      37.646  29.574  29.906  1.00  0.00     0.039 A 
ATOM     38  C   UNL A   1      38.069  29.843  28.602  1.00  0.00     0.014 A 
ATOM     39  C   UNL A   1      38.453  28.826  30.762  1.00  0.00     0.014 A 
ATOM     40  C   UNL A   1      39.344  29.444  28.193  1.00  0.00     0.010 A 
ATOM     41  C   UNL A   1      39.763  28.546  30.399  1.00  0.00     0.010 A 
ATOM     42  C   UNL A   1      40.222  28.840  29.107  1.00  0.00    -0.014 A 
BRANCH  42  43
ATOM     43  C   UNL A   1      41.615  28.471  28.743  1.00  0.00     0.031 A 
ATOM     44  C   UNL A   1      42.682  29.535  28.732  1.00  0.00     0.074 A 
ATOM     45  C   UNL A   1      41.898  27.219  28.332  1.00  0.00     0.049 A 
ATOM     46  N   UNL A   1      43.913  29.467  28.296  1.00  0.00    -0.248 NA
ATOM     47  C   UNL A   1      42.296  30.868  29.224  1.00  0.00     0.031 C 
ATOM     48  C   UNL A   1      40.937  26.117  28.231  1.00  0.00     0.029 A 
ATOM     49  N   UNL A   1      43.078  26.664  27.905  1.00  0.00    -0.354 N 
ATOM     50  C   UNL A   1      44.427  30.753  28.420  1.00  0.00     0.074 A 
ATOM     51  C   UNL A   1      43.359  31.593  28.915  1.00  0.00     0.031 C 
ATOM     52  C   UNL A   1      41.573  25.014  27.806  1.00  0.00     0.029 A 
ATOM     53  C   UNL A   1      42.974  25.336  27.564  1.00  0.00     0.049 A 
ATOM     54  H   UNL A   1      43.921  27.170  27.848  1.00  0.00     0.167 HD
ATOM     55  C   UNL A   1      45.685  31.190  28.178  1.00  0.00     0.037 A 
ATOM     56  C   UNL A   1      43.906  24.477  27.106  1.00  0.00     0.037 A 
ATOM     57  C   UNL A   1      46.761  30.332  27.763  1.00  0.00     0.049 A 
ATOM     58  C   UNL A   1      45.314  24.969  26.907  1.00  0.00     0.074 A 
ATOM     59  C   UNL A   1      48.094  30.651  27.576  1.00  0.00     0.029 A 
ATOM     60  N   UNL A   1      46.629  28.978  27.491  1.00  0.00    -0.354 N 
ATOM     61  N   UNL A   1      45.797  26.176  27.083  1.00  0.00    -0.248 NA
ATOM     62  C   UNL A   1      46.305  23.984  26.452  1.00  0.00     0.031 C 
ATOM     63  C   UNL A   1      48.765  29.493  27.169  1.00  0.00     0.029 A 
ATOM     64  C   UNL A   1      47.855  28.447  27.133  1.00  0.00     0.049 A 
ATOM     65  H   UNL A   1      45.788  28.470  27.545  1.00  0.00     0.167 HD
ATOM     66  C   UNL A   1      47.150  26.091  26.780  1.00  0.00     0.074 A 
ATOM     67  C   UNL A   1      47.413  24.713  26.421  1.00  0.00     0.031 C 
ATOM     68  C   UNL A   1      48.092  27.067  26.793  1.00  0.00     0.037 A 
BRANCH  55  69
ATOM     69  C   UNL A   1      45.962  32.653  28.381  1.00  0.00     0.058 A 
ATOM     70  C   UNL A   1      46.411  33.153  29.615  1.00  0.00     0.135 A 
ATOM     71  C   UNL A   1      45.785  33.567  27.330  1.00  0.00     0.135 A 
ATOM     72  F   UNL A   1      46.579  32.325  30.658  1.00  0.00    -0.206 F 
ATOM     73  C   UNL A   1      46.633  34.511  29.812  1.00  0.00     0.059 A 
ATOM     74  C   UNL A   1      46.031  34.929  27.497  1.00  0.00     0.059 A 
ATOM     75  F   UNL A   1      45.359  33.145  26.130  1.00  0.00    -0.206 F 
ATOM     76  C   UNL A   1      46.436  35.392  28.748  1.00  0.00     0.060 A 
BRANCH  76  77
ATOM     77  S   UNL A   1      46.722  37.153  29.021  1.00  0.00     0.124 S 
ATOM     78  O   UNL A   1      48.049  37.325  28.436  1.00  0.00    -0.237 OA
ATOM     79  O   UNL A   1      45.622  37.769  28.287  1.00  0.00    -0.237 OA
ATOM     80  O   UNL A   1      46.654  37.287  30.474  1.00  0.00    -0.744 OA
ENDBRANCH  76  77
ENDBRANCH  55  69
BRANCH  56  81
ATOM     81  C   UNL A   1      43.546  23.059  26.842  1.00  0.00     0.058 A 
ATOM     82  C   UNL A   1      43.270  22.182  27.901  1.00  0.00     0.135 A 
ATOM     83  C   UNL A   1      43.452  22.556  25.536  1.00  0.00     0.135 A 
ATOM     84  F   UNL A   1      43.351  22.616  29.168  1.00  0.00    -0.206 F 
ATOM     85  C   UNL A   1      42.930  20.852  27.678  1.00  0.00     0.059 A 
ATOM     86  C   UNL A   1      43.093  21.234  25.285  1.00  0.00     0.059 A 
ATOM     87  F   UNL A   1      43.689  23.359  24.487  1.00  0.00    -0.206 F 
ATOM     88  C   UNL A   1      42.843  20.387  26.365  1.00  0.00     0.060 A 
BRANCH  88  89
ATOM     89  S   UNL A   1      42.355  18.670  26.083  1.00  0.00     0.124 S 
ATOM     90  O   UNL A   1      43.285  18.271  25.032  1.00  0.00    -0.237 OA
ATOM     91  O   UNL A   1      42.575  18.067  27.394  1.00  0.00    -0.237 OA
ATOM     92  O   UNL A   1      40.957  18.783  25.680  1.00  0.00    -0.744 OA
ENDBRANCH  88  89
ENDBRANCH  56  81
BRANCH  68  93
ATOM     93  C   UNL A   1      49.497  26.676  26.437  1.00  0.00     0.058 A 
ATOM     94  C   UNL A   1      50.351  26.087  27.380  1.00  0.00     0.135 A 
ATOM     95  C   UNL A   1      49.965  26.827  25.122  1.00  0.00     0.135 A 
ATOM     96  F   UNL A   1      49.950  25.928  28.650  1.00  0.00    -0.206 F 
ATOM     97  C   UNL A   1      51.631  25.668  27.033  1.00  0.00     0.059 A 
ATOM     98  C   UNL A   1      51.233  26.395  24.749  1.00  0.00     0.059 A 
ATOM     99  F   UNL A   1      49.179  27.378  24.184  1.00  0.00    -0.206 F 
ATOM    100  C   UNL A   1      52.061  25.824  25.714  1.00  0.00     0.060 A 
BRANCH 100 101
ATOM    101  S   UNL A   1      53.705  25.228  25.263  1.00  0.00     0.124 S 
ATOM    102  O   UNL A   1      54.535  25.852  26.287  1.00  0.00    -0.237 OA
ATOM    103  O   UNL A   1      53.553  23.780  25.364  1.00  0.00    -0.237 OA
ATOM    104  O   UNL A   1      53.890  25.739  23.907  1.00  0.00    -0.744 OA
ENDBRANCH 100 101
ENDBRANCH  68  93
ENDBRANCH  42  43
ENDBRANCH  34  37
ENDBRANCH  32  33
ENDBRANCH  31  32
ENDBRANCH   1  31
TORSDOF 18
ENDMDL
MODEL 2
REMARK VINA RESULT:     -12.4      1.072      2.134
REMARK SMILES COc1ccc(S(=O)(=O)N2CCC[C@H](C(=O)N3CCC[C@H](C(=O)NCCCNC(=O)c4ccc(-c5c6nc(c(-c7c(F)cc(S(=O)(=O)[O-])cc7F)c7ccc([nH]7)c(-c7c(F)cc(S(=O)(=O)[O-])cc7F)c7nc(c(-c8c(F)cc(S(=O)(=O)[O-])cc8F)c8ccc5[nH]8)C=C7)C=C6)cc4)C3)C2)cc1
REMARK SMILES IDX 25 1 24 2 22 3 23 4 21 6 17 7 18 8 97 9 19 10 20 11 15 12
REMARK SMILES IDX 16 13 14 14 10 15 11 16 98 17 12 18 13 19 7 20 8 21 9 22
REMARK SMILES IDX 6 23 3 24 4 25 100 26 5 27 99 28 2 29 1 30 26 31 27 32 28 33
REMARK SMILES IDX 29 34 30 36 31 37 32 38 96 39 33 40 95 41 34 42 35 43 36 44
REMARK SMILES IDX 89 45 37 46 94 47 88 48 90 49 38 50 93 51 87 52 86 53 39 55
REMARK SMILES IDX 73 56 52 57 72 58 53 59 56 60 71 61 91 62 54 63 55 64 70 66
REMARK SMILES IDX 92 67 57 68 40 69 41 70 50 71 42 72 43 73 49 74 51 75 44 76
REMARK SMILES IDX 45 77 46 78 47 79 48 80 74 81 75 82 84 83 76 84 77 85 83 86
REMARK SMILES IDX 85 87 78 88 79 89 80 90 81 91 82 92 58 93 59 94 68 95 60 96
REMARK SMILES IDX 61 97 67 98 69 99 62 100 63 101 64 102 65 103 66 104
REMARK H PARENT 24 5 28 35 90 54 56 65
REMARK Flexibility Score: inf
ROOT
ATOM      1  C   UNL A   1      33.908  28.490  26.307  1.00  0.00     0.117 C 
ENDROOT
BRANCH   1   2
ATOM      2  N   UNL A   1      34.104  28.466  24.879  1.00  0.00    -0.356 N 
ATOM      3  C   UNL A   1      33.233  28.795  23.890  1.00  0.00     0.224 C 
ATOM      4  O   UNL A   1      33.701  28.895  22.749  1.00  0.00    -0.275 OA
ATOM      5  H   UNL A   1      34.993  28.170  24.579  1.00  0.00     0.163 HD
BRANCH   3   6
ATOM      6  C   UNL A   1      31.734  29.045  24.113  1.00  0.00     0.098 C 
ATOM      7  N   UNL A   1      30.244  27.042  24.497  1.00  0.00    -0.342 N 
ATOM      8  C   UNL A   1      29.355  27.441  23.409  1.00  0.00     0.119 C 
ATOM      9  C   UNL A   1      31.052  28.092  25.103  1.00  0.00     0.133 C 
ATOM     10  C   UNL A   1      30.069  28.218  22.312  1.00  0.00     0.022 C 
ATOM     11  C   UNL A   1      30.928  29.358  22.849  1.00  0.00     0.017 C 
BRANCH   7  12
ATOM     12  C   UNL A   1      30.438  25.691  24.721  1.00  0.00     0.227 C 
ATOM     13  O   UNL A   1      30.322  25.213  25.855  1.00  0.00    -0.275 OA
BRANCH  12  14
ATOM     14  C   UNL A   1      31.046  24.809  23.635  1.00  0.00     0.094 C 
ATOM     15  N   UNL A   1      32.756  23.828  25.105  1.00  0.00    -0.197 NA
ATOM     16  C   UNL A   1      33.847  24.619  24.514  1.00  0.00     0.102 C 
ATOM     17  C   UNL A   1      31.535  23.548  24.330  1.00  0.00     0.116 C 
ATOM     18  C   UNL A   1      33.531  25.348  23.211  1.00  0.00     0.018 C 
ATOM     19  C   UNL A   1      32.106  25.303  22.673  1.00  0.00     0.016 C 
BRANCH  15  20
ATOM     20  S   UNL A   1      33.155  22.784  26.380  1.00  0.00     0.243 S 
ATOM     21  O   UNL A   1      31.960  22.479  27.125  1.00  0.00    -0.207 OA
ATOM     22  O   UNL A   1      34.338  23.330  27.022  1.00  0.00    -0.207 OA
BRANCH  20  23
ATOM     23  C   UNL A   1      33.676  21.265  25.610  1.00  0.00     0.082 A 
ATOM     24  C   UNL A   1      34.393  18.785  24.553  1.00  0.00     0.118 A 
ATOM     25  C   UNL A   1      33.046  19.105  24.735  1.00  0.00     0.048 A 
ATOM     26  C   UNL A   1      35.376  19.729  24.843  1.00  0.00     0.048 A 
ATOM     27  C   UNL A   1      32.683  20.341  25.272  1.00  0.00     0.025 A 
ATOM     28  C   UNL A   1      35.020  20.964  25.380  1.00  0.00     0.025 A 
BRANCH  24  29
ATOM     29  O   UNL A   1      34.657  17.534  24.067  1.00  0.00    -0.497 OA
ATOM     30  C   UNL A   1      33.561  16.937  23.379  1.00  0.00     0.278 C 
ENDBRANCH  24  29
ENDBRANCH  20  23
ENDBRANCH  15  20
ENDBRANCH  12  14
ENDBRANCH   7  12
ENDBRANCH   3   6
ENDBRANCH   1   2
BRANCH   1  31
ATOM     31  C   UNL A   1      34.224  29.817  26.965  1.00  0.00     0.042 C 
BRANCH  31  32
ATOM     32  C   UNL A   1      35.528  29.793  27.736  1.00  0.00     0.118 C 
BRANCH  32  33
ATOM     33  N   UNL A   1      35.358  30.070  29.162  1.00  0.00    -0.352 N 
ATOM     34  C   UNL A   1      36.285  30.124  30.177  1.00  0.00     0.251 C 
ATOM     35  H   UNL A   1      34.430  30.246  29.441  1.00  0.00     0.163 HD
ATOM     36  O   UNL A   1      35.917  30.296  31.336  1.00  0.00    -0.269 OA
BRANCH  34  37
ATOM     37  C   UNL A   1      37.721  29.932  29.878  1.00  0.00     0.039 A 
ATOM     38  C   UNL A   1      38.571  29.468  30.885  1.00  0.00     0.014 A 
ATOM     39  C   UNL A   1      38.217  30.160  28.596  1.00  0.00     0.014 A 
ATOM     40  C   UNL A   1      39.894  29.141  30.577  1.00  0.00     0.010 A 
ATOM     41  C   UNL A   1      39.488  29.713  28.263  1.00  0.00     0.010 A 
ATOM     42  C   UNL A   1      40.347  29.210  29.250  1.00  0.00    -0.014 A 
BRANCH  42  43
ATOM     43  C   UNL A   1      41.720  28.795  28.859  1.00  0.00     0.031 A 
ATOM     44  C   UNL A   1      42.820  29.824  28.822  1.00  0.00     0.074 A 
ATOM     45  C   UNL A   1      41.954  27.533  28.446  1.00  0.00     0.049 A 
ATOM     46  N   UNL A   1      44.039  29.715  28.362  1.00  0.00    -0.248 NA
ATOM     47  C   UNL A   1      42.487  31.171  29.318  1.00  0.00     0.031 C 
ATOM     48  C   UNL A   1      40.956  26.463  28.369  1.00  0.00     0.029 A 
ATOM     49  N   UNL A   1      43.106  26.939  27.998  1.00  0.00    -0.354 N 
ATOM     50  C   UNL A   1      44.596  30.984  28.471  1.00  0.00     0.074 A 
ATOM     51  C   UNL A   1      43.566  31.860  28.984  1.00  0.00     0.031 C 
ATOM     52  C   UNL A   1      41.548  25.338  27.935  1.00  0.00     0.029 A 
ATOM     53  C   UNL A   1      42.954  25.615  27.664  1.00  0.00     0.049 A 
ATOM     54  H   UNL A   1      43.964  27.418  27.922  1.00  0.00     0.167 HD
ATOM     55  C   UNL A   1      45.862  31.380  28.202  1.00  0.00     0.037 A 
ATOM     56  C   UNL A   1      43.848  24.725  27.190  1.00  0.00     0.037 A 
ATOM     57  C   UNL A   1      46.902  30.486  27.769  1.00  0.00     0.049 A 
ATOM     58  C   UNL A   1      45.267  25.170  26.962  1.00  0.00     0.074 A 
ATOM     59  C   UNL A   1      48.241  30.762  27.554  1.00  0.00     0.029 A 
ATOM     60  N   UNL A   1      46.721  29.137  27.505  1.00  0.00    -0.354 N 
ATOM     61  N   UNL A   1      45.792  26.362  27.123  1.00  0.00    -0.248 NA
ATOM     62  C   UNL A   1      46.216  24.152  26.490  1.00  0.00     0.031 C 
ATOM     63  C   UNL A   1      48.866  29.582  27.137  1.00  0.00     0.029 A 
ATOM     64  C   UNL A   1      47.922  28.566  27.124  1.00  0.00     0.049 A 
ATOM     65  H   UNL A   1      45.866  28.656  27.578  1.00  0.00     0.167 HD
ATOM     66  C   UNL A   1      47.135  26.233  26.793  1.00  0.00     0.074 A 
ATOM     67  C   UNL A   1      47.346  24.845  26.434  1.00  0.00     0.031 C 
ATOM     68  C   UNL A   1      48.108  27.178  26.784  1.00  0.00     0.037 A 
BRANCH  55  69
ATOM     69  C   UNL A   1      46.191  32.834  28.394  1.00  0.00     0.058 A 
ATOM     70  C   UNL A   1      46.063  33.762  27.347  1.00  0.00     0.135 A 
ATOM     71  C   UNL A   1      46.633  33.310  29.639  1.00  0.00     0.135 A 
ATOM     72  F   UNL A   1      45.662  33.358  26.131  1.00  0.00    -0.206 F 
ATOM     73  C   UNL A   1      46.400  35.101  27.515  1.00  0.00     0.059 A 
ATOM     74  C   UNL A   1      46.948  34.652  29.838  1.00  0.00     0.059 A 
ATOM     75  F   UNL A   1      46.773  32.467  30.674  1.00  0.00    -0.206 F 
ATOM     76  C   UNL A   1      46.847  35.535  28.763  1.00  0.00     0.060 A 
BRANCH  76  77
ATOM     77  S   UNL A   1      47.287  37.273  28.966  1.00  0.00     0.124 S 
ATOM     78  O   UNL A   1      46.502  37.897  27.904  1.00  0.00    -0.237 OA
ATOM     79  O   UNL A   1      46.846  37.555  30.328  1.00  0.00    -0.237 OA
ATOM     80  O   UNL A   1      48.734  37.282  28.764  1.00  0.00    -0.744 OA
ENDBRANCH  76  77
ENDBRANCH  55  69
BRANCH  56  81
ATOM     81  C   UNL A   1      43.437  23.318  26.938  1.00  0.00     0.058 A 
ATOM     82  C   UNL A   1      43.285  22.841  25.628  1.00  0.00     0.135 A 
ATOM     83  C   UNL A   1      43.207  22.421  27.992  1.00  0.00     0.135 A 
ATOM     84  F   UNL A   1      43.490  23.662  24.588  1.00  0.00    -0.206 F 
ATOM     85  C   UNL A   1      42.904  21.529  25.369  1.00  0.00     0.059 A 
ATOM     86  C   UNL A   1      42.845  21.097  27.758  1.00  0.00     0.059 A 
ATOM     87  F   UNL A   1      43.356  22.824  29.263  1.00  0.00    -0.206 F 
ATOM     88  C   UNL A   1      42.686  20.663  26.442  1.00  0.00     0.060 A 
BRANCH  88  89
ATOM     89  S   UNL A   1      42.235  18.948  26.096  1.00  0.00     0.124 S 
ATOM     90  O   UNL A   1      43.128  18.629  24.988  1.00  0.00    -0.237 OA
ATOM     91  O   UNL A   1      42.532  18.289  27.365  1.00  0.00    -0.237 OA
ATOM     92  O   UNL A   1      40.817  19.036  25.762  1.00  0.00    -0.744 OA
ENDBRANCH  88  89
ENDBRANCH  56  81
BRANCH  68  93
ATOM     93  C   UNL A   1      49.491  26.741  26.401  1.00  0.00     0.058 A 
ATOM     94  C   UNL A   1      50.346  26.128  27.329  1.00  0.00     0.135 A 
ATOM     95  C   UNL A   1      49.938  26.871  25.077  1.00  0.00     0.135 A 
ATOM     96  F   UNL A   1      49.966  25.987  28.608  1.00  0.00    -0.206 F 
ATOM     97  C   UNL A   1      51.604  25.668  26.959  1.00  0.00     0.059 A 
ATOM     98  C   UNL A   1      51.183  26.398  24.680  1.00  0.00     0.059 A 
ATOM     99  F   UNL A   1      49.150  27.443  24.152  1.00  0.00    -0.206 F 
ATOM    100  C   UNL A   1      52.012  25.804  25.630  1.00  0.00     0.060 A 
BRANCH 100 101
ATOM    101  S   UNL A   1      53.626  25.154  25.148  1.00  0.00     0.124 S 
ATOM    102  O   UNL A   1      53.744  25.645  23.780  1.00  0.00    -0.237 OA
ATOM    103  O   UNL A   1      54.518  25.773  26.123  1.00  0.00    -0.237 OA
ATOM    104  O   UNL A   1      53.464  23.710  25.286  1.00  0.00    -0.744 OA
ENDBRANCH 100 101
ENDBRANCH  68  93
ENDBRANCH  42  43
ENDBRANCH  34  37
ENDBRANCH  32  33
ENDBRANCH  31  32
ENDBRANCH   1  31
TORSDOF 18
ENDMDL
MODEL 3
REMARK VINA RESULT:     -12.0      0.711      7.967
REMARK SMILES COc1ccc(S(=O)(=O)N2CCC[C@H](C(=O)N3CCC[C@H](C(=O)NCCCNC(=O)c4ccc(-c5c6nc(c(-c7c(F)cc(S(=O)(=O)[O-])cc7F)c7ccc([nH]7)c(-c7c(F)cc(S(=O)(=O)[O-])cc7F)c7nc(c(-c8c(F)cc(S(=O)(=O)[O-])cc8F)c8ccc5[nH]8)C=C7)C=C6)cc4)C3)C2)cc1
REMARK SMILES IDX 25 1 24 2 22 3 23 4 21 6 17 7 18 8 97 9 19 10 20 11 15 12
REMARK SMILES IDX 16 13 14 14 10 15 11 16 98 17 12 18 13 19 7 20 8 21 9 22
REMARK SMILES IDX 6 23 3 24 4 25 100 26 5 27 99 28 2 29 1 30 26 31 27 32 28 33
REMARK SMILES IDX 29 34 30 36 31 37 32 38 96 39 33 40 95 41 34 42 35 43 36 44
REMARK SMILES IDX 89 45 37 46 94 47 88 48 90 49 38 50 93 51 87 52 86 53 39 55
REMARK SMILES IDX 73 56 52 57 72 58 53 59 56 60 71 61 91 62 54 63 55 64 70 66
REMARK SMILES IDX 92 67 57 68 40 69 41 70 50 71 42 72 43 73 49 74 51 75 44 76
REMARK SMILES IDX 45 77 46 78 47 79 48 80 74 81 75 82 84 83 76 84 77 85 83 86
REMARK SMILES IDX 85 87 78 88 79 89 80 90 81 91 82 92 58 93 59 94 68 95 60 96
REMARK SMILES IDX 61 97 67 98 69 99 62 100 63 101 64 102 65 103 66 104
REMARK H PARENT 24 5 28 35 90 54 56 65
REMARK Flexibility Score: inf
ROOT
ATOM      1  C   UNL A   1      33.262  30.013  26.842  1.00  0.00     0.117 C 
ENDROOT
BRANCH   1   2
ATOM      2  N   UNL A   1      33.699  29.262  25.693  1.00  0.00    -0.356 N 
ATOM      3  C   UNL A   1      32.973  28.819  24.633  1.00  0.00     0.224 C 
ATOM      4  O   UNL A   1      33.612  28.379  23.669  1.00  0.00    -0.275 OA
ATOM      5  H   UNL A   1      34.657  29.039  25.673  1.00  0.00     0.163 HD
BRANCH   3   6
ATOM      6  C   UNL A   1      31.439  28.840  24.574  1.00  0.00     0.098 C 
ATOM      7  N   UNL A   1      30.227  26.625  24.512  1.00  0.00    -0.342 N 
ATOM      8  C   UNL A   1      29.504  27.006  23.302  1.00  0.00     0.119 C 
ATOM      9  C   UNL A   1      30.739  27.710  25.340  1.00  0.00     0.133 C 
ATOM     10  C   UNL A   1      30.281  27.978  22.425  1.00  0.00     0.022 C 
ATOM     11  C   UNL A   1      30.842  29.165  23.201  1.00  0.00     0.017 C 
BRANCH   7  12
ATOM     12  C   UNL A   1      30.579  25.297  24.672  1.00  0.00     0.227 C 
ATOM     13  O   UNL A   1      30.843  24.842  25.791  1.00  0.00    -0.275 OA
BRANCH  12  14
ATOM     14  C   UNL A   1      30.900  24.433  23.458  1.00  0.00     0.094 C 
ATOM     15  N   UNL A   1      32.771  23.256  24.535  1.00  0.00    -0.197 NA
ATOM     16  C   UNL A   1      33.792  23.997  23.776  1.00  0.00     0.102 C 
ATOM     17  C   UNL A   1      31.409  23.105  23.998  1.00  0.00     0.116 C 
ATOM     18  C   UNL A   1      33.296  24.815  22.587  1.00  0.00     0.018 C 
ATOM     19  C   UNL A   1      31.797  24.900  22.330  1.00  0.00     0.016 C 
BRANCH  15  20
ATOM     20  S   UNL A   1      33.318  22.120  25.669  1.00  0.00     0.243 S 
ATOM     21  O   UNL A   1      32.939  20.802  25.229  1.00  0.00    -0.207 OA
ATOM     22  O   UNL A   1      32.955  22.624  26.983  1.00  0.00    -0.207 OA
BRANCH  20  23
ATOM     23  C   UNL A   1      35.096  22.189  25.596  1.00  0.00     0.082 A 
ATOM     24  C   UNL A   1      37.885  22.118  25.582  1.00  0.00     0.118 A 
ATOM     25  C   UNL A   1      37.156  21.073  25.012  1.00  0.00     0.048 A 
ATOM     26  C   UNL A   1      37.220  23.225  26.105  1.00  0.00     0.048 A 
ATOM     27  C   UNL A   1      35.760  21.101  25.025  1.00  0.00     0.025 A 
ATOM     28  C   UNL A   1      35.827  23.257  26.122  1.00  0.00     0.025 A 
BRANCH  24  29
ATOM     29  O   UNL A   1      39.247  21.985  25.568  1.00  0.00    -0.497 OA
ATOM     30  C   UNL A   1      39.851  22.082  26.855  1.00  0.00     0.278 C 
ENDBRANCH  24  29
ENDBRANCH  20  23
ENDBRANCH  15  20
ENDBRANCH  12  14
ENDBRANCH   7  12
ENDBRANCH   3   6
ENDBRANCH   1   2
BRANCH   1  31
ATOM     31  C   UNL A   1      34.364  30.763  27.562  1.00  0.00     0.042 C 
BRANCH  31  32
ATOM     32  C   UNL A   1      35.440  29.845  28.106  1.00  0.00     0.118 C 
BRANCH  32  33
ATOM     33  N   UNL A   1      35.558  29.899  29.563  1.00  0.00    -0.352 N 
ATOM     34  C   UNL A   1      36.621  29.595  30.383  1.00  0.00     0.251 C 
ATOM     35  H   UNL A   1      34.748  30.200  30.033  1.00  0.00     0.163 HD
ATOM     36  O   UNL A   1      36.484  29.631  31.603  1.00  0.00    -0.269 OA
BRANCH  34  37
ATOM     37  C   UNL A   1      37.914  29.183  29.795  1.00  0.00     0.039 A 
ATOM     38  C   UNL A   1      38.180  29.481  28.456  1.00  0.00     0.014 A 
ATOM     39  C   UNL A   1      38.881  28.550  30.575  1.00  0.00     0.014 A 
ATOM     40  C   UNL A   1      39.451  29.231  27.932  1.00  0.00     0.010 A 
ATOM     41  C   UNL A   1      40.175  28.424  30.093  1.00  0.00     0.010 A 
ATOM     42  C   UNL A   1      40.476  28.751  28.763  1.00  0.00    -0.014 A 
BRANCH  42  43
ATOM     43  C   UNL A   1      41.863  28.547  28.273  1.00  0.00     0.031 A 
ATOM     44  C   UNL A   1      42.291  27.177  27.812  1.00  0.00     0.074 A 
ATOM     45  C   UNL A   1      42.757  29.554  28.334  1.00  0.00     0.049 A 
ATOM     46  N   UNL A   1      43.484  26.745  27.499  1.00  0.00    -0.248 NA
ATOM     47  C   UNL A   1      41.245  26.142  27.748  1.00  0.00     0.031 C 
ATOM     48  C   UNL A   1      42.485  30.907  28.826  1.00  0.00     0.029 A 
ATOM     49  N   UNL A   1      44.086  29.592  27.992  1.00  0.00    -0.354 N 
ATOM     50  C   UNL A   1      43.337  25.385  27.249  1.00  0.00     0.074 A 
ATOM     51  C   UNL A   1      41.954  25.052  27.503  1.00  0.00     0.031 C 
ATOM     52  C   UNL A   1      43.601  31.648  28.722  1.00  0.00     0.029 A 
ATOM     53  C   UNL A   1      44.676  30.816  28.195  1.00  0.00     0.049 A 
ATOM     54  H   UNL A   1      44.571  28.813  27.633  1.00  0.00     0.167 HD
ATOM     55  C   UNL A   1      44.263  24.499  26.813  1.00  0.00     0.037 A 
ATOM     56  C   UNL A   1      45.944  31.220  27.983  1.00  0.00     0.037 A 
ATOM     57  C   UNL A   1      45.617  24.856  26.486  1.00  0.00     0.049 A 
ATOM     58  C   UNL A   1      46.940  30.235  27.435  1.00  0.00     0.074 A 
ATOM     59  C   UNL A   1      46.612  24.058  25.951  1.00  0.00     0.029 A 
ATOM     60  N   UNL A   1      46.158  26.123  26.645  1.00  0.00    -0.354 N 
ATOM     61  N   UNL A   1      46.770  28.966  27.150  1.00  0.00    -0.248 NA
ATOM     62  C   UNL A   1      48.297  30.735  27.175  1.00  0.00     0.031 C 
ATOM     63  C   UNL A   1      47.764  24.839  25.807  1.00  0.00     0.029 A 
ATOM     64  C   UNL A   1      47.475  26.129  26.223  1.00  0.00     0.049 A 
ATOM     65  H   UNL A   1      45.676  26.902  27.005  1.00  0.00     0.167 HD
ATOM     66  C   UNL A   1      47.992  28.521  26.659  1.00  0.00     0.074 A 
ATOM     67  C   UNL A   1      48.888  29.658  26.673  1.00  0.00     0.031 C 
ATOM     68  C   UNL A   1      48.343  27.280  26.237  1.00  0.00     0.037 A 
BRANCH  55  69
ATOM     69  C   UNL A   1      43.830  23.069  26.644  1.00  0.00     0.058 A 
ATOM     70  C   UNL A   1      43.696  22.487  25.372  1.00  0.00     0.135 A 
ATOM     71  C   UNL A   1      43.551  22.269  27.762  1.00  0.00     0.135 A 
ATOM     72  F   UNL A   1      43.932  23.213  24.268  1.00  0.00    -0.206 F 
ATOM     73  C   UNL A   1      43.260  21.176  25.215  1.00  0.00     0.059 A 
ATOM     74  C   UNL A   1      43.142  20.944  27.629  1.00  0.00     0.059 A 
ATOM     75  F   UNL A   1      43.662  22.774  29.001  1.00  0.00    -0.206 F 
ATOM     76  C   UNL A   1      42.981  20.414  26.349  1.00  0.00     0.060 A 
BRANCH  76  77
ATOM     77  S   UNL A   1      42.411  18.715  26.129  1.00  0.00     0.124 S 
ATOM     78  O   UNL A   1      42.639  18.159  27.460  1.00  0.00    -0.237 OA
ATOM     79  O   UNL A   1      41.014  18.898  25.750  1.00  0.00    -0.237 OA
ATOM     80  O   UNL A   1      43.281  18.200  25.076  1.00  0.00    -0.744 OA
ENDBRANCH  76  77
ENDBRANCH  55  69
BRANCH  56  81
ATOM     81  C   UNL A   1      46.331  32.631  28.253  1.00  0.00     0.058 A 
ATOM     82  C   UNL A   1      46.213  33.608  27.255  1.00  0.00     0.135 A 
ATOM     83  C   UNL A   1      46.808  33.033  29.510  1.00  0.00     0.135 A 
ATOM     84  F   UNL A   1      45.766  33.270  26.036  1.00  0.00    -0.206 F 
ATOM     85  C   UNL A   1      46.567  34.933  27.485  1.00  0.00     0.059 A 
ATOM     86  C   UNL A   1      47.149  34.357  29.771  1.00  0.00     0.059 A 
ATOM     87  F   UNL A   1      46.923  32.139  30.504  1.00  0.00    -0.206 F 
ATOM     88  C   UNL A   1      47.035  35.299  28.749  1.00  0.00     0.060 A 
BRANCH  88  89
ATOM     89  S   UNL A   1      47.449  37.031  29.053  1.00  0.00     0.124 S 
ATOM     90  O   UNL A   1      48.529  36.907  30.026  1.00  0.00    -0.237 OA
ATOM     91  O   UNL A   1      47.837  37.494  27.724  1.00  0.00    -0.237 OA
ATOM     92  O   UNL A   1      46.200  37.589  29.561  1.00  0.00    -0.744 OA
ENDBRANCH  88  89
ENDBRANCH  56  81
BRANCH  68  93
ATOM     93  C   UNL A   1      49.743  27.094  25.731  1.00  0.00     0.058 A 
ATOM     94  C   UNL A   1      50.772  26.655  26.576  1.00  0.00     0.135 A 
ATOM     95  C   UNL A   1      50.040  27.288  24.372  1.00  0.00     0.135 A 
ATOM     96  F   UNL A   1      50.538  26.462  27.883  1.00  0.00    -0.206 F 
ATOM     97  C   UNL A   1      52.055  26.424  26.092  1.00  0.00     0.059 A 
ATOM     98  C   UNL A   1      51.310  27.042  23.864  1.00  0.00     0.059 A 
ATOM     99  F   UNL A   1      49.083  27.700  23.524  1.00  0.00    -0.206 F 
ATOM    100  C   UNL A   1      52.313  26.617  24.733  1.00  0.00     0.060 A 
BRANCH 100 101
ATOM    101  S   UNL A   1      53.969  26.262  24.107  1.00  0.00     0.124 S 
ATOM    102  O   UNL A   1      54.746  27.344  24.701  1.00  0.00    -0.237 OA
ATOM    103  O   UNL A   1      54.228  24.928  24.640  1.00  0.00    -0.237 OA
ATOM    104  O   UNL A   1      53.804  26.329  22.658  1.00  0.00    -0.744 OA
ENDBRANCH 100 101
ENDBRANCH  68  93
ENDBRANCH  42  43
ENDBRANCH  34  37
ENDBRANCH  32  33
ENDBRANCH  31  32
ENDBRANCH   1  31
TORSDOF 18
ENDMDL
