MODEL 1
REMARK VINA RESULT:     -11.8      0.000      0.000
REMARK SMILES COc1ccc(-c2ccc(C#N)c(S[C@@H](C)C(=O)NCCCNC(=O)c3ccc(-c4c5nc(c(-c6c(F)cc(S(=O)(=O)[O-])cc6F)c6ccc([nH]6)c(-c6c(F)cc(S(=O)(=O)[O-])cc6F)c6nc(c(-c7c(F)cc(S(=O)(=O)[O-])cc7F)c7ccc4[nH]7)C=C6)C=C5)cc3)n2)cc1
REMARK SMILES IDX 20 1 19 2 17 3 18 4 15 6 16 7 14 8 13 9 7 10 8 11 92 12 9 13
REMARK SMILES IDX 10 14 6 15 3 16 4 17 94 18 5 19 93 20 2 21 1 22 11 23 12 24
REMARK SMILES IDX 21 25 22 26 23 27 24 28 25 30 26 31 27 32 91 33 28 34 90 35
REMARK SMILES IDX 29 36 30 37 31 38 84 39 32 40 89 41 83 42 85 43 33 44 88 45
REMARK SMILES IDX 82 46 81 47 34 49 68 50 47 51 67 52 48 53 51 54 66 55 86 56
REMARK SMILES IDX 49 57 50 58 65 60 87 61 52 62 35 63 36 64 45 65 37 66 38 67
REMARK SMILES IDX 44 68 46 69 39 70 40 71 41 72 42 73 43 74 69 75 70 76 79 77
REMARK SMILES IDX 71 78 72 79 78 80 80 81 73 82 74 83 75 84 76 85 77 86 53 87
REMARK SMILES IDX 54 88 63 89 55 90 56 91 62 92 64 93 57 94 58 95 59 96 60 97
REMARK SMILES IDX 61 98
REMARK H PARENT 19 5 23 29 85 48 51 59
REMARK Flexibility Score: inf
ROOT
ATOM      1  C   UNL A   1      34.388  30.025  27.253  1.00  0.00     0.117 C 
ENDROOT
BRANCH   1   2
ATOM      2  N   UNL A   1      33.306  29.339  27.906  1.00  0.00    -0.355 N 
ATOM      3  C   UNL A   1      32.232  28.646  27.477  1.00  0.00     0.233 C 
ATOM      4  O   UNL A   1      31.595  28.095  28.390  1.00  0.00    -0.274 OA
ATOM      5  H   UNL A   1      33.362  29.386  28.888  1.00  0.00     0.163 HD
BRANCH   3   6
ATOM      6  C   UNL A   1      31.811  28.387  26.031  1.00  0.00     0.139 C 
ATOM      7  C   UNL A   1      31.362  29.610  25.249  1.00  0.00     0.030 C 
BRANCH   6   8
ATOM      8  S   UNL A   1      31.206  26.749  25.509  1.00  0.00    -0.092 SA
BRANCH   8   9
ATOM      9  C   UNL A   1      32.006  26.065  24.083  1.00  0.00     0.115 A 
ATOM     10  C   UNL A   1      33.687  24.467  23.611  1.00  0.00     0.072 A 
ATOM     11  C   UNL A   1      33.428  24.537  22.254  1.00  0.00     0.030 A 
ATOM     12  N   UNL A   1      32.949  25.168  24.506  1.00  0.00    -0.240 NA
ATOM     13  C   UNL A   1      32.522  25.482  21.807  1.00  0.00     0.024 A 
ATOM     14  C   UNL A   1      31.852  26.312  22.721  1.00  0.00     0.084 A 
BRANCH  10  15
ATOM     15  C   UNL A   1      34.893  23.791  24.108  1.00  0.00     0.000 A 
ATOM     16  C   UNL A   1      37.151  22.506  25.209  1.00  0.00     0.118 A 
ATOM     17  C   UNL A   1      36.863  22.387  23.848  1.00  0.00     0.047 A 
ATOM     18  C   UNL A   1      36.341  23.292  26.018  1.00  0.00     0.047 A 
ATOM     19  C   UNL A   1      35.730  23.008  23.301  1.00  0.00     0.014 A 
ATOM     20  C   UNL A   1      35.223  23.917  25.471  1.00  0.00     0.014 A 
BRANCH  16  21
ATOM     21  O   UNL A   1      38.266  21.859  25.661  1.00  0.00    -0.497 OA
ATOM     22  C   UNL A   1      39.204  22.702  26.334  1.00  0.00     0.278 C 
ENDBRANCH  16  21
ENDBRANCH  10  15
BRANCH  14  23
ATOM     23  C   UNL A   1      31.058  27.339  22.142  1.00  0.00     0.102 C 
ATOM     24  N   UNL A   1      30.370  28.205  21.772  1.00  0.00    -0.192 NA
ENDBRANCH  14  23
ENDBRANCH   8   9
ENDBRANCH   6   8
ENDBRANCH   3   6
ENDBRANCH   1   2
BRANCH   1  25
ATOM     25  C   UNL A   1      34.474  31.483  27.672  1.00  0.00     0.042 C 
BRANCH  25  26
ATOM     26  C   UNL A   1      35.612  31.776  28.637  1.00  0.00     0.118 C 
BRANCH  26  27
ATOM     27  N   UNL A   1      35.482  31.145  29.944  1.00  0.00    -0.352 N 
ATOM     28  C   UNL A   1      36.412  30.480  30.712  1.00  0.00     0.251 C 
ATOM     29  H   UNL A   1      34.584  31.204  30.343  1.00  0.00     0.163 HD
ATOM     30  O   UNL A   1      36.045  29.983  31.775  1.00  0.00    -0.269 OA
BRANCH  28  31
ATOM     31  C   UNL A   1      37.812  30.302  30.253  1.00  0.00     0.039 A 
ATOM     32  C   UNL A   1      38.833  30.267  31.210  1.00  0.00     0.014 A 
ATOM     33  C   UNL A   1      38.137  30.143  28.907  1.00  0.00     0.014 A 
ATOM     34  C   UNL A   1      40.144  29.967  30.826  1.00  0.00     0.010 A 
ATOM     35  C   UNL A   1      39.408  29.714  28.543  1.00  0.00     0.010 A 
ATOM     36  C   UNL A   1      40.431  29.626  29.495  1.00  0.00    -0.014 A 
BRANCH  36  37
ATOM     37  C   UNL A   1      41.785  29.183  29.068  1.00  0.00     0.031 A 
ATOM     38  C   UNL A   1      42.917  30.179  29.004  1.00  0.00     0.074 A 
ATOM     39  C   UNL A   1      41.972  27.915  28.647  1.00  0.00     0.049 A 
ATOM     40  N   UNL A   1      44.127  30.029  28.533  1.00  0.00    -0.248 NA
ATOM     41  C   UNL A   1      42.634  31.541  29.493  1.00  0.00     0.031 C 
ATOM     42  C   UNL A   1      40.941  26.874  28.589  1.00  0.00     0.029 A 
ATOM     43  N   UNL A   1      43.097  27.285  28.171  1.00  0.00    -0.354 N 
ATOM     44  C   UNL A   1      44.734  31.276  28.640  1.00  0.00     0.074 A 
ATOM     45  C   UNL A   1      43.741  32.187  29.158  1.00  0.00     0.031 C 
ATOM     46  C   UNL A   1      41.485  25.733  28.136  1.00  0.00     0.029 A 
ATOM     47  C   UNL A   1      42.891  25.967  27.828  1.00  0.00     0.049 A 
ATOM     48  H   UNL A   1      43.968  27.735  28.083  1.00  0.00     0.167 HD
ATOM     49  C   UNL A   1      46.014  31.624  28.363  1.00  0.00     0.037 A 
ATOM     50  C   UNL A   1      43.740  25.057  27.314  1.00  0.00     0.037 A 
ATOM     51  C   UNL A   1      47.010  30.698  27.894  1.00  0.00     0.049 A 
ATOM     52  C   UNL A   1      45.164  25.462  27.040  1.00  0.00     0.074 A 
ATOM     53  C   UNL A   1      48.352  30.928  27.648  1.00  0.00     0.029 A 
ATOM     54  N   UNL A   1      46.774  29.361  27.607  1.00  0.00    -0.354 N 
ATOM     55  N   UNL A   1      45.737  26.631  27.210  1.00  0.00    -0.248 NA
ATOM     56  C   UNL A   1      46.059  24.424  26.511  1.00  0.00     0.031 C 
ATOM     57  C   UNL A   1      48.918  29.742  27.172  1.00  0.00     0.029 A 
ATOM     58  C   UNL A   1      47.942  28.758  27.173  1.00  0.00     0.049 A 
ATOM     59  H   UNL A   1      45.905  28.908  27.700  1.00  0.00     0.167 HD
ATOM     60  C   UNL A   1      47.065  26.461  26.830  1.00  0.00     0.074 A 
ATOM     61  C   UNL A   1      47.213  25.074  26.442  1.00  0.00     0.031 C 
ATOM     62  C   UNL A   1      48.071  27.371  26.803  1.00  0.00     0.037 A 
BRANCH  49  63
ATOM     63  C   UNL A   1      46.415  33.060  28.577  1.00  0.00     0.058 A 
ATOM     64  C   UNL A   1      46.903  33.513  29.813  1.00  0.00     0.135 A 
ATOM     65  C   UNL A   1      46.355  33.985  27.521  1.00  0.00     0.135 A 
ATOM     66  F   UNL A   1      46.967  32.677  30.862  1.00  0.00    -0.206 F 
ATOM     67  C   UNL A   1      47.289  34.836  30.005  1.00  0.00     0.059 A 
ATOM     68  C   UNL A   1      46.765  35.306  27.682  1.00  0.00     0.059 A 
ATOM     69  F   UNL A   1      45.894  33.610  26.317  1.00  0.00    -0.206 F 
ATOM     70  C   UNL A   1      47.219  35.725  28.932  1.00  0.00     0.060 A 
BRANCH  70  71
ATOM     71  S   UNL A   1      47.742  37.432  29.195  1.00  0.00     0.124 S 
ATOM     72  O   UNL A   1      49.169  37.347  28.899  1.00  0.00    -0.237 OA
ATOM     73  O   UNL A   1      46.936  38.158  28.220  1.00  0.00    -0.237 OA
ATOM     74  O   UNL A   1      47.406  37.680  30.593  1.00  0.00    -0.744 OA
ENDBRANCH  70  71
ENDBRANCH  49  63
BRANCH  50  75
ATOM     75  C   UNL A   1      43.280  23.667  27.042  1.00  0.00     0.058 A 
ATOM     76  C   UNL A   1      43.089  22.755  28.091  1.00  0.00     0.135 A 
ATOM     77  C   UNL A   1      43.038  23.215  25.736  1.00  0.00     0.135 A 
ATOM     78  F   UNL A   1      43.315  23.135  29.359  1.00  0.00    -0.206 F 
ATOM     79  C   UNL A   1      42.704  21.439  27.856  1.00  0.00     0.059 A 
ATOM     80  C   UNL A   1      42.631  21.910  25.476  1.00  0.00     0.059 A 
ATOM     81  F   UNL A   1      43.188  24.054  24.697  1.00  0.00    -0.206 F 
ATOM     82  C   UNL A   1      42.475  21.025  26.543  1.00  0.00     0.060 A 
BRANCH  82  83
ATOM     83  S   UNL A   1      41.961  19.316  26.263  1.00  0.00     0.124 S 
ATOM     84  O   UNL A   1      40.513  19.452  26.151  1.00  0.00    -0.237 OA
ATOM     85  O   UNL A   1      42.670  18.990  25.028  1.00  0.00    -0.237 OA
ATOM     86  O   UNL A   1      42.433  18.611  27.450  1.00  0.00    -0.744 OA
ENDBRANCH  82  83
ENDBRANCH  50  75
BRANCH  62  87
ATOM     87  C   UNL A   1      49.429  26.888  26.379  1.00  0.00     0.058 A 
ATOM     88  C   UNL A   1      50.300  26.249  27.275  1.00  0.00     0.135 A 
ATOM     89  C   UNL A   1      49.840  27.013  25.041  1.00  0.00     0.135 A 
ATOM     90  F   UNL A   1      49.958  26.109  28.566  1.00  0.00    -0.206 F 
ATOM     91  C   UNL A   1      51.542  25.775  26.867  1.00  0.00     0.059 A 
ATOM     92  C   UNL A   1      51.062  26.517  24.604  1.00  0.00     0.059 A 
ATOM     93  F   UNL A   1      49.038  27.603  24.140  1.00  0.00    -0.206 F 
ATOM     94  C   UNL A   1      51.913  25.910  25.527  1.00  0.00     0.060 A 
BRANCH  94  95
ATOM     95  S   UNL A   1      53.511  25.258  25.003  1.00  0.00     0.124 S 
ATOM     96  O   UNL A   1      53.350  23.832  25.271  1.00  0.00    -0.237 OA
ATOM     97  O   UNL A   1      53.556  25.637  23.594  1.00  0.00    -0.237 OA
ATOM     98  O   UNL A   1      54.462  25.954  25.863  1.00  0.00    -0.744 OA
ENDBRANCH  94  95
ENDBRANCH  62  87
ENDBRANCH  36  37
ENDBRANCH  28  31
ENDBRANCH  26  27
ENDBRANCH  25  26
ENDBRANCH   1  25
TORSDOF 18
ENDMDL
MODEL 2
REMARK VINA RESULT:     -11.8      6.321      9.193
REMARK SMILES COc1ccc(-c2ccc(C#N)c(S[C@@H](C)C(=O)NCCCNC(=O)c3ccc(-c4c5nc(c(-c6c(F)cc(S(=O)(=O)[O-])cc6F)c6ccc([nH]6)c(-c6c(F)cc(S(=O)(=O)[O-])cc6F)c6nc(c(-c7c(F)cc(S(=O)(=O)[O-])cc7F)c7ccc4[nH]7)C=C6)C=C5)cc3)n2)cc1
REMARK SMILES IDX 20 1 19 2 17 3 18 4 15 6 16 7 14 8 13 9 7 10 8 11 92 12 9 13
REMARK SMILES IDX 10 14 6 15 3 16 4 17 94 18 5 19 93 20 2 21 1 22 11 23 12 24
REMARK SMILES IDX 21 25 22 26 23 27 24 28 25 30 26 31 27 32 91 33 28 34 90 35
REMARK SMILES IDX 29 36 30 37 31 38 84 39 32 40 89 41 83 42 85 43 33 44 88 45
REMARK SMILES IDX 82 46 81 47 34 49 68 50 47 51 67 52 48 53 51 54 66 55 86 56
REMARK SMILES IDX 49 57 50 58 65 60 87 61 52 62 35 63 36 64 45 65 37 66 38 67
REMARK SMILES IDX 44 68 46 69 39 70 40 71 41 72 42 73 43 74 69 75 70 76 79 77
REMARK SMILES IDX 71 78 72 79 78 80 80 81 73 82 74 83 75 84 76 85 77 86 53 87
REMARK SMILES IDX 54 88 63 89 55 90 56 91 62 92 64 93 57 94 58 95 59 96 60 97
REMARK SMILES IDX 61 98
REMARK H PARENT 19 5 23 29 85 48 51 59
REMARK Flexibility Score: inf
ROOT
ATOM      1  C   UNL A   1      31.893  30.917  26.255  1.00  0.00     0.117 C 
ENDROOT
BRANCH   1   2
ATOM      2  N   UNL A   1      31.643  29.832  27.165  1.00  0.00    -0.355 N 
ATOM      3  C   UNL A   1      32.148  28.591  27.314  1.00  0.00     0.233 C 
ATOM      4  O   UNL A   1      31.736  28.003  28.328  1.00  0.00    -0.274 OA
ATOM      5  H   UNL A   1      30.946  30.043  27.828  1.00  0.00     0.163 HD
BRANCH   3   6
ATOM      6  C   UNL A   1      33.220  27.915  26.460  1.00  0.00     0.139 C 
ATOM      7  C   UNL A   1      34.636  28.428  26.656  1.00  0.00     0.030 C 
BRANCH   6   8
ATOM      8  S   UNL A   1      32.793  27.119  24.876  1.00  0.00    -0.092 SA
BRANCH   8   9
ATOM      9  C   UNL A   1      31.060  27.027  24.518  1.00  0.00     0.115 A 
ATOM     10  C   UNL A   1      29.438  28.303  23.359  1.00  0.00     0.072 A 
ATOM     11  C   UNL A   1      28.490  27.306  23.506  1.00  0.00     0.030 A 
ATOM     12  N   UNL A   1      30.708  28.139  23.799  1.00  0.00    -0.240 NA
ATOM     13  C   UNL A   1      28.811  26.206  24.281  1.00  0.00     0.024 A 
ATOM     14  C   UNL A   1      30.087  26.092  24.860  1.00  0.00     0.084 A 
BRANCH  10  15
ATOM     15  C   UNL A   1      29.046  29.644  22.903  1.00  0.00     0.000 A 
ATOM     16  C   UNL A   1      28.205  32.151  21.916  1.00  0.00     0.118 A 
ATOM     17  C   UNL A   1      28.749  32.041  23.198  1.00  0.00     0.047 A 
ATOM     18  C   UNL A   1      28.112  31.025  21.110  1.00  0.00     0.047 A 
ATOM     19  C   UNL A   1      29.149  30.793  23.699  1.00  0.00     0.014 A 
ATOM     20  C   UNL A   1      28.520  29.788  21.605  1.00  0.00     0.014 A 
BRANCH  16  21
ATOM     21  O   UNL A   1      27.831  33.400  21.512  1.00  0.00    -0.497 OA
ATOM     22  C   UNL A   1      27.378  33.470  20.159  1.00  0.00     0.278 C 
ENDBRANCH  16  21
ENDBRANCH  10  15
BRANCH  14  23
ATOM     23  C   UNL A   1      30.255  24.997  25.751  1.00  0.00     0.102 C 
ATOM     24  N   UNL A   1      30.313  24.148  26.547  1.00  0.00    -0.192 NA
ENDBRANCH  14  23
ENDBRANCH   8   9
ENDBRANCH   6   8
ENDBRANCH   3   6
ENDBRANCH   1   2
BRANCH   1  25
ATOM     25  C   UNL A   1      31.542  32.264  26.864  1.00  0.00     0.042 C 
BRANCH  25  26
ATOM     26  C   UNL A   1      32.715  32.954  27.541  1.00  0.00     0.118 C 
BRANCH  26  27
ATOM     27  N   UNL A   1      32.481  34.347  27.897  1.00  0.00    -0.352 N 
ATOM     28  C   UNL A   1      33.130  35.162  28.799  1.00  0.00     0.251 C 
ATOM     29  H   UNL A   1      31.739  34.777  27.414  1.00  0.00     0.163 HD
ATOM     30  O   UNL A   1      32.710  36.305  28.962  1.00  0.00    -0.269 OA
BRANCH  28  31
ATOM     31  C   UNL A   1      34.270  34.665  29.610  1.00  0.00     0.039 A 
ATOM     32  C   UNL A   1      34.018  34.193  30.903  1.00  0.00     0.014 A 
ATOM     33  C   UNL A   1      35.573  34.630  29.115  1.00  0.00     0.014 A 
ATOM     34  C   UNL A   1      35.044  33.595  31.643  1.00  0.00     0.010 A 
ATOM     35  C   UNL A   1      36.557  33.918  29.793  1.00  0.00     0.010 A 
ATOM     36  C   UNL A   1      36.308  33.396  31.068  1.00  0.00    -0.014 A 
BRANCH  36  37
ATOM     37  C   UNL A   1      37.389  32.657  31.773  1.00  0.00     0.031 A 
ATOM     38  C   UNL A   1      37.891  33.152  33.107  1.00  0.00     0.074 A 
ATOM     39  C   UNL A   1      37.982  31.604  31.172  1.00  0.00     0.049 A 
ATOM     40  N   UNL A   1      38.908  32.735  33.816  1.00  0.00    -0.248 NA
ATOM     41  C   UNL A   1      37.183  34.299  33.702  1.00  0.00     0.031 C 
ATOM     42  C   UNL A   1      37.639  31.072  29.849  1.00  0.00     0.029 A 
ATOM     43  N   UNL A   1      39.012  30.798  31.590  1.00  0.00    -0.354 N 
ATOM     44  C   UNL A   1      38.978  33.584  34.916  1.00  0.00     0.074 A 
ATOM     45  C   UNL A   1      37.945  34.580  34.749  1.00  0.00     0.031 C 
ATOM     46  C   UNL A   1      38.420  30.015  29.578  1.00  0.00     0.029 A 
ATOM     47  C   UNL A   1      39.350  29.816  30.685  1.00  0.00     0.049 A 
ATOM     48  H   UNL A   1      39.467  30.911  32.456  1.00  0.00     0.167 HD
ATOM     49  C   UNL A   1      39.808  33.523  35.985  1.00  0.00     0.037 A 
ATOM     50  C   UNL A   1      40.310  28.872  30.738  1.00  0.00     0.037 A 
ATOM     51  C   UNL A   1      40.801  32.498  36.167  1.00  0.00     0.049 A 
ATOM     52  C   UNL A   1      41.200  28.808  31.950  1.00  0.00     0.074 A 
ATOM     53  C   UNL A   1      41.646  32.300  37.244  1.00  0.00     0.029 A 
ATOM     54  N   UNL A   1      41.078  31.493  35.250  1.00  0.00    -0.354 N 
ATOM     55  N   UNL A   1      41.209  29.581  33.012  1.00  0.00    -0.248 NA
ATOM     56  C   UNL A   1      42.209  27.740  31.977  1.00  0.00     0.031 C 
ATOM     57  C   UNL A   1      42.464  31.201  36.961  1.00  0.00     0.029 A 
ATOM     58  C   UNL A   1      42.091  30.681  35.731  1.00  0.00     0.049 A 
ATOM     59  H   UNL A   1      40.621  31.375  34.387  1.00  0.00     0.167 HD
ATOM     60  C   UNL A   1      42.206  29.077  33.841  1.00  0.00     0.074 A 
ATOM     61  C   UNL A   1      42.764  27.923  33.167  1.00  0.00     0.031 C 
ATOM     62  C   UNL A   1      42.623  29.529  35.050  1.00  0.00     0.037 A 
BRANCH  49  63
ATOM     63  C   UNL A   1      39.664  34.578  37.050  1.00  0.00     0.058 A 
ATOM     64  C   UNL A   1      38.845  34.385  38.174  1.00  0.00     0.135 A 
ATOM     65  C   UNL A   1      40.389  35.778  36.970  1.00  0.00     0.135 A 
ATOM     66  F   UNL A   1      38.115  33.264  38.295  1.00  0.00    -0.206 F 
ATOM     67  C   UNL A   1      38.726  35.354  39.165  1.00  0.00     0.059 A 
ATOM     68  C   UNL A   1      40.310  36.749  37.966  1.00  0.00     0.059 A 
ATOM     69  F   UNL A   1      41.187  36.019  35.918  1.00  0.00    -0.206 F 
ATOM     70  C   UNL A   1      39.465  36.532  39.054  1.00  0.00     0.060 A 
BRANCH  70  71
ATOM     71  S   UNL A   1      39.312  37.769  40.360  1.00  0.00     0.124 S 
ATOM     72  O   UNL A   1      38.146  38.523  39.909  1.00  0.00    -0.237 OA
ATOM     73  O   UNL A   1      39.112  36.944  41.547  1.00  0.00    -0.237 OA
ATOM     74  O   UNL A   1      40.582  38.484  40.302  1.00  0.00    -0.744 OA
ENDBRANCH  70  71
ENDBRANCH  49  63
BRANCH  50  75
ATOM     75  C   UNL A   1      40.470  27.896  29.625  1.00  0.00     0.058 A 
ATOM     76  C   UNL A   1      39.622  26.782  29.519  1.00  0.00     0.135 A 
ATOM     77  C   UNL A   1      41.475  28.043  28.658  1.00  0.00     0.135 A 
ATOM     78  F   UNL A   1      38.650  26.592  30.424  1.00  0.00    -0.206 F 
ATOM     79  C   UNL A   1      39.783  25.834  28.514  1.00  0.00     0.059 A 
ATOM     80  C   UNL A   1      41.643  27.119  27.630  1.00  0.00     0.059 A 
ATOM     81  F   UNL A   1      42.301  29.101  28.704  1.00  0.00    -0.206 F 
ATOM     82  C   UNL A   1      40.796  26.012  27.571  1.00  0.00     0.060 A 
BRANCH  82  83
ATOM     83  S   UNL A   1      40.977  24.776  26.266  1.00  0.00     0.124 S 
ATOM     84  O   UNL A   1      41.246  25.609  25.099  1.00  0.00    -0.237 OA
ATOM     85  O   UNL A   1      42.100  23.983  26.759  1.00  0.00    -0.237 OA
ATOM     86  O   UNL A   1      39.691  24.086  26.259  1.00  0.00    -0.744 OA
ENDBRANCH  82  83
ENDBRANCH  50  75
BRANCH  62  87
ATOM     87  C   UNL A   1      43.709  28.751  35.741  1.00  0.00     0.058 A 
ATOM     88  C   UNL A   1      45.063  29.091  35.605  1.00  0.00     0.135 A 
ATOM     89  C   UNL A   1      43.382  27.689  36.600  1.00  0.00     0.135 A 
ATOM     90  F   UNL A   1      45.430  30.095  34.792  1.00  0.00    -0.206 F 
ATOM     91  C   UNL A   1      46.059  28.388  36.274  1.00  0.00     0.059 A 
ATOM     92  C   UNL A   1      44.357  26.993  37.304  1.00  0.00     0.059 A 
ATOM     93  F   UNL A   1      42.099  27.332  36.776  1.00  0.00    -0.206 F 
ATOM     94  C   UNL A   1      45.695  27.342  37.125  1.00  0.00     0.060 A 
BRANCH  94  95
ATOM     95  S   UNL A   1      46.994  26.462  38.016  1.00  0.00     0.124 S 
ATOM     96  O   UNL A   1      46.213  25.586  38.886  1.00  0.00    -0.237 OA
ATOM     97  O   UNL A   1      47.719  25.800  36.936  1.00  0.00    -0.237 OA
ATOM     98  O   UNL A   1      47.725  27.527  38.693  1.00  0.00    -0.744 OA
ENDBRANCH  94  95
ENDBRANCH  62  87
ENDBRANCH  36  37
ENDBRANCH  28  31
ENDBRANCH  26  27
ENDBRANCH  25  26
ENDBRANCH   1  25
TORSDOF 18
ENDMDL
MODEL 3
REMARK VINA RESULT:     -11.6      0.584      8.222
REMARK SMILES COc1ccc(-c2ccc(C#N)c(S[C@@H](C)C(=O)NCCCNC(=O)c3ccc(-c4c5nc(c(-c6c(F)cc(S(=O)(=O)[O-])cc6F)c6ccc([nH]6)c(-c6c(F)cc(S(=O)(=O)[O-])cc6F)c6nc(c(-c7c(F)cc(S(=O)(=O)[O-])cc7F)c7ccc4[nH]7)C=C6)C=C5)cc3)n2)cc1
REMARK SMILES IDX 20 1 19 2 17 3 18 4 15 6 16 7 14 8 13 9 7 10 8 11 92 12 9 13
REMARK SMILES IDX 10 14 6 15 3 16 4 17 94 18 5 19 93 20 2 21 1 22 11 23 12 24
REMARK SMILES IDX 21 25 22 26 23 27 24 28 25 30 26 31 27 32 91 33 28 34 90 35
REMARK SMILES IDX 29 36 30 37 31 38 84 39 32 40 89 41 83 42 85 43 33 44 88 45
REMARK SMILES IDX 82 46 81 47 34 49 68 50 47 51 67 52 48 53 51 54 66 55 86 56
REMARK SMILES IDX 49 57 50 58 65 60 87 61 52 62 35 63 36 64 45 65 37 66 38 67
REMARK SMILES IDX 44 68 46 69 39 70 40 71 41 72 42 73 43 74 69 75 70 76 79 77
REMARK SMILES IDX 71 78 72 79 78 80 80 81 73 82 74 83 75 84 76 85 77 86 53 87
REMARK SMILES IDX 54 88 63 89 55 90 56 91 62 92 64 93 57 94 58 95 59 96 60 97
REMARK SMILES IDX 61 98
REMARK H PARENT 19 5 23 29 85 48 51 59
REMARK Flexibility Score: inf
ROOT
ATOM      1  C   UNL A   1      33.752  30.503  27.037  1.00  0.00     0.117 C 
ENDROOT
BRANCH   1   2
ATOM      2  N   UNL A   1      32.804  29.660  27.714  1.00  0.00    -0.355 N 
ATOM      3  C   UNL A   1      31.940  28.705  27.319  1.00  0.00     0.233 C 
ATOM      4  O   UNL A   1      31.378  28.119  28.259  1.00  0.00    -0.274 OA
ATOM      5  H   UNL A   1      32.780  29.818  28.686  1.00  0.00     0.163 HD
BRANCH   3   6
ATOM      6  C   UNL A   1      31.687  28.214  25.893  1.00  0.00     0.139 C 
ATOM      7  C   UNL A   1      31.159  29.257  24.924  1.00  0.00     0.030 C 
BRANCH   6   8
ATOM      8  S   UNL A   1      31.343  26.456  25.554  1.00  0.00    -0.092 SA
BRANCH   8   9
ATOM      9  C   UNL A   1      32.220  25.766  24.177  1.00  0.00     0.115 A 
ATOM     10  C   UNL A   1      34.009  24.260  23.812  1.00  0.00     0.072 A 
ATOM     11  C   UNL A   1      33.781  24.256  22.448  1.00  0.00     0.030 A 
ATOM     12  N   UNL A   1      33.207  24.949  24.659  1.00  0.00    -0.240 NA
ATOM     13  C   UNL A   1      32.828  25.122  21.940  1.00  0.00     0.024 A 
ATOM     14  C   UNL A   1      32.085  25.945  22.803  1.00  0.00     0.084 A 
BRANCH  10  15
ATOM     15  C   UNL A   1      35.243  23.684  24.365  1.00  0.00     0.000 A 
ATOM     16  C   UNL A   1      37.642  22.515  25.282  1.00  0.00     0.118 A 
ATOM     17  C   UNL A   1      37.048  23.561  25.992  1.00  0.00     0.047 A 
ATOM     18  C   UNL A   1      37.029  22.025  24.137  1.00  0.00     0.047 A 
ATOM     19  C   UNL A   1      35.866  24.157  25.528  1.00  0.00     0.014 A 
ATOM     20  C   UNL A   1      35.850  22.610  23.684  1.00  0.00     0.014 A 
BRANCH  16  21
ATOM     21  O   UNL A   1      38.798  22.001  25.798  1.00  0.00    -0.497 OA
ATOM     22  C   UNL A   1      39.475  22.870  26.707  1.00  0.00     0.278 C 
ENDBRANCH  16  21
ENDBRANCH  10  15
BRANCH  14  23
ATOM     23  C   UNL A   1      31.242  26.894  22.161  1.00  0.00     0.102 C 
ATOM     24  N   UNL A   1      30.539  27.721  21.737  1.00  0.00    -0.192 NA
ENDBRANCH  14  23
ENDBRANCH   8   9
ENDBRANCH   6   8
ENDBRANCH   3   6
ENDBRANCH   1   2
BRANCH   1  25
ATOM     25  C   UNL A   1      34.276  31.610  27.938  1.00  0.00     0.042 C 
BRANCH  25  26
ATOM     26  C   UNL A   1      35.640  31.314  28.541  1.00  0.00     0.118 C 
BRANCH  26  27
ATOM     27  N   UNL A   1      35.606  30.573  29.794  1.00  0.00    -0.352 N 
ATOM     28  C   UNL A   1      36.608  29.914  30.471  1.00  0.00     0.251 C 
ATOM     29  H   UNL A   1      34.723  30.538  30.229  1.00  0.00     0.163 HD
ATOM     30  O   UNL A   1      36.318  29.309  31.501  1.00  0.00    -0.269 OA
BRANCH  28  31
ATOM     31  C   UNL A   1      37.997  29.870  29.949  1.00  0.00     0.039 A 
ATOM     32  C   UNL A   1      39.056  29.842  30.862  1.00  0.00     0.014 A 
ATOM     33  C   UNL A   1      38.275  29.827  28.584  1.00  0.00     0.014 A 
ATOM     34  C   UNL A   1      40.368  29.665  30.409  1.00  0.00     0.010 A 
ATOM     35  C   UNL A   1      39.556  29.517  28.143  1.00  0.00     0.010 A 
ATOM     36  C   UNL A   1      40.622  29.437  29.048  1.00  0.00    -0.014 A 
BRANCH  36  37
ATOM     37  C   UNL A   1      41.984  29.123  28.539  1.00  0.00     0.031 A 
ATOM     38  C   UNL A   1      42.308  27.725  28.071  1.00  0.00     0.074 A 
ATOM     39  C   UNL A   1      42.950  30.064  28.589  1.00  0.00     0.049 A 
ATOM     40  N   UNL A   1      43.460  27.215  27.723  1.00  0.00    -0.248 NA
ATOM     41  C   UNL A   1      41.195  26.760  28.036  1.00  0.00     0.031 C 
ATOM     42  C   UNL A   1      42.783  31.432  29.090  1.00  0.00     0.029 A 
ATOM     43  N   UNL A   1      44.273  30.008  28.227  1.00  0.00    -0.354 N 
ATOM     44  C   UNL A   1      43.216  25.871  27.459  1.00  0.00     0.074 A 
ATOM     45  C   UNL A   1      41.822  25.628  27.751  1.00  0.00     0.031 C 
ATOM     46  C   UNL A   1      43.947  32.092  28.975  1.00  0.00     0.029 A 
ATOM     47  C   UNL A   1      44.955  31.187  28.435  1.00  0.00     0.049 A 
ATOM     48  H   UNL A   1      44.696  29.202  27.853  1.00  0.00     0.167 HD
ATOM     49  C   UNL A   1      44.068  24.930  26.985  1.00  0.00     0.037 A 
ATOM     50  C   UNL A   1      46.249  31.496  28.225  1.00  0.00     0.037 A 
ATOM     51  C   UNL A   1      45.442  25.194  26.650  1.00  0.00     0.049 A 
ATOM     52  C   UNL A   1      47.169  30.440  27.673  1.00  0.00     0.074 A 
ATOM     53  C   UNL A   1      46.373  24.332  26.097  1.00  0.00     0.029 A 
ATOM     54  N   UNL A   1      46.080  26.413  26.829  1.00  0.00    -0.354 N 
ATOM     55  N   UNL A   1      46.904  29.191  27.367  1.00  0.00    -0.248 NA
ATOM     56  C   UNL A   1      48.563  30.835  27.429  1.00  0.00     0.031 C 
ATOM     57  C   UNL A   1      47.587  25.017  25.982  1.00  0.00     0.029 A 
ATOM     58  C   UNL A   1      47.398  26.322  26.412  1.00  0.00     0.049 A 
ATOM     59  H   UNL A   1      45.659  27.222  27.197  1.00  0.00     0.167 HD
ATOM     60  C   UNL A   1      48.091  28.660  26.874  1.00  0.00     0.074 A 
ATOM     61  C   UNL A   1      49.069  29.728  26.904  1.00  0.00     0.031 C 
ATOM     62  C   UNL A   1      48.351  27.402  26.438  1.00  0.00     0.037 A 
BRANCH  49  63
ATOM     63  C   UNL A   1      43.535  23.536  26.781  1.00  0.00     0.058 A 
ATOM     64  C   UNL A   1      43.275  23.026  25.499  1.00  0.00     0.135 A 
ATOM     65  C   UNL A   1      43.325  22.683  27.878  1.00  0.00     0.135 A 
ATOM     66  F   UNL A   1      43.441  23.801  24.416  1.00  0.00    -0.206 F 
ATOM     67  C   UNL A   1      42.799  21.732  25.312  1.00  0.00     0.059 A 
ATOM     68  C   UNL A   1      42.879  21.374  27.712  1.00  0.00     0.059 A 
ATOM     69  F   UNL A   1      43.555  23.117  29.127  1.00  0.00    -0.206 F 
ATOM     70  C   UNL A   1      42.606  20.912  26.425  1.00  0.00     0.060 A 
BRANCH  70  71
ATOM     71  S   UNL A   1      42.006  19.231  26.159  1.00  0.00     0.124 S 
ATOM     72  O   UNL A   1      42.743  18.846  24.960  1.00  0.00    -0.237 OA
ATOM     73  O   UNL A   1      42.408  18.560  27.392  1.00  0.00    -0.237 OA
ATOM     74  O   UNL A   1      40.569  19.406  25.983  1.00  0.00    -0.744 OA
ENDBRANCH  70  71
ENDBRANCH  49  63
BRANCH  50  75
ATOM     75  C   UNL A   1      46.754  32.866  28.515  1.00  0.00     0.058 A 
ATOM     76  C   UNL A   1      46.683  33.878  27.545  1.00  0.00     0.135 A 
ATOM     77  C   UNL A   1      47.328  33.191  29.753  1.00  0.00     0.135 A 
ATOM     78  F   UNL A   1      46.150  33.616  26.342  1.00  0.00    -0.206 F 
ATOM     79  C   UNL A   1      47.190  35.152  27.780  1.00  0.00     0.059 A 
ATOM     80  C   UNL A   1      47.823  34.465  30.020  1.00  0.00     0.059 A 
ATOM     81  F   UNL A   1      47.403  32.264  30.723  1.00  0.00    -0.206 F 
ATOM     82  C   UNL A   1      47.757  35.438  29.023  1.00  0.00     0.060 A 
BRANCH  82  83
ATOM     83  S   UNL A   1      48.395  37.103  29.309  1.00  0.00     0.124 S 
ATOM     84  O   UNL A   1      49.835  36.892  29.227  1.00  0.00    -0.237 OA
ATOM     85  O   UNL A   1      47.792  37.847  28.206  1.00  0.00    -0.237 OA
ATOM     86  O   UNL A   1      47.888  37.447  30.634  1.00  0.00    -0.744 OA
ENDBRANCH  82  83
ENDBRANCH  50  75
BRANCH  62  87
ATOM     87  C   UNL A   1      49.733  27.121  25.919  1.00  0.00     0.058 A 
ATOM     88  C   UNL A   1      50.736  26.584  26.740  1.00  0.00     0.135 A 
ATOM     89  C   UNL A   1      50.040  27.339  24.565  1.00  0.00     0.135 A 
ATOM     90  F   UNL A   1      50.497  26.362  28.042  1.00  0.00    -0.206 F 
ATOM     91  C   UNL A   1      52.003  26.296  26.244  1.00  0.00     0.059 A 
ATOM     92  C   UNL A   1      51.288  27.029  24.040  1.00  0.00     0.059 A 
ATOM     93  F   UNL A   1      49.111  27.839  23.734  1.00  0.00    -0.206 F 
ATOM     94  C   UNL A   1      52.269  26.518  24.890  1.00  0.00     0.060 A 
BRANCH  94  95
ATOM     95  S   UNL A   1      53.905  26.106  24.252  1.00  0.00     0.124 S 
ATOM     96  O   UNL A   1      53.634  25.951  22.826  1.00  0.00    -0.237 OA
ATOM     97  O   UNL A   1      54.690  27.279  24.624  1.00  0.00    -0.237 OA
ATOM     98  O   UNL A   1      54.249  24.879  24.962  1.00  0.00    -0.744 OA
ENDBRANCH  94  95
ENDBRANCH  62  87
ENDBRANCH  36  37
ENDBRANCH  28  31
ENDBRANCH  26  27
ENDBRANCH  25  26
ENDBRANCH   1  25
TORSDOF 18
ENDMDL
