MODEL 1
REMARK VINA RESULT:     -12.6      0.000      0.000
REMARK SMILES O=C(NCCCNC(=O)c1cc(-c2ccc(F)c(C(F)(F)F)c2)cnc1O)c1ccc(-c2c3nc(c(-c4c(F)cc(S(=O)(=O)[O-])cc4F)c4ccc([nH]4)c(-c4c(F)cc(S(=O)(=O)[O-])cc4F)c4nc(c(-c5c(F)cc(S(=O)(=O)[O-])cc5F)c5ccc2[nH]5)C=C4)C=C3)cc1
REMARK SMILES IDX 4 1 3 2 1 3 2 4 28 6 29 7 93 8 30 9 92 10 31 11 32 12 33 13
REMARK SMILES IDX 86 14 34 15 91 16 85 17 87 18 35 19 90 20 84 21 83 22 36 24
REMARK SMILES IDX 70 25 49 26 69 27 50 28 53 29 68 30 88 31 51 32 52 33 67 35
REMARK SMILES IDX 89 36 54 37 37 38 38 39 47 40 39 41 40 42 46 43 48 44 41 45
REMARK SMILES IDX 42 46 43 47 44 48 45 49 71 50 72 51 81 52 73 53 74 54 80 55
REMARK SMILES IDX 82 56 75 57 76 58 77 59 78 60 79 61 55 62 56 63 65 64 57 65
REMARK SMILES IDX 58 66 64 67 66 68 59 69 60 70 61 71 62 72 63 73 5 74 6 75
REMARK SMILES IDX 7 76 8 77 9 79 10 80 11 81 26 82 12 83 25 84 24 85 27 86
REMARK SMILES IDX 13 88 14 89 23 90 15 91 18 92 16 93 17 94 19 95 20 96 21 97
REMARK SMILES IDX 22 98
REMARK H PARENT 3 5 87 23 53 34 7 78 27 87
REMARK Flexibility Score: inf
ROOT
ATOM      1  C   UNL A   1      33.437  28.499  27.240  1.00  0.00     0.118 C 
ENDROOT
BRANCH   1   2
ATOM      2  N   UNL A   1      33.433  29.905  27.612  1.00  0.00    -0.352 N 
ATOM      3  O   UNL A   1      34.087  31.790  28.631  1.00  0.00    -0.269 OA
ATOM      4  C   UNL A   1      34.394  30.673  28.221  1.00  0.00     0.251 C 
ATOM      5  H   UNL A   1      32.602  30.386  27.390  1.00  0.00     0.163 HD
BRANCH   4   6
ATOM      6  C   UNL A   1      35.777  30.177  28.390  1.00  0.00     0.039 A 
ATOM      7  C   UNL A   1      36.170  29.683  29.638  1.00  0.00     0.014 A 
ATOM      8  C   UNL A   1      36.712  30.264  27.355  1.00  0.00     0.014 A 
ATOM      9  C   UNL A   1      37.487  29.259  29.839  1.00  0.00     0.010 A 
ATOM     10  C   UNL A   1      37.993  29.748  27.525  1.00  0.00     0.010 A 
ATOM     11  C   UNL A   1      38.408  29.281  28.780  1.00  0.00    -0.014 A 
BRANCH  11  12
ATOM     12  C   UNL A   1      39.836  28.930  28.982  1.00  0.00     0.031 A 
ATOM     13  C   UNL A   1      40.774  29.964  29.554  1.00  0.00     0.074 A 
ATOM     14  C   UNL A   1      40.302  27.717  28.627  1.00  0.00     0.049 A 
ATOM     15  N   UNL A   1      42.070  29.911  29.713  1.00  0.00    -0.248 NA
ATOM     16  C   UNL A   1      40.172  31.243  29.976  1.00  0.00     0.031 C 
ATOM     17  C   UNL A   1      39.499  26.638  28.052  1.00  0.00     0.029 A 
ATOM     18  N   UNL A   1      41.567  27.191  28.698  1.00  0.00    -0.354 N 
ATOM     19  C   UNL A   1      42.437  31.148  30.232  1.00  0.00     0.074 A 
ATOM     20  C   UNL A   1      41.241  31.955  30.297  1.00  0.00     0.031 C 
ATOM     21  C   UNL A   1      40.285  25.567  27.852  1.00  0.00     0.029 A 
ATOM     22  C   UNL A   1      41.653  25.897  28.242  1.00  0.00     0.049 A 
ATOM     23  H   UNL A   1      42.340  27.693  29.042  1.00  0.00     0.167 HD
ATOM     24  C   UNL A   1      43.656  31.564  30.651  1.00  0.00     0.037 A 
ATOM     25  C   UNL A   1      42.717  25.075  28.145  1.00  0.00     0.037 A 
ATOM     26  C   UNL A   1      44.835  30.741  30.627  1.00  0.00     0.049 A 
ATOM     27  C   UNL A   1      44.068  25.568  28.590  1.00  0.00     0.074 A 
ATOM     28  C   UNL A   1      46.109  31.051  31.068  1.00  0.00     0.029 A 
ATOM     29  N   UNL A   1      44.883  29.441  30.144  1.00  0.00    -0.354 N 
ATOM     30  N   UNL A   1      44.394  26.733  29.098  1.00  0.00    -0.248 NA
ATOM     31  C   UNL A   1      45.195  24.638  28.444  1.00  0.00     0.031 C 
ATOM     32  C   UNL A   1      46.937  29.954  30.815  1.00  0.00     0.029 A 
ATOM     33  C   UNL A   1      46.170  28.943  30.258  1.00  0.00     0.049 A 
ATOM     34  H   UNL A   1      44.116  28.947  29.775  1.00  0.00     0.167 HD
ATOM     35  C   UNL A   1      45.761  26.669  29.348  1.00  0.00     0.074 A 
ATOM     36  C   UNL A   1      46.195  25.345  28.954  1.00  0.00     0.031 C 
ATOM     37  C   UNL A   1      46.584  27.621  29.855  1.00  0.00     0.037 A 
BRANCH  24  38
ATOM     38  C   UNL A   1      43.769  32.964  31.188  1.00  0.00     0.058 A 
ATOM     39  C   UNL A   1      44.077  34.050  30.352  1.00  0.00     0.135 A 
ATOM     40  C   UNL A   1      43.538  33.231  32.548  1.00  0.00     0.135 A 
ATOM     41  F   UNL A   1      44.328  33.850  29.049  1.00  0.00    -0.206 F 
ATOM     42  C   UNL A   1      44.178  35.345  30.848  1.00  0.00     0.059 A 
ATOM     43  C   UNL A   1      43.603  34.525  33.059  1.00  0.00     0.059 A 
ATOM     44  F   UNL A   1      43.244  32.231  33.393  1.00  0.00    -0.206 F 
ATOM     45  C   UNL A   1      43.937  35.573  32.204  1.00  0.00     0.060 A 
BRANCH  45  46
ATOM     46  S   UNL A   1      44.063  37.263  32.825  1.00  0.00     0.124 S 
ATOM     47  O   UNL A   1      45.406  37.263  33.397  1.00  0.00    -0.237 OA
ATOM     48  O   UNL A   1      43.892  38.053  31.610  1.00  0.00    -0.237 OA
ATOM     49  O   UNL A   1      42.971  37.354  33.789  1.00  0.00    -0.744 OA
ENDBRANCH  45  46
ENDBRANCH  24  38
BRANCH  25  50
ATOM     50  C   UNL A   1      42.537  23.691  27.630  1.00  0.00     0.058 A 
ATOM     51  C   UNL A   1      42.569  23.431  26.252  1.00  0.00     0.135 A 
ATOM     52  C   UNL A   1      42.362  22.602  28.496  1.00  0.00     0.135 A 
ATOM     53  F   UNL A   1      42.724  24.440  25.382  1.00  0.00    -0.206 F 
ATOM     54  C   UNL A   1      42.431  22.141  25.750  1.00  0.00     0.059 A 
ATOM     55  C   UNL A   1      42.244  21.299  28.020  1.00  0.00     0.059 A 
ATOM     56  F   UNL A   1      42.335  22.795  29.824  1.00  0.00    -0.206 F 
ATOM     57  C   UNL A   1      42.276  21.080  26.644  1.00  0.00     0.060 A 
BRANCH  57  58
ATOM     58  S   UNL A   1      42.166  19.404  25.981  1.00  0.00     0.124 S 
ATOM     59  O   UNL A   1      43.016  19.496  24.799  1.00  0.00    -0.237 OA
ATOM     60  O   UNL A   1      42.692  18.605  27.084  1.00  0.00    -0.237 OA
ATOM     61  O   UNL A   1      40.740  19.237  25.721  1.00  0.00    -0.744 OA
ENDBRANCH  57  58
ENDBRANCH  25  50
BRANCH  37  62
ATOM     62  C   UNL A   1      48.036  27.270  30.019  1.00  0.00     0.058 A 
ATOM     63  C   UNL A   1      48.981  27.586  29.032  1.00  0.00     0.135 A 
ATOM     64  C   UNL A   1      48.498  26.675  31.206  1.00  0.00     0.135 A 
ATOM     65  F   UNL A   1      48.591  28.149  27.877  1.00  0.00    -0.206 F 
ATOM     66  C   UNL A   1      50.333  27.309  29.206  1.00  0.00     0.059 A 
ATOM     67  C   UNL A   1      49.850  26.416  31.412  1.00  0.00     0.059 A 
ATOM     68  F   UNL A   1      47.637  26.366  32.187  1.00  0.00    -0.206 F 
ATOM     69  C   UNL A   1      50.758  26.728  30.402  1.00  0.00     0.060 A 
BRANCH  69  70
ATOM     70  S   UNL A   1      52.521  26.412  30.627  1.00  0.00     0.124 S 
ATOM     71  O   UNL A   1      52.960  27.643  31.276  1.00  0.00    -0.237 OA
ATOM     72  O   UNL A   1      52.518  25.218  31.466  1.00  0.00    -0.237 OA
ATOM     73  O   UNL A   1      53.008  26.214  29.265  1.00  0.00    -0.744 OA
ENDBRANCH  69  70
ENDBRANCH  37  62
ENDBRANCH  11  12
ENDBRANCH   4   6
ENDBRANCH   1   2
BRANCH   1  74
ATOM     74  C   UNL A   1      33.758  28.284  25.768  1.00  0.00     0.042 C 
BRANCH  74  75
ATOM     75  C   UNL A   1      32.991  29.199  24.825  1.00  0.00     0.118 C 
BRANCH  75  76
ATOM     76  N   UNL A   1      33.592  29.259  23.495  1.00  0.00    -0.352 N 
ATOM     77  C   UNL A   1      33.690  28.271  22.550  1.00  0.00     0.256 C 
ATOM     78  H   UNL A   1      33.980  30.128  23.241  1.00  0.00     0.163 HD
ATOM     79  O   UNL A   1      34.414  28.413  21.567  1.00  0.00    -0.269 OA
BRANCH  77  80
ATOM     80  C   UNL A   1      32.905  27.042  22.701  1.00  0.00     0.102 A 
ATOM     81  C   UNL A   1      33.552  25.875  23.119  1.00  0.00     0.029 A 
ATOM     82  C   UNL A   1      31.546  26.990  22.410  1.00  0.00     0.223 A 
ATOM     83  C   UNL A   1      32.811  24.702  23.299  1.00  0.00     0.001 A 
ATOM     84  N   UNL A   1      30.796  25.891  22.601  1.00  0.00    -0.221 NA
ATOM     85  C   UNL A   1      31.439  24.788  23.049  1.00  0.00     0.124 A 
BRANCH  82  86
ATOM     86  O   UNL A   1      30.841  28.050  21.913  1.00  0.00    -0.493 OA
ATOM     87  H   UNL A   1      30.786  28.846  22.403  1.00  0.00     0.295 HD
ENDBRANCH  82  86
BRANCH  83  88
ATOM     88  C   UNL A   1      33.431  23.435  23.703  1.00  0.00    -0.016 A 
ATOM     89  C   UNL A   1      32.654  22.267  23.794  1.00  0.00     0.012 A 
ATOM     90  C   UNL A   1      34.798  23.352  24.027  1.00  0.00     0.025 A 
ATOM     91  C   UNL A   1      33.217  21.061  24.210  1.00  0.00     0.040 A 
ATOM     92  C   UNL A   1      35.372  22.140  24.450  1.00  0.00     0.092 A 
ATOM     93  C   UNL A   1      34.566  21.010  24.538  1.00  0.00     0.135 A 
ATOM     94  F   UNL A   1      35.082  19.845  24.952  1.00  0.00    -0.206 F 
BRANCH  92  95
ATOM     95  C   UNL A   1      36.817  22.033  24.838  1.00  0.00     0.419 C 
ATOM     96  F   UNL A   1      37.488  23.206  24.688  1.00  0.00    -0.166 F 
ATOM     97  F   UNL A   1      36.995  21.652  26.133  1.00  0.00    -0.166 F 
ATOM     98  F   UNL A   1      37.500  21.119  24.091  1.00  0.00    -0.166 F 
ENDBRANCH  92  95
ENDBRANCH  83  88
ENDBRANCH  77  80
ENDBRANCH  75  76
ENDBRANCH  74  75
ENDBRANCH   1  74
TORSDOF 16
ENDMDL
MODEL 2
REMARK VINA RESULT:     -12.1      5.195     10.719
REMARK SMILES O=C(NCCCNC(=O)c1cc(-c2ccc(F)c(C(F)(F)F)c2)cnc1O)c1ccc(-c2c3nc(c(-c4c(F)cc(S(=O)(=O)[O-])cc4F)c4ccc([nH]4)c(-c4c(F)cc(S(=O)(=O)[O-])cc4F)c4nc(c(-c5c(F)cc(S(=O)(=O)[O-])cc5F)c5ccc2[nH]5)C=C4)C=C3)cc1
REMARK SMILES IDX 4 1 3 2 1 3 2 4 28 6 29 7 93 8 30 9 92 10 31 11 32 12 33 13
REMARK SMILES IDX 86 14 34 15 91 16 85 17 87 18 35 19 90 20 84 21 83 22 36 24
REMARK SMILES IDX 70 25 49 26 69 27 50 28 53 29 68 30 88 31 51 32 52 33 67 35
REMARK SMILES IDX 89 36 54 37 37 38 38 39 47 40 39 41 40 42 46 43 48 44 41 45
REMARK SMILES IDX 42 46 43 47 44 48 45 49 71 50 72 51 81 52 73 53 74 54 80 55
REMARK SMILES IDX 82 56 75 57 76 58 77 59 78 60 79 61 55 62 56 63 65 64 57 65
REMARK SMILES IDX 58 66 64 67 66 68 59 69 60 70 61 71 62 72 63 73 5 74 6 75
REMARK SMILES IDX 7 76 8 77 9 79 10 80 11 81 26 82 12 83 25 84 24 85 27 86
REMARK SMILES IDX 13 88 14 89 23 90 15 91 18 92 16 93 17 94 19 95 20 96 21 97
REMARK SMILES IDX 22 98
REMARK H PARENT 3 5 87 23 53 34 7 78 27 87
REMARK Flexibility Score: inf
ROOT
ATOM      1  C   UNL A   1      38.641  23.851  26.453  1.00  0.00     0.118 C 
ENDROOT
BRANCH   1   2
ATOM      2  N   UNL A   1      40.074  23.770  26.215  1.00  0.00    -0.352 N 
ATOM      3  O   UNL A   1      42.205  24.450  26.097  1.00  0.00    -0.269 OA
ATOM      4  C   UNL A   1      41.093  24.607  26.596  1.00  0.00     0.251 C 
ATOM      5  H   UNL A   1      40.361  22.985  25.694  1.00  0.00     0.163 HD
BRANCH   4   6
ATOM      6  C   UNL A   1      40.871  25.683  27.587  1.00  0.00     0.039 A 
ATOM      7  C   UNL A   1      41.732  26.784  27.593  1.00  0.00     0.014 A 
ATOM      8  C   UNL A   1      39.871  25.582  28.558  1.00  0.00     0.014 A 
ATOM      9  C   UNL A   1      41.578  27.787  28.554  1.00  0.00     0.010 A 
ATOM     10  C   UNL A   1      39.653  26.628  29.448  1.00  0.00     0.010 A 
ATOM     11  C   UNL A   1      40.530  27.721  29.486  1.00  0.00    -0.014 A 
BRANCH  11  12
ATOM     12  C   UNL A   1      40.395  28.717  30.578  1.00  0.00     0.031 A 
ATOM     13  C   UNL A   1      41.296  28.614  31.784  1.00  0.00     0.074 A 
ATOM     14  C   UNL A   1      39.456  29.681  30.515  1.00  0.00     0.049 A 
ATOM     15  N   UNL A   1      41.278  29.304  32.893  1.00  0.00    -0.248 NA
ATOM     16  C   UNL A   1      42.337  27.571  31.745  1.00  0.00     0.031 C 
ATOM     17  C   UNL A   1      38.517  29.877  29.411  1.00  0.00     0.029 A 
ATOM     18  N   UNL A   1      39.138  30.677  31.404  1.00  0.00    -0.354 N 
ATOM     19  C   UNL A   1      42.288  28.768  33.687  1.00  0.00     0.074 A 
ATOM     20  C   UNL A   1      42.852  27.653  32.962  1.00  0.00     0.031 C 
ATOM     21  C   UNL A   1      37.750  30.948  29.673  1.00  0.00     0.029 A 
ATOM     22  C   UNL A   1      38.111  31.487  30.981  1.00  0.00     0.049 A 
ATOM     23  H   UNL A   1      39.602  30.799  32.264  1.00  0.00     0.167 HD
ATOM     24  C   UNL A   1      42.730  29.188  34.895  1.00  0.00     0.037 A 
ATOM     25  C   UNL A   1      37.525  32.540  31.586  1.00  0.00     0.037 A 
ATOM     26  C   UNL A   1      42.195  30.327  35.592  1.00  0.00     0.049 A 
ATOM     27  C   UNL A   1      38.014  32.972  32.942  1.00  0.00     0.074 A 
ATOM     28  C   UNL A   1      42.601  30.864  36.801  1.00  0.00     0.029 A 
ATOM     29  N   UNL A   1      41.146  31.113  35.137  1.00  0.00    -0.354 N 
ATOM     30  N   UNL A   1      38.984  32.468  33.669  1.00  0.00    -0.248 NA
ATOM     31  C   UNL A   1      37.327  34.113  33.563  1.00  0.00     0.031 C 
ATOM     32  C   UNL A   1      41.770  31.948  37.097  1.00  0.00     0.029 A 
ATOM     33  C   UNL A   1      40.877  32.116  36.051  1.00  0.00     0.049 A 
ATOM     34  H   UNL A   1      40.664  30.975  34.289  1.00  0.00     0.167 HD
ATOM     35  C   UNL A   1      39.033  33.241  34.825  1.00  0.00     0.074 A 
ATOM     36  C   UNL A   1      38.011  34.257  34.691  1.00  0.00     0.031 C 
ATOM     37  C   UNL A   1      39.850  33.118  35.901  1.00  0.00     0.037 A 
BRANCH  24  38
ATOM     38  C   UNL A   1      43.859  28.424  35.530  1.00  0.00     0.058 A 
ATOM     39  C   UNL A   1      43.620  27.367  36.424  1.00  0.00     0.135 A 
ATOM     40  C   UNL A   1      45.195  28.728  35.219  1.00  0.00     0.135 A 
ATOM     41  F   UNL A   1      42.364  27.047  36.773  1.00  0.00    -0.206 F 
ATOM     42  C   UNL A   1      44.664  26.658  37.009  1.00  0.00     0.059 A 
ATOM     43  C   UNL A   1      46.254  28.010  35.769  1.00  0.00     0.059 A 
ATOM     44  F   UNL A   1      45.481  29.730  34.374  1.00  0.00    -0.206 F 
ATOM     45  C   UNL A   1      45.978  26.986  36.673  1.00  0.00     0.060 A 
BRANCH  45  46
ATOM     46  S   UNL A   1      47.318  26.046  37.434  1.00  0.00     0.124 S 
ATOM     47  O   UNL A   1      47.521  26.784  38.677  1.00  0.00    -0.237 OA
ATOM     48  O   UNL A   1      46.725  24.720  37.575  1.00  0.00    -0.237 OA
ATOM     49  O   UNL A   1      48.401  26.146  36.461  1.00  0.00    -0.744 OA
ENDBRANCH  45  46
ENDBRANCH  24  38
BRANCH  25  50
ATOM     50  C   UNL A   1      36.430  33.273  30.896  1.00  0.00     0.058 A 
ATOM     51  C   UNL A   1      35.107  33.180  31.354  1.00  0.00     0.135 A 
ATOM     52  C   UNL A   1      36.682  34.099  29.791  1.00  0.00     0.135 A 
ATOM     53  F   UNL A   1      34.814  32.394  32.401  1.00  0.00    -0.206 F 
ATOM     54  C   UNL A   1      34.073  33.878  30.741  1.00  0.00     0.059 A 
ATOM     55  C   UNL A   1      35.667  34.827  29.174  1.00  0.00     0.059 A 
ATOM     56  F   UNL A   1      37.932  34.231  29.320  1.00  0.00    -0.206 F 
ATOM     57  C   UNL A   1      34.365  34.706  29.655  1.00  0.00     0.060 A 
BRANCH  57  58
ATOM     58  S   UNL A   1      33.022  35.658  28.912  1.00  0.00     0.124 S 
ATOM     59  O   UNL A   1      32.360  34.648  28.094  1.00  0.00    -0.237 OA
ATOM     60  O   UNL A   1      32.284  36.111  30.088  1.00  0.00    -0.237 OA
ATOM     61  O   UNL A   1      33.720  36.708  28.177  1.00  0.00    -0.744 OA
ENDBRANCH  57  58
ENDBRANCH  25  50
BRANCH  37  62
ATOM     62  C   UNL A   1      39.678  34.108  37.020  1.00  0.00     0.058 A 
ATOM     63  C   UNL A   1      39.001  33.767  38.200  1.00  0.00     0.135 A 
ATOM     64  C   UNL A   1      40.258  35.385  36.940  1.00  0.00     0.135 A 
ATOM     65  F   UNL A   1      38.425  32.560  38.326  1.00  0.00    -0.206 F 
ATOM     66  C   UNL A   1      38.888  34.664  39.257  1.00  0.00     0.059 A 
ATOM     67  C   UNL A   1      40.182  36.288  37.997  1.00  0.00     0.059 A 
ATOM     68  F   UNL A   1      40.928  35.756  35.838  1.00  0.00    -0.206 F 
ATOM     69  C   UNL A   1      39.487  35.920  39.148  1.00  0.00     0.060 A 
BRANCH  69  70
ATOM     70  S   UNL A   1      39.363  37.057  40.544  1.00  0.00     0.124 S 
ATOM     71  O   UNL A   1      40.757  37.154  40.968  1.00  0.00    -0.237 OA
ATOM     72  O   UNL A   1      38.805  38.254  39.922  1.00  0.00    -0.237 OA
ATOM     73  O   UNL A   1      38.473  36.365  41.470  1.00  0.00    -0.744 OA
ENDBRANCH  69  70
ENDBRANCH  37  62
ENDBRANCH  11  12
ENDBRANCH   4   6
ENDBRANCH   1   2
BRANCH   1  74
ATOM     74  C   UNL A   1      37.865  22.765  25.721  1.00  0.00     0.042 C 
BRANCH  74  75
ATOM     75  C   UNL A   1      36.713  23.287  24.876  1.00  0.00     0.118 C 
BRANCH  75  76
ATOM     76  N   UNL A   1      35.444  22.640  25.202  1.00  0.00    -0.352 N 
ATOM     77  C   UNL A   1      34.174  23.148  25.125  1.00  0.00     0.256 C 
ATOM     78  H   UNL A   1      35.511  21.710  25.520  1.00  0.00     0.163 HD
ATOM     79  O   UNL A   1      33.229  22.554  25.639  1.00  0.00    -0.269 OA
BRANCH  77  80
ATOM     80  C   UNL A   1      33.936  24.401  24.403  1.00  0.00     0.102 A 
ATOM     81  C   UNL A   1      33.669  25.563  25.134  1.00  0.00     0.029 A 
ATOM     82  C   UNL A   1      33.935  24.466  23.013  1.00  0.00     0.223 A 
ATOM     83  C   UNL A   1      33.472  26.772  24.461  1.00  0.00     0.001 A 
ATOM     84  N   UNL A   1      33.781  25.615  22.333  1.00  0.00    -0.221 NA
ATOM     85  C   UNL A   1      33.568  26.732  23.066  1.00  0.00     0.124 A 
BRANCH  82  86
ATOM     86  O   UNL A   1      34.098  23.375  22.208  1.00  0.00    -0.493 OA
ATOM     87  H   UNL A   1      34.843  22.818  22.319  1.00  0.00     0.295 HD
ENDBRANCH  82  86
BRANCH  83  88
ATOM     88  C   UNL A   1      33.156  28.021  25.164  1.00  0.00    -0.016 A 
ATOM     89  C   UNL A   1      31.968  28.714  24.870  1.00  0.00     0.012 A 
ATOM     90  C   UNL A   1      34.025  28.567  26.125  1.00  0.00     0.025 A 
ATOM     91  C   UNL A   1      31.666  29.920  25.502  1.00  0.00     0.040 A 
ATOM     92  C   UNL A   1      33.729  29.784  26.765  1.00  0.00     0.092 A 
ATOM     93  C   UNL A   1      32.549  30.445  26.437  1.00  0.00     0.135 A 
ATOM     94  F   UNL A   1      32.247  31.613  27.019  1.00  0.00    -0.206 F 
BRANCH  92  95
ATOM     95  C   UNL A   1      34.655  30.408  27.766  1.00  0.00     0.419 C 
ATOM     96  F   UNL A   1      35.292  29.484  28.536  1.00  0.00    -0.166 F 
ATOM     97  F   UNL A   1      35.629  31.165  27.191  1.00  0.00    -0.166 F 
ATOM     98  F   UNL A   1      34.014  31.237  28.638  1.00  0.00    -0.166 F 
ENDBRANCH  92  95
ENDBRANCH  83  88
ENDBRANCH  77  80
ENDBRANCH  75  76
ENDBRANCH  74  75
ENDBRANCH   1  74
TORSDOF 16
ENDMDL
MODEL 3
REMARK VINA RESULT:     -12.1      1.353      2.309
REMARK SMILES O=C(NCCCNC(=O)c1cc(-c2ccc(F)c(C(F)(F)F)c2)cnc1O)c1ccc(-c2c3nc(c(-c4c(F)cc(S(=O)(=O)[O-])cc4F)c4ccc([nH]4)c(-c4c(F)cc(S(=O)(=O)[O-])cc4F)c4nc(c(-c5c(F)cc(S(=O)(=O)[O-])cc5F)c5ccc2[nH]5)C=C4)C=C3)cc1
REMARK SMILES IDX 4 1 3 2 1 3 2 4 28 6 29 7 93 8 30 9 92 10 31 11 32 12 33 13
REMARK SMILES IDX 86 14 34 15 91 16 85 17 87 18 35 19 90 20 84 21 83 22 36 24
REMARK SMILES IDX 70 25 49 26 69 27 50 28 53 29 68 30 88 31 51 32 52 33 67 35
REMARK SMILES IDX 89 36 54 37 37 38 38 39 47 40 39 41 40 42 46 43 48 44 41 45
REMARK SMILES IDX 42 46 43 47 44 48 45 49 71 50 72 51 81 52 73 53 74 54 80 55
REMARK SMILES IDX 82 56 75 57 76 58 77 59 78 60 79 61 55 62 56 63 65 64 57 65
REMARK SMILES IDX 58 66 64 67 66 68 59 69 60 70 61 71 62 72 63 73 5 74 6 75
REMARK SMILES IDX 7 76 8 77 9 79 10 80 11 81 26 82 12 83 25 84 24 85 27 86
REMARK SMILES IDX 13 88 14 89 23 90 15 91 18 92 16 93 17 94 19 95 20 96 21 97
REMARK SMILES IDX 22 98
REMARK H PARENT 3 5 87 23 53 34 7 78 27 87
REMARK Flexibility Score: inf
ROOT
ATOM      1  C   UNL A   1      33.495  28.544  27.214  1.00  0.00     0.118 C 
ENDROOT
BRANCH   1   2
ATOM      2  N   UNL A   1      33.490  29.942  27.614  1.00  0.00    -0.352 N 
ATOM      3  O   UNL A   1      34.138  31.806  28.676  1.00  0.00    -0.269 OA
ATOM      4  C   UNL A   1      34.447  30.697  28.246  1.00  0.00     0.251 C 
ATOM      5  H   UNL A   1      32.662  30.429  27.393  1.00  0.00     0.163 HD
BRANCH   4   6
ATOM      6  C   UNL A   1      35.828  30.195  28.417  1.00  0.00     0.039 A 
ATOM      7  C   UNL A   1      36.213  29.687  29.662  1.00  0.00     0.014 A 
ATOM      8  C   UNL A   1      36.769  30.289  27.389  1.00  0.00     0.014 A 
ATOM      9  C   UNL A   1      37.528  29.258  29.866  1.00  0.00     0.010 A 
ATOM     10  C   UNL A   1      38.047  29.768  27.560  1.00  0.00     0.010 A 
ATOM     11  C   UNL A   1      38.454  29.288  28.812  1.00  0.00    -0.014 A 
BRANCH  11  12
ATOM     12  C   UNL A   1      39.880  28.931  29.018  1.00  0.00     0.031 A 
ATOM     13  C   UNL A   1      40.819  29.959  29.599  1.00  0.00     0.074 A 
ATOM     14  C   UNL A   1      40.343  27.718  28.660  1.00  0.00     0.049 A 
ATOM     15  N   UNL A   1      42.114  29.900  29.763  1.00  0.00    -0.248 NA
ATOM     16  C   UNL A   1      40.221  31.238  30.024  1.00  0.00     0.031 C 
ATOM     17  C   UNL A   1      39.539  26.643  28.077  1.00  0.00     0.029 A 
ATOM     18  N   UNL A   1      41.605  27.186  28.734  1.00  0.00    -0.354 N 
ATOM     19  C   UNL A   1      42.484  31.134  30.289  1.00  0.00     0.074 A 
ATOM     20  C   UNL A   1      41.291  31.944  30.353  1.00  0.00     0.031 C 
ATOM     21  C   UNL A   1      40.321  25.571  27.875  1.00  0.00     0.029 A 
ATOM     22  C   UNL A   1      41.689  25.894  28.272  1.00  0.00     0.049 A 
ATOM     23  H   UNL A   1      42.379  27.685  29.083  1.00  0.00     0.167 HD
ATOM     24  C   UNL A   1      43.703  31.543  30.714  1.00  0.00     0.037 A 
ATOM     25  C   UNL A   1      42.750  25.069  28.176  1.00  0.00     0.037 A 
ATOM     26  C   UNL A   1      44.879  30.716  30.691  1.00  0.00     0.049 A 
ATOM     27  C   UNL A   1      44.101  25.555  28.628  1.00  0.00     0.074 A 
ATOM     28  C   UNL A   1      46.153  31.020  31.139  1.00  0.00     0.029 A 
ATOM     29  N   UNL A   1      44.924  29.418  30.203  1.00  0.00    -0.354 N 
ATOM     30  N   UNL A   1      44.429  26.716  29.143  1.00  0.00    -0.248 NA
ATOM     31  C   UNL A   1      45.226  24.621  28.482  1.00  0.00     0.031 C 
ATOM     32  C   UNL A   1      46.977  29.920  30.884  1.00  0.00     0.029 A 
ATOM     33  C   UNL A   1      46.209  28.915  30.319  1.00  0.00     0.049 A 
ATOM     34  H   UNL A   1      44.157  28.928  29.828  1.00  0.00     0.167 HD
ATOM     35  C   UNL A   1      45.795  26.646  29.398  1.00  0.00     0.074 A 
ATOM     36  C   UNL A   1      46.226  25.322  29.000  1.00  0.00     0.031 C 
ATOM     37  C   UNL A   1      46.619  27.593  29.913  1.00  0.00     0.037 A 
BRANCH  24  38
ATOM     38  C   UNL A   1      43.819  32.941  31.258  1.00  0.00     0.058 A 
ATOM     39  C   UNL A   1      43.730  33.204  32.635  1.00  0.00     0.135 A 
ATOM     40  C   UNL A   1      44.051  34.027  30.398  1.00  0.00     0.135 A 
ATOM     41  F   UNL A   1      43.488  32.207  33.499  1.00  0.00    -0.206 F 
ATOM     42  C   UNL A   1      43.841  34.496  33.138  1.00  0.00     0.059 A 
ATOM     43  C   UNL A   1      44.196  35.324  30.884  1.00  0.00     0.059 A 
ATOM     44  F   UNL A   1      44.141  33.834  29.074  1.00  0.00    -0.206 F 
ATOM     45  C   UNL A   1      44.076  35.550  32.254  1.00  0.00     0.060 A 
BRANCH  45  46
ATOM     46  S   UNL A   1      44.227  37.217  32.928  1.00  0.00     0.124 S 
ATOM     47  O   UNL A   1      44.349  38.013  31.711  1.00  0.00    -0.237 OA
ATOM     48  O   UNL A   1      42.975  37.369  33.662  1.00  0.00    -0.237 OA
ATOM     49  O   UNL A   1      45.429  37.143  33.753  1.00  0.00    -0.744 OA
ENDBRANCH  45  46
ENDBRANCH  24  38
BRANCH  25  50
ATOM     50  C   UNL A   1      42.568  23.688  27.653  1.00  0.00     0.058 A 
ATOM     51  C   UNL A   1      42.576  23.438  26.273  1.00  0.00     0.135 A 
ATOM     52  C   UNL A   1      42.412  22.592  28.515  1.00  0.00     0.135 A 
ATOM     53  F   UNL A   1      42.712  24.454  25.409  1.00  0.00    -0.206 F 
ATOM     54  C   UNL A   1      42.435  22.151  25.765  1.00  0.00     0.059 A 
ATOM     55  C   UNL A   1      42.292  21.291  28.032  1.00  0.00     0.059 A 
ATOM     56  F   UNL A   1      42.407  22.776  29.845  1.00  0.00    -0.206 F 
ATOM     57  C   UNL A   1      42.301  21.083  26.653  1.00  0.00     0.060 A 
BRANCH  57  58
ATOM     58  S   UNL A   1      42.186  19.411  25.980  1.00  0.00     0.124 S 
ATOM     59  O   UNL A   1      43.055  19.502  24.812  1.00  0.00    -0.237 OA
ATOM     60  O   UNL A   1      42.689  18.602  27.087  1.00  0.00    -0.237 OA
ATOM     61  O   UNL A   1      40.763  19.257  25.698  1.00  0.00    -0.744 OA
ENDBRANCH  57  58
ENDBRANCH  25  50
BRANCH  37  62
ATOM     62  C   UNL A   1      48.070  27.236  30.081  1.00  0.00     0.058 A 
ATOM     63  C   UNL A   1      49.009  27.494  29.071  1.00  0.00     0.135 A 
ATOM     64  C   UNL A   1      48.537  26.695  31.291  1.00  0.00     0.135 A 
ATOM     65  F   UNL A   1      48.613  28.005  27.894  1.00  0.00    -0.206 F 
ATOM     66  C   UNL A   1      50.359  27.213  29.247  1.00  0.00     0.059 A 
ATOM     67  C   UNL A   1      49.888  26.433  31.498  1.00  0.00     0.059 A 
ATOM     68  F   UNL A   1      47.682  26.442  32.293  1.00  0.00    -0.206 F 
ATOM     69  C   UNL A   1      50.790  26.687  30.466  1.00  0.00     0.060 A 
BRANCH  69  70
ATOM     70  S   UNL A   1      52.552  26.364  30.690  1.00  0.00     0.124 S 
ATOM     71  O   UNL A   1      52.528  25.147  31.496  1.00  0.00    -0.237 OA
ATOM     72  O   UNL A   1      53.015  26.205  29.315  1.00  0.00    -0.237 OA
ATOM     73  O   UNL A   1      53.033  27.559  31.374  1.00  0.00    -0.744 OA
ENDBRANCH  69  70
ENDBRANCH  37  62
ENDBRANCH  11  12
ENDBRANCH   4   6
ENDBRANCH   1   2
BRANCH   1  74
ATOM     74  C   UNL A   1      33.880  28.354  25.754  1.00  0.00     0.042 C 
BRANCH  74  75
ATOM     75  C   UNL A   1      33.557  26.974  25.201  1.00  0.00     0.118 C 
BRANCH  75  76
ATOM     76  N   UNL A   1      32.329  26.965  24.408  1.00  0.00    -0.352 N 
ATOM     77  C   UNL A   1      31.422  25.952  24.240  1.00  0.00     0.256 C 
ATOM     78  H   UNL A   1      32.126  27.801  23.930  1.00  0.00     0.163 HD
ATOM     79  O   UNL A   1      30.555  26.025  23.371  1.00  0.00    -0.269 OA
BRANCH  77  80
ATOM     80  C   UNL A   1      31.470  24.781  25.119  1.00  0.00     0.102 A 
ATOM     81  C   UNL A   1      32.362  23.747  24.820  1.00  0.00     0.029 A 
ATOM     82  C   UNL A   1      30.634  24.648  26.223  1.00  0.00     0.223 A 
ATOM     83  C   UNL A   1      32.443  22.638  25.667  1.00  0.00     0.001 A 
ATOM     84  N   UNL A   1      30.705  23.612  27.076  1.00  0.00    -0.221 NA
ATOM     85  C   UNL A   1      31.608  22.648  26.788  1.00  0.00     0.124 A 
BRANCH  82  86
ATOM     86  O   UNL A   1      29.669  25.558  26.551  1.00  0.00    -0.493 OA
ATOM     87  H   UNL A   1      29.754  26.450  26.276  1.00  0.00     0.295 HD
ENDBRANCH  82  86
BRANCH  83  88
ATOM     88  C   UNL A   1      33.334  21.503  25.394  1.00  0.00    -0.016 A 
ATOM     89  C   UNL A   1      34.726  21.693  25.356  1.00  0.00     0.012 A 
ATOM     90  C   UNL A   1      32.831  20.213  25.147  1.00  0.00     0.025 A 
ATOM     91  C   UNL A   1      35.587  20.635  25.064  1.00  0.00     0.040 A 
ATOM     92  C   UNL A   1      33.692  19.142  24.849  1.00  0.00     0.092 A 
ATOM     93  C   UNL A   1      35.063  19.375  24.809  1.00  0.00     0.135 A 
ATOM     94  F   UNL A   1      35.906  18.376  24.515  1.00  0.00    -0.206 F 
BRANCH  92  95
ATOM     95  C   UNL A   1      33.180  17.766  24.545  1.00  0.00     0.419 C 
ATOM     96  F   UNL A   1      33.550  17.330  23.311  1.00  0.00    -0.166 F 
ATOM     97  F   UNL A   1      33.618  16.827  25.429  1.00  0.00    -0.166 F 
ATOM     98  F   UNL A   1      31.819  17.687  24.571  1.00  0.00    -0.166 F 
ENDBRANCH  92  95
ENDBRANCH  83  88
ENDBRANCH  77  80
ENDBRANCH  75  76
ENDBRANCH  74  75
ENDBRANCH   1  74
TORSDOF 16
ENDMDL
