MODEL 1
REMARK VINA RESULT:     -11.5      0.000      0.000
REMARK SMILES C[C@@H](C(=O)NCCCNC(=O)c1ccc(-c2c3nc(c(-c4c(F)cc(S(=O)(=O)[O-])cc4F)c4ccc([nH]4)c(-c4c(F)cc(S(=O)(=O)[O-])cc4F)c4nc(c(-c5c(F)cc(S(=O)(=O)[O-])cc5F)c5ccc2[nH]5)C=C4)C=C3)cc1)[C@H](C)[S@@](=O)c1ccc(F)cc1
REMARK SMILES IDX 7 1 6 2 5 3 3 4 4 5 2 7 1 8 78 9 79 10 80 11 81 12 82 13
REMARK SMILES IDX 83 14 88 15 84 16 87 17 85 18 86 19 8 20 9 21 10 22 11 24
REMARK SMILES IDX 12 25 13 26 77 27 14 28 76 29 15 30 16 31 17 32 70 33 18 34
REMARK SMILES IDX 75 35 69 36 71 37 19 38 74 39 68 40 67 41 20 43 54 44 33 45
REMARK SMILES IDX 53 46 34 47 37 48 52 49 72 50 35 51 36 52 51 54 73 55 38 56
REMARK SMILES IDX 21 57 22 58 31 59 23 60 24 61 30 62 32 63 25 64 26 65 27 66
REMARK SMILES IDX 28 67 29 68 55 69 56 70 65 71 57 72 58 73 64 74 66 75 59 76
REMARK SMILES IDX 60 77 61 78 62 79 63 80 39 81 40 82 49 83 41 84 42 85 48 86
REMARK SMILES IDX 50 87 43 88 44 89 45 90 46 91 47 92
REMARK H PARENT 5 6 9 23 71 42 37 53
REMARK Flexibility Score: inf
ROOT
ATOM      1  C   UNL A   1      39.676  21.838  26.484  1.00  0.00     0.042 C 
ENDROOT
BRANCH   1   2
ATOM      2  C   UNL A   1      38.367  21.727  25.712  1.00  0.00     0.117 C 
BRANCH   2   3
ATOM      3  N   UNL A   1      37.463  22.834  25.971  1.00  0.00    -0.356 N 
ATOM      4  C   UNL A   1      36.247  23.130  25.431  1.00  0.00     0.224 C 
ATOM      5  O   UNL A   1      35.656  24.117  25.872  1.00  0.00    -0.275 OA
ATOM      6  H   UNL A   1      37.780  23.476  26.647  1.00  0.00     0.163 HD
BRANCH   4   7
ATOM      7  C   UNL A   1      35.661  22.255  24.317  1.00  0.00     0.091 C 
ATOM      8  C   UNL A   1      35.113  23.181  23.232  1.00  0.00     0.019 C 
BRANCH   7   9
ATOM      9  C   UNL A   1      34.616  21.290  24.924  1.00  0.00     0.093 C 
ATOM     10  C   UNL A   1      35.108  19.837  24.984  1.00  0.00     0.023 C 
BRANCH   9  11
ATOM     11  S   UNL A   1      32.926  21.305  24.253  1.00  0.00     0.057 S 
ATOM     12  O   UNL A   1      32.132  20.198  24.880  1.00  0.00    -0.254 OA
BRANCH  11  13
ATOM     13  C   UNL A   1      32.097  22.831  24.731  1.00  0.00     0.039 A 
ATOM     14  C   UNL A   1      32.312  23.258  26.055  1.00  0.00     0.021 A 
ATOM     15  C   UNL A   1      31.228  23.580  23.933  1.00  0.00     0.021 A 
ATOM     16  C   UNL A   1      31.691  24.402  26.563  1.00  0.00     0.040 A 
ATOM     17  C   UNL A   1      30.629  24.745  24.427  1.00  0.00     0.040 A 
ATOM     18  C   UNL A   1      30.859  25.141  25.738  1.00  0.00     0.123 A 
ATOM     19  F   UNL A   1      30.261  26.241  26.211  1.00  0.00    -0.207 F 
ENDBRANCH  11  13
ENDBRANCH   9  11
ENDBRANCH   7   9
ENDBRANCH   4   7
ENDBRANCH   2   3
ENDBRANCH   1   2
BRANCH   1  20
ATOM     20  C   UNL A   1      40.035  23.253  26.923  1.00  0.00     0.118 C 
BRANCH  20  21
ATOM     21  N   UNL A   1      40.991  23.888  26.030  1.00  0.00    -0.352 N 
ATOM     22  C   UNL A   1      41.485  25.167  26.031  1.00  0.00     0.251 C 
ATOM     23  H   UNL A   1      41.338  23.309  25.313  1.00  0.00     0.163 HD
ATOM     24  O   UNL A   1      42.140  25.547  25.057  1.00  0.00    -0.269 OA
BRANCH  22  25
ATOM     25  C   UNL A   1      41.240  26.092  27.162  1.00  0.00     0.039 A 
ATOM     26  C   UNL A   1      42.070  27.209  27.306  1.00  0.00     0.014 A 
ATOM     27  C   UNL A   1      40.248  25.844  28.116  1.00  0.00     0.014 A 
ATOM     28  C   UNL A   1      41.885  28.085  28.379  1.00  0.00     0.010 A 
ATOM     29  C   UNL A   1      40.009  26.764  29.135  1.00  0.00     0.010 A 
ATOM     30  C   UNL A   1      40.841  27.880  29.294  1.00  0.00    -0.014 A 
BRANCH  30  31
ATOM     31  C   UNL A   1      40.643  28.795  30.450  1.00  0.00     0.031 A 
ATOM     32  C   UNL A   1      41.490  28.639  31.688  1.00  0.00     0.074 A 
ATOM     33  C   UNL A   1      39.685  29.740  30.403  1.00  0.00     0.049 A 
ATOM     34  N   UNL A   1      41.447  29.312  32.809  1.00  0.00    -0.248 NA
ATOM     35  C   UNL A   1      42.497  27.564  31.674  1.00  0.00     0.031 C 
ATOM     36  C   UNL A   1      38.763  29.956  29.285  1.00  0.00     0.029 A 
ATOM     37  N   UNL A   1      39.321  30.693  31.321  1.00  0.00    -0.354 N 
ATOM     38  C   UNL A   1      42.407  28.737  33.634  1.00  0.00     0.074 A 
ATOM     39  C   UNL A   1      42.973  27.621  32.909  1.00  0.00     0.031 C 
ATOM     40  C   UNL A   1      37.956  30.988  29.575  1.00  0.00     0.029 A 
ATOM     41  C   UNL A   1      38.282  31.490  30.907  1.00  0.00     0.049 A 
ATOM     42  H   UNL A   1      39.763  30.794  32.194  1.00  0.00     0.167 HD
ATOM     43  C   UNL A   1      42.805  29.121  34.871  1.00  0.00     0.037 A 
ATOM     44  C   UNL A   1      37.662  32.513  31.528  1.00  0.00     0.037 A 
ATOM     45  C   UNL A   1      42.260  30.249  35.579  1.00  0.00     0.049 A 
ATOM     46  C   UNL A   1      38.142  32.944  32.887  1.00  0.00     0.074 A 
ATOM     47  C   UNL A   1      42.621  30.747  36.819  1.00  0.00     0.029 A 
ATOM     48  N   UNL A   1      41.240  31.061  35.105  1.00  0.00    -0.354 N 
ATOM     49  N   UNL A   1      39.089  32.422  33.630  1.00  0.00    -0.248 NA
ATOM     50  C   UNL A   1      37.484  34.113  33.485  1.00  0.00     0.031 C 
ATOM     51  C   UNL A   1      41.799  31.842  37.108  1.00  0.00     0.029 A 
ATOM     52  C   UNL A   1      40.955  32.053  36.029  1.00  0.00     0.049 A 
ATOM     53  H   UNL A   1      40.785  30.949  34.239  1.00  0.00     0.167 HD
ATOM     54  C   UNL A   1      39.157  33.214  34.771  1.00  0.00     0.074 A 
ATOM     55  C   UNL A   1      38.165  34.257  34.613  1.00  0.00     0.031 C 
ATOM     56  C   UNL A   1      39.969  33.090  35.852  1.00  0.00     0.037 A 
BRANCH  43  57
ATOM     57  C   UNL A   1      43.892  28.314  35.529  1.00  0.00     0.058 A 
ATOM     58  C   UNL A   1      43.595  27.237  36.381  1.00  0.00     0.135 A 
ATOM     59  C   UNL A   1      45.246  28.608  35.297  1.00  0.00     0.135 A 
ATOM     60  F   UNL A   1      42.319  26.921  36.651  1.00  0.00    -0.206 F 
ATOM     61  C   UNL A   1      44.597  26.508  37.011  1.00  0.00     0.059 A 
ATOM     62  C   UNL A   1      46.267  27.872  35.893  1.00  0.00     0.059 A 
ATOM     63  F   UNL A   1      45.589  29.623  34.490  1.00  0.00    -0.206 F 
ATOM     64  C   UNL A   1      45.932  26.835  36.765  1.00  0.00     0.060 A 
BRANCH  64  65
ATOM     65  S   UNL A   1      47.222  25.886  37.598  1.00  0.00     0.124 S 
ATOM     66  O   UNL A   1      47.051  24.570  36.990  1.00  0.00    -0.237 OA
ATOM     67  O   UNL A   1      48.434  26.606  37.221  1.00  0.00    -0.237 OA
ATOM     68  O   UNL A   1      46.855  25.978  39.007  1.00  0.00    -0.744 OA
ENDBRANCH  64  65
ENDBRANCH  43  57
BRANCH  44  69
ATOM     69  C   UNL A   1      36.545  33.222  30.849  1.00  0.00     0.058 A 
ATOM     70  C   UNL A   1      35.219  33.056  31.272  1.00  0.00     0.135 A 
ATOM     71  C   UNL A   1      36.786  34.101  29.782  1.00  0.00     0.135 A 
ATOM     72  F   UNL A   1      34.938  32.223  32.285  1.00  0.00    -0.206 F 
ATOM     73  C   UNL A   1      34.167  33.724  30.654  1.00  0.00     0.059 A 
ATOM     74  C   UNL A   1      35.754  34.799  29.162  1.00  0.00     0.059 A 
ATOM     75  F   UNL A   1      38.041  34.309  29.352  1.00  0.00    -0.206 F 
ATOM     76  C   UNL A   1      34.446  34.597  29.601  1.00  0.00     0.060 A 
BRANCH  76  77
ATOM     77  S   UNL A   1      33.081  35.506  28.844  1.00  0.00     0.124 S 
ATOM     78  O   UNL A   1      32.418  34.457  28.077  1.00  0.00    -0.237 OA
ATOM     79  O   UNL A   1      32.356  36.000  30.010  1.00  0.00    -0.237 OA
ATOM     80  O   UNL A   1      33.758  36.532  28.057  1.00  0.00    -0.744 OA
ENDBRANCH  76  77
ENDBRANCH  44  69
BRANCH  56  81
ATOM     81  C   UNL A   1      39.846  34.131  36.929  1.00  0.00     0.058 A 
ATOM     82  C   UNL A   1      40.539  35.350  36.862  1.00  0.00     0.135 A 
ATOM     83  C   UNL A   1      38.993  33.921  38.023  1.00  0.00     0.135 A 
ATOM     84  F   UNL A   1      41.371  35.598  35.837  1.00  0.00    -0.206 F 
ATOM     85  C   UNL A   1      40.417  36.310  37.860  1.00  0.00     0.059 A 
ATOM     86  C   UNL A   1      38.835  34.878  39.020  1.00  0.00     0.059 A 
ATOM     87  F   UNL A   1      38.296  32.778  38.128  1.00  0.00    -0.206 F 
ATOM     88  C   UNL A   1      39.563  36.064  38.938  1.00  0.00     0.060 A 
BRANCH  88  89
ATOM     89  S   UNL A   1      39.399  37.324  40.221  1.00  0.00     0.124 S 
ATOM     90  O   UNL A   1      38.554  38.310  39.555  1.00  0.00    -0.237 OA
ATOM     91  O   UNL A   1      38.771  36.583  41.311  1.00  0.00    -0.237 OA
ATOM     92  O   UNL A   1      40.777  37.739  40.465  1.00  0.00    -0.744 OA
ENDBRANCH  88  89
ENDBRANCH  56  81
ENDBRANCH  30  31
ENDBRANCH  22  25
ENDBRANCH  20  21
ENDBRANCH   1  20
TORSDOF 16
ENDMDL
MODEL 2
REMARK VINA RESULT:     -11.4      4.890     10.578
REMARK SMILES C[C@@H](C(=O)NCCCNC(=O)c1ccc(-c2c3nc(c(-c4c(F)cc(S(=O)(=O)[O-])cc4F)c4ccc([nH]4)c(-c4c(F)cc(S(=O)(=O)[O-])cc4F)c4nc(c(-c5c(F)cc(S(=O)(=O)[O-])cc5F)c5ccc2[nH]5)C=C4)C=C3)cc1)[C@H](C)[S@@](=O)c1ccc(F)cc1
REMARK SMILES IDX 7 1 6 2 5 3 3 4 4 5 2 7 1 8 78 9 79 10 80 11 81 12 82 13
REMARK SMILES IDX 83 14 88 15 84 16 87 17 85 18 86 19 8 20 9 21 10 22 11 24
REMARK SMILES IDX 12 25 13 26 77 27 14 28 76 29 15 30 16 31 17 32 70 33 18 34
REMARK SMILES IDX 75 35 69 36 71 37 19 38 74 39 68 40 67 41 20 43 54 44 33 45
REMARK SMILES IDX 53 46 34 47 37 48 52 49 72 50 35 51 36 52 51 54 73 55 38 56
REMARK SMILES IDX 21 57 22 58 31 59 23 60 24 61 30 62 32 63 25 64 26 65 27 66
REMARK SMILES IDX 28 67 29 68 55 69 56 70 65 71 57 72 58 73 64 74 66 75 59 76
REMARK SMILES IDX 60 77 61 78 62 79 63 80 39 81 40 82 49 83 41 84 42 85 48 86
REMARK SMILES IDX 50 87 43 88 44 89 45 90 46 91 47 92
REMARK H PARENT 5 6 9 23 71 42 37 53
REMARK Flexibility Score: inf
ROOT
ATOM      1  C   UNL A   1      32.658  27.883  25.990  1.00  0.00     0.042 C 
ENDROOT
BRANCH   1   2
ATOM      2  C   UNL A   1      33.158  27.733  24.558  1.00  0.00     0.117 C 
BRANCH   2   3
ATOM      3  N   UNL A   1      32.098  27.857  23.573  1.00  0.00    -0.356 N 
ATOM      4  C   UNL A   1      31.678  26.990  22.609  1.00  0.00     0.224 C 
ATOM      5  O   UNL A   1      30.707  27.325  21.929  1.00  0.00    -0.275 OA
ATOM      6  H   UNL A   1      31.601  28.706  23.608  1.00  0.00     0.163 HD
BRANCH   4   7
ATOM      7  C   UNL A   1      32.406  25.657  22.396  1.00  0.00     0.091 C 
ATOM      8  C   UNL A   1      32.724  25.530  20.907  1.00  0.00     0.019 C 
BRANCH   7   9
ATOM      9  C   UNL A   1      31.545  24.509  22.969  1.00  0.00     0.093 C 
ATOM     10  C   UNL A   1      30.728  24.930  24.199  1.00  0.00     0.023 C 
BRANCH   9  11
ATOM     11  S   UNL A   1      32.345  22.914  23.320  1.00  0.00     0.057 S 
ATOM     12  O   UNL A   1      32.475  22.132  22.047  1.00  0.00    -0.254 OA
BRANCH  11  13
ATOM     13  C   UNL A   1      34.029  23.193  23.895  1.00  0.00     0.039 A 
ATOM     14  C   UNL A   1      34.157  23.937  25.083  1.00  0.00     0.021 A 
ATOM     15  C   UNL A   1      35.197  22.791  23.244  1.00  0.00     0.021 A 
ATOM     16  C   UNL A   1      35.409  24.260  25.611  1.00  0.00     0.040 A 
ATOM     17  C   UNL A   1      36.455  23.085  23.786  1.00  0.00     0.040 A 
ATOM     18  C   UNL A   1      36.550  23.821  24.959  1.00  0.00     0.123 A 
ATOM     19  F   UNL A   1      37.756  24.122  25.456  1.00  0.00    -0.207 F 
ENDBRANCH  11  13
ENDBRANCH   9  11
ENDBRANCH   7   9
ENDBRANCH   4   7
ENDBRANCH   2   3
ENDBRANCH   1   2
BRANCH   1  20
ATOM     20  C   UNL A   1      33.726  28.299  26.994  1.00  0.00     0.118 C 
BRANCH  20  21
ATOM     21  N   UNL A   1      33.591  29.687  27.408  1.00  0.00    -0.352 N 
ATOM     22  C   UNL A   1      34.476  30.501  28.068  1.00  0.00     0.251 C 
ATOM     23  H   UNL A   1      32.731  30.107  27.180  1.00  0.00     0.163 HD
ATOM     24  O   UNL A   1      34.073  31.587  28.494  1.00  0.00    -0.269 OA
BRANCH  22  25
ATOM     25  C   UNL A   1      35.885  30.100  28.286  1.00  0.00     0.039 A 
ATOM     26  C   UNL A   1      36.269  29.668  29.560  1.00  0.00     0.014 A 
ATOM     27  C   UNL A   1      36.844  30.200  27.275  1.00  0.00     0.014 A 
ATOM     28  C   UNL A   1      37.597  29.310  29.807  1.00  0.00     0.010 A 
ATOM     29  C   UNL A   1      38.149  29.761  27.499  1.00  0.00     0.010 A 
ATOM     30  C   UNL A   1      38.546  29.337  28.774  1.00  0.00    -0.014 A 
BRANCH  30  31
ATOM     31  C   UNL A   1      39.966  28.976  29.027  1.00  0.00     0.031 A 
ATOM     32  C   UNL A   1      40.906  29.990  29.627  1.00  0.00     0.074 A 
ATOM     33  C   UNL A   1      40.420  27.754  28.687  1.00  0.00     0.049 A 
ATOM     34  N   UNL A   1      42.183  29.879  29.892  1.00  0.00    -0.248 NA
ATOM     35  C   UNL A   1      40.343  31.313  29.945  1.00  0.00     0.031 C 
ATOM     36  C   UNL A   1      39.624  26.703  28.048  1.00  0.00     0.029 A 
ATOM     37  N   UNL A   1      41.663  27.190  28.826  1.00  0.00    -0.354 N 
ATOM     38  C   UNL A   1      42.576  31.115  30.392  1.00  0.00     0.074 A 
ATOM     39  C   UNL A   1      41.419  31.980  30.336  1.00  0.00     0.031 C 
ATOM     40  C   UNL A   1      40.392  25.617  27.869  1.00  0.00     0.029 A 
ATOM     41  C   UNL A   1      41.740  25.901  28.355  1.00  0.00     0.049 A 
ATOM     42  H   UNL A   1      42.427  27.664  29.224  1.00  0.00     0.167 HD
ATOM     43  C   UNL A   1      43.783  31.489  30.883  1.00  0.00     0.037 A 
ATOM     44  C   UNL A   1      42.778  25.042  28.321  1.00  0.00     0.037 A 
ATOM     45  C   UNL A   1      44.925  30.618  30.963  1.00  0.00     0.049 A 
ATOM     46  C   UNL A   1      44.099  25.467  28.902  1.00  0.00     0.074 A 
ATOM     47  C   UNL A   1      46.181  30.886  31.480  1.00  0.00     0.029 A 
ATOM     48  N   UNL A   1      44.949  29.304  30.519  1.00  0.00    -0.354 N 
ATOM     49  N   UNL A   1      44.438  26.623  29.420  1.00  0.00    -0.248 NA
ATOM     50  C   UNL A   1      45.175  24.466  28.909  1.00  0.00     0.031 C 
ATOM     51  C   UNL A   1      46.973  29.743  31.322  1.00  0.00     0.029 A 
ATOM     52  C   UNL A   1      46.198  28.749  30.745  1.00  0.00     0.049 A 
ATOM     53  H   UNL A   1      44.190  28.834  30.103  1.00  0.00     0.167 HD
ATOM     54  C   UNL A   1      45.756  26.480  29.840  1.00  0.00     0.074 A 
ATOM     55  C   UNL A   1      46.148  25.122  29.525  1.00  0.00     0.031 C 
ATOM     56  C   UNL A   1      46.569  27.391  30.433  1.00  0.00     0.037 A 
BRANCH  43  57
ATOM     57  C   UNL A   1      43.918  32.903  31.380  1.00  0.00     0.058 A 
ATOM     58  C   UNL A   1      44.360  33.939  30.540  1.00  0.00     0.135 A 
ATOM     59  C   UNL A   1      43.591  33.233  32.706  1.00  0.00     0.135 A 
ATOM     60  F   UNL A   1      44.701  33.678  29.268  1.00  0.00    -0.206 F 
ATOM     61  C   UNL A   1      44.512  35.241  31.005  1.00  0.00     0.059 A 
ATOM     62  C   UNL A   1      43.706  34.535  33.185  1.00  0.00     0.059 A 
ATOM     63  F   UNL A   1      43.161  32.286  33.553  1.00  0.00    -0.206 F 
ATOM     64  C   UNL A   1      44.187  35.530  32.331  1.00  0.00     0.060 A 
BRANCH  64  65
ATOM     65  S   UNL A   1      44.399  37.221  32.924  1.00  0.00     0.124 S 
ATOM     66  O   UNL A   1      43.870  37.990  31.801  1.00  0.00    -0.237 OA
ATOM     67  O   UNL A   1      43.588  37.233  34.137  1.00  0.00    -0.237 OA
ATOM     68  O   UNL A   1      45.838  37.329  33.136  1.00  0.00    -0.744 OA
ENDBRANCH  64  65
ENDBRANCH  43  57
BRANCH  44  69
ATOM     69  C   UNL A   1      42.593  23.682  27.748  1.00  0.00     0.058 A 
ATOM     70  C   UNL A   1      42.643  23.467  26.364  1.00  0.00     0.135 A 
ATOM     71  C   UNL A   1      42.391  22.567  28.577  1.00  0.00     0.135 A 
ATOM     72  F   UNL A   1      42.830  24.502  25.530  1.00  0.00    -0.206 F 
ATOM     73  C   UNL A   1      42.486  22.198  25.817  1.00  0.00     0.059 A 
ATOM     74  C   UNL A   1      42.254  21.285  28.056  1.00  0.00     0.059 A 
ATOM     75  F   UNL A   1      42.355  22.719  29.910  1.00  0.00    -0.206 F 
ATOM     76  C   UNL A   1      42.295  21.112  26.673  1.00  0.00     0.060 A 
BRANCH  76  77
ATOM     77  S   UNL A   1      42.151  19.459  25.958  1.00  0.00     0.124 S 
ATOM     78  O   UNL A   1      42.994  19.577  24.773  1.00  0.00    -0.237 OA
ATOM     79  O   UNL A   1      42.672  18.615  27.030  1.00  0.00    -0.237 OA
ATOM     80  O   UNL A   1      40.720  19.326  25.707  1.00  0.00    -0.744 OA
ENDBRANCH  76  77
ENDBRANCH  44  69
BRANCH  56  81
ATOM     81  C   UNL A   1      47.949  26.936  30.818  1.00  0.00     0.058 A 
ATOM     82  C   UNL A   1      48.212  26.344  32.063  1.00  0.00     0.135 A 
ATOM     83  C   UNL A   1      49.014  27.060  29.912  1.00  0.00     0.135 A 
ATOM     84  F   UNL A   1      47.228  26.206  32.967  1.00  0.00    -0.206 F 
ATOM     85  C   UNL A   1      49.490  25.921  32.410  1.00  0.00     0.059 A 
ATOM     86  C   UNL A   1      50.296  26.620  30.227  1.00  0.00     0.059 A 
ATOM     87  F   UNL A   1      48.813  27.606  28.702  1.00  0.00    -0.206 F 
ATOM     88  C   UNL A   1      50.527  26.066  31.485  1.00  0.00     0.060 A 
BRANCH  88  89
ATOM     89  S   UNL A   1      52.180  25.499  31.939  1.00  0.00     0.124 S 
ATOM     90  O   UNL A   1      51.946  24.081  32.187  1.00  0.00    -0.237 OA
ATOM     91  O   UNL A   1      52.960  25.814  30.746  1.00  0.00    -0.237 OA
ATOM     92  O   UNL A   1      52.500  26.299  33.118  1.00  0.00    -0.744 OA
ENDBRANCH  88  89
ENDBRANCH  56  81
ENDBRANCH  30  31
ENDBRANCH  22  25
ENDBRANCH  20  21
ENDBRANCH   1  20
TORSDOF 16
ENDMDL
MODEL 3
REMARK VINA RESULT:     -11.4      1.512      2.512
REMARK SMILES C[C@@H](C(=O)NCCCNC(=O)c1ccc(-c2c3nc(c(-c4c(F)cc(S(=O)(=O)[O-])cc4F)c4ccc([nH]4)c(-c4c(F)cc(S(=O)(=O)[O-])cc4F)c4nc(c(-c5c(F)cc(S(=O)(=O)[O-])cc5F)c5ccc2[nH]5)C=C4)C=C3)cc1)[C@H](C)[S@@](=O)c1ccc(F)cc1
REMARK SMILES IDX 7 1 6 2 5 3 3 4 4 5 2 7 1 8 78 9 79 10 80 11 81 12 82 13
REMARK SMILES IDX 83 14 88 15 84 16 87 17 85 18 86 19 8 20 9 21 10 22 11 24
REMARK SMILES IDX 12 25 13 26 77 27 14 28 76 29 15 30 16 31 17 32 70 33 18 34
REMARK SMILES IDX 75 35 69 36 71 37 19 38 74 39 68 40 67 41 20 43 54 44 33 45
REMARK SMILES IDX 53 46 34 47 37 48 52 49 72 50 35 51 36 52 51 54 73 55 38 56
REMARK SMILES IDX 21 57 22 58 31 59 23 60 24 61 30 62 32 63 25 64 26 65 27 66
REMARK SMILES IDX 28 67 29 68 55 69 56 70 65 71 57 72 58 73 64 74 66 75 59 76
REMARK SMILES IDX 60 77 61 78 62 79 63 80 39 81 40 82 49 83 41 84 42 85 48 86
REMARK SMILES IDX 50 87 43 88 44 89 45 90 46 91 47 92
REMARK H PARENT 5 6 9 23 71 42 37 53
REMARK Flexibility Score: inf
ROOT
ATOM      1  C   UNL A   1      39.366  21.974  26.264  1.00  0.00     0.042 C 
ENDROOT
BRANCH   1   2
ATOM      2  C   UNL A   1      37.930  21.902  25.757  1.00  0.00     0.117 C 
BRANCH   2   3
ATOM      3  N   UNL A   1      37.280  23.201  25.720  1.00  0.00    -0.356 N 
ATOM      4  C   UNL A   1      36.031  23.555  25.304  1.00  0.00     0.224 C 
ATOM      5  O   UNL A   1      35.706  24.736  25.429  1.00  0.00    -0.275 OA
ATOM      6  H   UNL A   1      37.831  23.947  26.049  1.00  0.00     0.163 HD
BRANCH   4   7
ATOM      7  C   UNL A   1      35.088  22.504  24.704  1.00  0.00     0.091 C 
ATOM      8  C   UNL A   1      34.797  22.906  23.259  1.00  0.00     0.019 C 
BRANCH   7   9
ATOM      9  C   UNL A   1      33.835  22.375  25.599  1.00  0.00     0.093 C 
ATOM     10  C   UNL A   1      34.172  22.021  27.054  1.00  0.00     0.023 C 
BRANCH   9  11
ATOM     11  S   UNL A   1      32.475  21.305  25.041  1.00  0.00     0.057 S 
ATOM     12  O   UNL A   1      31.781  21.947  23.877  1.00  0.00    -0.254 OA
BRANCH  11  13
ATOM     13  C   UNL A   1      33.141  19.753  24.414  1.00  0.00     0.039 A 
ATOM     14  C   UNL A   1      32.467  19.195  23.311  1.00  0.00     0.021 A 
ATOM     15  C   UNL A   1      34.213  19.040  24.955  1.00  0.00     0.021 A 
ATOM     16  C   UNL A   1      32.856  17.973  22.759  1.00  0.00     0.040 A 
ATOM     17  C   UNL A   1      34.628  17.830  24.385  1.00  0.00     0.040 A 
ATOM     18  C   UNL A   1      33.943  17.305  23.298  1.00  0.00     0.123 A 
ATOM     19  F   UNL A   1      34.328  16.134  22.776  1.00  0.00    -0.207 F 
ENDBRANCH  11  13
ENDBRANCH   9  11
ENDBRANCH   7   9
ENDBRANCH   4   7
ENDBRANCH   2   3
ENDBRANCH   1   2
BRANCH   1  20
ATOM     20  C   UNL A   1      39.825  23.368  26.674  1.00  0.00     0.118 C 
BRANCH  20  21
ATOM     21  N   UNL A   1      41.006  23.803  25.944  1.00  0.00    -0.352 N 
ATOM     22  C   UNL A   1      41.764  24.937  26.087  1.00  0.00     0.251 C 
ATOM     23  H   UNL A   1      41.308  23.187  25.238  1.00  0.00     0.163 HD
ATOM     24  O   UNL A   1      42.607  25.194  25.224  1.00  0.00    -0.269 OA
BRANCH  22  25
ATOM     25  C   UNL A   1      41.582  25.851  27.238  1.00  0.00     0.039 A 
ATOM     26  C   UNL A   1      40.542  25.597  28.138  1.00  0.00     0.014 A 
ATOM     27  C   UNL A   1      42.379  26.987  27.409  1.00  0.00     0.014 A 
ATOM     28  C   UNL A   1      40.324  26.457  29.217  1.00  0.00     0.010 A 
ATOM     29  C   UNL A   1      42.216  27.795  28.534  1.00  0.00     0.010 A 
ATOM     30  C   UNL A   1      41.171  27.555  29.435  1.00  0.00    -0.014 A 
BRANCH  30  31
ATOM     31  C   UNL A   1      40.940  28.488  30.570  1.00  0.00     0.031 A 
ATOM     32  C   UNL A   1      41.770  28.370  31.823  1.00  0.00     0.074 A 
ATOM     33  C   UNL A   1      39.967  29.415  30.491  1.00  0.00     0.049 A 
ATOM     34  N   UNL A   1      41.700  29.065  32.930  1.00  0.00    -0.248 NA
ATOM     35  C   UNL A   1      42.795  27.313  31.845  1.00  0.00     0.031 C 
ATOM     36  C   UNL A   1      39.058  29.594  29.356  1.00  0.00     0.029 A 
ATOM     37  N   UNL A   1      39.573  30.379  31.385  1.00  0.00    -0.354 N 
ATOM     38  C   UNL A   1      42.657  28.522  33.780  1.00  0.00     0.074 A 
ATOM     39  C   UNL A   1      43.252  27.402  33.086  1.00  0.00     0.031 C 
ATOM     40  C   UNL A   1      38.229  30.617  29.613  1.00  0.00     0.029 A 
ATOM     41  C   UNL A   1      38.527  31.151  30.940  1.00  0.00     0.049 A 
ATOM     42  H   UNL A   1      40.000  30.505  32.262  1.00  0.00     0.167 HD
ATOM     43  C   UNL A   1      43.030  28.936  35.016  1.00  0.00     0.037 A 
ATOM     44  C   UNL A   1      37.881  32.175  31.532  1.00  0.00     0.037 A 
ATOM     45  C   UNL A   1      42.455  30.069  35.693  1.00  0.00     0.049 A 
ATOM     46  C   UNL A   1      38.334  32.640  32.889  1.00  0.00     0.074 A 
ATOM     47  C   UNL A   1      42.789  30.596  36.928  1.00  0.00     0.029 A 
ATOM     48  N   UNL A   1      41.429  30.854  35.188  1.00  0.00    -0.354 N 
ATOM     49  N   UNL A   1      39.277  32.149  33.656  1.00  0.00    -0.248 NA
ATOM     50  C   UNL A   1      37.646  33.809  33.454  1.00  0.00     0.031 C 
ATOM     51  C   UNL A   1      41.945  31.683  37.183  1.00  0.00     0.029 A 
ATOM     52  C   UNL A   1      41.113  31.858  36.088  1.00  0.00     0.049 A 
ATOM     53  H   UNL A   1      40.989  30.717  34.318  1.00  0.00     0.167 HD
ATOM     54  C   UNL A   1      39.316  32.964  34.782  1.00  0.00     0.074 A 
ATOM     55  C   UNL A   1      38.308  33.987  34.589  1.00  0.00     0.031 C 
ATOM     56  C   UNL A   1      40.113  32.875  35.876  1.00  0.00     0.037 A 
BRANCH  43  57
ATOM     57  C   UNL A   1      44.120  28.161  35.704  1.00  0.00     0.058 A 
ATOM     58  C   UNL A   1      45.477  28.482  35.524  1.00  0.00     0.135 A 
ATOM     59  C   UNL A   1      43.812  27.095  36.564  1.00  0.00     0.135 A 
ATOM     60  F   UNL A   1      45.830  29.483  34.702  1.00  0.00    -0.206 F 
ATOM     61  C   UNL A   1      46.487  27.751  36.138  1.00  0.00     0.059 A 
ATOM     62  C   UNL A   1      44.806  26.367  37.213  1.00  0.00     0.059 A 
ATOM     63  F   UNL A   1      42.534  26.744  36.776  1.00  0.00    -0.206 F 
ATOM     64  C   UNL A   1      46.143  26.691  36.978  1.00  0.00     0.060 A 
BRANCH  64  65
ATOM     65  S   UNL A   1      47.465  25.743  37.759  1.00  0.00     0.124 S 
ATOM     66  O   UNL A   1      48.485  26.771  37.949  1.00  0.00    -0.237 OA
ATOM     67  O   UNL A   1      46.825  25.254  38.976  1.00  0.00    -0.237 OA
ATOM     68  O   UNL A   1      47.782  24.721  36.769  1.00  0.00    -0.744 OA
ENDBRANCH  64  65
ENDBRANCH  43  57
BRANCH  44  69
ATOM     69  C   UNL A   1      36.763  32.851  30.822  1.00  0.00     0.058 A 
ATOM     70  C   UNL A   1      35.427  32.551  31.125  1.00  0.00     0.135 A 
ATOM     71  C   UNL A   1      37.008  33.831  29.848  1.00  0.00     0.135 A 
ATOM     72  F   UNL A   1      35.141  31.618  32.046  1.00  0.00    -0.206 F 
ATOM     73  C   UNL A   1      34.372  33.187  30.479  1.00  0.00     0.059 A 
ATOM     74  C   UNL A   1      35.971  34.498  29.204  1.00  0.00     0.059 A 
ATOM     75  F   UNL A   1      38.270  34.168  29.537  1.00  0.00    -0.206 F 
ATOM     76  C   UNL A   1      34.655  34.162  29.521  1.00  0.00     0.060 A 
BRANCH  76  77
ATOM     77  S   UNL A   1      33.280  35.026  28.730  1.00  0.00     0.124 S 
ATOM     78  O   UNL A   1      32.505  35.466  29.885  1.00  0.00    -0.237 OA
ATOM     79  O   UNL A   1      33.965  36.077  27.983  1.00  0.00    -0.237 OA
ATOM     80  O   UNL A   1      32.661  33.989  27.911  1.00  0.00    -0.744 OA
ENDBRANCH  76  77
ENDBRANCH  44  69
BRANCH  56  81
ATOM     81  C   UNL A   1      39.956  33.935  36.931  1.00  0.00     0.058 A 
ATOM     82  C   UNL A   1      40.559  35.196  36.806  1.00  0.00     0.135 A 
ATOM     83  C   UNL A   1      39.161  33.695  38.063  1.00  0.00     0.135 A 
ATOM     84  F   UNL A   1      41.332  35.474  35.743  1.00  0.00    -0.206 F 
ATOM     85  C   UNL A   1      40.405  36.173  37.784  1.00  0.00     0.059 A 
ATOM     86  C   UNL A   1      38.973  34.667  39.041  1.00  0.00     0.059 A 
ATOM     87  F   UNL A   1      38.552  32.510  38.224  1.00  0.00    -0.206 F 
ATOM     88  C   UNL A   1      39.612  35.898  38.900  1.00  0.00     0.060 A 
BRANCH  88  89
ATOM     89  S   UNL A   1      39.406  37.178  40.156  1.00  0.00     0.124 S 
ATOM     90  O   UNL A   1      38.718  38.221  39.401  1.00  0.00    -0.237 OA
ATOM     91  O   UNL A   1      38.607  36.498  41.171  1.00  0.00    -0.237 OA
ATOM     92  O   UNL A   1      40.777  37.488  40.551  1.00  0.00    -0.744 OA
ENDBRANCH  88  89
ENDBRANCH  56  81
ENDBRANCH  30  31
ENDBRANCH  22  25
ENDBRANCH  20  21
ENDBRANCH   1  20
TORSDOF 16
ENDMDL
