MODEL 1
REMARK VINA RESULT:     -10.8      0.000      0.000
REMARK SMILES O=C(NCCCNC(=O)c1cccc2c1ccn2Cc1ccncc1)c1ccc(-c2c3nc(c(-c4c(F)cc(S(=O)(=O)[O-])cc4F)c4ccc([nH]4)c(-c4c(F)cc(S(=O)(=O)[O-])cc4F)c4nc(c(-c5c(F)cc(S(=O)(=O)[O-])cc5F)c5ccc2[nH]5)C=C4)C=C3)cc1
REMARK SMILES IDX 4 1 3 2 1 3 2 4 26 6 27 7 91 8 28 9 90 10 29 11 30 12 31 13
REMARK SMILES IDX 84 14 32 15 89 16 83 17 85 18 33 19 88 20 82 21 81 22 34 24
REMARK SMILES IDX 68 25 47 26 67 27 48 28 51 29 66 30 86 31 49 32 50 33 65 35
REMARK SMILES IDX 87 36 52 37 35 38 36 39 45 40 37 41 38 42 44 43 46 44 39 45
REMARK SMILES IDX 40 46 41 47 42 48 43 49 69 50 70 51 79 52 71 53 72 54 78 55
REMARK SMILES IDX 80 56 73 57 74 58 75 59 76 60 77 61 53 62 54 63 63 64 55 65
REMARK SMILES IDX 56 66 62 67 64 68 57 69 58 70 59 71 60 72 61 73 5 74 6 75
REMARK SMILES IDX 7 76 8 77 9 79 10 80 11 81 15 82 12 83 14 84 16 85 13 86
REMARK SMILES IDX 18 87 17 88 19 89 20 90 21 91 25 92 22 93 24 94 23 95
REMARK H PARENT 3 5 85 23 51 34 7 78
REMARK Flexibility Score: inf
ROOT
ATOM      1  C   UNL A   1      43.408  23.340  24.759  1.00  0.00     0.118 C 
ENDROOT
BRANCH   1   2
ATOM      2  N   UNL A   1      42.290  22.624  25.401  1.00  0.00    -0.352 N 
ATOM      3  O   UNL A   1      40.831  22.244  27.107  1.00  0.00    -0.269 OA
ATOM      4  C   UNL A   1      41.500  23.035  26.475  1.00  0.00     0.251 C 
ATOM      5  H   UNL A   1      42.072  21.742  25.022  1.00  0.00     0.163 HD
BRANCH   4   6
ATOM      6  C   UNL A   1      41.508  24.473  26.808  1.00  0.00     0.039 A 
ATOM      7  C   UNL A   1      40.710  25.427  26.174  1.00  0.00     0.014 A 
ATOM      8  C   UNL A   1      42.284  24.817  27.899  1.00  0.00     0.014 A 
ATOM      9  C   UNL A   1      40.652  26.706  26.733  1.00  0.00     0.010 A 
ATOM     10  C   UNL A   1      41.927  25.909  28.623  1.00  0.00     0.010 A 
ATOM     11  C   UNL A   1      41.256  26.929  27.981  1.00  0.00    -0.014 A 
BRANCH  11  12
ATOM     12  C   UNL A   1      41.211  28.200  28.688  1.00  0.00     0.031 A 
ATOM     13  C   UNL A   1      42.310  29.131  28.351  1.00  0.00     0.074 A 
ATOM     14  C   UNL A   1      40.149  28.580  29.440  1.00  0.00     0.049 A 
ATOM     15  N   UNL A   1      43.350  29.395  29.065  1.00  0.00    -0.248 NA
ATOM     16  C   UNL A   1      42.358  29.695  26.994  1.00  0.00     0.031 C 
ATOM     17  C   UNL A   1      38.857  27.899  29.637  1.00  0.00     0.029 A 
ATOM     18  N   UNL A   1      39.970  29.733  30.136  1.00  0.00    -0.354 N 
ATOM     19  C   UNL A   1      44.050  30.367  28.362  1.00  0.00     0.074 A 
ATOM     20  C   UNL A   1      43.529  30.336  27.020  1.00  0.00     0.031 C 
ATOM     21  C   UNL A   1      37.966  28.744  30.195  1.00  0.00     0.029 A 
ATOM     22  C   UNL A   1      38.671  29.943  30.591  1.00  0.00     0.049 A 
ATOM     23  H   UNL A   1      40.701  30.369  30.308  1.00  0.00     0.167 HD
ATOM     24  C   UNL A   1      44.802  31.293  29.017  1.00  0.00     0.037 A 
ATOM     25  C   UNL A   1      38.211  31.018  31.275  1.00  0.00     0.037 A 
ATOM     26  C   UNL A   1      45.002  30.912  30.397  1.00  0.00     0.049 A 
ATOM     27  C   UNL A   1      39.400  31.643  31.906  1.00  0.00     0.074 A 
ATOM     28  C   UNL A   1      45.584  29.835  31.034  1.00  0.00     0.029 A 
ATOM     29  N   UNL A   1      44.190  31.511  31.332  1.00  0.00    -0.354 N 
ATOM     30  N   UNL A   1      40.114  31.068  32.836  1.00  0.00    -0.248 NA
ATOM     31  C   UNL A   1      40.063  32.717  31.186  1.00  0.00     0.031 C 
ATOM     32  C   UNL A   1      44.753  29.575  32.165  1.00  0.00     0.029 A 
ATOM     33  C   UNL A   1      43.751  30.546  32.204  1.00  0.00     0.049 A 
ATOM     34  H   UNL A   1      43.962  32.468  31.369  1.00  0.00     0.167 HD
ATOM     35  C   UNL A   1      41.427  31.400  32.532  1.00  0.00     0.074 A 
ATOM     36  C   UNL A   1      41.323  32.503  31.578  1.00  0.00     0.031 C 
ATOM     37  C   UNL A   1      42.460  30.571  32.866  1.00  0.00     0.037 A 
BRANCH  24  38
ATOM     38  C   UNL A   1      45.028  32.707  28.535  1.00  0.00     0.058 A 
ATOM     39  C   UNL A   1      46.345  33.152  28.302  1.00  0.00     0.135 A 
ATOM     40  C   UNL A   1      44.039  33.715  28.547  1.00  0.00     0.135 A 
ATOM     41  F   UNL A   1      47.368  32.281  28.281  1.00  0.00    -0.206 F 
ATOM     42  C   UNL A   1      46.663  34.503  28.160  1.00  0.00     0.059 A 
ATOM     43  C   UNL A   1      44.325  35.061  28.349  1.00  0.00     0.059 A 
ATOM     44  F   UNL A   1      42.760  33.464  28.850  1.00  0.00    -0.206 F 
ATOM     45  C   UNL A   1      45.645  35.450  28.197  1.00  0.00     0.060 A 
BRANCH  45  46
ATOM     46  S   UNL A   1      46.060  37.200  28.115  1.00  0.00     0.124 S 
ATOM     47  O   UNL A   1      45.674  37.652  29.446  1.00  0.00    -0.237 OA
ATOM     48  O   UNL A   1      47.492  37.157  27.843  1.00  0.00    -0.237 OA
ATOM     49  O   UNL A   1      45.233  37.690  27.016  1.00  0.00    -0.744 OA
ENDBRANCH  45  46
ENDBRANCH  24  38
BRANCH  25  50
ATOM     50  C   UNL A   1      36.900  31.709  31.156  1.00  0.00     0.058 A 
ATOM     51  C   UNL A   1      36.042  31.816  32.265  1.00  0.00     0.135 A 
ATOM     52  C   UNL A   1      36.602  32.539  30.056  1.00  0.00     0.135 A 
ATOM     53  F   UNL A   1      36.254  31.065  33.356  1.00  0.00    -0.206 F 
ATOM     54  C   UNL A   1      35.002  32.749  32.316  1.00  0.00     0.059 A 
ATOM     55  C   UNL A   1      35.565  33.472  30.081  1.00  0.00     0.059 A 
ATOM     56  F   UNL A   1      37.377  32.538  28.961  1.00  0.00    -0.206 F 
ATOM     57  C   UNL A   1      34.790  33.597  31.229  1.00  0.00     0.060 A 
BRANCH  57  58
ATOM     58  S   UNL A   1      33.589  34.941  31.379  1.00  0.00     0.124 S 
ATOM     59  O   UNL A   1      32.793  34.511  32.523  1.00  0.00    -0.237 OA
ATOM     60  O   UNL A   1      34.450  36.098  31.603  1.00  0.00    -0.237 OA
ATOM     61  O   UNL A   1      32.897  34.924  30.093  1.00  0.00    -0.744 OA
ENDBRANCH  57  58
ENDBRANCH  25  50
BRANCH  37  62
ATOM     62  C   UNL A   1      42.186  29.464  33.858  1.00  0.00     0.058 A 
ATOM     63  C   UNL A   1      41.755  28.168  33.520  1.00  0.00     0.135 A 
ATOM     64  C   UNL A   1      42.520  29.691  35.202  1.00  0.00     0.135 A 
ATOM     65  F   UNL A   1      41.500  27.835  32.248  1.00  0.00    -0.206 F 
ATOM     66  C   UNL A   1      41.633  27.156  34.477  1.00  0.00     0.059 A 
ATOM     67  C   UNL A   1      42.434  28.691  36.168  1.00  0.00     0.059 A 
ATOM     68  F   UNL A   1      42.989  30.890  35.583  1.00  0.00    -0.206 F 
ATOM     69  C   UNL A   1      41.981  27.427  35.801  1.00  0.00     0.060 A 
BRANCH  69  70
ATOM     70  S   UNL A   1      41.901  26.099  37.024  1.00  0.00     0.124 S 
ATOM     71  O   UNL A   1      40.525  26.197  37.499  1.00  0.00    -0.237 OA
ATOM     72  O   UNL A   1      42.213  24.915  36.228  1.00  0.00    -0.237 OA
ATOM     73  O   UNL A   1      42.924  26.470  37.999  1.00  0.00    -0.744 OA
ENDBRANCH  69  70
ENDBRANCH  37  62
ENDBRANCH  11  12
ENDBRANCH   4   6
ENDBRANCH   1   2
BRANCH   1  74
ATOM     74  C   UNL A   1      44.424  22.426  24.104  1.00  0.00     0.042 C 
BRANCH  74  75
ATOM     75  C   UNL A   1      45.804  22.530  24.750  1.00  0.00     0.118 C 
BRANCH  75  76
ATOM     76  N   UNL A   1      46.740  23.406  24.052  1.00  0.00    -0.352 N 
ATOM     77  C   UNL A   1      47.069  24.719  24.305  1.00  0.00     0.251 C 
ATOM     78  H   UNL A   1      47.205  22.998  23.287  1.00  0.00     0.163 HD
ATOM     79  O   UNL A   1      47.889  25.303  23.606  1.00  0.00    -0.269 OA
BRANCH  77  80
ATOM     80  C   UNL A   1      46.400  25.425  25.414  1.00  0.00     0.049 A 
ATOM     81  C   UNL A   1      45.220  26.143  25.184  1.00  0.00     0.014 A 
ATOM     82  C   UNL A   1      46.988  25.421  26.695  1.00  0.00     0.012 A 
ATOM     83  C   UNL A   1      44.705  26.974  26.172  1.00  0.00     0.003 A 
ATOM     84  C   UNL A   1      46.425  26.232  27.693  1.00  0.00     0.049 A 
ATOM     85  C   UNL A   1      48.122  24.779  27.264  1.00  0.00     0.029 A 
ATOM     86  C   UNL A   1      45.306  27.044  27.433  1.00  0.00     0.027 A 
ATOM     87  N   UNL A   1      47.186  26.047  28.834  1.00  0.00    -0.343 N 
ATOM     88  C   UNL A   1      48.251  25.223  28.556  1.00  0.00     0.087 A 
BRANCH  87  89
ATOM     89  C   UNL A   1      46.968  26.685  30.130  1.00  0.00     0.157 C 
BRANCH  89  90
ATOM     90  C   UNL A   1      46.174  25.825  31.084  1.00  0.00    -0.025 A 
ATOM     91  C   UNL A   1      45.083  25.066  30.644  1.00  0.00     0.025 A 
ATOM     92  C   UNL A   1      46.528  25.734  32.434  1.00  0.00     0.025 A 
ATOM     93  C   UNL A   1      44.397  24.276  31.553  1.00  0.00     0.111 A 
ATOM     94  C   UNL A   1      45.789  24.902  33.265  1.00  0.00     0.111 A 
ATOM     95  N   UNL A   1      44.733  24.169  32.854  1.00  0.00    -0.265 NA
ENDBRANCH  89  90
ENDBRANCH  87  89
ENDBRANCH  77  80
ENDBRANCH  75  76
ENDBRANCH  74  75
ENDBRANCH   1  74
TORSDOF 15
ENDMDL
MODEL 2
REMARK VINA RESULT:     -10.6      4.363      7.261
REMARK SMILES O=C(NCCCNC(=O)c1cccc2c1ccn2Cc1ccncc1)c1ccc(-c2c3nc(c(-c4c(F)cc(S(=O)(=O)[O-])cc4F)c4ccc([nH]4)c(-c4c(F)cc(S(=O)(=O)[O-])cc4F)c4nc(c(-c5c(F)cc(S(=O)(=O)[O-])cc5F)c5ccc2[nH]5)C=C4)C=C3)cc1
REMARK SMILES IDX 4 1 3 2 1 3 2 4 26 6 27 7 91 8 28 9 90 10 29 11 30 12 31 13
REMARK SMILES IDX 84 14 32 15 89 16 83 17 85 18 33 19 88 20 82 21 81 22 34 24
REMARK SMILES IDX 68 25 47 26 67 27 48 28 51 29 66 30 86 31 49 32 50 33 65 35
REMARK SMILES IDX 87 36 52 37 35 38 36 39 45 40 37 41 38 42 44 43 46 44 39 45
REMARK SMILES IDX 40 46 41 47 42 48 43 49 69 50 70 51 79 52 71 53 72 54 78 55
REMARK SMILES IDX 80 56 73 57 74 58 75 59 76 60 77 61 53 62 54 63 63 64 55 65
REMARK SMILES IDX 56 66 62 67 64 68 57 69 58 70 59 71 60 72 61 73 5 74 6 75
REMARK SMILES IDX 7 76 8 77 9 79 10 80 11 81 15 82 12 83 14 84 16 85 13 86
REMARK SMILES IDX 18 87 17 88 19 89 20 90 21 91 25 92 22 93 24 94 23 95
REMARK H PARENT 3 5 85 23 51 34 7 78
REMARK Flexibility Score: inf
ROOT
ATOM      1  C   UNL A   1      38.030  22.713  25.918  1.00  0.00     0.118 C 
ENDROOT
BRANCH   1   2
ATOM      2  N   UNL A   1      39.163  22.019  26.558  1.00  0.00    -0.352 N 
ATOM      3  O   UNL A   1      41.324  21.871  27.261  1.00  0.00    -0.269 OA
ATOM      4  C   UNL A   1      40.351  22.564  27.048  1.00  0.00     0.251 C 
ATOM      5  H   UNL A   1      39.069  21.043  26.653  1.00  0.00     0.163 HD
BRANCH   4   6
ATOM      6  C   UNL A   1      40.372  24.018  27.299  1.00  0.00     0.039 A 
ATOM      7  C   UNL A   1      39.288  24.867  27.068  1.00  0.00     0.014 A 
ATOM      8  C   UNL A   1      41.518  24.490  27.912  1.00  0.00     0.014 A 
ATOM      9  C   UNL A   1      39.367  26.174  27.555  1.00  0.00     0.010 A 
ATOM     10  C   UNL A   1      41.421  25.600  28.688  1.00  0.00     0.010 A 
ATOM     11  C   UNL A   1      40.442  26.523  28.389  1.00  0.00    -0.014 A 
BRANCH  11  12
ATOM     12  C   UNL A   1      40.598  27.834  29.003  1.00  0.00     0.031 A 
ATOM     13  C   UNL A   1      41.702  28.646  28.447  1.00  0.00     0.074 A 
ATOM     14  C   UNL A   1      39.692  28.346  29.871  1.00  0.00     0.049 A 
ATOM     15  N   UNL A   1      42.853  28.862  28.985  1.00  0.00    -0.248 NA
ATOM     16  C   UNL A   1      41.591  29.123  27.061  1.00  0.00     0.031 C 
ATOM     17  C   UNL A   1      38.395  27.790  30.298  1.00  0.00     0.029 A 
ATOM     18  N   UNL A   1      39.705  29.549  30.502  1.00  0.00    -0.354 N 
ATOM     19  C   UNL A   1      43.513  29.727  28.122  1.00  0.00     0.074 A 
ATOM     20  C   UNL A   1      42.797  29.662  26.873  1.00  0.00     0.031 C 
ATOM     21  C   UNL A   1      37.663  28.740  30.916  1.00  0.00     0.029 A 
ATOM     22  C   UNL A   1      38.508  29.896  31.122  1.00  0.00     0.049 A 
ATOM     23  H   UNL A   1      40.499  30.130  30.522  1.00  0.00     0.167 HD
ATOM     24  C   UNL A   1      44.422  30.623  28.595  1.00  0.00     0.037 A 
ATOM     25  C   UNL A   1      38.237  31.045  31.787  1.00  0.00     0.037 A 
ATOM     26  C   UNL A   1      44.794  30.309  29.956  1.00  0.00     0.049 A 
ATOM     27  C   UNL A   1      39.550  31.602  32.195  1.00  0.00     0.074 A 
ATOM     28  C   UNL A   1      45.381  29.225  30.577  1.00  0.00     0.029 A 
ATOM     29  N   UNL A   1      44.178  31.029  30.952  1.00  0.00    -0.354 N 
ATOM     30  N   UNL A   1      40.349  31.025  33.052  1.00  0.00    -0.248 NA
ATOM     31  C   UNL A   1      40.179  32.571  31.314  1.00  0.00     0.031 C 
ATOM     32  C   UNL A   1      44.711  29.105  31.831  1.00  0.00     0.029 A 
ATOM     33  C   UNL A   1      43.801  30.157  31.944  1.00  0.00     0.049 A 
ATOM     34  H   UNL A   1      44.031  32.002  30.954  1.00  0.00     0.167 HD
ATOM     35  C   UNL A   1      41.623  31.225  32.540  1.00  0.00     0.074 A 
ATOM     36  C   UNL A   1      41.462  32.274  31.535  1.00  0.00     0.031 C 
ATOM     37  C   UNL A   1      42.629  30.332  32.781  1.00  0.00     0.037 A 
BRANCH  24  38
ATOM     38  C   UNL A   1      44.680  31.982  27.986  1.00  0.00     0.058 A 
ATOM     39  C   UNL A   1      45.914  32.228  27.353  1.00  0.00     0.135 A 
ATOM     40  C   UNL A   1      43.883  33.122  28.229  1.00  0.00     0.135 A 
ATOM     41  F   UNL A   1      46.759  31.219  27.084  1.00  0.00    -0.206 F 
ATOM     42  C   UNL A   1      46.353  33.517  27.046  1.00  0.00     0.059 A 
ATOM     43  C   UNL A   1      44.273  34.409  27.878  1.00  0.00     0.059 A 
ATOM     44  F   UNL A   1      42.731  33.064  28.907  1.00  0.00    -0.206 F 
ATOM     45  C   UNL A   1      45.527  34.602  27.324  1.00  0.00     0.060 A 
BRANCH  45  46
ATOM     46  S   UNL A   1      46.128  36.272  27.023  1.00  0.00     0.124 S 
ATOM     47  O   UNL A   1      46.927  36.513  28.219  1.00  0.00    -0.237 OA
ATOM     48  O   UNL A   1      46.872  36.104  25.780  1.00  0.00    -0.237 OA
ATOM     49  O   UNL A   1      44.901  37.056  26.913  1.00  0.00    -0.744 OA
ENDBRANCH  45  46
ENDBRANCH  24  38
BRANCH  25  50
ATOM     50  C   UNL A   1      36.979  31.836  31.808  1.00  0.00     0.058 A 
ATOM     51  C   UNL A   1      36.400  32.232  33.027  1.00  0.00     0.135 A 
ATOM     52  C   UNL A   1      36.494  32.480  30.651  1.00  0.00     0.135 A 
ATOM     53  F   UNL A   1      36.805  31.673  34.178  1.00  0.00    -0.206 F 
ATOM     54  C   UNL A   1      35.459  33.263  33.107  1.00  0.00     0.059 A 
ATOM     55  C   UNL A   1      35.550  33.506  30.705  1.00  0.00     0.059 A 
ATOM     56  F   UNL A   1      37.002  32.199  29.441  1.00  0.00    -0.206 F 
ATOM     57  C   UNL A   1      35.063  33.917  31.940  1.00  0.00     0.060 A 
BRANCH  57  58
ATOM     58  S   UNL A   1      34.012  35.385  32.066  1.00  0.00     0.124 S 
ATOM     59  O   UNL A   1      34.819  36.265  32.905  1.00  0.00    -0.237 OA
ATOM     60  O   UNL A   1      33.878  35.786  30.668  1.00  0.00    -0.237 OA
ATOM     61  O   UNL A   1      32.791  34.877  32.684  1.00  0.00    -0.744 OA
ENDBRANCH  57  58
ENDBRANCH  25  50
BRANCH  37  62
ATOM     62  C   UNL A   1      42.422  29.312  33.878  1.00  0.00     0.058 A 
ATOM     63  C   UNL A   1      41.818  28.054  33.704  1.00  0.00     0.135 A 
ATOM     64  C   UNL A   1      42.998  29.572  35.131  1.00  0.00     0.135 A 
ATOM     65  F   UNL A   1      41.322  27.684  32.517  1.00  0.00    -0.206 F 
ATOM     66  C   UNL A   1      41.764  27.111  34.736  1.00  0.00     0.059 A 
ATOM     67  C   UNL A   1      42.982  28.638  36.164  1.00  0.00     0.059 A 
ATOM     68  F   UNL A   1      43.638  30.733  35.347  1.00  0.00    -0.206 F 
ATOM     69  C   UNL A   1      42.355  27.411  35.963  1.00  0.00     0.060 A 
BRANCH  69  70
ATOM     70  S   UNL A   1      42.357  26.164  37.270  1.00  0.00     0.124 S 
ATOM     71  O   UNL A   1      42.751  24.959  36.550  1.00  0.00    -0.237 OA
ATOM     72  O   UNL A   1      43.341  26.692  38.211  1.00  0.00    -0.237 OA
ATOM     73  O   UNL A   1      40.978  26.176  37.756  1.00  0.00    -0.744 OA
ENDBRANCH  69  70
ENDBRANCH  37  62
ENDBRANCH  11  12
ENDBRANCH   4   6
ENDBRANCH   1   2
BRANCH   1  74
ATOM     74  C   UNL A   1      37.509  22.019  24.677  1.00  0.00     0.042 C 
BRANCH  74  75
ATOM     75  C   UNL A   1      36.482  20.935  25.002  1.00  0.00     0.118 C 
BRANCH  75  76
ATOM     76  N   UNL A   1      35.778  21.123  26.267  1.00  0.00    -0.352 N 
ATOM     77  C   UNL A   1      34.494  21.563  26.499  1.00  0.00     0.251 C 
ATOM     78  H   UNL A   1      36.297  20.901  27.072  1.00  0.00     0.163 HD
ATOM     79  O   UNL A   1      34.064  21.657  27.643  1.00  0.00    -0.269 OA
BRANCH  77  80
ATOM     80  C   UNL A   1      33.649  21.947  25.354  1.00  0.00     0.049 A 
ATOM     81  C   UNL A   1      32.913  20.977  24.662  1.00  0.00     0.014 A 
ATOM     82  C   UNL A   1      33.632  23.289  24.922  1.00  0.00     0.012 A 
ATOM     83  C   UNL A   1      32.286  21.299  23.465  1.00  0.00     0.003 A 
ATOM     84  C   UNL A   1      32.954  23.602  23.733  1.00  0.00     0.049 A 
ATOM     85  C   UNL A   1      34.210  24.495  25.407  1.00  0.00     0.029 A 
ATOM     86  C   UNL A   1      32.309  22.609  22.974  1.00  0.00     0.027 A 
ATOM     87  N   UNL A   1      33.095  24.965  23.539  1.00  0.00    -0.343 N 
ATOM     88  C   UNL A   1      33.911  25.492  24.512  1.00  0.00     0.087 A 
BRANCH  87  89
ATOM     89  C   UNL A   1      32.547  25.741  22.429  1.00  0.00     0.157 C 
BRANCH  89  90
ATOM     90  C   UNL A   1      31.235  26.407  22.768  1.00  0.00    -0.025 A 
ATOM     91  C   UNL A   1      30.286  25.775  23.581  1.00  0.00     0.025 A 
ATOM     92  C   UNL A   1      30.943  27.695  22.307  1.00  0.00     0.025 A 
ATOM     93  C   UNL A   1      29.104  26.434  23.880  1.00  0.00     0.111 A 
ATOM     94  C   UNL A   1      29.737  28.280  22.674  1.00  0.00     0.111 A 
ATOM     95  N   UNL A   1      28.814  27.680  23.453  1.00  0.00    -0.265 NA
ENDBRANCH  89  90
ENDBRANCH  87  89
ENDBRANCH  77  80
ENDBRANCH  75  76
ENDBRANCH  74  75
ENDBRANCH   1  74
TORSDOF 15
ENDMDL
MODEL 3
REMARK VINA RESULT:     -10.6      5.470     12.365
REMARK SMILES O=C(NCCCNC(=O)c1cccc2c1ccn2Cc1ccncc1)c1ccc(-c2c3nc(c(-c4c(F)cc(S(=O)(=O)[O-])cc4F)c4ccc([nH]4)c(-c4c(F)cc(S(=O)(=O)[O-])cc4F)c4nc(c(-c5c(F)cc(S(=O)(=O)[O-])cc5F)c5ccc2[nH]5)C=C4)C=C3)cc1
REMARK SMILES IDX 4 1 3 2 1 3 2 4 26 6 27 7 91 8 28 9 90 10 29 11 30 12 31 13
REMARK SMILES IDX 84 14 32 15 89 16 83 17 85 18 33 19 88 20 82 21 81 22 34 24
REMARK SMILES IDX 68 25 47 26 67 27 48 28 51 29 66 30 86 31 49 32 50 33 65 35
REMARK SMILES IDX 87 36 52 37 35 38 36 39 45 40 37 41 38 42 44 43 46 44 39 45
REMARK SMILES IDX 40 46 41 47 42 48 43 49 69 50 70 51 79 52 71 53 72 54 78 55
REMARK SMILES IDX 80 56 73 57 74 58 75 59 76 60 77 61 53 62 54 63 63 64 55 65
REMARK SMILES IDX 56 66 62 67 64 68 57 69 58 70 59 71 60 72 61 73 5 74 6 75
REMARK SMILES IDX 7 76 8 77 9 79 10 80 11 81 15 82 12 83 14 84 16 85 13 86
REMARK SMILES IDX 18 87 17 88 19 89 20 90 21 91 25 92 22 93 24 94 23 95
REMARK H PARENT 3 5 85 23 51 34 7 78
REMARK Flexibility Score: inf
ROOT
ATOM      1  C   UNL A   1      34.854  30.626  27.295  1.00  0.00     0.118 C 
ENDROOT
BRANCH   1   2
ATOM      2  N   UNL A   1      34.632  31.774  28.194  1.00  0.00    -0.352 N 
ATOM      3  O   UNL A   1      34.642  32.796  30.229  1.00  0.00    -0.269 OA
ATOM      4  C   UNL A   1      35.137  31.981  29.478  1.00  0.00     0.251 C 
ATOM      5  H   UNL A   1      34.053  32.488  27.842  1.00  0.00     0.163 HD
BRANCH   4   6
ATOM      6  C   UNL A   1      36.301  31.170  29.885  1.00  0.00     0.039 A 
ATOM      7  C   UNL A   1      36.234  29.813  30.209  1.00  0.00     0.014 A 
ATOM      8  C   UNL A   1      37.521  31.815  29.806  1.00  0.00     0.014 A 
ATOM      9  C   UNL A   1      37.436  29.117  30.358  1.00  0.00     0.010 A 
ATOM     10  C   UNL A   1      38.631  31.066  29.579  1.00  0.00     0.010 A 
ATOM     11  C   UNL A   1      38.638  29.758  30.017  1.00  0.00    -0.014 A 
BRANCH  11  12
ATOM     12  C   UNL A   1      39.943  29.116  30.074  1.00  0.00     0.031 A 
ATOM     13  C   UNL A   1      40.457  28.889  31.442  1.00  0.00     0.074 A 
ATOM     14  C   UNL A   1      40.547  28.592  28.980  1.00  0.00     0.049 A 
ATOM     15  N   UNL A   1      41.372  29.566  32.049  1.00  0.00    -0.248 NA
ATOM     16  C   UNL A   1      39.758  27.924  32.302  1.00  0.00     0.031 C 
ATOM     17  C   UNL A   1      40.036  28.473  27.603  1.00  0.00     0.029 A 
ATOM     18  N   UNL A   1      41.746  27.959  28.893  1.00  0.00    -0.354 N 
ATOM     19  C   UNL A   1      41.551  28.937  33.274  1.00  0.00     0.074 A 
ATOM     20  C   UNL A   1      40.393  28.102  33.463  1.00  0.00     0.031 C 
ATOM     21  C   UNL A   1      40.804  27.620  26.893  1.00  0.00     0.029 A 
ATOM     22  C   UNL A   1      41.972  27.302  27.686  1.00  0.00     0.049 A 
ATOM     23  H   UNL A   1      42.405  27.966  29.624  1.00  0.00     0.167 HD
ATOM     24  C   UNL A   1      42.762  28.953  33.895  1.00  0.00     0.037 A 
ATOM     25  C   UNL A   1      43.060  26.568  27.349  1.00  0.00     0.037 A 
ATOM     26  C   UNL A   1      43.639  29.929  33.287  1.00  0.00     0.049 A 
ATOM     27  C   UNL A   1      44.156  27.027  28.237  1.00  0.00     0.074 A 
ATOM     28  C   UNL A   1      43.594  31.297  33.108  1.00  0.00     0.029 A 
ATOM     29  N   UNL A   1      44.565  29.459  32.386  1.00  0.00    -0.354 N 
ATOM     30  N   UNL A   1      44.668  28.229  28.197  1.00  0.00    -0.248 NA
ATOM     31  C   UNL A   1      44.377  26.298  29.474  1.00  0.00     0.031 C 
ATOM     32  C   UNL A   1      44.151  31.523  31.814  1.00  0.00     0.029 A 
ATOM     33  C   UNL A   1      44.571  30.296  31.298  1.00  0.00     0.049 A 
ATOM     34  H   UNL A   1      45.127  28.659  32.500  1.00  0.00     0.167 HD
ATOM     35  C   UNL A   1      44.888  28.565  29.525  1.00  0.00     0.074 A 
ATOM     36  C   UNL A   1      44.795  27.301  30.252  1.00  0.00     0.031 C 
ATOM     37  C   UNL A   1      44.848  29.867  29.939  1.00  0.00     0.037 A 
BRANCH  24  38
ATOM     38  C   UNL A   1      43.287  27.843  34.776  1.00  0.00     0.058 A 
ATOM     39  C   UNL A   1      43.697  28.144  36.090  1.00  0.00     0.135 A 
ATOM     40  C   UNL A   1      43.650  26.563  34.304  1.00  0.00     0.135 A 
ATOM     41  F   UNL A   1      43.416  29.338  36.637  1.00  0.00    -0.206 F 
ATOM     42  C   UNL A   1      44.467  27.266  36.852  1.00  0.00     0.059 A 
ATOM     43  C   UNL A   1      44.367  25.648  35.067  1.00  0.00     0.059 A 
ATOM     44  F   UNL A   1      43.418  26.166  33.047  1.00  0.00    -0.206 F 
ATOM     45  C   UNL A   1      44.806  26.023  36.325  1.00  0.00     0.060 A 
BRANCH  45  46
ATOM     46  S   UNL A   1      45.883  24.928  37.263  1.00  0.00     0.124 S 
ATOM     47  O   UNL A   1      46.354  24.022  36.222  1.00  0.00    -0.237 OA
ATOM     48  O   UNL A   1      46.870  25.860  37.797  1.00  0.00    -0.237 OA
ATOM     49  O   UNL A   1      44.984  24.340  38.253  1.00  0.00    -0.744 OA
ENDBRANCH  45  46
ENDBRANCH  24  38
BRANCH  25  50
ATOM     50  C   UNL A   1      43.129  25.311  26.560  1.00  0.00     0.058 A 
ATOM     51  C   UNL A   1      44.007  25.196  25.468  1.00  0.00     0.135 A 
ATOM     52  C   UNL A   1      42.577  24.107  27.044  1.00  0.00     0.135 A 
ATOM     53  F   UNL A   1      44.581  26.290  24.946  1.00  0.00    -0.206 F 
ATOM     54  C   UNL A   1      44.382  23.957  24.939  1.00  0.00     0.059 A 
ATOM     55  C   UNL A   1      42.930  22.860  26.527  1.00  0.00     0.059 A 
ATOM     56  F   UNL A   1      41.754  24.102  28.103  1.00  0.00    -0.206 F 
ATOM     57  C   UNL A   1      43.861  22.790  25.497  1.00  0.00     0.060 A 
BRANCH  57  58
ATOM     58  S   UNL A   1      44.508  21.189  24.956  1.00  0.00     0.124 S 
ATOM     59  O   UNL A   1      43.508  20.264  25.480  1.00  0.00    -0.237 OA
ATOM     60  O   UNL A   1      44.532  21.344  23.504  1.00  0.00    -0.237 OA
ATOM     61  O   UNL A   1      45.820  21.118  25.593  1.00  0.00    -0.744 OA
ENDBRANCH  57  58
ENDBRANCH  25  50
BRANCH  37  62
ATOM     62  C   UNL A   1      44.893  30.947  28.883  1.00  0.00     0.058 A 
ATOM     63  C   UNL A   1      46.056  31.372  28.215  1.00  0.00     0.135 A 
ATOM     64  C   UNL A   1      43.673  31.469  28.427  1.00  0.00     0.135 A 
ATOM     65  F   UNL A   1      47.254  30.861  28.522  1.00  0.00    -0.206 F 
ATOM     66  C   UNL A   1      46.009  32.295  27.165  1.00  0.00     0.059 A 
ATOM     67  C   UNL A   1      43.599  32.366  27.364  1.00  0.00     0.059 A 
ATOM     68  F   UNL A   1      42.520  31.063  28.986  1.00  0.00    -0.206 F 
ATOM     69  C   UNL A   1      44.773  32.782  26.743  1.00  0.00     0.060 A 
BRANCH  69  70
ATOM     70  S   UNL A   1      44.704  33.913  25.334  1.00  0.00     0.124 S 
ATOM     71  O   UNL A   1      43.798  34.950  25.813  1.00  0.00    -0.237 OA
ATOM     72  O   UNL A   1      46.100  34.312  25.179  1.00  0.00    -0.237 OA
ATOM     73  O   UNL A   1      44.181  33.080  24.253  1.00  0.00    -0.744 OA
ENDBRANCH  69  70
ENDBRANCH  37  62
ENDBRANCH  11  12
ENDBRANCH   4   6
ENDBRANCH   1   2
BRANCH   1  74
ATOM     74  C   UNL A   1      33.578  30.021  26.748  1.00  0.00     0.042 C 
BRANCH  74  75
ATOM     75  C   UNL A   1      33.369  28.580  27.212  1.00  0.00     0.118 C 
BRANCH  75  76
ATOM     76  N   UNL A   1      34.027  27.572  26.385  1.00  0.00    -0.352 N 
ATOM     77  C   UNL A   1      33.490  26.721  25.446  1.00  0.00     0.251 C 
ATOM     78  H   UNL A   1      34.998  27.490  26.520  1.00  0.00     0.163 HD
ATOM     79  O   UNL A   1      34.204  25.932  24.839  1.00  0.00    -0.269 OA
BRANCH  77  80
ATOM     80  C   UNL A   1      32.037  26.752  25.197  1.00  0.00     0.049 A 
ATOM     81  C   UNL A   1      31.192  25.833  25.831  1.00  0.00     0.014 A 
ATOM     82  C   UNL A   1      31.510  27.676  24.272  1.00  0.00     0.012 A 
ATOM     83  C   UNL A   1      29.862  25.725  25.444  1.00  0.00     0.003 A 
ATOM     84  C   UNL A   1      30.153  27.579  23.928  1.00  0.00     0.049 A 
ATOM     85  C   UNL A   1      32.063  28.741  23.510  1.00  0.00     0.029 A 
ATOM     86  C   UNL A   1      29.326  26.582  24.477  1.00  0.00     0.027 A 
ATOM     87  N   UNL A   1      29.900  28.586  23.012  1.00  0.00    -0.343 N 
ATOM     88  C   UNL A   1      31.068  29.243  22.708  1.00  0.00     0.087 A 
BRANCH  87  89
ATOM     89  C   UNL A   1      28.615  28.875  22.378  1.00  0.00     0.157 C 
BRANCH  89  90
ATOM     90  C   UNL A   1      28.388  30.351  22.155  1.00  0.00    -0.025 A 
ATOM     91  C   UNL A   1      28.474  31.269  23.209  1.00  0.00     0.025 A 
ATOM     92  C   UNL A   1      28.119  30.851  20.877  1.00  0.00     0.025 A 
ATOM     93  C   UNL A   1      28.277  32.616  22.951  1.00  0.00     0.111 A 
ATOM     94  C   UNL A   1      27.952  32.221  20.715  1.00  0.00     0.111 A 
ATOM     95  N   UNL A   1      28.028  33.114  21.723  1.00  0.00    -0.265 NA
ENDBRANCH  89  90
ENDBRANCH  87  89
ENDBRANCH  77  80
ENDBRANCH  75  76
ENDBRANCH  74  75
ENDBRANCH   1  74
TORSDOF 15
ENDMDL
