MODEL 1
REMARK VINA RESULT:     -11.4      0.000      0.000
REMARK SMILES CC(C)C[C@H](NC(=O)CNC(=O)[C@@H](NC(=O)OCc1ccccc1)C(C)C)C(=O)NCCCNC(=O)c1ccc(-c2c3nc(c(-c4c(F)cc(S(=O)(=O)[O-])cc4F)c4ccc([nH]4)c(-c4c(F)cc(S(=O)(=O)[O-])cc4F)c4nc(c(-c5c(F)cc(S(=O)(=O)[O-])cc5F)c5ccc2[nH]5)C=C4)C=C3)cc1
REMARK SMILES IDX 28 1 29 2 30 3 5 5 4 6 2 7 1 8 3 9 6 10 7 11 8 13 9 14 10 15
REMARK SMILES IDX 11 16 12 18 13 19 14 20 15 21 16 23 17 24 18 25 19 26 20 27
REMARK SMILES IDX 24 28 21 29 23 30 22 31 25 32 26 33 27 34 31 35 32 36 33 37
REMARK SMILES IDX 34 38 35 39 36 41 37 42 38 43 102 44 39 45 101 46 40 47
REMARK SMILES IDX 41 48 42 49 95 50 43 51 100 52 94 53 96 54 44 55 99 56 93 57
REMARK SMILES IDX 92 58 45 60 79 61 58 62 78 63 59 64 62 65 77 66 97 67 60 68
REMARK SMILES IDX 61 69 76 71 98 72 63 73 46 74 47 75 56 76 48 77 49 78 55 79
REMARK SMILES IDX 57 80 50 81 51 82 52 83 53 84 54 85 80 86 81 87 90 88 82 89
REMARK SMILES IDX 83 90 89 91 91 92 84 93 85 94 86 95 87 96 88 97 64 98 65 99
REMARK SMILES IDX 74 100 66 101 67 102 73 103 75 104 68 105 69 106 70 107
REMARK SMILES IDX 71 108 72 109
REMARK H PARENT 30 4 6 12 10 17 14 22 34 40 96 59 62 70
REMARK Flexibility Score: inf
ROOT
ATOM      1  C   UNL A   1      31.881  27.911  27.061  1.00  0.00     0.242 C 
ATOM      2  O   UNL A   1      30.998  27.505  27.828  1.00  0.00    -0.273 OA
ATOM      3  N   UNL A   1      32.841  28.708  27.579  1.00  0.00    -0.354 N 
ATOM      4  H   UNL A   1      32.923  28.677  28.560  1.00  0.00     0.163 HD
ENDROOT
BRANCH   1   5
ATOM      5  C   UNL A   1      31.821  27.561  25.570  1.00  0.00     0.171 C 
BRANCH   5   6
ATOM      6  C   UNL A   1      31.296  28.629  24.593  1.00  0.00     0.038 C 
BRANCH   6   7
ATOM      7  C   UNL A   1      30.744  28.050  23.260  1.00  0.00    -0.015 C 
ATOM      8  C   UNL A   1      30.000  29.085  22.401  1.00  0.00     0.007 C 
ATOM      9  C   UNL A   1      31.890  27.531  22.394  1.00  0.00     0.007 C 
ENDBRANCH   6   7
ENDBRANCH   5   6
BRANCH   5  10
ATOM     10  N   UNL A   1      31.247  26.242  25.328  1.00  0.00    -0.343 N 
ATOM     11  C   UNL A   1      31.812  25.005  25.409  1.00  0.00     0.240 C 
ATOM     12  H   UNL A   1      30.299  26.246  25.063  1.00  0.00     0.164 HD
ATOM     13  O   UNL A   1      31.100  24.042  25.103  1.00  0.00    -0.273 OA
BRANCH  11  14
ATOM     14  C   UNL A   1      33.267  24.743  25.871  1.00  0.00     0.216 C 
BRANCH  14  15
ATOM     15  N   UNL A   1      33.567  23.666  26.796  1.00  0.00    -0.345 N 
ATOM     16  C   UNL A   1      34.033  22.393  26.622  1.00  0.00     0.243 C 
ATOM     17  H   UNL A   1      33.401  23.899  27.738  1.00  0.00     0.164 HD
ATOM     18  O   UNL A   1      33.989  21.627  27.593  1.00  0.00    -0.273 OA
BRANCH  16  19
ATOM     19  C   UNL A   1      34.717  21.914  25.342  1.00  0.00     0.177 C 
BRANCH  19  20
ATOM     20  N   UNL A   1      33.924  22.312  24.180  1.00  0.00    -0.309 N 
ATOM     21  C   UNL A   1      32.939  21.680  23.502  1.00  0.00     0.408 C 
ATOM     22  H   UNL A   1      34.147  23.203  23.826  1.00  0.00     0.167 HD
ATOM     23  O   UNL A   1      32.524  22.101  22.429  1.00  0.00    -0.225 OA
BRANCH  21  24
ATOM     24  O   UNL A   1      32.449  20.619  24.171  1.00  0.00    -0.445 OA
BRANCH  24  25
ATOM     25  C   UNL A   1      32.105  19.485  23.372  1.00  0.00     0.270 C 
BRANCH  25  26
ATOM     26  C   UNL A   1      32.747  18.212  23.882  1.00  0.00    -0.011 A 
ATOM     27  C   UNL A   1      33.671  17.467  23.128  1.00  0.00     0.007 A 
ATOM     28  C   UNL A   1      32.460  17.782  25.183  1.00  0.00     0.007 A 
ATOM     29  C   UNL A   1      34.286  16.332  23.649  1.00  0.00     0.000 A 
ATOM     30  C   UNL A   1      33.078  16.645  25.706  1.00  0.00     0.000 A 
ATOM     31  C   UNL A   1      33.991  15.922  24.941  1.00  0.00     0.000 A 
ENDBRANCH  25  26
ENDBRANCH  24  25
ENDBRANCH  21  24
ENDBRANCH  19  20
BRANCH  19  32
ATOM     32  C   UNL A   1      36.224  22.250  25.471  1.00  0.00     0.015 C 
ATOM     33  C   UNL A   1      37.098  21.111  24.898  1.00  0.00     0.010 C 
ATOM     34  C   UNL A   1      36.607  23.524  24.721  1.00  0.00     0.010 C 
ENDBRANCH  19  32
ENDBRANCH  16  19
ENDBRANCH  14  15
ENDBRANCH  11  14
ENDBRANCH   5  10
ENDBRANCH   1   5
BRANCH   3  35
ATOM     35  C   UNL A   1      33.769  29.602  26.919  1.00  0.00     0.117 C 
BRANCH  35  36
ATOM     36  C   UNL A   1      35.190  29.383  27.424  1.00  0.00     0.042 C 
BRANCH  36  37
ATOM     37  C   UNL A   1      35.773  30.576  28.175  1.00  0.00     0.118 C 
BRANCH  37  38
ATOM     38  N   UNL A   1      35.696  30.414  29.625  1.00  0.00    -0.352 N 
ATOM     39  C   UNL A   1      36.635  29.937  30.503  1.00  0.00     0.251 C 
ATOM     40  H   UNL A   1      34.843  30.689  30.032  1.00  0.00     0.163 HD
ATOM     41  O   UNL A   1      36.310  29.640  31.647  1.00  0.00    -0.269 OA
BRANCH  39  42
ATOM     42  C   UNL A   1      38.027  29.768  30.048  1.00  0.00     0.039 A 
ATOM     43  C   UNL A   1      39.007  29.392  30.967  1.00  0.00     0.014 A 
ATOM     44  C   UNL A   1      38.349  29.961  28.703  1.00  0.00     0.014 A 
ATOM     45  C   UNL A   1      40.304  29.145  30.517  1.00  0.00     0.010 A 
ATOM     46  C   UNL A   1      39.611  29.610  28.242  1.00  0.00     0.010 A 
ATOM     47  C   UNL A   1      40.606  29.213  29.147  1.00  0.00    -0.014 A 
BRANCH  47  48
ATOM     48  C   UNL A   1      41.962  28.901  28.637  1.00  0.00     0.031 A 
ATOM     49  C   UNL A   1      42.286  27.501  28.185  1.00  0.00     0.074 A 
ATOM     50  C   UNL A   1      42.913  29.856  28.638  1.00  0.00     0.049 A 
ATOM     51  N   UNL A   1      43.424  27.010  27.769  1.00  0.00    -0.248 NA
ATOM     52  C   UNL A   1      41.193  26.514  28.242  1.00  0.00     0.031 C 
ATOM     53  C   UNL A   1      42.730  31.233  29.103  1.00  0.00     0.029 A 
ATOM     54  N   UNL A   1      44.225  29.814  28.241  1.00  0.00    -0.354 N 
ATOM     55  C   UNL A   1      43.187  25.661  27.530  1.00  0.00     0.074 A 
ATOM     56  C   UNL A   1      41.820  25.395  27.913  1.00  0.00     0.031 C 
ATOM     57  C   UNL A   1      43.876  31.911  28.937  1.00  0.00     0.029 A 
ATOM     58  C   UNL A   1      44.888  31.009  28.396  1.00  0.00     0.049 A 
ATOM     59  H   UNL A   1      44.653  29.004  27.880  1.00  0.00     0.167 HD
ATOM     60  C   UNL A   1      44.027  24.736  27.009  1.00  0.00     0.037 A 
ATOM     61  C   UNL A   1      46.169  31.337  28.139  1.00  0.00     0.037 A 
ATOM     62  C   UNL A   1      45.380  25.020  26.609  1.00  0.00     0.049 A 
ATOM     63  C   UNL A   1      47.087  30.288  27.569  1.00  0.00     0.074 A 
ATOM     64  C   UNL A   1      46.296  24.173  26.016  1.00  0.00     0.029 A 
ATOM     65  N   UNL A   1      46.010  26.247  26.767  1.00  0.00    -0.354 N 
ATOM     66  N   UNL A   1      46.826  29.035  27.279  1.00  0.00    -0.248 NA
ATOM     67  C   UNL A   1      48.468  30.697  27.285  1.00  0.00     0.031 C 
ATOM     68  C   UNL A   1      47.500  24.869  25.867  1.00  0.00     0.029 A 
ATOM     69  C   UNL A   1      47.314  26.170  26.306  1.00  0.00     0.049 A 
ATOM     70  H   UNL A   1      45.593  27.052  27.149  1.00  0.00     0.167 HD
ATOM     71  C   UNL A   1      48.003  28.515  26.749  1.00  0.00     0.074 A 
ATOM     72  C   UNL A   1      48.970  29.593  26.747  1.00  0.00     0.031 C 
ATOM     73  C   UNL A   1      48.260  27.259  26.305  1.00  0.00     0.037 A 
BRANCH  60  74
ATOM     74  C   UNL A   1      43.504  23.335  26.838  1.00  0.00     0.058 A 
ATOM     75  C   UNL A   1      43.173  22.817  25.575  1.00  0.00     0.135 A 
ATOM     76  C   UNL A   1      43.362  22.486  27.948  1.00  0.00     0.135 A 
ATOM     77  F   UNL A   1      43.272  23.587  24.480  1.00  0.00    -0.206 F 
ATOM     78  C   UNL A   1      42.690  21.521  25.423  1.00  0.00     0.059 A 
ATOM     79  C   UNL A   1      42.913  21.176  27.816  1.00  0.00     0.059 A 
ATOM     80  F   UNL A   1      43.660  22.929  29.181  1.00  0.00    -0.206 F 
ATOM     81  C   UNL A   1      42.566  20.708  26.549  1.00  0.00     0.060 A 
BRANCH  81  82
ATOM     82  S   UNL A   1      41.950  19.025  26.329  1.00  0.00     0.124 S 
ATOM     83  O   UNL A   1      42.938  18.472  25.407  1.00  0.00    -0.237 OA
ATOM     84  O   UNL A   1      41.990  18.500  27.689  1.00  0.00    -0.237 OA
ATOM     85  O   UNL A   1      40.615  19.220  25.773  1.00  0.00    -0.744 OA
ENDBRANCH  81  82
ENDBRANCH  60  74
BRANCH  61  86
ATOM     86  C   UNL A   1      46.652  32.721  28.398  1.00  0.00     0.058 A 
ATOM     87  C   UNL A   1      47.184  33.080  29.647  1.00  0.00     0.135 A 
ATOM     88  C   UNL A   1      46.602  33.710  27.404  1.00  0.00     0.135 A 
ATOM     89  F   UNL A   1      47.249  32.172  30.633  1.00  0.00    -0.206 F 
ATOM     90  C   UNL A   1      47.629  34.372  29.907  1.00  0.00     0.059 A 
ATOM     91  C   UNL A   1      47.069  35.002  27.630  1.00  0.00     0.059 A 
ATOM     92  F   UNL A   1      46.120  33.416  26.186  1.00  0.00    -0.206 F 
ATOM     93  C   UNL A   1      47.571  35.325  28.889  1.00  0.00     0.060 A 
BRANCH  93  94
ATOM     94  S   UNL A   1      48.192  36.987  29.226  1.00  0.00     0.124 S 
ATOM     95  O   UNL A   1      49.619  36.824  28.978  1.00  0.00    -0.237 OA
ATOM     96  O   UNL A   1      47.460  37.789  28.251  1.00  0.00    -0.237 OA
ATOM     97  O   UNL A   1      47.815  37.212  30.619  1.00  0.00    -0.744 OA
ENDBRANCH  93  94
ENDBRANCH  61  86
BRANCH  73  98
ATOM     98  C   UNL A   1      49.628  26.989  25.742  1.00  0.00     0.058 A 
ATOM     99  C   UNL A   1      49.930  27.206  24.388  1.00  0.00     0.135 A 
ATOM    100  C   UNL A   1      50.669  26.563  26.585  1.00  0.00     0.135 A 
ATOM    101  F   UNL A   1      48.971  27.607  23.538  1.00  0.00    -0.206 F 
ATOM    102  C   UNL A   1      51.208  26.988  23.885  1.00  0.00     0.059 A 
ATOM    103  C   UNL A   1      51.962  26.372  26.111  1.00  0.00     0.059 A 
ATOM    104  F   UNL A   1      50.438  26.351  27.891  1.00  0.00    -0.206 F 
ATOM    105  C   UNL A   1      52.219  26.576  24.756  1.00  0.00     0.060 A 
BRANCH 105 106
ATOM    106  S   UNL A   1      53.882  26.335  24.096  1.00  0.00     0.124 S 
ATOM    107  O   UNL A   1      54.552  27.555  24.536  1.00  0.00    -0.237 OA
ATOM    108  O   UNL A   1      54.305  25.105  24.759  1.00  0.00    -0.237 OA
ATOM    109  O   UNL A   1      53.665  26.223  22.657  1.00  0.00    -0.744 OA
ENDBRANCH 105 106
ENDBRANCH  73  98
ENDBRANCH  47  48
ENDBRANCH  39  42
ENDBRANCH  37  38
ENDBRANCH  36  37
ENDBRANCH  35  36
ENDBRANCH   3  35
TORSDOF 24
ENDMDL
MODEL 2
REMARK VINA RESULT:     -11.1      0.816      7.838
REMARK SMILES CC(C)C[C@H](NC(=O)CNC(=O)[C@@H](NC(=O)OCc1ccccc1)C(C)C)C(=O)NCCCNC(=O)c1ccc(-c2c3nc(c(-c4c(F)cc(S(=O)(=O)[O-])cc4F)c4ccc([nH]4)c(-c4c(F)cc(S(=O)(=O)[O-])cc4F)c4nc(c(-c5c(F)cc(S(=O)(=O)[O-])cc5F)c5ccc2[nH]5)C=C4)C=C3)cc1
REMARK SMILES IDX 28 1 29 2 30 3 5 5 4 6 2 7 1 8 3 9 6 10 7 11 8 13 9 14 10 15
REMARK SMILES IDX 11 16 12 18 13 19 14 20 15 21 16 23 17 24 18 25 19 26 20 27
REMARK SMILES IDX 24 28 21 29 23 30 22 31 25 32 26 33 27 34 31 35 32 36 33 37
REMARK SMILES IDX 34 38 35 39 36 41 37 42 38 43 102 44 39 45 101 46 40 47
REMARK SMILES IDX 41 48 42 49 95 50 43 51 100 52 94 53 96 54 44 55 99 56 93 57
REMARK SMILES IDX 92 58 45 60 79 61 58 62 78 63 59 64 62 65 77 66 97 67 60 68
REMARK SMILES IDX 61 69 76 71 98 72 63 73 46 74 47 75 56 76 48 77 49 78 55 79
REMARK SMILES IDX 57 80 50 81 51 82 52 83 53 84 54 85 80 86 81 87 90 88 82 89
REMARK SMILES IDX 83 90 89 91 91 92 84 93 85 94 86 95 87 96 88 97 64 98 65 99
REMARK SMILES IDX 74 100 66 101 67 102 73 103 75 104 68 105 69 106 70 107
REMARK SMILES IDX 71 108 72 109
REMARK H PARENT 30 4 6 12 10 17 14 22 34 40 96 59 62 70
REMARK Flexibility Score: inf
ROOT
ATOM      1  C   UNL A   1      32.049  27.862  26.812  1.00  0.00     0.242 C 
ATOM      2  O   UNL A   1      31.362  26.958  27.304  1.00  0.00    -0.273 OA
ATOM      3  N   UNL A   1      32.717  28.673  27.661  1.00  0.00    -0.354 N 
ATOM      4  H   UNL A   1      32.831  28.317  28.572  1.00  0.00     0.163 HD
ENDROOT
BRANCH   1   5
ATOM      5  C   UNL A   1      32.063  28.072  25.293  1.00  0.00     0.171 C 
BRANCH   5   6
ATOM      6  C   UNL A   1      30.723  28.018  24.538  1.00  0.00     0.038 C 
BRANCH   6   7
ATOM      7  C   UNL A   1      30.568  29.112  23.444  1.00  0.00    -0.015 C 
ATOM      8  C   UNL A   1      29.705  28.670  22.251  1.00  0.00     0.007 C 
ATOM      9  C   UNL A   1      29.882  30.347  24.025  1.00  0.00     0.007 C 
ENDBRANCH   6   7
ENDBRANCH   5   6
BRANCH   5  10
ATOM     10  N   UNL A   1      33.116  27.308  24.633  1.00  0.00    -0.343 N 
ATOM     11  C   UNL A   1      33.334  25.964  24.584  1.00  0.00     0.240 C 
ATOM     12  H   UNL A   1      33.776  27.850  24.143  1.00  0.00     0.164 HD
ATOM     13  O   UNL A   1      34.342  25.580  23.981  1.00  0.00    -0.273 OA
BRANCH  11  14
ATOM     14  C   UNL A   1      32.394  24.908  25.220  1.00  0.00     0.216 C 
BRANCH  14  15
ATOM     15  N   UNL A   1      32.802  24.169  26.400  1.00  0.00    -0.345 N 
ATOM     16  C   UNL A   1      33.368  22.938  26.577  1.00  0.00     0.243 C 
ATOM     17  H   UNL A   1      32.638  24.653  27.241  1.00  0.00     0.164 HD
ATOM     18  O   UNL A   1      33.410  22.485  27.727  1.00  0.00    -0.273 OA
BRANCH  16  19
ATOM     19  C   UNL A   1      34.061  22.161  25.458  1.00  0.00     0.177 C 
BRANCH  19  20
ATOM     20  N   UNL A   1      33.466  22.513  24.170  1.00  0.00    -0.309 N 
ATOM     21  C   UNL A   1      32.695  21.808  23.312  1.00  0.00     0.408 C 
ATOM     22  H   UNL A   1      33.663  23.431  23.873  1.00  0.00     0.167 HD
ATOM     23  O   UNL A   1      32.450  22.217  22.184  1.00  0.00    -0.225 OA
BRANCH  21  24
ATOM     24  O   UNL A   1      32.196  20.687  23.866  1.00  0.00    -0.445 OA
BRANCH  24  25
ATOM     25  C   UNL A   1      32.212  19.524  23.037  1.00  0.00     0.270 C 
BRANCH  25  26
ATOM     26  C   UNL A   1      32.744  18.309  23.767  1.00  0.00    -0.011 A 
ATOM     27  C   UNL A   1      32.362  17.978  25.080  1.00  0.00     0.007 A 
ATOM     28  C   UNL A   1      33.608  17.437  23.094  1.00  0.00     0.007 A 
ATOM     29  C   UNL A   1      32.825  16.822  25.702  1.00  0.00     0.000 A 
ATOM     30  C   UNL A   1      34.072  16.277  23.717  1.00  0.00     0.000 A 
ATOM     31  C   UNL A   1      33.680  15.969  25.018  1.00  0.00     0.000 A 
ENDBRANCH  25  26
ENDBRANCH  24  25
ENDBRANCH  21  24
ENDBRANCH  19  20
BRANCH  19  32
ATOM     32  C   UNL A   1      35.587  22.245  25.717  1.00  0.00     0.015 C 
ATOM     33  C   UNL A   1      36.386  21.937  24.429  1.00  0.00     0.010 C 
ATOM     34  C   UNL A   1      36.027  23.628  26.192  1.00  0.00     0.010 C 
ENDBRANCH  19  32
ENDBRANCH  16  19
ENDBRANCH  14  15
ENDBRANCH  11  14
ENDBRANCH   5  10
ENDBRANCH   1   5
BRANCH   3  35
ATOM     35  C   UNL A   1      33.294  29.983  27.441  1.00  0.00     0.117 C 
BRANCH  35  36
ATOM     36  C   UNL A   1      34.783  29.879  27.137  1.00  0.00     0.042 C 
BRANCH  36  37
ATOM     37  C   UNL A   1      35.620  29.357  28.301  1.00  0.00     0.118 C 
BRANCH  37  38
ATOM     38  N   UNL A   1      35.582  30.247  29.459  1.00  0.00    -0.352 N 
ATOM     39  C   UNL A   1      36.590  30.614  30.314  1.00  0.00     0.251 C 
ATOM     40  H   UNL A   1      34.702  30.641  29.655  1.00  0.00     0.163 HD
ATOM     41  O   UNL A   1      36.323  31.169  31.374  1.00  0.00    -0.269 OA
BRANCH  39  42
ATOM     42  C   UNL A   1      37.987  30.315  29.951  1.00  0.00     0.039 A 
ATOM     43  C   UNL A   1      38.876  29.893  30.940  1.00  0.00     0.014 A 
ATOM     44  C   UNL A   1      38.403  30.432  28.623  1.00  0.00     0.014 A 
ATOM     45  C   UNL A   1      40.171  29.523  30.579  1.00  0.00     0.010 A 
ATOM     46  C   UNL A   1      39.655  29.963  28.252  1.00  0.00     0.010 A 
ATOM     47  C   UNL A   1      40.558  29.518  29.229  1.00  0.00    -0.014 A 
BRANCH  47  48
ATOM     48  C   UNL A   1      41.911  29.076  28.812  1.00  0.00     0.031 A 
ATOM     49  C   UNL A   1      43.039  30.071  28.765  1.00  0.00     0.074 A 
ATOM     50  C   UNL A   1      42.106  27.802  28.421  1.00  0.00     0.049 A 
ATOM     51  N   UNL A   1      44.274  29.902  28.369  1.00  0.00    -0.248 NA
ATOM     52  C   UNL A   1      42.731  31.449  29.186  1.00  0.00     0.031 C 
ATOM     53  C   UNL A   1      41.074  26.763  28.373  1.00  0.00     0.029 A 
ATOM     54  N   UNL A   1      43.238  27.162  27.982  1.00  0.00    -0.354 N 
ATOM     55  C   UNL A   1      44.880  31.148  28.480  1.00  0.00     0.074 A 
ATOM     56  C   UNL A   1      43.863  32.078  28.912  1.00  0.00     0.031 C 
ATOM     57  C   UNL A   1      41.626  25.611  27.959  1.00  0.00     0.029 A 
ATOM     58  C   UNL A   1      43.039  25.838  27.669  1.00  0.00     0.049 A 
ATOM     59  H   UNL A   1      44.110  27.611  27.897  1.00  0.00     0.167 HD
ATOM     60  C   UNL A   1      46.176  31.478  28.269  1.00  0.00     0.037 A 
ATOM     61  C   UNL A   1      43.897  24.914  27.195  1.00  0.00     0.037 A 
ATOM     62  C   UNL A   1      47.184  30.536  27.863  1.00  0.00     0.049 A 
ATOM     63  C   UNL A   1      45.331  25.308  26.960  1.00  0.00     0.074 A 
ATOM     64  C   UNL A   1      48.537  30.752  27.678  1.00  0.00     0.029 A 
ATOM     65  N   UNL A   1      46.947  29.200  27.571  1.00  0.00    -0.354 N 
ATOM     66  N   UNL A   1      45.905  26.474  27.141  1.00  0.00    -0.248 NA
ATOM     67  C   UNL A   1      46.234  24.263  26.463  1.00  0.00     0.031 C 
ATOM     68  C   UNL A   1      49.110  29.562  27.221  1.00  0.00     0.029 A 
ATOM     69  C   UNL A   1      48.127  28.586  27.183  1.00  0.00     0.049 A 
ATOM     70  H   UNL A   1      46.072  28.755  27.633  1.00  0.00     0.167 HD
ATOM     71  C   UNL A   1      47.244  26.294  26.809  1.00  0.00     0.074 A 
ATOM     72  C   UNL A   1      47.395  24.904  26.430  1.00  0.00     0.031 C 
ATOM     73  C   UNL A   1      48.258  27.196  26.817  1.00  0.00     0.037 A 
BRANCH  60  74
ATOM     74  C   UNL A   1      46.574  32.914  28.481  1.00  0.00     0.058 A 
ATOM     75  C   UNL A   1      46.526  33.857  27.441  1.00  0.00     0.135 A 
ATOM     76  C   UNL A   1      46.977  33.364  29.750  1.00  0.00     0.135 A 
ATOM     77  F   UNL A   1      46.165  33.483  26.203  1.00  0.00    -0.206 F 
ATOM     78  C   UNL A   1      46.894  35.184  27.642  1.00  0.00     0.059 A 
ATOM     79  C   UNL A   1      47.317  34.693  29.982  1.00  0.00     0.059 A 
ATOM     80  F   UNL A   1      47.044  32.506  30.781  1.00  0.00    -0.206 F 
ATOM     81  C   UNL A   1      47.285  35.592  28.917  1.00  0.00     0.060 A 
BRANCH  81  82
ATOM     82  S   UNL A   1      47.746  37.321  29.161  1.00  0.00     0.124 S 
ATOM     83  O   UNL A   1      46.701  38.010  28.410  1.00  0.00    -0.237 OA
ATOM     84  O   UNL A   1      47.678  37.458  30.612  1.00  0.00    -0.237 OA
ATOM     85  O   UNL A   1      49.086  37.401  28.587  1.00  0.00    -0.744 OA
ENDBRANCH  81  82
ENDBRANCH  60  74
BRANCH  61  86
ATOM     86  C   UNL A   1      43.429  23.526  26.933  1.00  0.00     0.058 A 
ATOM     87  C   UNL A   1      43.239  22.615  27.985  1.00  0.00     0.135 A 
ATOM     88  C   UNL A   1      43.152  23.082  25.631  1.00  0.00     0.135 A 
ATOM     89  F   UNL A   1      43.494  22.989  29.248  1.00  0.00    -0.206 F 
ATOM     90  C   UNL A   1      42.813  21.311  27.754  1.00  0.00     0.059 A 
ATOM     91  C   UNL A   1      42.696  21.792  25.377  1.00  0.00     0.059 A 
ATOM     92  F   UNL A   1      43.299  23.917  24.590  1.00  0.00    -0.206 F 
ATOM     93  C   UNL A   1      42.540  20.911  26.445  1.00  0.00     0.060 A 
BRANCH  93  94
ATOM     94  S   UNL A   1      41.946  19.228  26.163  1.00  0.00     0.124 S 
ATOM     95  O   UNL A   1      40.532  19.458  25.887  1.00  0.00    -0.237 OA
ATOM     96  O   UNL A   1      42.759  18.805  25.028  1.00  0.00    -0.237 OA
ATOM     97  O   UNL A   1      42.241  18.552  27.423  1.00  0.00    -0.744 OA
ENDBRANCH  93  94
ENDBRANCH  61  86
BRANCH  73  98
ATOM     98  C   UNL A   1      49.628  26.704  26.443  1.00  0.00     0.058 A 
ATOM     99  C   UNL A   1      50.140  26.850  25.144  1.00  0.00     0.135 A 
ATOM    100  C   UNL A   1      50.466  26.133  27.416  1.00  0.00     0.135 A 
ATOM    101  F   UNL A   1      49.380  27.383  24.174  1.00  0.00    -0.206 F 
ATOM    102  C   UNL A   1      51.423  26.424  24.817  1.00  0.00     0.059 A 
ATOM    103  C   UNL A   1      51.764  25.732  27.120  1.00  0.00     0.059 A 
ATOM    104  F   UNL A   1      50.030  25.980  28.678  1.00  0.00    -0.206 F 
ATOM    105  C   UNL A   1      52.229  25.871  25.814  1.00  0.00     0.060 A 
BRANCH 105 106
ATOM    106  S   UNL A   1      53.906  25.360  25.383  1.00  0.00     0.124 S 
ATOM    107  O   UNL A   1      54.576  25.430  26.677  1.00  0.00    -0.237 OA
ATOM    108  O   UNL A   1      53.696  24.018  24.851  1.00  0.00    -0.237 OA
ATOM    109  O   UNL A   1      54.326  26.359  24.405  1.00  0.00    -0.744 OA
ENDBRANCH 105 106
ENDBRANCH  73  98
ENDBRANCH  47  48
ENDBRANCH  39  42
ENDBRANCH  37  38
ENDBRANCH  36  37
ENDBRANCH  35  36
ENDBRANCH   3  35
TORSDOF 24
ENDMDL
MODEL 3
REMARK VINA RESULT:     -10.8      5.653      8.305
REMARK SMILES CC(C)C[C@H](NC(=O)CNC(=O)[C@@H](NC(=O)OCc1ccccc1)C(C)C)C(=O)NCCCNC(=O)c1ccc(-c2c3nc(c(-c4c(F)cc(S(=O)(=O)[O-])cc4F)c4ccc([nH]4)c(-c4c(F)cc(S(=O)(=O)[O-])cc4F)c4nc(c(-c5c(F)cc(S(=O)(=O)[O-])cc5F)c5ccc2[nH]5)C=C4)C=C3)cc1
REMARK SMILES IDX 28 1 29 2 30 3 5 5 4 6 2 7 1 8 3 9 6 10 7 11 8 13 9 14 10 15
REMARK SMILES IDX 11 16 12 18 13 19 14 20 15 21 16 23 17 24 18 25 19 26 20 27
REMARK SMILES IDX 24 28 21 29 23 30 22 31 25 32 26 33 27 34 31 35 32 36 33 37
REMARK SMILES IDX 34 38 35 39 36 41 37 42 38 43 102 44 39 45 101 46 40 47
REMARK SMILES IDX 41 48 42 49 95 50 43 51 100 52 94 53 96 54 44 55 99 56 93 57
REMARK SMILES IDX 92 58 45 60 79 61 58 62 78 63 59 64 62 65 77 66 97 67 60 68
REMARK SMILES IDX 61 69 76 71 98 72 63 73 46 74 47 75 56 76 48 77 49 78 55 79
REMARK SMILES IDX 57 80 50 81 51 82 52 83 53 84 54 85 80 86 81 87 90 88 82 89
REMARK SMILES IDX 83 90 89 91 91 92 84 93 85 94 86 95 87 96 88 97 64 98 65 99
REMARK SMILES IDX 74 100 66 101 67 102 73 103 75 104 68 105 69 106 70 107
REMARK SMILES IDX 71 108 72 109
REMARK H PARENT 30 4 6 12 10 17 14 22 34 40 96 59 62 70
REMARK Flexibility Score: inf
ROOT
ATOM      1  C   UNL A   1      31.329  27.404  26.225  1.00  0.00     0.242 C 
ATOM      2  O   UNL A   1      31.125  26.281  26.703  1.00  0.00    -0.273 OA
ATOM      3  N   UNL A   1      31.738  28.378  27.067  1.00  0.00    -0.354 N 
ATOM      4  H   UNL A   1      32.105  28.059  27.924  1.00  0.00     0.163 HD
ENDROOT
BRANCH   1   5
ATOM      5  C   UNL A   1      31.052  27.666  24.740  1.00  0.00     0.171 C 
BRANCH   5   6
ATOM      6  C   UNL A   1      29.595  27.596  24.248  1.00  0.00     0.038 C 
BRANCH   6   7
ATOM      7  C   UNL A   1      29.270  28.584  23.092  1.00  0.00    -0.015 C 
ATOM      8  C   UNL A   1      27.771  28.898  22.956  1.00  0.00     0.007 C 
ATOM      9  C   UNL A   1      29.960  29.925  23.333  1.00  0.00     0.007 C 
ENDBRANCH   6   7
ENDBRANCH   5   6
BRANCH   5  10
ATOM     10  N   UNL A   1      31.979  26.957  23.865  1.00  0.00    -0.343 N 
ATOM     11  C   UNL A   1      31.874  25.736  23.269  1.00  0.00     0.240 C 
ATOM     12  H   UNL A   1      32.817  27.438  23.673  1.00  0.00     0.164 HD
ATOM     13  O   UNL A   1      32.841  25.351  22.602  1.00  0.00    -0.273 OA
BRANCH  11  14
ATOM     14  C   UNL A   1      30.622  24.828  23.366  1.00  0.00     0.216 C 
BRANCH  14  15
ATOM     15  N   UNL A   1      30.291  24.156  24.609  1.00  0.00    -0.345 N 
ATOM     16  C   UNL A   1      30.835  23.086  25.262  1.00  0.00     0.243 C 
ATOM     17  H   UNL A   1      29.521  24.553  25.076  1.00  0.00     0.164 HD
ATOM     18  O   UNL A   1      30.200  22.608  26.209  1.00  0.00    -0.273 OA
BRANCH  16  19
ATOM     19  C   UNL A   1      32.231  22.539  24.966  1.00  0.00     0.177 C 
BRANCH  19  20
ATOM     20  N   UNL A   1      32.881  22.143  26.214  1.00  0.00    -0.309 N 
ATOM     21  C   UNL A   1      34.180  22.129  26.588  1.00  0.00     0.408 C 
ATOM     22  H   UNL A   1      32.259  21.831  26.911  1.00  0.00     0.167 HD
ATOM     23  O   UNL A   1      34.546  21.579  27.619  1.00  0.00    -0.225 OA
BRANCH  21  24
ATOM     24  O   UNL A   1      34.967  22.831  25.751  1.00  0.00    -0.445 OA
BRANCH  24  25
ATOM     25  C   UNL A   1      36.069  22.118  25.188  1.00  0.00     0.270 C 
BRANCH  25  26
ATOM     26  C   UNL A   1      37.400  22.613  25.714  1.00  0.00    -0.011 A 
ATOM     27  C   UNL A   1      37.598  23.927  26.174  1.00  0.00     0.007 A 
ATOM     28  C   UNL A   1      38.469  21.714  25.808  1.00  0.00     0.007 A 
ATOM     29  C   UNL A   1      38.819  24.335  26.706  1.00  0.00     0.000 A 
ATOM     30  C   UNL A   1      39.693  22.121  26.342  1.00  0.00     0.000 A 
ATOM     31  C   UNL A   1      39.867  23.429  26.792  1.00  0.00     0.000 A 
ENDBRANCH  25  26
ENDBRANCH  24  25
ENDBRANCH  21  24
ENDBRANCH  19  20
BRANCH  19  32
ATOM     32  C   UNL A   1      32.103  21.578  23.757  1.00  0.00     0.015 C 
ATOM     33  C   UNL A   1      33.006  22.034  22.587  1.00  0.00     0.010 C 
ATOM     34  C   UNL A   1      32.509  20.146  24.100  1.00  0.00     0.010 C 
ENDBRANCH  19  32
ENDBRANCH  16  19
ENDBRANCH  14  15
ENDBRANCH  11  14
ENDBRANCH   5  10
ENDBRANCH   1   5
BRANCH   3  35
ATOM     35  C   UNL A   1      31.721  29.817  26.909  1.00  0.00     0.117 C 
BRANCH  35  36
ATOM     36  C   UNL A   1      33.082  30.331  26.455  1.00  0.00     0.042 C 
BRANCH  36  37
ATOM     37  C   UNL A   1      33.832  31.125  27.520  1.00  0.00     0.118 C 
BRANCH  37  38
ATOM     38  N   UNL A   1      33.293  32.471  27.697  1.00  0.00    -0.352 N 
ATOM     39  C   UNL A   1      33.633  33.438  28.608  1.00  0.00     0.251 C 
ATOM     40  H   UNL A   1      32.578  32.721  27.067  1.00  0.00     0.163 HD
ATOM     41  O   UNL A   1      32.906  34.412  28.769  1.00  0.00    -0.269 OA
BRANCH  39  42
ATOM     42  C   UNL A   1      34.867  33.280  29.398  1.00  0.00     0.039 A 
ATOM     43  C   UNL A   1      34.882  32.391  30.473  1.00  0.00     0.014 A 
ATOM     44  C   UNL A   1      36.014  33.998  29.053  1.00  0.00     0.014 A 
ATOM     45  C   UNL A   1      36.075  32.174  31.163  1.00  0.00     0.010 A 
ATOM     46  C   UNL A   1      37.221  33.701  29.670  1.00  0.00     0.010 A 
ATOM     47  C   UNL A   1      37.261  32.797  30.741  1.00  0.00    -0.014 A 
BRANCH  47  48
ATOM     48  C   UNL A   1      38.553  32.542  31.421  1.00  0.00     0.031 A 
ATOM     49  C   UNL A   1      39.559  31.616  30.790  1.00  0.00     0.074 A 
ATOM     50  C   UNL A   1      38.793  33.091  32.628  1.00  0.00     0.049 A 
ATOM     51  N   UNL A   1      40.714  31.212  31.251  1.00  0.00    -0.248 NA
ATOM     52  C   UNL A   1      39.203  31.039  29.481  1.00  0.00     0.031 C 
ATOM     53  C   UNL A   1      37.870  33.960  33.362  1.00  0.00     0.029 A 
ATOM     54  N   UNL A   1      39.884  32.996  33.455  1.00  0.00    -0.354 N 
ATOM     55  C   UNL A   1      41.212  30.329  30.300  1.00  0.00     0.074 A 
ATOM     56  C   UNL A   1      40.206  30.200  29.272  1.00  0.00     0.031 C 
ATOM     57  C   UNL A   1      38.445  34.342  34.513  1.00  0.00     0.029 A 
ATOM     58  C   UNL A   1      39.756  33.711  34.623  1.00  0.00     0.049 A 
ATOM     59  H   UNL A   1      40.682  32.463  33.234  1.00  0.00     0.167 HD
ATOM     60  C   UNL A   1      42.414  29.706  30.274  1.00  0.00     0.037 A 
ATOM     61  C   UNL A   1      40.598  33.837  35.666  1.00  0.00     0.037 A 
ATOM     62  C   UNL A   1      43.417  29.863  31.293  1.00  0.00     0.049 A 
ATOM     63  C   UNL A   1      41.925  33.126  35.618  1.00  0.00     0.074 A 
ATOM     64  C   UNL A   1      44.690  29.325  31.335  1.00  0.00     0.029 A 
ATOM     65  N   UNL A   1      43.257  30.608  32.453  1.00  0.00    -0.354 N 
ATOM     66  N   UNL A   1      42.412  32.353  34.676  1.00  0.00    -0.248 NA
ATOM     67  C   UNL A   1      42.819  33.309  36.768  1.00  0.00     0.031 C 
ATOM     68  C   UNL A   1      45.280  29.698  32.547  1.00  0.00     0.029 A 
ATOM     69  C   UNL A   1      44.400  30.523  33.230  1.00  0.00     0.049 A 
ATOM     70  H   UNL A   1      42.451  31.123  32.688  1.00  0.00     0.167 HD
ATOM     71  C   UNL A   1      43.682  31.982  35.107  1.00  0.00     0.074 A 
ATOM     72  C   UNL A   1      43.891  32.628  36.387  1.00  0.00     0.031 C 
ATOM     73  C   UNL A   1      44.593  31.181  34.499  1.00  0.00     0.037 A 
BRANCH  60  74
ATOM     74  C   UNL A   1      42.708  28.806  29.104  1.00  0.00     0.058 A 
ATOM     75  C   UNL A   1      43.250  29.300  27.906  1.00  0.00     0.135 A 
ATOM     76  C   UNL A   1      42.475  27.423  29.192  1.00  0.00     0.135 A 
ATOM     77  F   UNL A   1      43.478  30.615  27.758  1.00  0.00    -0.206 F 
ATOM     78  C   UNL A   1      43.521  28.464  26.829  1.00  0.00     0.059 A 
ATOM     79  C   UNL A   1      42.770  26.562  28.139  1.00  0.00     0.059 A 
ATOM     80  F   UNL A   1      41.955  26.894  30.311  1.00  0.00    -0.206 F 
ATOM     81  C   UNL A   1      43.280  27.096  26.956  1.00  0.00     0.060 A 
BRANCH  81  82
ATOM     82  S   UNL A   1      43.650  26.024  25.551  1.00  0.00     0.124 S 
ATOM     83  O   UNL A   1      44.778  26.723  24.941  1.00  0.00    -0.237 OA
ATOM     84  O   UNL A   1      43.967  24.758  26.201  1.00  0.00    -0.237 OA
ATOM     85  O   UNL A   1      42.413  26.037  24.776  1.00  0.00    -0.744 OA
ENDBRANCH  81  82
ENDBRANCH  60  74
BRANCH  61  86
ATOM     86  C   UNL A   1      40.222  34.682  36.831  1.00  0.00     0.058 A 
ATOM     87  C   UNL A   1      39.444  34.165  37.880  1.00  0.00     0.135 A 
ATOM     88  C   UNL A   1      40.639  36.019  36.929  1.00  0.00     0.135 A 
ATOM     89  F   UNL A   1      39.016  32.895  37.832  1.00  0.00    -0.206 F 
ATOM     90  C   UNL A   1      39.075  34.947  38.970  1.00  0.00     0.059 A 
ATOM     91  C   UNL A   1      40.309  36.812  38.024  1.00  0.00     0.059 A 
ATOM     92  F   UNL A   1      41.400  36.559  35.964  1.00  0.00    -0.206 F 
ATOM     93  C   UNL A   1      39.517  36.270  39.034  1.00  0.00     0.060 A 
BRANCH  93  94
ATOM     94  S   UNL A   1      39.068  37.261  40.476  1.00  0.00     0.124 S 
ATOM     95  O   UNL A   1      38.452  36.261  41.340  1.00  0.00    -0.237 OA
ATOM     96  O   UNL A   1      40.365  37.770  40.910  1.00  0.00    -0.237 OA
ATOM     97  O   UNL A   1      38.163  38.265  39.925  1.00  0.00    -0.744 OA
ENDBRANCH  93  94
ENDBRANCH  61  86
BRANCH  73  98
ATOM     98  C   UNL A   1      45.915  30.986  35.189  1.00  0.00     0.058 A 
ATOM     99  C   UNL A   1      47.001  31.848  34.967  1.00  0.00     0.135 A 
ATOM    100  C   UNL A   1      46.077  29.956  36.131  1.00  0.00     0.135 A 
ATOM    101  F   UNL A   1      46.902  32.844  34.073  1.00  0.00    -0.206 F 
ATOM    102  C   UNL A   1      48.208  31.680  35.637  1.00  0.00     0.059 A 
ATOM    103  C   UNL A   1      47.263  29.792  36.837  1.00  0.00     0.059 A 
ATOM    104  F   UNL A   1      45.066  29.110  36.389  1.00  0.00    -0.206 F 
ATOM    105  C   UNL A   1      48.328  30.652  36.575  1.00  0.00     0.060 A 
BRANCH 105 106
ATOM    106  S   UNL A   1      49.887  30.472  37.465  1.00  0.00     0.124 S 
ATOM    107  O   UNL A   1      49.892  29.044  37.765  1.00  0.00    -0.237 OA
ATOM    108  O   UNL A   1      50.864  30.915  36.475  1.00  0.00    -0.237 OA
ATOM    109  O   UNL A   1      49.726  31.354  38.617  1.00  0.00    -0.744 OA
ENDBRANCH 105 106
ENDBRANCH  73  98
ENDBRANCH  47  48
ENDBRANCH  39  42
ENDBRANCH  37  38
ENDBRANCH  36  37
ENDBRANCH  35  36
ENDBRANCH   3  35
TORSDOF 24
ENDMDL
