MODEL 1
REMARK VINA RESULT:     -11.4      0.000      0.000
REMARK SMILES C[C@H]1[C@@H](C(=O)NCCCNC(=O)c2ccc(-c3c4nc(c(-c5c(F)cc(S(=O)(=O)[O-])cc5F)c5ccc([nH]5)c(-c5c(F)cc(S(=O)(=O)[O-])cc5F)c5nc(c(-c6c(F)cc(S(=O)(=O)[O-])cc6F)c6ccc3[nH]6)C=C5)C=C4)cc2)CCN1C(=O)NC1CCCCC1
REMARK SMILES IDX 8 1 7 2 6 3 4 4 5 5 3 7 1 8 2 9 81 10 79 11 80 12 82 13
REMARK SMILES IDX 83 14 84 15 85 17 86 18 90 19 87 20 89 21 88 22 9 23 10 24
REMARK SMILES IDX 11 25 12 27 13 28 14 29 78 30 15 31 77 32 16 33 17 34 18 35
REMARK SMILES IDX 71 36 19 37 76 38 70 39 72 40 20 41 75 42 69 43 68 44 21 46
REMARK SMILES IDX 55 47 34 48 54 49 35 50 38 51 53 52 73 53 36 54 37 55 52 57
REMARK SMILES IDX 74 58 39 59 22 60 23 61 32 62 24 63 25 64 31 65 33 66 26 67
REMARK SMILES IDX 27 68 28 69 29 70 30 71 56 72 57 73 66 74 58 75 59 76 65 77
REMARK SMILES IDX 67 78 60 79 61 80 62 81 63 82 64 83 40 84 41 85 50 86 42 87
REMARK SMILES IDX 43 88 49 89 51 90 44 91 45 92 46 93 47 94 48 95
REMARK H PARENT 6 6 84 16 10 26 72 45 38 56
REMARK Flexibility Score: inf
ROOT
ATOM      1  C   UNL A   1      32.716  27.805  25.584  1.00  0.00     0.042 C 
ENDROOT
BRANCH   1   2
ATOM      2  C   UNL A   1      32.950  26.305  25.390  1.00  0.00     0.117 C 
BRANCH   2   3
ATOM      3  N   UNL A   1      31.983  25.488  26.112  1.00  0.00    -0.356 N 
ATOM      4  C   UNL A   1      32.076  24.240  26.656  1.00  0.00     0.225 C 
ATOM      5  O   UNL A   1      31.097  23.826  27.279  1.00  0.00    -0.275 OA
ATOM      6  H   UNL A   1      31.103  25.913  26.227  1.00  0.00     0.163 HD
BRANCH   4   7
ATOM      7  C   UNL A   1      33.367  23.441  26.570  1.00  0.00     0.102 C 
ATOM      8  C   UNL A   1      32.311  21.827  24.780  1.00  0.00     0.032 C 
ATOM      9  C   UNL A   1      33.541  22.525  25.354  1.00  0.00     0.096 C 
ATOM     10  N   UNL A   1      34.486  21.535  25.821  1.00  0.00    -0.321 N 
ATOM     11  C   UNL A   1      33.636  22.526  27.786  1.00  0.00     0.037 C 
ATOM     12  C   UNL A   1      34.168  21.223  27.205  1.00  0.00     0.122 C 
BRANCH  10  13
ATOM     13  C   UNL A   1      35.327  20.742  25.127  1.00  0.00     0.317 C 
ATOM     14  O   UNL A   1      34.973  19.619  24.752  1.00  0.00    -0.249 OA
ATOM     15  N   UNL A   1      36.582  21.080  24.811  1.00  0.00    -0.335 N 
ATOM     16  H   UNL A   1      36.969  20.375  24.243  1.00  0.00     0.165 HD
BRANCH  15  17
ATOM     17  C   UNL A   1      37.600  22.142  25.013  1.00  0.00     0.083 C 
ATOM     18  C   UNL A   1      37.102  23.373  25.804  1.00  0.00     0.025 C 
ATOM     19  C   UNL A   1      38.769  21.451  25.764  1.00  0.00     0.025 C 
ATOM     20  C   UNL A   1      38.201  24.250  26.404  1.00  0.00     0.002 C 
ATOM     21  C   UNL A   1      39.829  22.389  26.320  1.00  0.00     0.002 C 
ATOM     22  C   UNL A   1      39.197  23.444  27.210  1.00  0.00     0.000 C 
ENDBRANCH  15  17
ENDBRANCH  10  13
ENDBRANCH   4   7
ENDBRANCH   2   3
ENDBRANCH   1   2
BRANCH   1  23
ATOM     23  C   UNL A   1      33.995  28.626  25.748  1.00  0.00     0.118 C 
BRANCH  23  24
ATOM     24  N   UNL A   1      33.728  29.950  26.285  1.00  0.00    -0.352 N 
ATOM     25  C   UNL A   1      34.333  30.670  27.288  1.00  0.00     0.251 C 
ATOM     26  H   UNL A   1      32.975  30.414  25.853  1.00  0.00     0.163 HD
ATOM     27  O   UNL A   1      33.761  31.686  27.684  1.00  0.00    -0.269 OA
BRANCH  25  28
ATOM     28  C   UNL A   1      35.624  30.271  27.915  1.00  0.00     0.039 A 
ATOM     29  C   UNL A   1      35.584  29.686  29.188  1.00  0.00     0.014 A 
ATOM     30  C   UNL A   1      36.871  30.537  27.342  1.00  0.00     0.014 A 
ATOM     31  C   UNL A   1      36.768  29.346  29.858  1.00  0.00     0.010 A 
ATOM     32  C   UNL A   1      38.049  30.115  27.971  1.00  0.00     0.010 A 
ATOM     33  C   UNL A   1      38.016  29.536  29.248  1.00  0.00    -0.014 A 
BRANCH  33  34
ATOM     34  C   UNL A   1      39.282  29.175  29.952  1.00  0.00     0.031 A 
ATOM     35  C   UNL A   1      39.704  29.909  31.202  1.00  0.00     0.074 A 
ATOM     36  C   UNL A   1      40.077  28.204  29.457  1.00  0.00     0.049 A 
ATOM     37  N   UNL A   1      40.784  29.759  31.928  1.00  0.00    -0.248 NA
ATOM     38  C   UNL A   1      38.806  30.970  31.686  1.00  0.00     0.031 C 
ATOM     39  C   UNL A   1      39.824  27.446  28.230  1.00  0.00     0.029 A 
ATOM     40  N   UNL A   1      41.266  27.692  29.920  1.00  0.00    -0.354 N 
ATOM     41  C   UNL A   1      40.703  30.713  32.939  1.00  0.00     0.074 A 
ATOM     42  C   UNL A   1      39.496  31.473  32.700  1.00  0.00     0.031 C 
ATOM     43  C   UNL A   1      40.809  26.552  28.052  1.00  0.00     0.029 A 
ATOM     44  C   UNL A   1      41.783  26.691  29.131  1.00  0.00     0.049 A 
ATOM     45  H   UNL A   1      41.705  28.010  30.741  1.00  0.00     0.167 HD
ATOM     46  C   UNL A   1      41.539  30.921  33.987  1.00  0.00     0.037 A 
ATOM     47  C   UNL A   1      42.913  25.966  29.256  1.00  0.00     0.037 A 
ATOM     48  C   UNL A   1      42.724  30.145  34.246  1.00  0.00     0.049 A 
ATOM     49  C   UNL A   1      43.813  26.196  30.439  1.00  0.00     0.074 A 
ATOM     50  C   UNL A   1      43.604  30.247  35.311  1.00  0.00     0.029 A 
ATOM     51  N   UNL A   1      43.195  29.121  33.437  1.00  0.00    -0.354 N 
ATOM     52  N   UNL A   1      43.688  27.066  31.412  1.00  0.00    -0.248 NA
ATOM     53  C   UNL A   1      45.002  25.338  30.547  1.00  0.00     0.031 C 
ATOM     54  C   UNL A   1      44.626  29.307  35.128  1.00  0.00     0.029 A 
ATOM     55  C   UNL A   1      44.359  28.590  33.972  1.00  0.00     0.049 A 
ATOM     56  H   UNL A   1      42.766  28.815  32.607  1.00  0.00     0.167 HD
ATOM     57  C   UNL A   1      44.771  26.849  32.257  1.00  0.00     0.074 A 
ATOM     58  C   UNL A   1      45.530  25.754  31.691  1.00  0.00     0.031 C 
ATOM     59  C   UNL A   1      45.107  27.501  33.398  1.00  0.00     0.037 A 
BRANCH  46  60
ATOM     60  C   UNL A   1      41.190  32.032  34.942  1.00  0.00     0.058 A 
ATOM     61  C   UNL A   1      41.721  33.324  34.792  1.00  0.00     0.135 A 
ATOM     62  C   UNL A   1      40.297  31.813  36.003  1.00  0.00     0.135 A 
ATOM     63  F   UNL A   1      42.589  33.587  33.802  1.00  0.00    -0.206 F 
ATOM     64  C   UNL A   1      41.411  34.348  35.681  1.00  0.00     0.059 A 
ATOM     65  C   UNL A   1      39.950  32.831  36.889  1.00  0.00     0.059 A 
ATOM     66  F   UNL A   1      39.755  30.601  36.192  1.00  0.00    -0.206 F 
ATOM     67  C   UNL A   1      40.529  34.090  36.730  1.00  0.00     0.060 A 
BRANCH  67  68
ATOM     68  S   UNL A   1      40.139  35.422  37.885  1.00  0.00     0.124 S 
ATOM     69  O   UNL A   1      38.988  34.860  38.594  1.00  0.00    -0.237 OA
ATOM     70  O   UNL A   1      41.370  35.522  38.672  1.00  0.00    -0.237 OA
ATOM     71  O   UNL A   1      39.855  36.553  37.024  1.00  0.00    -0.744 OA
ENDBRANCH  67  68
ENDBRANCH  46  60
BRANCH  47  72
ATOM     72  C   UNL A   1      43.243  24.932  28.238  1.00  0.00     0.058 A 
ATOM     73  C   UNL A   1      42.896  23.588  28.435  1.00  0.00     0.135 A 
ATOM     74  C   UNL A   1      43.888  25.272  27.039  1.00  0.00     0.135 A 
ATOM     75  F   UNL A   1      42.285  23.212  29.568  1.00  0.00    -0.206 F 
ATOM     76  C   UNL A   1      43.184  22.614  27.483  1.00  0.00     0.059 A 
ATOM     77  C   UNL A   1      44.165  24.321  26.062  1.00  0.00     0.059 A 
ATOM     78  F   UNL A   1      44.226  26.548  26.796  1.00  0.00    -0.206 F 
ATOM     79  C   UNL A   1      43.815  22.992  26.297  1.00  0.00     0.060 A 
BRANCH  79  80
ATOM     80  S   UNL A   1      44.122  21.733  25.038  1.00  0.00     0.124 S 
ATOM     81  O   UNL A   1      43.093  20.747  25.353  1.00  0.00    -0.237 OA
ATOM     82  O   UNL A   1      43.931  22.482  23.801  1.00  0.00    -0.237 OA
ATOM     83  O   UNL A   1      45.496  21.321  25.306  1.00  0.00    -0.744 OA
ENDBRANCH  79  80
ENDBRANCH  47  72
BRANCH  59  84
ATOM     84  C   UNL A   1      46.339  27.032  34.123  1.00  0.00     0.058 A 
ATOM     85  C   UNL A   1      47.601  27.589  33.866  1.00  0.00     0.135 A 
ATOM     86  C   UNL A   1      46.251  26.033  35.106  1.00  0.00     0.135 A 
ATOM     87  F   UNL A   1      47.741  28.545  32.933  1.00  0.00    -0.206 F 
ATOM     88  C   UNL A   1      48.739  27.152  34.537  1.00  0.00     0.059 A 
ATOM     89  C   UNL A   1      47.372  25.598  35.807  1.00  0.00     0.059 A 
ATOM     90  F   UNL A   1      45.066  25.474  35.398  1.00  0.00    -0.206 F 
ATOM     91  C   UNL A   1      48.615  26.152  35.504  1.00  0.00     0.060 A 
BRANCH  91  92
ATOM     92  S   UNL A   1      50.096  25.601  36.377  1.00  0.00     0.124 S 
ATOM     93  O   UNL A   1      50.403  26.767  37.198  1.00  0.00    -0.237 OA
ATOM     94  O   UNL A   1      49.617  24.426  37.098  1.00  0.00    -0.237 OA
ATOM     95  O   UNL A   1      51.041  25.324  35.300  1.00  0.00    -0.744 OA
ENDBRANCH  91  92
ENDBRANCH  59  84
ENDBRANCH  33  34
ENDBRANCH  25  28
ENDBRANCH  23  24
ENDBRANCH   1  23
TORSDOF 15
ENDMDL
MODEL 2
REMARK VINA RESULT:     -11.4      5.273      6.987
REMARK SMILES C[C@H]1[C@@H](C(=O)NCCCNC(=O)c2ccc(-c3c4nc(c(-c5c(F)cc(S(=O)(=O)[O-])cc5F)c5ccc([nH]5)c(-c5c(F)cc(S(=O)(=O)[O-])cc5F)c5nc(c(-c6c(F)cc(S(=O)(=O)[O-])cc6F)c6ccc3[nH]6)C=C5)C=C4)cc2)CCN1C(=O)NC1CCCCC1
REMARK SMILES IDX 8 1 7 2 6 3 4 4 5 5 3 7 1 8 2 9 81 10 79 11 80 12 82 13
REMARK SMILES IDX 83 14 84 15 85 17 86 18 90 19 87 20 89 21 88 22 9 23 10 24
REMARK SMILES IDX 11 25 12 27 13 28 14 29 78 30 15 31 77 32 16 33 17 34 18 35
REMARK SMILES IDX 71 36 19 37 76 38 70 39 72 40 20 41 75 42 69 43 68 44 21 46
REMARK SMILES IDX 55 47 34 48 54 49 35 50 38 51 53 52 73 53 36 54 37 55 52 57
REMARK SMILES IDX 74 58 39 59 22 60 23 61 32 62 24 63 25 64 31 65 33 66 26 67
REMARK SMILES IDX 27 68 28 69 29 70 30 71 56 72 57 73 66 74 58 75 59 76 65 77
REMARK SMILES IDX 67 78 60 79 61 80 62 81 63 82 64 83 40 84 41 85 50 86 42 87
REMARK SMILES IDX 43 88 49 89 51 90 44 91 45 92 46 93 47 94 48 95
REMARK H PARENT 6 6 84 16 10 26 72 45 38 56
REMARK Flexibility Score: inf
ROOT
ATOM      1  C   UNL A   1      34.749  29.222  27.171  1.00  0.00     0.042 C 
ENDROOT
BRANCH   1   2
ATOM      2  C   UNL A   1      33.264  28.895  27.343  1.00  0.00     0.117 C 
BRANCH   2   3
ATOM      3  N   UNL A   1      32.402  29.764  26.553  1.00  0.00    -0.356 N 
ATOM      4  C   UNL A   1      31.678  29.537  25.418  1.00  0.00     0.225 C 
ATOM      5  O   UNL A   1      30.975  30.462  25.008  1.00  0.00    -0.275 OA
ATOM      6  H   UNL A   1      32.329  30.682  26.900  1.00  0.00     0.163 HD
BRANCH   4   7
ATOM      7  C   UNL A   1      31.677  28.172  24.749  1.00  0.00     0.102 C 
ATOM      8  C   UNL A   1      33.554  28.934  23.070  1.00  0.00     0.032 C 
ATOM      9  C   UNL A   1      32.885  27.822  23.874  1.00  0.00     0.096 C 
ATOM     10  N   UNL A   1      32.359  26.822  22.972  1.00  0.00    -0.321 N 
ATOM     11  C   UNL A   1      30.453  27.904  23.844  1.00  0.00     0.037 C 
ATOM     12  C   UNL A   1      31.006  27.206  22.608  1.00  0.00     0.122 C 
BRANCH  10  13
ATOM     13  C   UNL A   1      32.997  25.860  22.275  1.00  0.00     0.317 C 
ATOM     14  O   UNL A   1      33.362  26.057  21.111  1.00  0.00    -0.249 OA
ATOM     15  N   UNL A   1      33.265  24.641  22.759  1.00  0.00    -0.335 N 
ATOM     16  H   UNL A   1      33.799  24.146  22.096  1.00  0.00     0.165 HD
BRANCH  15  17
ATOM     17  C   UNL A   1      33.043  23.770  23.940  1.00  0.00     0.083 C 
ATOM     18  C   UNL A   1      33.695  24.274  25.247  1.00  0.00     0.025 C 
ATOM     19  C   UNL A   1      31.502  23.682  24.100  1.00  0.00     0.025 C 
ATOM     20  C   UNL A   1      33.130  23.670  26.533  1.00  0.00     0.002 C 
ATOM     21  C   UNL A   1      31.018  23.056  25.399  1.00  0.00     0.002 C 
ATOM     22  C   UNL A   1      31.621  23.771  26.595  1.00  0.00     0.000 C 
ENDBRANCH  15  17
ENDBRANCH  10  13
ENDBRANCH   4   7
ENDBRANCH   2   3
ENDBRANCH   1   2
BRANCH   1  23
ATOM     23  C   UNL A   1      35.142  30.625  27.633  1.00  0.00     0.118 C 
BRANCH  23  24
ATOM     24  N   UNL A   1      35.246  30.714  29.079  1.00  0.00    -0.352 N 
ATOM     25  C   UNL A   1      36.229  30.313  29.953  1.00  0.00     0.251 C 
ATOM     26  H   UNL A   1      34.470  31.137  29.513  1.00  0.00     0.163 HD
ATOM     27  O   UNL A   1      35.959  30.315  31.154  1.00  0.00    -0.269 OA
BRANCH  25  28
ATOM     28  C   UNL A   1      37.581  29.869  29.513  1.00  0.00     0.039 A 
ATOM     29  C   UNL A   1      38.512  29.516  30.501  1.00  0.00     0.014 A 
ATOM     30  C   UNL A   1      37.996  29.877  28.179  1.00  0.00     0.014 A 
ATOM     31  C   UNL A   1      39.820  29.150  30.155  1.00  0.00     0.010 A 
ATOM     32  C   UNL A   1      39.274  29.424  27.827  1.00  0.00     0.010 A 
ATOM     33  C   UNL A   1      40.212  29.078  28.810  1.00  0.00    -0.014 A 
BRANCH  33  34
ATOM     34  C   UNL A   1      41.601  28.686  28.431  1.00  0.00     0.031 A 
ATOM     35  C   UNL A   1      42.706  29.715  28.385  1.00  0.00     0.074 A 
ATOM     36  C   UNL A   1      41.876  27.408  28.096  1.00  0.00     0.049 A 
ATOM     37  N   UNL A   1      43.962  29.569  28.046  1.00  0.00    -0.248 NA
ATOM     38  C   UNL A   1      42.344  31.096  28.744  1.00  0.00     0.031 C 
ATOM     39  C   UNL A   1      40.899  26.318  28.045  1.00  0.00     0.029 A 
ATOM     40  N   UNL A   1      43.057  26.809  27.729  1.00  0.00    -0.354 N 
ATOM     41  C   UNL A   1      44.534  30.835  28.133  1.00  0.00     0.074 A 
ATOM     42  C   UNL A   1      43.473  31.747  28.503  1.00  0.00     0.031 C 
ATOM     43  C   UNL A   1      41.523  25.183  27.693  1.00  0.00     0.029 A 
ATOM     44  C   UNL A   1      42.937  25.465  27.462  1.00  0.00     0.049 A 
ATOM     45  H   UNL A   1      43.910  27.296  27.664  1.00  0.00     0.167 HD
ATOM     46  C   UNL A   1      45.826  31.205  27.951  1.00  0.00     0.037 A 
ATOM     47  C   UNL A   1      43.857  24.559  27.073  1.00  0.00     0.037 A 
ATOM     48  C   UNL A   1      46.891  30.295  27.615  1.00  0.00     0.049 A 
ATOM     49  C   UNL A   1      45.289  24.984  26.901  1.00  0.00     0.074 A 
ATOM     50  C   UNL A   1      48.240  30.567  27.462  1.00  0.00     0.029 A 
ATOM     51  N   UNL A   1      46.730  28.937  27.384  1.00  0.00    -0.354 N 
ATOM     52  N   UNL A   1      45.817  26.177  27.043  1.00  0.00    -0.248 NA
ATOM     53  C   UNL A   1      46.253  23.940  26.528  1.00  0.00     0.031 C 
ATOM     54  C   UNL A   1      48.890  29.379  27.105  1.00  0.00     0.029 A 
ATOM     55  C   UNL A   1      47.953  28.359  27.078  1.00  0.00     0.049 A 
ATOM     56  H   UNL A   1      45.874  28.454  27.430  1.00  0.00     0.167 HD
ATOM     57  C   UNL A   1      47.176  26.022  26.794  1.00  0.00     0.074 A 
ATOM     58  C   UNL A   1      47.393  24.619  26.512  1.00  0.00     0.031 C 
ATOM     59  C   UNL A   1      48.156  26.961  26.797  1.00  0.00     0.037 A 
BRANCH  46  60
ATOM     60  C   UNL A   1      46.162  32.663  28.125  1.00  0.00     0.058 A 
ATOM     61  C   UNL A   1      46.625  33.170  29.351  1.00  0.00     0.135 A 
ATOM     62  C   UNL A   1      46.045  33.559  27.050  1.00  0.00     0.135 A 
ATOM     63  F   UNL A   1      46.744  32.361  30.415  1.00  0.00    -0.206 F 
ATOM     64  C   UNL A   1      46.922  34.519  29.516  1.00  0.00     0.059 A 
ATOM     65  C   UNL A   1      46.364  34.909  27.185  1.00  0.00     0.059 A 
ATOM     66  F   UNL A   1      45.613  33.130  25.855  1.00  0.00    -0.206 F 
ATOM     67  C   UNL A   1      46.783  35.382  28.429  1.00  0.00     0.060 A 
BRANCH  67  68
ATOM     68  S   UNL A   1      47.162  37.132  28.655  1.00  0.00     0.124 S 
ATOM     69  O   UNL A   1      48.390  37.264  27.868  1.00  0.00    -0.237 OA
ATOM     70  O   UNL A   1      45.982  37.783  28.084  1.00  0.00    -0.237 OA
ATOM     71  O   UNL A   1      47.318  37.269  30.089  1.00  0.00    -0.744 OA
ENDBRANCH  67  68
ENDBRANCH  46  60
BRANCH  47  72
ATOM     72  C   UNL A   1      43.450  23.146  26.845  1.00  0.00     0.058 A 
ATOM     73  C   UNL A   1      43.398  22.609  25.551  1.00  0.00     0.135 A 
ATOM     74  C   UNL A   1      43.129  22.299  27.917  1.00  0.00     0.135 A 
ATOM     75  F   UNL A   1      43.688  23.381  24.492  1.00  0.00    -0.206 F 
ATOM     76  C   UNL A   1      43.036  21.285  25.325  1.00  0.00     0.059 A 
ATOM     77  C   UNL A   1      42.787  20.965  27.719  1.00  0.00     0.059 A 
ATOM     78  F   UNL A   1      43.179  22.762  29.176  1.00  0.00    -0.206 F 
ATOM     79  C   UNL A   1      42.735  20.469  26.417  1.00  0.00     0.060 A 
BRANCH  79  80
ATOM     80  S   UNL A   1      42.334  18.733  26.119  1.00  0.00     0.124 S 
ATOM     81  O   UNL A   1      43.260  18.398  25.043  1.00  0.00    -0.237 OA
ATOM     82  O   UNL A   1      42.614  18.126  27.416  1.00  0.00    -0.237 OA
ATOM     83  O   UNL A   1      40.922  18.776  25.749  1.00  0.00    -0.744 OA
ENDBRANCH  79  80
ENDBRANCH  47  72
BRANCH  59  84
ATOM     84  C   UNL A   1      49.557  26.495  26.505  1.00  0.00     0.058 A 
ATOM     85  C   UNL A   1      50.393  26.000  27.518  1.00  0.00     0.135 A 
ATOM     86  C   UNL A   1      50.058  26.519  25.194  1.00  0.00     0.135 A 
ATOM     87  F   UNL A   1      49.964  25.959  28.790  1.00  0.00    -0.206 F 
ATOM     88  C   UNL A   1      51.689  25.572  27.245  1.00  0.00     0.059 A 
ATOM     89  C   UNL A   1      51.342  26.072  24.895  1.00  0.00     0.059 A 
ATOM     90  F   UNL A   1      49.295  26.973  24.187  1.00  0.00    -0.206 F 
ATOM     91  C   UNL A   1      52.156  25.616  25.930  1.00  0.00     0.060 A 
BRANCH  91  92
ATOM     92  S   UNL A   1      53.834  25.047  25.586  1.00  0.00     0.124 S 
ATOM     93  O   UNL A   1      53.601  23.654  25.216  1.00  0.00    -0.237 OA
ATOM     94  O   UNL A   1      54.251  25.930  24.502  1.00  0.00    -0.237 OA
ATOM     95  O   UNL A   1      54.528  25.251  26.854  1.00  0.00    -0.744 OA
ENDBRANCH  91  92
ENDBRANCH  59  84
ENDBRANCH  33  34
ENDBRANCH  25  28
ENDBRANCH  23  24
ENDBRANCH   1  23
TORSDOF 15
ENDMDL
MODEL 3
REMARK VINA RESULT:     -11.3      3.382      9.471
REMARK SMILES C[C@H]1[C@@H](C(=O)NCCCNC(=O)c2ccc(-c3c4nc(c(-c5c(F)cc(S(=O)(=O)[O-])cc5F)c5ccc([nH]5)c(-c5c(F)cc(S(=O)(=O)[O-])cc5F)c5nc(c(-c6c(F)cc(S(=O)(=O)[O-])cc6F)c6ccc3[nH]6)C=C5)C=C4)cc2)CCN1C(=O)NC1CCCCC1
REMARK SMILES IDX 8 1 7 2 6 3 4 4 5 5 3 7 1 8 2 9 81 10 79 11 80 12 82 13
REMARK SMILES IDX 83 14 84 15 85 17 86 18 90 19 87 20 89 21 88 22 9 23 10 24
REMARK SMILES IDX 11 25 12 27 13 28 14 29 78 30 15 31 77 32 16 33 17 34 18 35
REMARK SMILES IDX 71 36 19 37 76 38 70 39 72 40 20 41 75 42 69 43 68 44 21 46
REMARK SMILES IDX 55 47 34 48 54 49 35 50 38 51 53 52 73 53 36 54 37 55 52 57
REMARK SMILES IDX 74 58 39 59 22 60 23 61 32 62 24 63 25 64 31 65 33 66 26 67
REMARK SMILES IDX 27 68 28 69 29 70 30 71 56 72 57 73 66 74 58 75 59 76 65 77
REMARK SMILES IDX 67 78 60 79 61 80 62 81 63 82 64 83 40 84 41 85 50 86 42 87
REMARK SMILES IDX 43 88 49 89 51 90 44 91 45 92 46 93 47 94 48 95
REMARK H PARENT 6 6 84 16 10 26 72 45 38 56
REMARK Flexibility Score: inf
ROOT
ATOM      1  C   UNL A   1      38.967  22.638  26.506  1.00  0.00     0.042 C 
ENDROOT
BRANCH   1   2
ATOM      2  C   UNL A   1      38.077  23.755  25.956  1.00  0.00     0.117 C 
BRANCH   2   3
ATOM      3  N   UNL A   1      37.818  23.616  24.529  1.00  0.00    -0.356 N 
ATOM      4  C   UNL A   1      36.693  23.263  23.840  1.00  0.00     0.225 C 
ATOM      5  O   UNL A   1      36.756  23.299  22.610  1.00  0.00    -0.275 OA
ATOM      6  H   UNL A   1      38.595  23.811  23.958  1.00  0.00     0.163 HD
BRANCH   4   7
ATOM      7  C   UNL A   1      35.400  22.929  24.567  1.00  0.00     0.102 C 
ATOM      8  C   UNL A   1      36.232  20.476  25.031  1.00  0.00     0.032 C 
ATOM      9  C   UNL A   1      35.403  21.684  25.460  1.00  0.00     0.096 C 
ATOM     10  N   UNL A   1      34.006  21.317  25.516  1.00  0.00    -0.321 N 
ATOM     11  C   UNL A   1      34.176  22.740  23.642  1.00  0.00     0.037 C 
ATOM     12  C   UNL A   1      33.426  21.539  24.202  1.00  0.00     0.122 C 
BRANCH  10  13
ATOM     13  C   UNL A   1      33.333  20.596  26.436  1.00  0.00     0.317 C 
ATOM     14  O   UNL A   1      33.130  21.047  27.569  1.00  0.00    -0.249 OA
ATOM     15  N   UNL A   1      32.860  19.363  26.219  1.00  0.00    -0.335 N 
ATOM     16  H   UNL A   1      32.345  19.077  27.008  1.00  0.00     0.165 HD
BRANCH  15  17
ATOM     17  C   UNL A   1      32.835  18.275  25.210  1.00  0.00     0.083 C 
ATOM     18  C   UNL A   1      34.142  18.112  24.401  1.00  0.00     0.025 C 
ATOM     19  C   UNL A   1      32.528  16.982  26.011  1.00  0.00     0.025 C 
ATOM     20  C   UNL A   1      34.311  16.765  23.700  1.00  0.00     0.002 C 
ATOM     21  C   UNL A   1      32.706  15.682  25.240  1.00  0.00     0.002 C 
ATOM     22  C   UNL A   1      34.100  15.600  24.644  1.00  0.00     0.000 C 
ENDBRANCH  15  17
ENDBRANCH  10  13
ENDBRANCH   4   7
ENDBRANCH   2   3
ENDBRANCH   1   2
BRANCH   1  23
ATOM     23  C   UNL A   1      40.287  23.121  27.105  1.00  0.00     0.118 C 
BRANCH  23  24
ATOM     24  N   UNL A   1      41.052  23.920  26.162  1.00  0.00    -0.352 N 
ATOM     25  C   UNL A   1      41.352  25.262  26.132  1.00  0.00     0.251 C 
ATOM     26  H   UNL A   1      41.423  23.407  25.409  1.00  0.00     0.163 HD
ATOM     27  O   UNL A   1      41.839  25.712  25.094  1.00  0.00    -0.269 OA
BRANCH  25  28
ATOM     28  C   UNL A   1      41.101  26.182  27.276  1.00  0.00     0.039 A 
ATOM     29  C   UNL A   1      41.936  27.299  27.417  1.00  0.00     0.014 A 
ATOM     30  C   UNL A   1      40.143  25.936  28.263  1.00  0.00     0.014 A 
ATOM     31  C   UNL A   1      41.792  28.169  28.507  1.00  0.00     0.010 A 
ATOM     32  C   UNL A   1      39.939  26.853  29.302  1.00  0.00     0.010 A 
ATOM     33  C   UNL A   1      40.775  27.969  29.453  1.00  0.00    -0.014 A 
BRANCH  33  34
ATOM     34  C   UNL A   1      40.611  28.890  30.616  1.00  0.00     0.031 A 
ATOM     35  C   UNL A   1      41.478  28.742  31.844  1.00  0.00     0.074 A 
ATOM     36  C   UNL A   1      39.663  29.849  30.590  1.00  0.00     0.049 A 
ATOM     37  N   UNL A   1      41.458  29.424  32.961  1.00  0.00    -0.248 NA
ATOM     38  C   UNL A   1      42.484  27.667  31.822  1.00  0.00     0.031 C 
ATOM     39  C   UNL A   1      38.719  30.076  29.494  1.00  0.00     0.029 A 
ATOM     40  N   UNL A   1      39.329  30.809  31.515  1.00  0.00    -0.354 N 
ATOM     41  C   UNL A   1      42.430  28.854  33.778  1.00  0.00     0.074 A 
ATOM     42  C   UNL A   1      42.983  27.735  33.048  1.00  0.00     0.031 C 
ATOM     43  C   UNL A   1      37.932  31.121  29.798  1.00  0.00     0.029 A 
ATOM     44  C   UNL A   1      38.291  31.620  31.122  1.00  0.00     0.049 A 
ATOM     45  H   UNL A   1      39.792  30.908  32.379  1.00  0.00     0.167 HD
ATOM     46  C   UNL A   1      42.847  29.241  35.009  1.00  0.00     0.037 A 
ATOM     47  C   UNL A   1      37.689  32.650  31.753  1.00  0.00     0.037 A 
ATOM     48  C   UNL A   1      42.320  30.374  35.726  1.00  0.00     0.049 A 
ATOM     49  C   UNL A   1      38.183  33.078  33.108  1.00  0.00     0.074 A 
ATOM     50  C   UNL A   1      42.715  30.876  36.954  1.00  0.00     0.029 A 
ATOM     51  N   UNL A   1      41.290  31.187  35.277  1.00  0.00    -0.354 N 
ATOM     52  N   UNL A   1      39.142  32.558  33.837  1.00  0.00    -0.248 NA
ATOM     53  C   UNL A   1      37.523  34.239  33.720  1.00  0.00     0.031 C 
ATOM     54  C   UNL A   1      41.900  31.971  37.265  1.00  0.00     0.029 A 
ATOM     55  C   UNL A   1      41.027  32.179  36.210  1.00  0.00     0.049 A 
ATOM     56  H   UNL A   1      40.815  31.077  34.423  1.00  0.00     0.167 HD
ATOM     57  C   UNL A   1      39.210  33.339  34.986  1.00  0.00     0.074 A 
ATOM     58  C   UNL A   1      38.211  34.377  34.845  1.00  0.00     0.031 C 
ATOM     59  C   UNL A   1      40.027  33.206  36.060  1.00  0.00     0.037 A 
BRANCH  46  60
ATOM     60  C   UNL A   1      43.938  28.431  35.658  1.00  0.00     0.058 A 
ATOM     61  C   UNL A   1      45.296  28.712  35.430  1.00  0.00     0.135 A 
ATOM     62  C   UNL A   1      43.628  27.381  36.537  1.00  0.00     0.135 A 
ATOM     63  F   UNL A   1      45.651  29.697  34.590  1.00  0.00    -0.206 F 
ATOM     64  C   UNL A   1      46.305  27.956  36.018  1.00  0.00     0.059 A 
ATOM     65  C   UNL A   1      44.622  26.629  37.158  1.00  0.00     0.059 A 
ATOM     66  F   UNL A   1      42.348  27.071  36.796  1.00  0.00    -0.206 F 
ATOM     67  C   UNL A   1      45.959  26.913  36.876  1.00  0.00     0.060 A 
BRANCH  67  68
ATOM     68  S   UNL A   1      47.275  25.932  37.627  1.00  0.00     0.124 S 
ATOM     69  O   UNL A   1      47.550  26.702  38.843  1.00  0.00    -0.237 OA
ATOM     70  O   UNL A   1      46.618  24.641  37.841  1.00  0.00    -0.237 OA
ATOM     71  O   UNL A   1      48.325  25.940  36.629  1.00  0.00    -0.744 OA
ENDBRANCH  67  68
ENDBRANCH  46  60
BRANCH  47  72
ATOM     72  C   UNL A   1      36.564  33.365  31.092  1.00  0.00     0.058 A 
ATOM     73  C   UNL A   1      36.787  34.200  29.988  1.00  0.00     0.135 A 
ATOM     74  C   UNL A   1      35.242  33.206  31.535  1.00  0.00     0.135 A 
ATOM     75  F   UNL A   1      38.035  34.389  29.532  1.00  0.00    -0.206 F 
ATOM     76  C   UNL A   1      35.742  34.861  29.351  1.00  0.00     0.059 A 
ATOM     77  C   UNL A   1      34.177  33.837  30.900  1.00  0.00     0.059 A 
ATOM     78  F   UNL A   1      34.975  32.405  32.578  1.00  0.00    -0.206 F 
ATOM     79  C   UNL A   1      34.438  34.669  29.812  1.00  0.00     0.060 A 
BRANCH  79  80
ATOM     80  S   UNL A   1      33.080  35.476  28.936  1.00  0.00     0.124 S 
ATOM     81  O   UNL A   1      32.277  35.984  30.043  1.00  0.00    -0.237 OA
ATOM     82  O   UNL A   1      33.781  36.479  28.141  1.00  0.00    -0.237 OA
ATOM     83  O   UNL A   1      32.484  34.386  28.169  1.00  0.00    -0.744 OA
ENDBRANCH  79  80
ENDBRANCH  47  72
BRANCH  59  84
ATOM     84  C   UNL A   1      39.889  34.221  37.162  1.00  0.00     0.058 A 
ATOM     85  C   UNL A   1      40.506  35.479  37.085  1.00  0.00     0.135 A 
ATOM     86  C   UNL A   1      39.106  33.943  38.294  1.00  0.00     0.135 A 
ATOM     87  F   UNL A   1      41.270  35.795  36.026  1.00  0.00    -0.206 F 
ATOM     88  C   UNL A   1      40.378  36.416  38.107  1.00  0.00     0.059 A 
ATOM     89  C   UNL A   1      38.943  34.874  39.315  1.00  0.00     0.059 A 
ATOM     90  F   UNL A   1      38.484  32.759  38.412  1.00  0.00    -0.206 F 
ATOM     91  C   UNL A   1      39.597  36.102  39.221  1.00  0.00     0.060 A 
BRANCH  91  92
ATOM     92  S   UNL A   1      39.426  37.329  40.534  1.00  0.00     0.124 S 
ATOM     93  O   UNL A   1      40.821  37.655  40.814  1.00  0.00    -0.237 OA
ATOM     94  O   UNL A   1      38.647  38.378  39.886  1.00  0.00    -0.237 OA
ATOM     95  O   UNL A   1      38.728  36.600  41.589  1.00  0.00    -0.744 OA
ENDBRANCH  91  92
ENDBRANCH  59  84
ENDBRANCH  33  34
ENDBRANCH  25  28
ENDBRANCH  23  24
ENDBRANCH   1  23
TORSDOF 15
ENDMDL
