MODEL 1
REMARK VINA RESULT:     -11.8      0.000      0.000
REMARK SMILES O=C(NCCCNC(=O)[C@H](Cc1cccc(O)c1)Cc1cccc(F)c1)c1ccc(-c2c3nc(c(-c4c(F)cc(S(=O)(=O)[O-])cc4F)c4ccc([nH]4)c(-c4c(F)cc(S(=O)(=O)[O-])cc4F)c4nc(c(-c5c(F)cc(S(=O)(=O)[O-])cc5F)c5ccc2[nH]5)C=C4)C=C3)cc1
REMARK SMILES IDX 5 1 4 2 3 3 1 4 2 5 27 7 28 8 92 9 29 10 91 11 30 12 31 13
REMARK SMILES IDX 32 14 85 15 33 16 90 17 84 18 86 19 34 20 89 21 83 22 82 23
REMARK SMILES IDX 35 25 69 26 48 27 68 28 49 29 52 30 67 31 87 32 50 33 51 34
REMARK SMILES IDX 66 36 88 37 53 38 36 39 37 40 46 41 38 42 39 43 45 44 47 45
REMARK SMILES IDX 40 46 41 47 42 48 43 49 44 50 70 51 71 52 80 53 72 54 73 55
REMARK SMILES IDX 79 56 81 57 74 58 75 59 76 60 77 61 78 62 54 63 55 64 64 65
REMARK SMILES IDX 56 66 57 67 63 68 65 69 58 70 59 71 60 72 61 73 62 74 6 75
REMARK SMILES IDX 7 76 8 77 9 79 10 80 19 81 20 82 21 83 26 84 22 85 24 86
REMARK SMILES IDX 23 87 25 88 11 89 12 90 13 91 18 92 14 93 16 94 15 95 17 96
REMARK H PARENT 3 6 86 24 52 35 7 78 17 97
REMARK Flexibility Score: inf
ROOT
ATOM      1  C   UNL A   1      33.221  28.005  25.994  1.00  0.00     0.042 C 
ENDROOT
BRANCH   1   2
ATOM      2  C   UNL A   1      33.028  28.439  27.432  1.00  0.00     0.118 C 
BRANCH   2   3
ATOM      3  N   UNL A   1      33.254  29.867  27.608  1.00  0.00    -0.352 N 
ATOM      4  O   UNL A   1      34.113  31.797  28.294  1.00  0.00    -0.269 OA
ATOM      5  C   UNL A   1      34.328  30.611  28.038  1.00  0.00     0.251 C 
ATOM      6  H   UNL A   1      32.473  30.416  27.370  1.00  0.00     0.163 HD
BRANCH   5   7
ATOM      7  C   UNL A   1      35.713  30.078  28.210  1.00  0.00     0.039 A 
ATOM      8  C   UNL A   1      36.690  30.125  27.219  1.00  0.00     0.014 A 
ATOM      9  C   UNL A   1      36.091  29.609  29.481  1.00  0.00     0.014 A 
ATOM     10  C   UNL A   1      37.966  29.602  27.440  1.00  0.00     0.010 A 
ATOM     11  C   UNL A   1      37.408  29.199  29.743  1.00  0.00     0.010 A 
ATOM     12  C   UNL A   1      38.361  29.186  28.718  1.00  0.00    -0.014 A 
BRANCH  12  13
ATOM     13  C   UNL A   1      39.798  28.885  28.973  1.00  0.00     0.031 A 
ATOM     14  C   UNL A   1      40.406  27.560  28.604  1.00  0.00     0.074 A 
ATOM     15  C   UNL A   1      40.569  29.844  29.531  1.00  0.00     0.049 A 
ATOM     16  N   UNL A   1      41.646  27.161  28.737  1.00  0.00    -0.248 NA
ATOM     17  C   UNL A   1      39.514  26.550  28.013  1.00  0.00     0.031 C 
ATOM     18  C   UNL A   1      40.090  31.165  29.954  1.00  0.00     0.029 A 
ATOM     19  N   UNL A   1      41.910  29.875  29.823  1.00  0.00    -0.354 N 
ATOM     20  C   UNL A   1      41.685  25.858  28.257  1.00  0.00     0.074 A 
ATOM     21  C   UNL A   1      40.337  25.520  27.854  1.00  0.00     0.031 C 
ATOM     22  C   UNL A   1      41.126  31.892  30.395  1.00  0.00     0.029 A 
ATOM     23  C   UNL A   1      42.330  31.070  30.363  1.00  0.00     0.049 A 
ATOM     24  H   UNL A   1      42.514  29.116  29.661  1.00  0.00     0.167 HD
ATOM     25  C   UNL A   1      42.750  25.027  28.156  1.00  0.00     0.037 A 
ATOM     26  C   UNL A   1      43.539  31.464  30.808  1.00  0.00     0.037 A 
ATOM     27  C   UNL A   1      44.091  25.375  28.556  1.00  0.00     0.049 A 
ATOM     28  C   UNL A   1      44.693  30.508  30.722  1.00  0.00     0.074 A 
ATOM     29  C   UNL A   1      45.241  24.610  28.456  1.00  0.00     0.029 A 
ATOM     30  N   UNL A   1      44.465  26.578  29.139  1.00  0.00    -0.354 N 
ATOM     31  N   UNL A   1      44.715  29.293  30.227  1.00  0.00    -0.248 NA
ATOM     32  C   UNL A   1      45.981  30.964  31.260  1.00  0.00     0.031 C 
ATOM     33  C   UNL A   1      46.296  25.325  29.031  1.00  0.00     0.029 A 
ATOM     34  C   UNL A   1      45.819  26.562  29.433  1.00  0.00     0.049 A 
ATOM     35  H   UNL A   1      43.857  27.332  29.317  1.00  0.00     0.167 HD
ATOM     36  C   UNL A   1      46.020  28.844  30.384  1.00  0.00     0.074 A 
ATOM     37  C   UNL A   1      46.763  29.923  31.001  1.00  0.00     0.031 C 
ATOM     38  C   UNL A   1      46.551  27.643  30.049  1.00  0.00     0.037 A 
BRANCH  25  39
ATOM     39  C   UNL A   1      42.528  23.647  27.596  1.00  0.00     0.058 A 
ATOM     40  C   UNL A   1      42.375  22.546  28.454  1.00  0.00     0.135 A 
ATOM     41  C   UNL A   1      42.561  23.398  26.215  1.00  0.00     0.135 A 
ATOM     42  F   UNL A   1      42.333  22.725  29.783  1.00  0.00    -0.206 F 
ATOM     43  C   UNL A   1      42.287  21.247  27.965  1.00  0.00     0.059 A 
ATOM     44  C   UNL A   1      42.448  22.108  25.701  1.00  0.00     0.059 A 
ATOM     45  F   UNL A   1      42.686  24.416  25.348  1.00  0.00    -0.206 F 
ATOM     46  C   UNL A   1      42.328  21.036  26.587  1.00  0.00     0.060 A 
BRANCH  46  47
ATOM     47  S   UNL A   1      42.196  19.345  25.968  1.00  0.00     0.124 S 
ATOM     48  O   UNL A   1      40.766  19.230  25.705  1.00  0.00    -0.237 OA
ATOM     49  O   UNL A   1      43.059  19.384  24.791  1.00  0.00    -0.237 OA
ATOM     50  O   UNL A   1      42.699  18.539  27.077  1.00  0.00    -0.744 OA
ENDBRANCH  46  47
ENDBRANCH  25  39
BRANCH  26  51
ATOM     51  C   UNL A   1      43.703  32.827  31.381  1.00  0.00     0.058 A 
ATOM     52  C   UNL A   1      43.406  33.088  32.729  1.00  0.00     0.135 A 
ATOM     53  C   UNL A   1      44.109  33.907  30.583  1.00  0.00     0.135 A 
ATOM     54  F   UNL A   1      43.002  32.092  33.534  1.00  0.00    -0.206 F 
ATOM     55  C   UNL A   1      43.469  34.371  33.255  1.00  0.00     0.059 A 
ATOM     56  C   UNL A   1      44.210  35.197  31.095  1.00  0.00     0.059 A 
ATOM     57  F   UNL A   1      44.416  33.707  29.292  1.00  0.00    -0.206 F 
ATOM     58  C   UNL A   1      43.868  35.423  32.428  1.00  0.00     0.060 A 
BRANCH  58  59
ATOM     59  S   UNL A   1      43.925  37.084  33.131  1.00  0.00     0.124 S 
ATOM     60  O   UNL A   1      43.808  37.910  31.935  1.00  0.00    -0.237 OA
ATOM     61  O   UNL A   1      42.770  37.081  34.018  1.00  0.00    -0.237 OA
ATOM     62  O   UNL A   1      45.227  37.124  33.797  1.00  0.00    -0.744 OA
ENDBRANCH  58  59
ENDBRANCH  26  51
BRANCH  38  63
ATOM     63  C   UNL A   1      48.012  27.421  30.327  1.00  0.00     0.058 A 
ATOM     64  C   UNL A   1      48.969  27.640  29.323  1.00  0.00     0.135 A 
ATOM     65  C   UNL A   1      48.454  26.903  31.555  1.00  0.00     0.135 A 
ATOM     66  F   UNL A   1      48.598  28.131  28.130  1.00  0.00    -0.206 F 
ATOM     67  C   UNL A   1      50.310  27.326  29.516  1.00  0.00     0.059 A 
ATOM     68  C   UNL A   1      49.796  26.609  31.780  1.00  0.00     0.059 A 
ATOM     69  F   UNL A   1      47.581  26.691  32.551  1.00  0.00    -0.206 F 
ATOM     70  C   UNL A   1      50.713  26.804  30.747  1.00  0.00     0.060 A 
BRANCH  70  71
ATOM     71  S   UNL A   1      52.455  26.392  30.974  1.00  0.00     0.124 S 
ATOM     72  O   UNL A   1      52.372  25.133  31.708  1.00  0.00    -0.237 OA
ATOM     73  O   UNL A   1      52.930  26.295  29.598  1.00  0.00    -0.237 OA
ATOM     74  O   UNL A   1      52.976  27.526  31.731  1.00  0.00    -0.744 OA
ENDBRANCH  70  71
ENDBRANCH  38  63
ENDBRANCH  12  13
ENDBRANCH   5   7
ENDBRANCH   2   3
ENDBRANCH   1   2
BRANCH   1  75
ATOM     75  C   UNL A   1      32.327  26.876  25.496  1.00  0.00     0.117 C 
BRANCH  75  76
ATOM     76  N   UNL A   1      32.788  26.399  24.205  1.00  0.00    -0.356 N 
ATOM     77  C   UNL A   1      33.632  25.424  23.805  1.00  0.00     0.223 C 
ATOM     78  H   UNL A   1      32.398  26.899  23.452  1.00  0.00     0.163 HD
ATOM     79  O   UNL A   1      34.030  25.583  22.639  1.00  0.00    -0.275 OA
BRANCH  77  80
ATOM     80  C   UNL A   1      34.002  24.121  24.552  1.00  0.00     0.087 C 
BRANCH  80  81
ATOM     81  C   UNL A   1      35.219  24.433  25.473  1.00  0.00     0.049 C 
BRANCH  81  82
ATOM     82  C   UNL A   1      36.410  23.500  25.564  1.00  0.00    -0.044 A 
ATOM     83  C   UNL A   1      37.630  23.818  26.171  1.00  0.00     0.004 A 
ATOM     84  C   UNL A   1      36.248  22.196  25.059  1.00  0.00     0.043 A 
ATOM     85  C   UNL A   1      38.693  22.906  26.177  1.00  0.00     0.003 A 
ATOM     86  C   UNL A   1      37.295  21.280  25.108  1.00  0.00     0.123 A 
ATOM     87  C   UNL A   1      38.525  21.633  25.640  1.00  0.00     0.039 A 
ATOM     88  F   UNL A   1      37.109  20.038  24.641  1.00  0.00    -0.207 F 
ENDBRANCH  81  82
ENDBRANCH  80  81
BRANCH  80  89
ATOM     89  C   UNL A   1      32.929  23.169  25.122  1.00  0.00     0.049 C 
BRANCH  89  90
ATOM     90  C   UNL A   1      32.855  21.681  24.890  1.00  0.00    -0.044 A 
ATOM     91  C   UNL A   1      32.578  21.246  23.573  1.00  0.00     0.004 A 
ATOM     92  C   UNL A   1      33.038  20.706  25.873  1.00  0.00     0.049 A 
ATOM     93  C   UNL A   1      32.385  19.895  23.275  1.00  0.00     0.004 A 
ATOM     94  C   UNL A   1      32.818  19.357  25.572  1.00  0.00     0.115 A 
ATOM     95  C   UNL A   1      32.488  18.943  24.285  1.00  0.00     0.046 A 
BRANCH  94  96
ATOM     96  O   UNL A   1      32.866  18.469  26.606  1.00  0.00    -0.508 OA
ATOM     97  H   UNL A   1      32.771  18.771  27.488  1.00  0.00     0.293 HD
ENDBRANCH  94  96
ENDBRANCH  89  90
ENDBRANCH  80  89
ENDBRANCH  77  80
ENDBRANCH  75  76
ENDBRANCH   1  75
TORSDOF 18
ENDMDL
MODEL 2
REMARK VINA RESULT:     -11.7      0.905      2.206
REMARK SMILES O=C(NCCCNC(=O)[C@H](Cc1cccc(O)c1)Cc1cccc(F)c1)c1ccc(-c2c3nc(c(-c4c(F)cc(S(=O)(=O)[O-])cc4F)c4ccc([nH]4)c(-c4c(F)cc(S(=O)(=O)[O-])cc4F)c4nc(c(-c5c(F)cc(S(=O)(=O)[O-])cc5F)c5ccc2[nH]5)C=C4)C=C3)cc1
REMARK SMILES IDX 5 1 4 2 3 3 1 4 2 5 27 7 28 8 92 9 29 10 91 11 30 12 31 13
REMARK SMILES IDX 32 14 85 15 33 16 90 17 84 18 86 19 34 20 89 21 83 22 82 23
REMARK SMILES IDX 35 25 69 26 48 27 68 28 49 29 52 30 67 31 87 32 50 33 51 34
REMARK SMILES IDX 66 36 88 37 53 38 36 39 37 40 46 41 38 42 39 43 45 44 47 45
REMARK SMILES IDX 40 46 41 47 42 48 43 49 44 50 70 51 71 52 80 53 72 54 73 55
REMARK SMILES IDX 79 56 81 57 74 58 75 59 76 60 77 61 78 62 54 63 55 64 64 65
REMARK SMILES IDX 56 66 57 67 63 68 65 69 58 70 59 71 60 72 61 73 62 74 6 75
REMARK SMILES IDX 7 76 8 77 9 79 10 80 19 81 20 82 21 83 26 84 22 85 24 86
REMARK SMILES IDX 23 87 25 88 11 89 12 90 13 91 18 92 14 93 16 94 15 95 17 96
REMARK H PARENT 3 6 86 24 52 35 7 78 17 97
REMARK Flexibility Score: inf
ROOT
ATOM      1  C   UNL A   1      33.281  28.039  25.820  1.00  0.00     0.042 C 
ENDROOT
BRANCH   1   2
ATOM      2  C   UNL A   1      33.024  28.401  27.268  1.00  0.00     0.118 C 
BRANCH   2   3
ATOM      3  N   UNL A   1      33.228  29.821  27.523  1.00  0.00    -0.352 N 
ATOM      4  O   UNL A   1      34.047  31.724  28.323  1.00  0.00    -0.269 OA
ATOM      5  C   UNL A   1      34.283  30.555  28.009  1.00  0.00     0.251 C 
ATOM      6  H   UNL A   1      32.443  30.371  27.299  1.00  0.00     0.163 HD
BRANCH   5   7
ATOM      7  C   UNL A   1      35.672  30.032  28.179  1.00  0.00     0.039 A 
ATOM      8  C   UNL A   1      36.648  30.089  27.187  1.00  0.00     0.014 A 
ATOM      9  C   UNL A   1      36.055  29.562  29.448  1.00  0.00     0.014 A 
ATOM     10  C   UNL A   1      37.928  29.575  27.405  1.00  0.00     0.010 A 
ATOM     11  C   UNL A   1      37.376  29.162  29.707  1.00  0.00     0.010 A 
ATOM     12  C   UNL A   1      38.327  29.158  28.681  1.00  0.00    -0.014 A 
BRANCH  12  13
ATOM     13  C   UNL A   1      39.767  28.867  28.933  1.00  0.00     0.031 A 
ATOM     14  C   UNL A   1      40.383  27.546  28.566  1.00  0.00     0.074 A 
ATOM     15  C   UNL A   1      40.532  29.833  29.488  1.00  0.00     0.049 A 
ATOM     16  N   UNL A   1      41.625  27.155  28.698  1.00  0.00    -0.248 NA
ATOM     17  C   UNL A   1      39.496  26.529  27.979  1.00  0.00     0.031 C 
ATOM     18  C   UNL A   1      40.046  31.151  29.909  1.00  0.00     0.029 A 
ATOM     19  N   UNL A   1      41.874  29.873  29.777  1.00  0.00    -0.354 N 
ATOM     20  C   UNL A   1      41.672  25.851  28.220  1.00  0.00     0.074 A 
ATOM     21  C   UNL A   1      40.325  25.504  27.820  1.00  0.00     0.031 C 
ATOM     22  C   UNL A   1      41.078  31.886  30.347  1.00  0.00     0.029 A 
ATOM     23  C   UNL A   1      42.287  31.072  30.314  1.00  0.00     0.049 A 
ATOM     24  H   UNL A   1      42.483  29.118  29.616  1.00  0.00     0.167 HD
ATOM     25  C   UNL A   1      42.743  25.027  28.119  1.00  0.00     0.037 A 
ATOM     26  C   UNL A   1      43.494  31.475  30.756  1.00  0.00     0.037 A 
ATOM     27  C   UNL A   1      44.082  25.385  28.515  1.00  0.00     0.049 A 
ATOM     28  C   UNL A   1      44.655  30.526  30.669  1.00  0.00     0.074 A 
ATOM     29  C   UNL A   1      45.237  24.627  28.414  1.00  0.00     0.029 A 
ATOM     30  N   UNL A   1      44.449  26.592  29.095  1.00  0.00    -0.354 N 
ATOM     31  N   UNL A   1      44.683  29.310  30.177  1.00  0.00    -0.248 NA
ATOM     32  C   UNL A   1      45.941  30.991  31.204  1.00  0.00     0.031 C 
ATOM     33  C   UNL A   1      46.288  25.351  28.985  1.00  0.00     0.029 A 
ATOM     34  C   UNL A   1      45.804  26.585  29.386  1.00  0.00     0.049 A 
ATOM     35  H   UNL A   1      43.837  27.342  29.273  1.00  0.00     0.167 HD
ATOM     36  C   UNL A   1      45.992  28.870  30.332  1.00  0.00     0.074 A 
ATOM     37  C   UNL A   1      46.729  29.956  30.945  1.00  0.00     0.031 C 
ATOM     38  C   UNL A   1      46.530  27.672  29.998  1.00  0.00     0.037 A 
BRANCH  25  39
ATOM     39  C   UNL A   1      42.528  23.645  27.562  1.00  0.00     0.058 A 
ATOM     40  C   UNL A   1      42.351  22.549  28.423  1.00  0.00     0.135 A 
ATOM     41  C   UNL A   1      42.593  23.388  26.183  1.00  0.00     0.135 A 
ATOM     42  F   UNL A   1      42.279  22.737  29.749  1.00  0.00    -0.206 F 
ATOM     43  C   UNL A   1      42.269  21.248  27.940  1.00  0.00     0.059 A 
ATOM     44  C   UNL A   1      42.488  22.094  25.674  1.00  0.00     0.059 A 
ATOM     45  F   UNL A   1      42.743  24.400  25.314  1.00  0.00    -0.206 F 
ATOM     46  C   UNL A   1      42.342  21.029  26.564  1.00  0.00     0.060 A 
BRANCH  46  47
ATOM     47  S   UNL A   1      42.218  19.334  25.953  1.00  0.00     0.124 S 
ATOM     48  O   UNL A   1      40.783  19.197  25.732  1.00  0.00    -0.237 OA
ATOM     49  O   UNL A   1      43.046  19.384  24.750  1.00  0.00    -0.237 OA
ATOM     50  O   UNL A   1      42.766  18.538  27.047  1.00  0.00    -0.744 OA
ENDBRANCH  46  47
ENDBRANCH  25  39
BRANCH  26  51
ATOM     51  C   UNL A   1      43.651  32.840  31.326  1.00  0.00     0.058 A 
ATOM     52  C   UNL A   1      43.545  33.065  32.708  1.00  0.00     0.135 A 
ATOM     53  C   UNL A   1      43.857  33.954  30.498  1.00  0.00     0.135 A 
ATOM     54  F   UNL A   1      43.337  32.035  33.544  1.00  0.00    -0.206 F 
ATOM     55  C   UNL A   1      43.600  34.345  33.245  1.00  0.00     0.059 A 
ATOM     56  C   UNL A   1      43.947  35.243  31.015  1.00  0.00     0.059 A 
ATOM     57  F   UNL A   1      43.977  33.789  29.171  1.00  0.00    -0.206 F 
ATOM     58  C   UNL A   1      43.797  35.430  32.390  1.00  0.00     0.060 A 
BRANCH  58  59
ATOM     59  S   UNL A   1      43.847  37.084  33.110  1.00  0.00     0.124 S 
ATOM     60  O   UNL A   1      43.777  37.923  31.919  1.00  0.00    -0.237 OA
ATOM     61  O   UNL A   1      42.664  37.084  33.960  1.00  0.00    -0.237 OA
ATOM     62  O   UNL A   1      45.127  37.104  33.818  1.00  0.00    -0.744 OA
ENDBRANCH  58  59
ENDBRANCH  26  51
BRANCH  38  63
ATOM     63  C   UNL A   1      47.993  27.460  30.274  1.00  0.00     0.058 A 
ATOM     64  C   UNL A   1      48.952  27.757  29.292  1.00  0.00     0.135 A 
ATOM     65  C   UNL A   1      48.437  26.877  31.471  1.00  0.00     0.135 A 
ATOM     66  F   UNL A   1      48.581  28.313  28.128  1.00  0.00    -0.206 F 
ATOM     67  C   UNL A   1      50.298  27.457  29.477  1.00  0.00     0.059 A 
ATOM     68  C   UNL A   1      49.782  26.594  31.688  1.00  0.00     0.059 A 
ATOM     69  F   UNL A   1      47.561  26.589  32.446  1.00  0.00    -0.206 F 
ATOM     70  C   UNL A   1      50.702  26.869  30.676  1.00  0.00     0.060 A 
BRANCH  70  71
ATOM     71  S   UNL A   1      52.450  26.475  30.892  1.00  0.00     0.124 S 
ATOM     72  O   UNL A   1      52.865  26.194  29.521  1.00  0.00    -0.237 OA
ATOM     73  O   UNL A   1      52.973  27.706  31.474  1.00  0.00    -0.237 OA
ATOM     74  O   UNL A   1      52.430  25.324  31.790  1.00  0.00    -0.744 OA
ENDBRANCH  70  71
ENDBRANCH  38  63
ENDBRANCH  12  13
ENDBRANCH   5   7
ENDBRANCH   2   3
ENDBRANCH   1   2
BRANCH   1  75
ATOM     75  C   UNL A   1      32.287  27.086  25.169  1.00  0.00     0.117 C 
BRANCH  75  76
ATOM     76  N   UNL A   1      32.747  26.703  23.846  1.00  0.00    -0.356 N 
ATOM     77  C   UNL A   1      33.643  25.807  23.381  1.00  0.00     0.223 C 
ATOM     78  H   UNL A   1      32.307  27.212  23.128  1.00  0.00     0.163 HD
ATOM     79  O   UNL A   1      34.002  26.048  22.217  1.00  0.00    -0.275 OA
BRANCH  77  80
ATOM     80  C   UNL A   1      34.116  24.496  24.055  1.00  0.00     0.087 C 
BRANCH  80  81
ATOM     81  C   UNL A   1      32.848  23.687  24.457  1.00  0.00     0.049 C 
BRANCH  81  82
ATOM     82  C   UNL A   1      32.866  22.174  24.555  1.00  0.00    -0.044 A 
ATOM     83  C   UNL A   1      33.202  21.451  25.705  1.00  0.00     0.004 A 
ATOM     84  C   UNL A   1      32.449  21.449  23.422  1.00  0.00     0.043 A 
ATOM     85  C   UNL A   1      33.228  20.051  25.695  1.00  0.00     0.003 A 
ATOM     86  C   UNL A   1      32.436  20.058  23.435  1.00  0.00     0.123 A 
ATOM     87  C   UNL A   1      32.847  19.352  24.554  1.00  0.00     0.039 A 
ATOM     88  F   UNL A   1      32.013  19.391  22.351  1.00  0.00    -0.207 F 
ENDBRANCH  81  82
ENDBRANCH  80  81
BRANCH  80  89
ATOM     89  C   UNL A   1      35.314  23.684  23.517  1.00  0.00     0.049 C 
BRANCH  89  90
ATOM     90  C   UNL A   1      36.350  22.979  24.355  1.00  0.00    -0.044 A 
ATOM     91  C   UNL A   1      37.071  23.764  25.286  1.00  0.00     0.004 A 
ATOM     92  C   UNL A   1      36.649  21.617  24.282  1.00  0.00     0.049 A 
ATOM     93  C   UNL A   1      38.122  23.228  26.034  1.00  0.00     0.004 A 
ATOM     94  C   UNL A   1      37.721  21.094  25.015  1.00  0.00     0.115 A 
ATOM     95  C   UNL A   1      38.463  21.887  25.886  1.00  0.00     0.046 A 
BRANCH  94  96
ATOM     96  O   UNL A   1      38.058  19.792  24.789  1.00  0.00    -0.508 OA
ATOM     97  H   UNL A   1      37.476  19.233  24.313  1.00  0.00     0.293 HD
ENDBRANCH  94  96
ENDBRANCH  89  90
ENDBRANCH  80  89
ENDBRANCH  77  80
ENDBRANCH  75  76
ENDBRANCH   1  75
TORSDOF 18
ENDMDL
MODEL 3
REMARK VINA RESULT:     -11.5      1.118      8.599
REMARK SMILES O=C(NCCCNC(=O)[C@H](Cc1cccc(O)c1)Cc1cccc(F)c1)c1ccc(-c2c3nc(c(-c4c(F)cc(S(=O)(=O)[O-])cc4F)c4ccc([nH]4)c(-c4c(F)cc(S(=O)(=O)[O-])cc4F)c4nc(c(-c5c(F)cc(S(=O)(=O)[O-])cc5F)c5ccc2[nH]5)C=C4)C=C3)cc1
REMARK SMILES IDX 5 1 4 2 3 3 1 4 2 5 27 7 28 8 92 9 29 10 91 11 30 12 31 13
REMARK SMILES IDX 32 14 85 15 33 16 90 17 84 18 86 19 34 20 89 21 83 22 82 23
REMARK SMILES IDX 35 25 69 26 48 27 68 28 49 29 52 30 67 31 87 32 50 33 51 34
REMARK SMILES IDX 66 36 88 37 53 38 36 39 37 40 46 41 38 42 39 43 45 44 47 45
REMARK SMILES IDX 40 46 41 47 42 48 43 49 44 50 70 51 71 52 80 53 72 54 73 55
REMARK SMILES IDX 79 56 81 57 74 58 75 59 76 60 77 61 78 62 54 63 55 64 64 65
REMARK SMILES IDX 56 66 57 67 63 68 65 69 58 70 59 71 60 72 61 73 62 74 6 75
REMARK SMILES IDX 7 76 8 77 9 79 10 80 19 81 20 82 21 83 26 84 22 85 24 86
REMARK SMILES IDX 23 87 25 88 11 89 12 90 13 91 18 92 14 93 16 94 15 95 17 96
REMARK H PARENT 3 6 86 24 52 35 7 78 17 97
REMARK Flexibility Score: inf
ROOT
ATOM      1  C   UNL A   1      33.600  28.293  25.724  1.00  0.00     0.042 C 
ENDROOT
BRANCH   1   2
ATOM      2  C   UNL A   1      33.197  28.517  27.167  1.00  0.00     0.118 C 
BRANCH   2   3
ATOM      3  N   UNL A   1      33.375  29.903  27.577  1.00  0.00    -0.352 N 
ATOM      4  O   UNL A   1      34.153  31.718  28.594  1.00  0.00    -0.269 OA
ATOM      5  C   UNL A   1      34.412  30.593  28.161  1.00  0.00     0.251 C 
ATOM      6  H   UNL A   1      32.587  30.464  27.400  1.00  0.00     0.163 HD
BRANCH   5   7
ATOM      7  C   UNL A   1      35.805  30.073  28.299  1.00  0.00     0.039 A 
ATOM      8  C   UNL A   1      36.751  30.111  27.278  1.00  0.00     0.014 A 
ATOM      9  C   UNL A   1      36.225  29.626  29.565  1.00  0.00     0.014 A 
ATOM     10  C   UNL A   1      38.037  29.600  27.468  1.00  0.00     0.010 A 
ATOM     11  C   UNL A   1      37.552  29.229  29.792  1.00  0.00     0.010 A 
ATOM     12  C   UNL A   1      38.473  29.206  28.739  1.00  0.00    -0.014 A 
BRANCH  12  13
ATOM     13  C   UNL A   1      39.920  28.919  28.954  1.00  0.00     0.031 A 
ATOM     14  C   UNL A   1      40.846  29.933  29.565  1.00  0.00     0.074 A 
ATOM     15  C   UNL A   1      40.394  27.702  28.604  1.00  0.00     0.049 A 
ATOM     16  N   UNL A   1      42.121  29.819  29.840  1.00  0.00    -0.248 NA
ATOM     17  C   UNL A   1      40.275  31.244  29.912  1.00  0.00     0.031 C 
ATOM     18  C   UNL A   1      39.598  26.639  27.981  1.00  0.00     0.029 A 
ATOM     19  N   UNL A   1      41.640  27.142  28.735  1.00  0.00    -0.354 N 
ATOM     20  C   UNL A   1      42.508  31.038  30.383  1.00  0.00     0.074 A 
ATOM     21  C   UNL A   1      41.339  31.891  30.373  1.00  0.00     0.031 C 
ATOM     22  C   UNL A   1      40.357  25.544  27.837  1.00  0.00     0.029 A 
ATOM     23  C   UNL A   1      41.713  25.844  28.283  1.00  0.00     0.049 A 
ATOM     24  H   UNL A   1      42.410  27.623  29.117  1.00  0.00     0.167 HD
ATOM     25  C   UNL A   1      43.726  31.405  30.852  1.00  0.00     0.037 A 
ATOM     26  C   UNL A   1      42.752  24.990  28.207  1.00  0.00     0.037 A 
ATOM     27  C   UNL A   1      44.883  30.545  30.861  1.00  0.00     0.049 A 
ATOM     28  C   UNL A   1      44.099  25.437  28.696  1.00  0.00     0.074 A 
ATOM     29  C   UNL A   1      46.150  30.818  31.352  1.00  0.00     0.029 A 
ATOM     30  N   UNL A   1      44.925  29.254  30.353  1.00  0.00    -0.354 N 
ATOM     31  N   UNL A   1      44.433  26.582  29.242  1.00  0.00    -0.248 NA
ATOM     32  C   UNL A   1      45.211  24.489  28.553  1.00  0.00     0.031 C 
ATOM     33  C   UNL A   1      46.970  29.718  31.088  1.00  0.00     0.029 A 
ATOM     34  C   UNL A   1      46.202  28.732  30.490  1.00  0.00     0.049 A 
ATOM     35  H   UNL A   1      44.160  28.778  29.956  1.00  0.00     0.167 HD
ATOM     36  C   UNL A   1      45.791  26.487  29.518  1.00  0.00     0.074 A 
ATOM     37  C   UNL A   1      46.214  25.167  29.097  1.00  0.00     0.031 C 
ATOM     38  C   UNL A   1      46.613  27.415  30.066  1.00  0.00     0.037 A 
BRANCH  25  39
ATOM     39  C   UNL A   1      43.890  32.799  31.394  1.00  0.00     0.058 A 
ATOM     40  C   UNL A   1      44.311  33.845  30.556  1.00  0.00     0.135 A 
ATOM     41  C   UNL A   1      43.725  33.083  32.759  1.00  0.00     0.135 A 
ATOM     42  F   UNL A   1      44.482  33.632  29.242  1.00  0.00    -0.206 F 
ATOM     43  C   UNL A   1      44.585  35.114  31.055  1.00  0.00     0.059 A 
ATOM     44  C   UNL A   1      43.969  34.354  33.277  1.00  0.00     0.059 A 
ATOM     45  F   UNL A   1      43.307  32.125  33.602  1.00  0.00    -0.206 F 
ATOM     46  C   UNL A   1      44.414  35.359  32.417  1.00  0.00     0.060 A 
BRANCH  46  47
ATOM     47  S   UNL A   1      44.759  37.017  33.045  1.00  0.00     0.124 S 
ATOM     48  O   UNL A   1      44.542  36.848  34.477  1.00  0.00    -0.237 OA
ATOM     49  O   UNL A   1      46.145  37.216  32.629  1.00  0.00    -0.237 OA
ATOM     50  O   UNL A   1      43.781  37.851  32.354  1.00  0.00    -0.744 OA
ENDBRANCH  46  47
ENDBRANCH  25  39
BRANCH  26  51
ATOM     51  C   UNL A   1      42.546  23.631  27.635  1.00  0.00     0.058 A 
ATOM     52  C   UNL A   1      42.333  22.520  28.467  1.00  0.00     0.135 A 
ATOM     53  C   UNL A   1      42.610  23.408  26.252  1.00  0.00     0.135 A 
ATOM     54  F   UNL A   1      42.274  22.678  29.799  1.00  0.00    -0.206 F 
ATOM     55  C   UNL A   1      42.228  21.234  27.954  1.00  0.00     0.059 A 
ATOM     56  C   UNL A   1      42.476  22.132  25.711  1.00  0.00     0.059 A 
ATOM     57  F   UNL A   1      42.799  24.439  25.415  1.00  0.00    -0.206 F 
ATOM     58  C   UNL A   1      42.306  21.048  26.573  1.00  0.00     0.060 A 
BRANCH  58  59
ATOM     59  S   UNL A   1      42.184  19.365  25.932  1.00  0.00     0.124 S 
ATOM     60  O   UNL A   1      40.754  19.259  25.663  1.00  0.00    -0.237 OA
ATOM     61  O   UNL A   1      43.049  19.420  24.762  1.00  0.00    -0.237 OA
ATOM     62  O   UNL A   1      42.676  18.547  27.039  1.00  0.00    -0.744 OA
ENDBRANCH  58  59
ENDBRANCH  26  51
BRANCH  38  63
ATOM     63  C   UNL A   1      48.057  27.043  30.261  1.00  0.00     0.058 A 
ATOM     64  C   UNL A   1      48.471  26.384  31.431  1.00  0.00     0.135 A 
ATOM     65  C   UNL A   1      49.043  27.422  29.336  1.00  0.00     0.135 A 
ATOM     66  F   UNL A   1      47.569  26.003  32.348  1.00  0.00    -0.206 F 
ATOM     67  C   UNL A   1      49.815  26.140  31.689  1.00  0.00     0.059 A 
ATOM     68  C   UNL A   1      50.392  27.161  29.562  1.00  0.00     0.059 A 
ATOM     69  F   UNL A   1      48.697  28.040  28.197  1.00  0.00    -0.206 F 
ATOM     70  C   UNL A   1      50.769  26.538  30.751  1.00  0.00     0.060 A 
BRANCH  70  71
ATOM     71  S   UNL A   1      52.510  26.222  31.111  1.00  0.00     0.124 S 
ATOM     72  O   UNL A   1      53.082  26.136  29.772  1.00  0.00    -0.237 OA
ATOM     73  O   UNL A   1      52.881  27.401  31.887  1.00  0.00    -0.237 OA
ATOM     74  O   UNL A   1      52.479  24.971  31.863  1.00  0.00    -0.744 OA
ENDBRANCH  70  71
ENDBRANCH  38  63
ENDBRANCH  12  13
ENDBRANCH   5   7
ENDBRANCH   2   3
ENDBRANCH   1   2
BRANCH   1  75
ATOM     75  C   UNL A   1      33.656  26.847  25.249  1.00  0.00     0.117 C 
BRANCH  75  76
ATOM     76  N   UNL A   1      32.908  25.989  26.150  1.00  0.00    -0.356 N 
ATOM     77  C   UNL A   1      32.596  24.676  26.161  1.00  0.00     0.223 C 
ATOM     78  H   UNL A   1      32.547  26.475  26.926  1.00  0.00     0.163 HD
ATOM     79  O   UNL A   1      31.640  24.416  26.910  1.00  0.00    -0.275 OA
BRANCH  77  80
ATOM     80  C   UNL A   1      33.368  23.509  25.500  1.00  0.00     0.087 C 
BRANCH  80  81
ATOM     81  C   UNL A   1      32.334  22.633  24.732  1.00  0.00     0.049 C 
BRANCH  81  82
ATOM     82  C   UNL A   1      32.501  21.133  24.600  1.00  0.00    -0.044 A 
ATOM     83  C   UNL A   1      32.778  20.263  25.662  1.00  0.00     0.004 A 
ATOM     84  C   UNL A   1      32.296  20.569  23.327  1.00  0.00     0.043 A 
ATOM     85  C   UNL A   1      32.954  18.891  25.443  1.00  0.00     0.003 A 
ATOM     86  C   UNL A   1      32.429  19.198  23.126  1.00  0.00     0.123 A 
ATOM     87  C   UNL A   1      32.782  18.357  24.170  1.00  0.00     0.039 A 
ATOM     88  F   UNL A   1      32.207  18.684  21.909  1.00  0.00    -0.207 F 
ENDBRANCH  81  82
ENDBRANCH  80  81
BRANCH  80  89
ATOM     89  C   UNL A   1      34.740  23.713  24.822  1.00  0.00     0.049 C 
BRANCH  89  90
ATOM     90  C   UNL A   1      36.021  23.010  25.195  1.00  0.00    -0.044 A 
ATOM     91  C   UNL A   1      37.005  23.774  25.866  1.00  0.00     0.004 A 
ATOM     92  C   UNL A   1      36.307  21.669  24.929  1.00  0.00     0.049 A 
ATOM     93  C   UNL A   1      38.265  23.245  26.160  1.00  0.00     0.004 A 
ATOM     94  C   UNL A   1      37.579  21.156  25.203  1.00  0.00     0.115 A 
ATOM     95  C   UNL A   1      38.562  21.931  25.810  1.00  0.00     0.046 A 
BRANCH  94  96
ATOM     96  O   UNL A   1      37.845  19.885  24.785  1.00  0.00    -0.508 OA
ATOM     97  H   UNL A   1      38.364  19.315  25.319  1.00  0.00     0.293 HD
ENDBRANCH  94  96
ENDBRANCH  89  90
ENDBRANCH  80  89
ENDBRANCH  77  80
ENDBRANCH  75  76
ENDBRANCH   1  75
TORSDOF 18
ENDMDL
