MODEL 1
REMARK VINA RESULT:     -12.6      0.000      0.000
REMARK SMILES CCCc1cc2c(cc1Cl)C=C(C(=O)NCCCNC(=O)c1ccc(-c3c4nc(c(-c5c(F)cc(S(=O)(=O)[O-])cc5F)c5ccc([nH]5)c(-c5c(F)cc(S(=O)(=O)[O-])cc5F)c5nc(c(-c6c(F)cc(S(=O)(=O)[O-])cc6F)c6ccc3[nH]6)C=C5)C=C4)cc1)[C@@H](C(F)(F)F)O2
REMARK SMILES IDX 17 1 16 2 15 3 13 4 14 5 12 7 4 8 5 9 9 10 6 11 8 12 10 13
REMARK SMILES IDX 7 14 93 15 11 16 88 17 3 18 2 19 1 20 89 21 90 22 91 23
REMARK SMILES IDX 92 24 18 25 19 26 20 27 21 29 22 30 23 31 87 32 24 33 86 34
REMARK SMILES IDX 25 35 26 36 27 37 80 38 28 39 85 40 79 41 81 42 29 43 84 44
REMARK SMILES IDX 78 45 77 46 30 48 64 49 43 50 63 51 44 52 47 53 62 54 82 55
REMARK SMILES IDX 45 56 46 57 61 59 83 60 48 61 31 62 32 63 41 64 33 65 34 66
REMARK SMILES IDX 40 67 42 68 35 69 36 70 37 71 38 72 39 73 65 74 66 75 75 76
REMARK SMILES IDX 67 77 68 78 74 79 76 80 69 81 70 82 71 83 72 84 73 85 49 86
REMARK SMILES IDX 50 87 59 88 51 89 52 90 58 91 60 92 53 93 54 94 55 95 56 96
REMARK SMILES IDX 57 97
REMARK H PARENT 15 6 19 28 81 47 47 58
REMARK Flexibility Score: inf
ROOT
ATOM      1  C   UNL A   1      39.314  22.080  26.521  1.00  0.00     0.042 C 
ENDROOT
BRANCH   1   2
ATOM      2  C   UNL A   1      38.107  22.659  25.800  1.00  0.00     0.118 C 
BRANCH   2   3
ATOM      3  N   UNL A   1      36.880  21.944  26.120  1.00  0.00    -0.352 N 
ATOM      4  C   UNL A   1      35.559  22.074  25.862  1.00  0.00     0.251 C 
ATOM      5  O   UNL A   1      34.838  21.195  26.345  1.00  0.00    -0.270 OA
ATOM      6  H   UNL A   1      37.061  21.151  26.675  1.00  0.00     0.163 HD
BRANCH   4   7
ATOM      7  C   UNL A   1      34.945  23.167  25.054  1.00  0.00     0.067 C 
ATOM      8  C   UNL A   1      32.808  27.450  23.466  1.00  0.00    -0.026 A 
ATOM      9  C   UNL A   1      33.403  26.349  22.833  1.00  0.00     0.052 A 
ATOM     10  C   UNL A   1      32.952  27.554  24.865  1.00  0.00     0.045 A 
ATOM     11  C   UNL A   1      34.006  25.338  23.578  1.00  0.00     0.128 A 
ATOM     12  C   UNL A   1      33.598  26.552  25.606  1.00  0.00     0.032 A 
ATOM     13  Cl  UNL A   1      32.348  28.915  25.748  1.00  0.00    -0.084 Cl
ATOM     14  C   UNL A   1      34.107  25.425  24.963  1.00  0.00     0.019 A 
ATOM     15  O   UNL A   1      34.494  24.271  22.879  1.00  0.00    -0.475 OA
ATOM     16  C   UNL A   1      34.752  24.339  25.693  1.00  0.00     0.025 C 
ATOM     17  C   UNL A   1      34.513  23.020  23.622  1.00  0.00     0.314 C 
BRANCH   8  18
ATOM     18  C   UNL A   1      32.079  28.504  22.656  1.00  0.00     0.037 C 
BRANCH  18  19
ATOM     19  C   UNL A   1      30.552  28.371  22.536  1.00  0.00     0.001 C 
ATOM     20  C   UNL A   1      29.809  29.688  22.731  1.00  0.00     0.004 C 
ENDBRANCH  18  19
ENDBRANCH   8  18
BRANCH  17  21
ATOM     21  C   UNL A   1      33.147  22.314  23.487  1.00  0.00     0.429 C 
ATOM     22  F   UNL A   1      33.293  20.969  23.588  1.00  0.00    -0.167 F 
ATOM     23  F   UNL A   1      32.275  22.680  24.458  1.00  0.00    -0.167 F 
ATOM     24  F   UNL A   1      32.536  22.566  22.307  1.00  0.00    -0.167 F 
ENDBRANCH  17  21
ENDBRANCH   4   7
ENDBRANCH   2   3
ENDBRANCH   1   2
BRANCH   1  25
ATOM     25  C   UNL A   1      40.197  23.159  27.135  1.00  0.00     0.118 C 
BRANCH  25  26
ATOM     26  N   UNL A   1      40.801  24.022  26.121  1.00  0.00    -0.352 N 
ATOM     27  C   UNL A   1      41.080  25.367  26.147  1.00  0.00     0.251 C 
ATOM     28  H   UNL A   1      41.048  23.564  25.285  1.00  0.00     0.163 HD
ATOM     29  O   UNL A   1      41.381  25.944  25.106  1.00  0.00    -0.269 OA
BRANCH  27  30
ATOM     30  C   UNL A   1      41.002  26.115  27.418  1.00  0.00     0.039 A 
ATOM     31  C   UNL A   1      39.854  26.042  28.206  1.00  0.00     0.014 A 
ATOM     32  C   UNL A   1      42.084  26.901  27.827  1.00  0.00     0.014 A 
ATOM     33  C   UNL A   1      39.707  26.901  29.285  1.00  0.00     0.010 A 
ATOM     34  C   UNL A   1      41.974  27.685  28.980  1.00  0.00     0.010 A 
ATOM     35  C   UNL A   1      40.764  27.732  29.689  1.00  0.00    -0.014 A 
BRANCH  35  36
ATOM     36  C   UNL A   1      40.562  28.638  30.850  1.00  0.00     0.031 A 
ATOM     37  C   UNL A   1      41.492  28.592  32.034  1.00  0.00     0.074 A 
ATOM     38  C   UNL A   1      39.583  29.562  30.792  1.00  0.00     0.049 A 
ATOM     39  N   UNL A   1      41.481  29.328  33.116  1.00  0.00    -0.248 NA
ATOM     40  C   UNL A   1      42.571  27.591  32.006  1.00  0.00     0.031 C 
ATOM     41  C   UNL A   1      38.628  29.709  29.689  1.00  0.00     0.029 A 
ATOM     42  N   UNL A   1      39.249  30.576  31.652  1.00  0.00    -0.354 N 
ATOM     43  C   UNL A   1      42.528  28.867  33.905  1.00  0.00     0.074 A 
ATOM     44  C   UNL A   1      43.143  27.770  33.189  1.00  0.00     0.031 C 
ATOM     45  C   UNL A   1      37.870  30.793  29.903  1.00  0.00     0.029 A 
ATOM     46  C   UNL A   1      38.231  31.376  31.190  1.00  0.00     0.049 A 
ATOM     47  H   UNL A   1      39.697  30.719  32.518  1.00  0.00     0.167 HD
ATOM     48  C   UNL A   1      42.946  29.324  35.109  1.00  0.00     0.037 A 
ATOM     49  C   UNL A   1      37.641  32.452  31.744  1.00  0.00     0.037 A 
ATOM     50  C   UNL A   1      42.351  30.440  35.799  1.00  0.00     0.049 A 
ATOM     51  C   UNL A   1      38.106  32.923  33.090  1.00  0.00     0.074 A 
ATOM     52  C   UNL A   1      42.710  30.989  37.017  1.00  0.00     0.029 A 
ATOM     53  N   UNL A   1      41.279  31.183  35.326  1.00  0.00    -0.354 N 
ATOM     54  N   UNL A   1      39.085  32.458  33.829  1.00  0.00    -0.248 NA
ATOM     55  C   UNL A   1      37.378  34.049  33.689  1.00  0.00     0.031 C 
ATOM     56  C   UNL A   1      41.834  32.043  37.297  1.00  0.00     0.029 A 
ATOM     57  C   UNL A   1      40.954  32.176  36.236  1.00  0.00     0.049 A 
ATOM     58  H   UNL A   1      40.817  31.028  34.470  1.00  0.00     0.167 HD
ATOM     59  C   UNL A   1      39.090  33.233  34.981  1.00  0.00     0.074 A 
ATOM     60  C   UNL A   1      38.033  34.214  34.830  1.00  0.00     0.031 C 
ATOM     61  C   UNL A   1      39.891  33.136  36.070  1.00  0.00     0.037 A 
BRANCH  48  62
ATOM     62  C   UNL A   1      44.096  28.617  35.770  1.00  0.00     0.058 A 
ATOM     63  C   UNL A   1      43.896  27.540  36.647  1.00  0.00     0.135 A 
ATOM     64  C   UNL A   1      45.420  28.988  35.480  1.00  0.00     0.135 A 
ATOM     65  F   UNL A   1      42.651  27.157  36.973  1.00  0.00    -0.206 F 
ATOM     66  C   UNL A   1      44.966  26.864  37.225  1.00  0.00     0.059 A 
ATOM     67  C   UNL A   1      46.506  28.312  36.031  1.00  0.00     0.059 A 
ATOM     68  F   UNL A   1      45.668  30.013  34.650  1.00  0.00    -0.206 F 
ATOM     69  C   UNL A   1      46.268  27.257  36.909  1.00  0.00     0.060 A 
BRANCH  69  70
ATOM     70  S   UNL A   1      47.645  26.360  37.660  1.00  0.00     0.124 S 
ATOM     71  O   UNL A   1      46.939  25.394  38.498  1.00  0.00    -0.237 OA
ATOM     72  O   UNL A   1      48.327  25.806  36.496  1.00  0.00    -0.237 OA
ATOM     73  O   UNL A   1      48.377  27.398  38.379  1.00  0.00    -0.744 OA
ENDBRANCH  69  70
ENDBRANCH  48  62
BRANCH  49  74
ATOM     74  C   UNL A   1      36.541  33.141  31.020  1.00  0.00     0.058 A 
ATOM     75  C   UNL A   1      35.211  33.022  31.442  1.00  0.00     0.135 A 
ATOM     76  C   UNL A   1      36.809  33.975  29.922  1.00  0.00     0.135 A 
ATOM     77  F   UNL A   1      34.907  32.231  32.484  1.00  0.00    -0.206 F 
ATOM     78  C   UNL A   1      34.181  33.705  30.805  1.00  0.00     0.059 A 
ATOM     79  C   UNL A   1      35.799  34.688  29.284  1.00  0.00     0.059 A 
ATOM     80  F   UNL A   1      38.069  34.133  29.488  1.00  0.00    -0.206 F 
ATOM     81  C   UNL A   1      34.487  34.543  29.731  1.00  0.00     0.060 A 
BRANCH  81  82
ATOM     82  S   UNL A   1      33.155  35.487  28.959  1.00  0.00     0.124 S 
ATOM     83  O   UNL A   1      32.389  35.918  30.122  1.00  0.00    -0.237 OA
ATOM     84  O   UNL A   1      33.889  36.533  28.253  1.00  0.00    -0.237 OA
ATOM     85  O   UNL A   1      32.502  34.503  28.099  1.00  0.00    -0.744 OA
ENDBRANCH  81  82
ENDBRANCH  49  74
BRANCH  61  86
ATOM     86  C   UNL A   1      39.656  34.112  37.184  1.00  0.00     0.058 A 
ATOM     87  C   UNL A   1      38.901  33.760  38.313  1.00  0.00     0.135 A 
ATOM     88  C   UNL A   1      40.240  35.388  37.153  1.00  0.00     0.135 A 
ATOM     89  F   UNL A   1      38.316  32.554  38.385  1.00  0.00    -0.206 F 
ATOM     90  C   UNL A   1      38.723  34.645  39.371  1.00  0.00     0.059 A 
ATOM     91  C   UNL A   1      40.094  36.282  38.209  1.00  0.00     0.059 A 
ATOM     92  F   UNL A   1      40.977  35.769  36.097  1.00  0.00    -0.206 F 
ATOM     93  C   UNL A   1      39.326  35.903  39.310  1.00  0.00     0.060 A 
BRANCH  93  94
ATOM     94  S   UNL A   1      39.124  37.025  40.709  1.00  0.00     0.124 S 
ATOM     95  O   UNL A   1      38.315  38.087  40.119  1.00  0.00    -0.237 OA
ATOM     96  O   UNL A   1      38.446  36.182  41.690  1.00  0.00    -0.237 OA
ATOM     97  O   UNL A   1      40.495  37.395  41.050  1.00  0.00    -0.744 OA
ENDBRANCH  93  94
ENDBRANCH  61  86
ENDBRANCH  35  36
ENDBRANCH  27  30
ENDBRANCH  25  26
ENDBRANCH   1  25
TORSDOF 16
ENDMDL
MODEL 2
REMARK VINA RESULT:     -12.4      2.816      8.757
REMARK SMILES CCCc1cc2c(cc1Cl)C=C(C(=O)NCCCNC(=O)c1ccc(-c3c4nc(c(-c5c(F)cc(S(=O)(=O)[O-])cc5F)c5ccc([nH]5)c(-c5c(F)cc(S(=O)(=O)[O-])cc5F)c5nc(c(-c6c(F)cc(S(=O)(=O)[O-])cc6F)c6ccc3[nH]6)C=C5)C=C4)cc1)[C@@H](C(F)(F)F)O2
REMARK SMILES IDX 17 1 16 2 15 3 13 4 14 5 12 7 4 8 5 9 9 10 6 11 8 12 10 13
REMARK SMILES IDX 7 14 93 15 11 16 88 17 3 18 2 19 1 20 89 21 90 22 91 23
REMARK SMILES IDX 92 24 18 25 19 26 20 27 21 29 22 30 23 31 87 32 24 33 86 34
REMARK SMILES IDX 25 35 26 36 27 37 80 38 28 39 85 40 79 41 81 42 29 43 84 44
REMARK SMILES IDX 78 45 77 46 30 48 64 49 43 50 63 51 44 52 47 53 62 54 82 55
REMARK SMILES IDX 45 56 46 57 61 59 83 60 48 61 31 62 32 63 41 64 33 65 34 66
REMARK SMILES IDX 40 67 42 68 35 69 36 70 37 71 38 72 39 73 65 74 66 75 75 76
REMARK SMILES IDX 67 77 68 78 74 79 76 80 69 81 70 82 71 83 72 84 73 85 49 86
REMARK SMILES IDX 50 87 59 88 51 89 52 90 58 91 60 92 53 93 54 94 55 95 56 96
REMARK SMILES IDX 57 97
REMARK H PARENT 15 6 19 28 81 47 47 58
REMARK Flexibility Score: inf
ROOT
ATOM      1  C   UNL A   1      31.728  32.030  26.729  1.00  0.00     0.042 C 
ENDROOT
BRANCH   1   2
ATOM      2  C   UNL A   1      31.973  30.552  26.465  1.00  0.00     0.118 C 
BRANCH   2   3
ATOM      3  N   UNL A   1      31.589  30.164  25.116  1.00  0.00    -0.352 N 
ATOM      4  C   UNL A   1      31.400  29.013  24.430  1.00  0.00     0.251 C 
ATOM      5  O   UNL A   1      31.049  29.153  23.254  1.00  0.00    -0.270 OA
ATOM      6  H   UNL A   1      31.419  30.952  24.550  1.00  0.00     0.163 HD
BRANCH   4   7
ATOM      7  C   UNL A   1      31.574  27.642  24.989  1.00  0.00     0.067 C 
ATOM      8  C   UNL A   1      33.400  23.224  26.594  1.00  0.00    -0.026 A 
ATOM      9  C   UNL A   1      32.171  23.890  26.719  1.00  0.00     0.052 A 
ATOM     10  C   UNL A   1      34.485  23.953  26.068  1.00  0.00     0.045 A 
ATOM     11  C   UNL A   1      32.008  25.182  26.229  1.00  0.00     0.128 A 
ATOM     12  C   UNL A   1      34.324  25.271  25.614  1.00  0.00     0.032 A 
ATOM     13  Cl  UNL A   1      36.073  23.274  25.955  1.00  0.00    -0.084 Cl
ATOM     14  C   UNL A   1      33.073  25.882  25.671  1.00  0.00     0.019 A 
ATOM     15  O   UNL A   1      30.757  25.723  26.331  1.00  0.00    -0.475 OA
ATOM     16  C   UNL A   1      32.846  27.235  25.175  1.00  0.00     0.025 C 
ATOM     17  C   UNL A   1      30.440  26.709  25.309  1.00  0.00     0.314 C 
BRANCH   8  18
ATOM     18  C   UNL A   1      33.548  21.787  27.054  1.00  0.00     0.037 C 
BRANCH  18  19
ATOM     19  C   UNL A   1      33.479  20.690  25.977  1.00  0.00     0.001 C 
ATOM     20  C   UNL A   1      32.431  20.957  24.903  1.00  0.00     0.004 C 
ENDBRANCH  18  19
ENDBRANCH   8  18
BRANCH  17  21
ATOM     21  C   UNL A   1      29.886  26.000  24.055  1.00  0.00     0.429 C 
ATOM     22  F   UNL A   1      30.679  26.242  22.981  1.00  0.00    -0.167 F 
ATOM     23  F   UNL A   1      29.836  24.653  24.200  1.00  0.00    -0.167 F 
ATOM     24  F   UNL A   1      28.636  26.399  23.732  1.00  0.00    -0.167 F 
ENDBRANCH  17  21
ENDBRANCH   4   7
ENDBRANCH   2   3
ENDBRANCH   1   2
BRANCH   1  25
ATOM     25  C   UNL A   1      32.865  32.678  27.509  1.00  0.00     0.118 C 
BRANCH  25  26
ATOM     26  N   UNL A   1      32.615  34.093  27.777  1.00  0.00    -0.352 N 
ATOM     27  C   UNL A   1      33.135  34.924  28.741  1.00  0.00     0.251 C 
ATOM     28  H   UNL A   1      31.970  34.520  27.168  1.00  0.00     0.163 HD
ATOM     29  O   UNL A   1      32.622  36.023  28.935  1.00  0.00    -0.269 OA
BRANCH  27  30
ATOM     30  C   UNL A   1      34.292  34.487  29.548  1.00  0.00     0.039 A 
ATOM     31  C   UNL A   1      35.587  34.625  29.050  1.00  0.00     0.014 A 
ATOM     32  C   UNL A   1      34.084  33.930  30.813  1.00  0.00     0.014 A 
ATOM     33  C   UNL A   1      36.647  34.030  29.718  1.00  0.00     0.010 A 
ATOM     34  C   UNL A   1      35.170  33.428  31.537  1.00  0.00     0.010 A 
ATOM     35  C   UNL A   1      36.454  33.426  30.971  1.00  0.00    -0.014 A 
BRANCH  35  36
ATOM     36  C   UNL A   1      37.617  32.797  31.651  1.00  0.00     0.031 A 
ATOM     37  C   UNL A   1      38.066  33.274  33.008  1.00  0.00     0.074 A 
ATOM     38  C   UNL A   1      38.215  31.737  31.073  1.00  0.00     0.049 A 
ATOM     39  N   UNL A   1      39.039  32.822  33.757  1.00  0.00    -0.248 NA
ATOM     40  C   UNL A   1      37.333  34.405  33.601  1.00  0.00     0.031 C 
ATOM     41  C   UNL A   1      37.857  31.178  29.766  1.00  0.00     0.029 A 
ATOM     42  N   UNL A   1      39.215  30.913  31.520  1.00  0.00    -0.354 N 
ATOM     43  C   UNL A   1      39.054  33.623  34.893  1.00  0.00     0.074 A 
ATOM     44  C   UNL A   1      38.005  34.607  34.727  1.00  0.00     0.031 C 
ATOM     45  C   UNL A   1      38.571  30.064  29.551  1.00  0.00     0.029 A 
ATOM     46  C   UNL A   1      39.489  29.869  30.668  1.00  0.00     0.049 A 
ATOM     47  H   UNL A   1      39.692  31.054  32.370  1.00  0.00     0.167 HD
ATOM     48  C   UNL A   1      39.859  33.538  35.978  1.00  0.00     0.037 A 
ATOM     49  C   UNL A   1      40.389  28.871  30.764  1.00  0.00     0.037 A 
ATOM     50  C   UNL A   1      40.876  32.533  36.151  1.00  0.00     0.049 A 
ATOM     51  C   UNL A   1      41.284  28.814  31.965  1.00  0.00     0.074 A 
ATOM     52  C   UNL A   1      41.735  32.354  37.221  1.00  0.00     0.029 A 
ATOM     53  N   UNL A   1      41.165  31.533  35.234  1.00  0.00    -0.354 N 
ATOM     54  N   UNL A   1      41.296  29.595  33.019  1.00  0.00    -0.248 NA
ATOM     55  C   UNL A   1      42.302  27.756  31.986  1.00  0.00     0.031 C 
ATOM     56  C   UNL A   1      42.566  31.265  36.938  1.00  0.00     0.029 A 
ATOM     57  C   UNL A   1      42.199  30.742  35.708  1.00  0.00     0.049 A 
ATOM     58  H   UNL A   1      40.703  31.403  34.375  1.00  0.00     0.167 HD
ATOM     59  C   UNL A   1      42.321  29.125  33.828  1.00  0.00     0.074 A 
ATOM     60  C   UNL A   1      42.892  27.976  33.154  1.00  0.00     0.031 C 
ATOM     61  C   UNL A   1      42.758  29.608  35.016  1.00  0.00     0.037 A 
BRANCH  48  62
ATOM     62  C   UNL A   1      39.683  34.561  37.066  1.00  0.00     0.058 A 
ATOM     63  C   UNL A   1      38.871  34.318  38.184  1.00  0.00     0.135 A 
ATOM     64  C   UNL A   1      40.380  35.780  37.015  1.00  0.00     0.135 A 
ATOM     65  F   UNL A   1      38.168  33.178  38.273  1.00  0.00    -0.206 F 
ATOM     66  C   UNL A   1      38.743  35.253  39.206  1.00  0.00     0.059 A 
ATOM     67  C   UNL A   1      40.284  36.721  38.037  1.00  0.00     0.059 A 
ATOM     68  F   UNL A   1      41.169  36.065  35.966  1.00  0.00    -0.206 F 
ATOM     69  C   UNL A   1      39.455  36.452  39.124  1.00  0.00     0.060 A 
BRANCH  69  70
ATOM     70  S   UNL A   1      39.286  37.648  40.467  1.00  0.00     0.124 S 
ATOM     71  O   UNL A   1      38.904  36.782  41.580  1.00  0.00    -0.237 OA
ATOM     72  O   UNL A   1      40.625  38.222  40.543  1.00  0.00    -0.237 OA
ATOM     73  O   UNL A   1      38.244  38.552  39.990  1.00  0.00    -0.744 OA
ENDBRANCH  69  70
ENDBRANCH  48  62
BRANCH  49  74
ATOM     74  C   UNL A   1      40.480  27.859  29.680  1.00  0.00     0.058 A 
ATOM     75  C   UNL A   1      39.553  26.812  29.588  1.00  0.00     0.135 A 
ATOM     76  C   UNL A   1      41.467  27.950  28.685  1.00  0.00     0.135 A 
ATOM     77  F   UNL A   1      38.596  26.681  30.520  1.00  0.00    -0.206 F 
ATOM     78  C   UNL A   1      39.597  25.890  28.548  1.00  0.00     0.059 A 
ATOM     79  C   UNL A   1      41.516  27.056  27.621  1.00  0.00     0.059 A 
ATOM     80  F   UNL A   1      42.369  28.943  28.721  1.00  0.00    -0.206 F 
ATOM     81  C   UNL A   1      40.578  26.026  27.564  1.00  0.00     0.060 A 
BRANCH  81  82
ATOM     82  S   UNL A   1      40.580  24.872  26.174  1.00  0.00     0.124 S 
ATOM     83  O   UNL A   1      39.159  24.584  26.031  1.00  0.00    -0.237 OA
ATOM     84  O   UNL A   1      41.181  25.673  25.112  1.00  0.00    -0.237 OA
ATOM     85  O   UNL A   1      41.405  23.768  26.657  1.00  0.00    -0.744 OA
ENDBRANCH  81  82
ENDBRANCH  49  74
BRANCH  61  86
ATOM     86  C   UNL A   1      43.909  28.896  35.664  1.00  0.00     0.058 A 
ATOM     87  C   UNL A   1      45.233  29.303  35.444  1.00  0.00     0.135 A 
ATOM     88  C   UNL A   1      43.684  27.839  36.561  1.00  0.00     0.135 A 
ATOM     89  F   UNL A   1      45.499  30.303  34.589  1.00  0.00    -0.206 F 
ATOM     90  C   UNL A   1      46.299  28.678  36.081  1.00  0.00     0.059 A 
ATOM     91  C   UNL A   1      44.732  27.214  37.226  1.00  0.00     0.059 A 
ATOM     92  F   UNL A   1      42.433  27.419  36.810  1.00  0.00    -0.206 F 
ATOM     93  C   UNL A   1      46.038  27.636  36.974  1.00  0.00     0.060 A 
BRANCH  93  94
ATOM     94  S   UNL A   1      47.427  26.864  37.828  1.00  0.00     0.124 S 
ATOM     95  O   UNL A   1      48.352  27.985  37.959  1.00  0.00    -0.237 OA
ATOM     96  O   UNL A   1      46.813  26.400  39.069  1.00  0.00    -0.237 OA
ATOM     97  O   UNL A   1      47.847  25.808  36.911  1.00  0.00    -0.744 OA
ENDBRANCH  93  94
ENDBRANCH  61  86
ENDBRANCH  35  36
ENDBRANCH  27  30
ENDBRANCH  25  26
ENDBRANCH   1  25
TORSDOF 16
ENDMDL
MODEL 3
REMARK VINA RESULT:     -12.4      2.820      8.681
REMARK SMILES CCCc1cc2c(cc1Cl)C=C(C(=O)NCCCNC(=O)c1ccc(-c3c4nc(c(-c5c(F)cc(S(=O)(=O)[O-])cc5F)c5ccc([nH]5)c(-c5c(F)cc(S(=O)(=O)[O-])cc5F)c5nc(c(-c6c(F)cc(S(=O)(=O)[O-])cc6F)c6ccc3[nH]6)C=C5)C=C4)cc1)[C@@H](C(F)(F)F)O2
REMARK SMILES IDX 17 1 16 2 15 3 13 4 14 5 12 7 4 8 5 9 9 10 6 11 8 12 10 13
REMARK SMILES IDX 7 14 93 15 11 16 88 17 3 18 2 19 1 20 89 21 90 22 91 23
REMARK SMILES IDX 92 24 18 25 19 26 20 27 21 29 22 30 23 31 87 32 24 33 86 34
REMARK SMILES IDX 25 35 26 36 27 37 80 38 28 39 85 40 79 41 81 42 29 43 84 44
REMARK SMILES IDX 78 45 77 46 30 48 64 49 43 50 63 51 44 52 47 53 62 54 82 55
REMARK SMILES IDX 45 56 46 57 61 59 83 60 48 61 31 62 32 63 41 64 33 65 34 66
REMARK SMILES IDX 40 67 42 68 35 69 36 70 37 71 38 72 39 73 65 74 66 75 75 76
REMARK SMILES IDX 67 77 68 78 74 79 76 80 69 81 70 82 71 83 72 84 73 85 49 86
REMARK SMILES IDX 50 87 59 88 51 89 52 90 58 91 60 92 53 93 54 94 55 95 56 96
REMARK SMILES IDX 57 97
REMARK H PARENT 15 6 19 28 81 47 47 58
REMARK Flexibility Score: inf
ROOT
ATOM      1  C   UNL A   1      31.596  32.124  26.859  1.00  0.00     0.042 C 
ENDROOT
BRANCH   1   2
ATOM      2  C   UNL A   1      31.818  30.648  26.566  1.00  0.00     0.118 C 
BRANCH   2   3
ATOM      3  N   UNL A   1      31.404  30.287  25.219  1.00  0.00    -0.352 N 
ATOM      4  C   UNL A   1      31.247  29.152  24.499  1.00  0.00     0.251 C 
ATOM      5  O   UNL A   1      30.847  29.314  23.341  1.00  0.00    -0.270 OA
ATOM      6  H   UNL A   1      31.176  31.084  24.687  1.00  0.00     0.163 HD
BRANCH   4   7
ATOM      7  C   UNL A   1      31.508  27.773  25.002  1.00  0.00     0.067 C 
ATOM      8  C   UNL A   1      33.605  23.399  26.380  1.00  0.00    -0.026 A 
ATOM      9  C   UNL A   1      32.352  23.999  26.575  1.00  0.00     0.052 A 
ATOM     10  C   UNL A   1      34.632  24.197  25.838  1.00  0.00     0.045 A 
ATOM     11  C   UNL A   1      32.108  25.298  26.137  1.00  0.00     0.128 A 
ATOM     12  C   UNL A   1      34.391  25.520  25.437  1.00  0.00     0.032 A 
ATOM     13  Cl  UNL A   1      36.245  23.600  25.640  1.00  0.00    -0.084 Cl
ATOM     14  C   UNL A   1      33.116  26.067  25.563  1.00  0.00     0.019 A 
ATOM     15  O   UNL A   1      30.838  25.773  26.307  1.00  0.00    -0.475 OA
ATOM     16  C   UNL A   1      32.805  27.423  25.125  1.00  0.00     0.025 C 
ATOM     17  C   UNL A   1      30.434  26.776  25.333  1.00  0.00     0.314 C 
BRANCH   8  18
ATOM     18  C   UNL A   1      33.839  21.956  26.783  1.00  0.00     0.037 C 
BRANCH  18  19
ATOM     19  C   UNL A   1      34.041  20.931  25.654  1.00  0.00     0.001 C 
ATOM     20  C   UNL A   1      33.156  21.182  24.439  1.00  0.00     0.004 C 
ENDBRANCH  18  19
ENDBRANCH   8  18
BRANCH  17  21
ATOM     21  C   UNL A   1      29.864  26.082  24.077  1.00  0.00     0.429 C 
ATOM     22  F   UNL A   1      28.579  26.461  23.864  1.00  0.00    -0.167 F 
ATOM     23  F   UNL A   1      30.550  26.400  22.952  1.00  0.00    -0.167 F 
ATOM     24  F   UNL A   1      29.877  24.733  24.167  1.00  0.00    -0.167 F 
ENDBRANCH  17  21
ENDBRANCH   4   7
ENDBRANCH   2   3
ENDBRANCH   1   2
BRANCH   1  25
ATOM     25  C   UNL A   1      32.840  32.798  27.426  1.00  0.00     0.118 C 
BRANCH  25  26
ATOM     26  N   UNL A   1      32.617  34.214  27.716  1.00  0.00    -0.352 N 
ATOM     27  C   UNL A   1      33.102  35.003  28.732  1.00  0.00     0.251 C 
ATOM     28  H   UNL A   1      32.023  34.676  27.081  1.00  0.00     0.163 HD
ATOM     29  O   UNL A   1      32.613  36.112  28.924  1.00  0.00    -0.269 OA
BRANCH  27  30
ATOM     30  C   UNL A   1      34.194  34.509  29.595  1.00  0.00     0.039 A 
ATOM     31  C   UNL A   1      35.517  34.575  29.160  1.00  0.00     0.014 A 
ATOM     32  C   UNL A   1      33.895  33.970  30.850  1.00  0.00     0.014 A 
ATOM     33  C   UNL A   1      36.510  33.928  29.880  1.00  0.00     0.010 A 
ATOM     34  C   UNL A   1      34.917  33.414  31.626  1.00  0.00     0.010 A 
ATOM     35  C   UNL A   1      36.226  33.341  31.124  1.00  0.00    -0.014 A 
BRANCH  35  36
ATOM     36  C   UNL A   1      37.319  32.655  31.861  1.00  0.00     0.031 A 
ATOM     37  C   UNL A   1      38.078  31.517  31.230  1.00  0.00     0.074 A 
ATOM     38  C   UNL A   1      37.680  33.122  33.073  1.00  0.00     0.049 A 
ATOM     39  N   UNL A   1      39.077  30.826  31.717  1.00  0.00    -0.248 NA
ATOM     40  C   UNL A   1      37.662  31.095  29.883  1.00  0.00     0.031 C 
ATOM     41  C   UNL A   1      37.025  34.227  33.778  1.00  0.00     0.029 A 
ATOM     42  N   UNL A   1      38.704  32.760  33.909  1.00  0.00    -0.354 N 
ATOM     43  C   UNL A   1      39.393  29.877  30.752  1.00  0.00     0.074 A 
ATOM     44  C   UNL A   1      38.464  30.062  29.658  1.00  0.00     0.031 C 
ATOM     45  C   UNL A   1      37.707  34.502  34.899  1.00  0.00     0.029 A 
ATOM     46  C   UNL A   1      38.801  33.546  35.032  1.00  0.00     0.049 A 
ATOM     47  H   UNL A   1      39.313  32.008  33.722  1.00  0.00     0.167 HD
ATOM     48  C   UNL A   1      40.374  28.944  30.773  1.00  0.00     0.037 A 
ATOM     49  C   UNL A   1      39.665  33.499  36.064  1.00  0.00     0.037 A 
ATOM     50  C   UNL A   1      41.318  28.789  31.850  1.00  0.00     0.049 A 
ATOM     51  C   UNL A   1      40.728  32.441  36.073  1.00  0.00     0.074 A 
ATOM     52  C   UNL A   1      42.358  27.884  31.959  1.00  0.00     0.029 A 
ATOM     53  N   UNL A   1      41.341  29.566  33.000  1.00  0.00    -0.354 N 
ATOM     54  N   UNL A   1      40.996  31.538  35.161  1.00  0.00    -0.248 NA
ATOM     55  C   UNL A   1      41.594  32.379  37.258  1.00  0.00     0.031 C 
ATOM     56  C   UNL A   1      42.991  28.089  33.189  1.00  0.00     0.029 A 
ATOM     57  C   UNL A   1      42.369  29.149  33.830  1.00  0.00     0.049 A 
ATOM     58  H   UNL A   1      40.720  30.304  33.196  1.00  0.00     0.167 HD
ATOM     59  C   UNL A   1      42.059  30.799  35.660  1.00  0.00     0.074 A 
ATOM     60  C   UNL A   1      42.403  31.376  36.944  1.00  0.00     0.031 C 
ATOM     61  C   UNL A   1      42.688  29.732  35.109  1.00  0.00     0.037 A 
BRANCH  48  62
ATOM     62  C   UNL A   1      40.479  28.008  29.601  1.00  0.00     0.058 A 
ATOM     63  C   UNL A   1      41.424  28.205  28.582  1.00  0.00     0.135 A 
ATOM     64  C   UNL A   1      39.660  26.869  29.524  1.00  0.00     0.135 A 
ATOM     65  F   UNL A   1      42.218  29.286  28.596  1.00  0.00    -0.206 F 
ATOM     66  C   UNL A   1      41.543  27.314  27.520  1.00  0.00     0.059 A 
ATOM     67  C   UNL A   1      39.777  25.954  28.482  1.00  0.00     0.059 A 
ATOM     68  F   UNL A   1      38.738  26.635  30.471  1.00  0.00    -0.206 F 
ATOM     69  C   UNL A   1      40.716  26.190  27.479  1.00  0.00     0.060 A 
BRANCH  69  70
ATOM     70  S   UNL A   1      40.894  25.038  26.099  1.00  0.00     0.124 S 
ATOM     71  O   UNL A   1      39.518  24.578  25.926  1.00  0.00    -0.237 OA
ATOM     72  O   UNL A   1      41.411  25.898  25.040  1.00  0.00    -0.237 OA
ATOM     73  O   UNL A   1      41.829  24.039  26.606  1.00  0.00    -0.744 OA
ENDBRANCH  69  70
ENDBRANCH  48  62
BRANCH  49  74
ATOM     74  C   UNL A   1      39.543  34.485  37.170  1.00  0.00     0.058 A 
ATOM     75  C   UNL A   1      38.882  34.156  38.361  1.00  0.00     0.135 A 
ATOM     76  C   UNL A   1      40.131  35.756  37.075  1.00  0.00     0.135 A 
ATOM     77  F   UNL A   1      38.299  32.955  38.494  1.00  0.00    -0.206 F 
ATOM     78  C   UNL A   1      38.808  35.051  39.423  1.00  0.00     0.059 A 
ATOM     79  C   UNL A   1      40.093  36.658  38.132  1.00  0.00     0.059 A 
ATOM     80  F   UNL A   1      40.788  36.112  35.960  1.00  0.00    -0.206 F 
ATOM     81  C   UNL A   1      39.425  36.298  39.301  1.00  0.00     0.060 A 
BRANCH  81  82
ATOM     82  S   UNL A   1      39.392  37.424  40.713  1.00  0.00     0.124 S 
ATOM     83  O   UNL A   1      38.874  36.559  41.765  1.00  0.00    -0.237 OA
ATOM     84  O   UNL A   1      40.796  37.806  40.833  1.00  0.00    -0.237 OA
ATOM     85  O   UNL A   1      38.497  38.490  40.270  1.00  0.00    -0.744 OA
ENDBRANCH  81  82
ENDBRANCH  49  74
BRANCH  61  86
ATOM     86  C   UNL A   1      43.811  29.118  35.893  1.00  0.00     0.058 A 
ATOM     87  C   UNL A   1      45.109  29.647  35.839  1.00  0.00     0.135 A 
ATOM     88  C   UNL A   1      43.576  28.032  36.750  1.00  0.00     0.135 A 
ATOM     89  F   UNL A   1      45.385  30.681  35.027  1.00  0.00    -0.206 F 
ATOM     90  C   UNL A   1      46.142  29.113  36.602  1.00  0.00     0.059 A 
ATOM     91  C   UNL A   1      44.588  27.495  37.538  1.00  0.00     0.059 A 
ATOM     92  F   UNL A   1      42.348  27.495  36.840  1.00  0.00    -0.206 F 
ATOM     93  C   UNL A   1      45.869  28.038  37.451  1.00  0.00     0.060 A 
BRANCH  93  94
ATOM     94  S   UNL A   1      47.209  27.383  38.468  1.00  0.00     0.124 S 
ATOM     95  O   UNL A   1      46.730  26.033  38.749  1.00  0.00    -0.237 OA
ATOM     96  O   UNL A   1      48.357  27.476  37.572  1.00  0.00    -0.237 OA
ATOM     97  O   UNL A   1      47.240  28.288  39.614  1.00  0.00    -0.744 OA
ENDBRANCH  93  94
ENDBRANCH  61  86
ENDBRANCH  35  36
ENDBRANCH  27  30
ENDBRANCH  25  26
ENDBRANCH   1  25
TORSDOF 16
ENDMDL
