MODEL 1
REMARK VINA RESULT:     -13.2      0.000      0.000
REMARK SMILES CCc1ccccc1NC(=O)c1cc(S(=O)(=O)N2CCC[C@H](C(=O)NCCCNC(=O)c3ccc(-c4c5nc(c(-c6c(F)cc(S(=O)(=O)[O-])cc6F)c6ccc([nH]6)c(-c6c(F)cc(S(=O)(=O)[O-])cc6F)c6nc(c(-c7c(F)cc(S(=O)(=O)[O-])cc7F)c7ccc4[nH]7)C=C6)C=C5)cc3)C2)ccc1F
REMARK SMILES IDX 26 1 25 2 23 3 24 4 22 6 18 7 19 8 98 9 20 10 21 11 15 12
REMARK SMILES IDX 16 13 17 14 14 15 12 16 13 17 101 18 100 19 102 20 99 21
REMARK SMILES IDX 10 22 9 23 11 25 8 26 3 27 4 28 5 29 7 30 6 31 2 32 1 33
REMARK SMILES IDX 27 34 28 35 29 36 30 37 31 39 32 40 33 41 97 42 34 43 96 44
REMARK SMILES IDX 35 45 36 46 37 47 90 48 38 49 95 50 89 51 91 52 39 53 94 54
REMARK SMILES IDX 88 55 87 56 40 58 74 59 53 60 73 61 54 62 57 63 72 64 92 65
REMARK SMILES IDX 55 66 56 67 71 69 93 70 58 71 41 72 42 73 51 74 43 75 44 76
REMARK SMILES IDX 50 77 52 78 45 79 46 80 47 81 48 82 49 83 75 84 76 85 85 86
REMARK SMILES IDX 77 87 78 88 84 89 86 90 79 91 80 92 81 93 82 94 83 95 59 96
REMARK SMILES IDX 60 97 69 98 61 99 62 100 68 101 70 102 63 103 64 104 65 105
REMARK SMILES IDX 66 106 67 107
REMARK H PARENT 25 5 9 24 29 38 91 57 57 68
REMARK Flexibility Score: inf
ROOT
ATOM      1  C   UNL A   1      39.637  21.842  26.099  1.00  0.00     0.117 C 
ENDROOT
BRANCH   1   2
ATOM      2  N   UNL A   1      38.520  22.732  26.347  1.00  0.00    -0.356 N 
ATOM      3  C   UNL A   1      37.315  22.883  25.749  1.00  0.00     0.224 C 
ATOM      4  O   UNL A   1      36.580  23.759  26.221  1.00  0.00    -0.275 OA
ATOM      5  H   UNL A   1      38.666  23.349  27.100  1.00  0.00     0.163 HD
BRANCH   3   6
ATOM      6  C   UNL A   1      36.824  22.080  24.545  1.00  0.00     0.093 C 
ATOM      7  N   UNL A   1      34.405  22.363  23.854  1.00  0.00    -0.197 NA
ATOM      8  C   UNL A   1      34.060  20.991  24.278  1.00  0.00     0.102 C 
ATOM      9  C   UNL A   1      35.816  22.775  23.652  1.00  0.00     0.116 C 
ATOM     10  C   UNL A   1      35.075  20.359  25.211  1.00  0.00     0.018 C 
ATOM     11  C   UNL A   1      36.515  20.615  24.825  1.00  0.00     0.016 C 
BRANCH   7  12
ATOM     12  S   UNL A   1      33.251  23.185  22.911  1.00  0.00     0.243 S 
ATOM     13  O   UNL A   1      32.540  22.213  22.121  1.00  0.00    -0.207 OA
ATOM     14  O   UNL A   1      33.913  24.327  22.307  1.00  0.00    -0.207 OA
BRANCH  12  15
ATOM     15  C   UNL A   1      32.066  23.858  24.060  1.00  0.00     0.083 A 
ATOM     16  C   UNL A   1      30.280  25.423  24.425  1.00  0.00     0.077 A 
ATOM     17  C   UNL A   1      31.174  24.804  23.551  1.00  0.00     0.038 A 
ATOM     18  C   UNL A   1      30.197  25.030  25.761  1.00  0.00     0.136 A 
ATOM     19  C   UNL A   1      31.092  24.096  26.268  1.00  0.00     0.041 A 
ATOM     20  F   UNL A   1      29.305  25.583  26.595  1.00  0.00    -0.206 F 
ATOM     21  C   UNL A   1      32.046  23.530  25.422  1.00  0.00     0.025 A 
BRANCH  16  22
ATOM     22  C   UNL A   1      29.516  26.577  23.940  1.00  0.00     0.258 C 
ATOM     23  N   UNL A   1      30.144  27.779  23.699  1.00  0.00    -0.322 N 
ATOM     24  H   UNL A   1      29.534  28.529  23.510  1.00  0.00     0.170 HD
ATOM     25  O   UNL A   1      28.301  26.453  23.791  1.00  0.00    -0.269 OA
BRANCH  23  26
ATOM     26  C   UNL A   1      31.519  28.120  23.676  1.00  0.00     0.044 A 
ATOM     27  C   UNL A   1      32.173  28.399  24.897  1.00  0.00    -0.025 A 
ATOM     28  C   UNL A   1      33.568  28.597  24.879  1.00  0.00     0.006 A 
ATOM     29  C   UNL A   1      34.291  28.566  23.686  1.00  0.00     0.000 A 
ATOM     30  C   UNL A   1      32.249  28.186  22.480  1.00  0.00     0.026 A 
ATOM     31  C   UNL A   1      33.629  28.386  22.484  1.00  0.00     0.002 A 
BRANCH  27  32
ATOM     32  C   UNL A   1      31.383  28.461  26.191  1.00  0.00     0.034 C 
ATOM     33  C   UNL A   1      32.170  28.562  27.492  1.00  0.00     0.009 C 
ENDBRANCH  27  32
ENDBRANCH  23  26
ENDBRANCH  16  22
ENDBRANCH  12  15
ENDBRANCH   7  12
ENDBRANCH   3   6
ENDBRANCH   1   2
BRANCH   1  34
ATOM     34  C   UNL A   1      40.548  21.731  27.310  1.00  0.00     0.042 C 
BRANCH  34  35
ATOM     35  C   UNL A   1      41.321  23.007  27.579  1.00  0.00     0.118 C 
BRANCH  35  36
ATOM     36  N   UNL A   1      41.526  23.794  26.372  1.00  0.00    -0.352 N 
ATOM     37  C   UNL A   1      41.458  25.153  26.183  1.00  0.00     0.251 C 
ATOM     38  H   UNL A   1      41.746  23.273  25.567  1.00  0.00     0.163 HD
ATOM     39  O   UNL A   1      41.490  25.607  25.042  1.00  0.00    -0.269 OA
BRANCH  37  40
ATOM     40  C   UNL A   1      41.320  26.061  27.342  1.00  0.00     0.039 A 
ATOM     41  C   UNL A   1      42.251  27.090  27.515  1.00  0.00     0.014 A 
ATOM     42  C   UNL A   1      40.281  25.901  28.260  1.00  0.00     0.014 A 
ATOM     43  C   UNL A   1      42.102  27.988  28.573  1.00  0.00     0.010 A 
ATOM     44  C   UNL A   1      40.064  26.865  29.235  1.00  0.00     0.010 A 
ATOM     45  C   UNL A   1      40.986  27.903  29.422  1.00  0.00    -0.014 A 
BRANCH  45  46
ATOM     46  C   UNL A   1      40.783  28.849  30.546  1.00  0.00     0.031 A 
ATOM     47  C   UNL A   1      41.643  28.731  31.779  1.00  0.00     0.074 A 
ATOM     48  C   UNL A   1      39.792  29.759  30.491  1.00  0.00     0.049 A 
ATOM     49  N   UNL A   1      41.565  29.382  32.909  1.00  0.00    -0.248 NA
ATOM     50  C   UNL A   1      42.707  27.712  31.750  1.00  0.00     0.031 C 
ATOM     51  C   UNL A   1      38.865  29.937  29.371  1.00  0.00     0.029 A 
ATOM     52  N   UNL A   1      39.392  30.702  31.403  1.00  0.00    -0.354 N 
ATOM     53  C   UNL A   1      42.547  28.837  33.728  1.00  0.00     0.074 A 
ATOM     54  C   UNL A   1      43.158  27.754  32.993  1.00  0.00     0.031 C 
ATOM     55  C   UNL A   1      38.031  30.954  29.646  1.00  0.00     0.029 A 
ATOM     56  C   UNL A   1      38.334  31.470  30.977  1.00  0.00     0.049 A 
ATOM     57  H   UNL A   1      39.823  30.820  32.280  1.00  0.00     0.167 HD
ATOM     58  C   UNL A   1      42.931  29.226  34.967  1.00  0.00     0.037 A 
ATOM     59  C   UNL A   1      37.682  32.474  31.593  1.00  0.00     0.037 A 
ATOM     60  C   UNL A   1      42.343  30.332  35.673  1.00  0.00     0.049 A 
ATOM     61  C   UNL A   1      38.124  32.891  32.971  1.00  0.00     0.074 A 
ATOM     62  C   UNL A   1      42.689  30.849  36.908  1.00  0.00     0.029 A 
ATOM     63  N   UNL A   1      41.286  31.097  35.198  1.00  0.00    -0.354 N 
ATOM     64  N   UNL A   1      39.090  32.399  33.710  1.00  0.00    -0.248 NA
ATOM     65  C   UNL A   1      37.392  34.001  33.595  1.00  0.00     0.031 C 
ATOM     66  C   UNL A   1      41.814  31.902  37.198  1.00  0.00     0.029 A 
ATOM     67  C   UNL A   1      40.955  32.072  36.123  1.00  0.00     0.049 A 
ATOM     68  H   UNL A   1      40.837  30.965  34.332  1.00  0.00     0.167 HD
ATOM     69  C   UNL A   1      39.103  33.161  34.873  1.00  0.00     0.074 A 
ATOM     70  C   UNL A   1      38.053  34.149  34.735  1.00  0.00     0.031 C 
ATOM     71  C   UNL A   1      39.912  33.054  35.957  1.00  0.00     0.037 A 
BRANCH  58  72
ATOM     72  C   UNL A   1      44.042  28.451  35.623  1.00  0.00     0.058 A 
ATOM     73  C   UNL A   1      43.781  27.363  36.475  1.00  0.00     0.135 A 
ATOM     74  C   UNL A   1      45.385  28.798  35.405  1.00  0.00     0.135 A 
ATOM     75  F   UNL A   1      42.516  26.996  36.735  1.00  0.00    -0.206 F 
ATOM     76  C   UNL A   1      44.806  26.681  37.122  1.00  0.00     0.059 A 
ATOM     77  C   UNL A   1      46.428  28.108  36.016  1.00  0.00     0.059 A 
ATOM     78  F   UNL A   1      45.695  29.826  34.600  1.00  0.00    -0.206 F 
ATOM     79  C   UNL A   1      46.127  27.065  36.890  1.00  0.00     0.060 A 
BRANCH  79  80
ATOM     80  S   UNL A   1      47.444  26.184  37.754  1.00  0.00     0.124 S 
ATOM     81  O   UNL A   1      47.319  24.845  37.187  1.00  0.00    -0.237 OA
ATOM     82  O   UNL A   1      48.633  26.931  37.356  1.00  0.00    -0.237 OA
ATOM     83  O   UNL A   1      47.071  26.308  39.159  1.00  0.00    -0.744 OA
ENDBRANCH  79  80
ENDBRANCH  58  72
BRANCH  59  84
ATOM     84  C   UNL A   1      36.574  33.182  30.896  1.00  0.00     0.058 A 
ATOM     85  C   UNL A   1      35.242  32.998  31.296  1.00  0.00     0.135 A 
ATOM     86  C   UNL A   1      36.821  34.068  29.836  1.00  0.00     0.135 A 
ATOM     87  F   UNL A   1      34.955  32.157  32.302  1.00  0.00    -0.206 F 
ATOM     88  C   UNL A   1      34.192  33.654  30.663  1.00  0.00     0.059 A 
ATOM     89  C   UNL A   1      35.789  34.756  29.203  1.00  0.00     0.059 A 
ATOM     90  F   UNL A   1      38.079  34.295  29.427  1.00  0.00    -0.206 F 
ATOM     91  C   UNL A   1      34.477  34.533  29.617  1.00  0.00     0.060 A 
BRANCH  91  92
ATOM     92  S   UNL A   1      33.110  35.419  28.834  1.00  0.00     0.124 S 
ATOM     93  O   UNL A   1      32.476  34.357  28.064  1.00  0.00    -0.237 OA
ATOM     94  O   UNL A   1      32.361  35.907  29.988  1.00  0.00    -0.237 OA
ATOM     95  O   UNL A   1      33.784  36.451  28.054  1.00  0.00    -0.744 OA
ENDBRANCH  91  92
ENDBRANCH  59  84
BRANCH  71  96
ATOM     96  C   UNL A   1      39.723  34.057  37.061  1.00  0.00     0.058 A 
ATOM     97  C   UNL A   1      38.940  33.774  38.189  1.00  0.00     0.135 A 
ATOM     98  C   UNL A   1      40.386  35.295  37.012  1.00  0.00     0.135 A 
ATOM     99  F   UNL A   1      38.282  32.607  38.280  1.00  0.00    -0.206 F 
ATOM    100  C   UNL A   1      38.804  34.692  39.225  1.00  0.00     0.059 A 
ATOM    101  C   UNL A   1      40.285  36.216  38.049  1.00  0.00     0.059 A 
ATOM    102  F   UNL A   1      41.154  35.609  35.958  1.00  0.00    -0.206 F 
ATOM    103  C   UNL A   1      39.484  35.910  39.147  1.00  0.00     0.060 A 
BRANCH 103 104
ATOM    104  S   UNL A   1      39.330  37.075  40.517  1.00  0.00     0.124 S 
ATOM    105  O   UNL A   1      38.672  38.204  39.870  1.00  0.00    -0.237 OA
ATOM    106  O   UNL A   1      38.516  36.328  41.471  1.00  0.00    -0.237 OA
ATOM    107  O   UNL A   1      40.713  37.302  40.925  1.00  0.00    -0.744 OA
ENDBRANCH 103 104
ENDBRANCH  71  96
ENDBRANCH  45  46
ENDBRANCH  37  40
ENDBRANCH  35  36
ENDBRANCH  34  35
ENDBRANCH   1  34
TORSDOF 18
ENDMDL
MODEL 2
REMARK VINA RESULT:     -12.9      5.215     12.899
REMARK SMILES CCc1ccccc1NC(=O)c1cc(S(=O)(=O)N2CCC[C@H](C(=O)NCCCNC(=O)c3ccc(-c4c5nc(c(-c6c(F)cc(S(=O)(=O)[O-])cc6F)c6ccc([nH]6)c(-c6c(F)cc(S(=O)(=O)[O-])cc6F)c6nc(c(-c7c(F)cc(S(=O)(=O)[O-])cc7F)c7ccc4[nH]7)C=C6)C=C5)cc3)C2)ccc1F
REMARK SMILES IDX 26 1 25 2 23 3 24 4 22 6 18 7 19 8 98 9 20 10 21 11 15 12
REMARK SMILES IDX 16 13 17 14 14 15 12 16 13 17 101 18 100 19 102 20 99 21
REMARK SMILES IDX 10 22 9 23 11 25 8 26 3 27 4 28 5 29 7 30 6 31 2 32 1 33
REMARK SMILES IDX 27 34 28 35 29 36 30 37 31 39 32 40 33 41 97 42 34 43 96 44
REMARK SMILES IDX 35 45 36 46 37 47 90 48 38 49 95 50 89 51 91 52 39 53 94 54
REMARK SMILES IDX 88 55 87 56 40 58 74 59 53 60 73 61 54 62 57 63 72 64 92 65
REMARK SMILES IDX 55 66 56 67 71 69 93 70 58 71 41 72 42 73 51 74 43 75 44 76
REMARK SMILES IDX 50 77 52 78 45 79 46 80 47 81 48 82 49 83 75 84 76 85 85 86
REMARK SMILES IDX 77 87 78 88 84 89 86 90 79 91 80 92 81 93 82 94 83 95 59 96
REMARK SMILES IDX 60 97 69 98 61 99 62 100 68 101 70 102 63 103 64 104 65 105
REMARK SMILES IDX 66 106 67 107
REMARK H PARENT 25 5 9 24 29 38 91 57 57 68
REMARK Flexibility Score: inf
ROOT
ATOM      1  C   UNL A   1      35.675  32.472  31.622  1.00  0.00     0.117 C 
ENDROOT
BRANCH   1   2
ATOM      2  N   UNL A   1      36.054  33.545  32.520  1.00  0.00    -0.356 N 
ATOM      3  C   UNL A   1      37.246  33.949  33.017  1.00  0.00     0.224 C 
ATOM      4  O   UNL A   1      37.215  34.925  33.777  1.00  0.00    -0.275 OA
ATOM      5  H   UNL A   1      35.293  34.089  32.828  1.00  0.00     0.163 HD
BRANCH   3   6
ATOM      6  C   UNL A   1      38.591  33.283  32.729  1.00  0.00     0.093 C 
ATOM      7  N   UNL A   1      39.728  32.063  34.633  1.00  0.00    -0.197 NA
ATOM      8  C   UNL A   1      40.808  33.068  34.712  1.00  0.00     0.102 C 
ATOM      9  C   UNL A   1      38.847  31.971  33.443  1.00  0.00     0.116 C 
ATOM     10  C   UNL A   1      40.483  34.380  34.026  1.00  0.00     0.018 C 
ATOM     11  C   UNL A   1      39.786  34.225  32.691  1.00  0.00     0.016 C 
BRANCH   7  12
ATOM     12  S   UNL A   1      39.968  30.613  35.491  1.00  0.00     0.243 S 
ATOM     13  O   UNL A   1      38.683  30.001  35.709  1.00  0.00    -0.207 OA
ATOM     14  O   UNL A   1      40.876  30.899  36.587  1.00  0.00    -0.207 OA
BRANCH  12  15
ATOM     15  C   UNL A   1      40.858  29.531  34.389  1.00  0.00     0.083 A 
ATOM     16  C   UNL A   1      42.952  28.479  33.856  1.00  0.00     0.077 A 
ATOM     17  C   UNL A   1      42.185  29.254  34.726  1.00  0.00     0.038 A 
ATOM     18  C   UNL A   1      42.379  27.895  32.725  1.00  0.00     0.136 A 
ATOM     19  C   UNL A   1      41.062  28.179  32.387  1.00  0.00     0.041 A 
ATOM     20  F   UNL A   1      43.095  27.107  31.912  1.00  0.00    -0.206 F 
ATOM     21  C   UNL A   1      40.309  29.020  33.206  1.00  0.00     0.025 A 
BRANCH  16  22
ATOM     22  C   UNL A   1      44.396  28.391  34.088  1.00  0.00     0.258 C 
ATOM     23  N   UNL A   1      44.988  27.176  34.357  1.00  0.00    -0.322 N 
ATOM     24  H   UNL A   1      45.931  27.233  34.635  1.00  0.00     0.170 HD
ATOM     25  O   UNL A   1      45.055  29.429  34.075  1.00  0.00    -0.269 OA
BRANCH  23  26
ATOM     26  C   UNL A   1      44.469  25.859  34.302  1.00  0.00     0.044 A 
ATOM     27  C   UNL A   1      43.672  25.393  35.371  1.00  0.00    -0.025 A 
ATOM     28  C   UNL A   1      43.046  24.138  35.243  1.00  0.00     0.006 A 
ATOM     29  C   UNL A   1      43.236  23.343  34.112  1.00  0.00     0.000 A 
ATOM     30  C   UNL A   1      44.722  25.005  33.217  1.00  0.00     0.026 A 
ATOM     31  C   UNL A   1      44.094  23.765  33.110  1.00  0.00     0.002 A 
BRANCH  27  32
ATOM     32  C   UNL A   1      43.488  26.244  36.614  1.00  0.00     0.034 C 
ATOM     33  C   UNL A   1      42.061  26.562  37.044  1.00  0.00     0.009 C 
ENDBRANCH  27  32
ENDBRANCH  23  26
ENDBRANCH  16  22
ENDBRANCH  12  15
ENDBRANCH   7  12
ENDBRANCH   3   6
ENDBRANCH   1   2
BRANCH   1  34
ATOM     34  C   UNL A   1      34.542  32.885  30.697  1.00  0.00     0.042 C 
BRANCH  34  35
ATOM     35  C   UNL A   1      34.879  32.683  29.234  1.00  0.00     0.118 C 
BRANCH  35  36
ATOM     36  N   UNL A   1      34.127  31.586  28.640  1.00  0.00    -0.352 N 
ATOM     37  C   UNL A   1      34.564  30.379  28.152  1.00  0.00     0.251 C 
ATOM     38  H   UNL A   1      33.156  31.733  28.577  1.00  0.00     0.163 HD
ATOM     39  O   UNL A   1      33.787  29.662  27.526  1.00  0.00    -0.269 OA
BRANCH  37  40
ATOM     40  C   UNL A   1      35.967  29.957  28.355  1.00  0.00     0.039 A 
ATOM     41  C   UNL A   1      36.875  30.079  27.299  1.00  0.00     0.014 A 
ATOM     42  C   UNL A   1      36.390  29.437  29.579  1.00  0.00     0.014 A 
ATOM     43  C   UNL A   1      38.214  29.736  27.494  1.00  0.00     0.010 A 
ATOM     44  C   UNL A   1      37.741  29.214  29.808  1.00  0.00     0.010 A 
ATOM     45  C   UNL A   1      38.664  29.333  28.762  1.00  0.00    -0.014 A 
BRANCH  45  46
ATOM     46  C   UNL A   1      40.083  28.977  29.012  1.00  0.00     0.031 A 
ATOM     47  C   UNL A   1      41.010  30.005  29.609  1.00  0.00     0.074 A 
ATOM     48  C   UNL A   1      40.549  27.769  28.643  1.00  0.00     0.049 A 
ATOM     49  N   UNL A   1      42.300  29.938  29.811  1.00  0.00    -0.248 NA
ATOM     50  C   UNL A   1      40.413  31.296  29.989  1.00  0.00     0.031 C 
ATOM     51  C   UNL A   1      39.758  26.710  28.013  1.00  0.00     0.029 A 
ATOM     52  N   UNL A   1      41.807  27.230  28.736  1.00  0.00    -0.354 N 
ATOM     53  C   UNL A   1      42.667  31.179  30.316  1.00  0.00     0.074 A 
ATOM     54  C   UNL A   1      41.481  32.004  30.320  1.00  0.00     0.031 C 
ATOM     55  C   UNL A   1      40.539  25.635  27.813  1.00  0.00     0.029 A 
ATOM     56  C   UNL A   1      41.894  25.943  28.258  1.00  0.00     0.049 A 
ATOM     57  H   UNL A   1      42.576  27.718  29.111  1.00  0.00     0.167 HD
ATOM     58  C   UNL A   1      43.876  31.587  30.770  1.00  0.00     0.037 A 
ATOM     59  C   UNL A   1      42.949  25.110  28.186  1.00  0.00     0.037 A 
ATOM     60  C   UNL A   1      45.041  30.745  30.800  1.00  0.00     0.049 A 
ATOM     61  C   UNL A   1      44.285  25.583  28.695  1.00  0.00     0.074 A 
ATOM     62  C   UNL A   1      46.303  31.034  31.288  1.00  0.00     0.029 A 
ATOM     63  N   UNL A   1      45.083  29.441  30.324  1.00  0.00    -0.354 N 
ATOM     64  N   UNL A   1      44.604  26.744  29.219  1.00  0.00    -0.248 NA
ATOM     65  C   UNL A   1      45.402  24.633  28.610  1.00  0.00     0.031 C 
ATOM     66  C   UNL A   1      47.118  29.918  31.071  1.00  0.00     0.029 A 
ATOM     67  C   UNL A   1      46.353  28.917  30.493  1.00  0.00     0.049 A 
ATOM     68  H   UNL A   1      44.322  28.960  29.926  1.00  0.00     0.167 HD
ATOM     69  C   UNL A   1      45.950  26.651  29.554  1.00  0.00     0.074 A 
ATOM     70  C   UNL A   1      46.382  25.320  29.180  1.00  0.00     0.031 C 
ATOM     71  C   UNL A   1      46.756  27.582  30.123  1.00  0.00     0.037 A 
BRANCH  58  72
ATOM     72  C   UNL A   1      43.986  33.001  31.275  1.00  0.00     0.058 A 
ATOM     73  C   UNL A   1      43.925  33.303  32.647  1.00  0.00     0.135 A 
ATOM     74  C   UNL A   1      44.150  34.071  30.380  1.00  0.00     0.135 A 
ATOM     75  F   UNL A   1      43.753  32.322  33.548  1.00  0.00    -0.206 F 
ATOM     76  C   UNL A   1      43.974  34.614  33.108  1.00  0.00     0.059 A 
ATOM     77  C   UNL A   1      44.234  35.388  30.822  1.00  0.00     0.059 A 
ATOM     78  F   UNL A   1      44.217  33.843  29.059  1.00  0.00    -0.206 F 
ATOM     79  C   UNL A   1      44.123  35.651  32.186  1.00  0.00     0.060 A 
BRANCH  79  80
ATOM     80  S   UNL A   1      44.162  37.349  32.799  1.00  0.00     0.124 S 
ATOM     81  O   UNL A   1      43.124  37.311  33.825  1.00  0.00    -0.237 OA
ATOM     82  O   UNL A   1      45.531  37.473  33.289  1.00  0.00    -0.237 OA
ATOM     83  O   UNL A   1      43.848  38.144  31.616  1.00  0.00    -0.744 OA
ENDBRANCH  79  80
ENDBRANCH  58  72
BRANCH  59  84
ATOM     84  C   UNL A   1      42.776  23.733  27.651  1.00  0.00     0.058 A 
ATOM     85  C   UNL A   1      42.550  22.652  28.515  1.00  0.00     0.135 A 
ATOM     86  C   UNL A   1      42.811  23.470  26.272  1.00  0.00     0.135 A 
ATOM     87  F   UNL A   1      42.513  22.852  29.843  1.00  0.00    -0.206 F 
ATOM     88  C   UNL A   1      42.380  21.357  28.037  1.00  0.00     0.059 A 
ATOM     89  C   UNL A   1      42.618  22.187  25.767  1.00  0.00     0.059 A 
ATOM     90  F   UNL A   1      43.004  24.472  25.401  1.00  0.00    -0.206 F 
ATOM     91  C   UNL A   1      42.413  21.135  26.660  1.00  0.00     0.060 A 
BRANCH  91  92
ATOM     92  S   UNL A   1      42.141  19.458  26.046  1.00  0.00     0.124 S 
ATOM     93  O   UNL A   1      40.715  19.485  25.743  1.00  0.00    -0.237 OA
ATOM     94  O   UNL A   1      43.037  19.404  24.895  1.00  0.00    -0.237 OA
ATOM     95  O   UNL A   1      42.533  18.620  27.174  1.00  0.00    -0.744 OA
ENDBRANCH  91  92
ENDBRANCH  59  84
BRANCH  71  96
ATOM     96  C   UNL A   1      48.175  27.182  30.415  1.00  0.00     0.058 A 
ATOM     97  C   UNL A   1      49.201  27.358  29.475  1.00  0.00     0.135 A 
ATOM     98  C   UNL A   1      48.519  26.669  31.677  1.00  0.00     0.135 A 
ATOM     99  F   UNL A   1      48.922  27.839  28.253  1.00  0.00    -0.206 F 
ATOM    100  C   UNL A   1      50.518  27.023  29.769  1.00  0.00     0.059 A 
ATOM    101  C   UNL A   1      49.834  26.353  32.001  1.00  0.00     0.059 A 
ATOM    102  F   UNL A   1      47.576  26.491  32.615  1.00  0.00    -0.206 F 
ATOM    103  C   UNL A   1      50.825  26.523  31.037  1.00  0.00     0.060 A 
BRANCH 103 104
ATOM    104  S   UNL A   1      52.545  26.131  31.417  1.00  0.00     0.124 S 
ATOM    105  O   UNL A   1      53.100  25.918  30.085  1.00  0.00    -0.237 OA
ATOM    106  O   UNL A   1      52.995  27.336  32.106  1.00  0.00    -0.237 OA
ATOM    107  O   UNL A   1      52.443  24.938  32.254  1.00  0.00    -0.744 OA
ENDBRANCH 103 104
ENDBRANCH  71  96
ENDBRANCH  45  46
ENDBRANCH  37  40
ENDBRANCH  35  36
ENDBRANCH  34  35
ENDBRANCH   1  34
TORSDOF 18
ENDMDL
MODEL 3
REMARK VINA RESULT:     -12.9      6.194     11.630
REMARK SMILES CCc1ccccc1NC(=O)c1cc(S(=O)(=O)N2CCC[C@H](C(=O)NCCCNC(=O)c3ccc(-c4c5nc(c(-c6c(F)cc(S(=O)(=O)[O-])cc6F)c6ccc([nH]6)c(-c6c(F)cc(S(=O)(=O)[O-])cc6F)c6nc(c(-c7c(F)cc(S(=O)(=O)[O-])cc7F)c7ccc4[nH]7)C=C6)C=C5)cc3)C2)ccc1F
REMARK SMILES IDX 26 1 25 2 23 3 24 4 22 6 18 7 19 8 98 9 20 10 21 11 15 12
REMARK SMILES IDX 16 13 17 14 14 15 12 16 13 17 101 18 100 19 102 20 99 21
REMARK SMILES IDX 10 22 9 23 11 25 8 26 3 27 4 28 5 29 7 30 6 31 2 32 1 33
REMARK SMILES IDX 27 34 28 35 29 36 30 37 31 39 32 40 33 41 97 42 34 43 96 44
REMARK SMILES IDX 35 45 36 46 37 47 90 48 38 49 95 50 89 51 91 52 39 53 94 54
REMARK SMILES IDX 88 55 87 56 40 58 74 59 53 60 73 61 54 62 57 63 72 64 92 65
REMARK SMILES IDX 55 66 56 67 71 69 93 70 58 71 41 72 42 73 51 74 43 75 44 76
REMARK SMILES IDX 50 77 52 78 45 79 46 80 47 81 48 82 49 83 75 84 76 85 85 86
REMARK SMILES IDX 77 87 78 88 84 89 86 90 79 91 80 92 81 93 82 94 83 95 59 96
REMARK SMILES IDX 60 97 69 98 61 99 62 100 68 101 70 102 63 103 64 104 65 105
REMARK SMILES IDX 66 106 67 107
REMARK H PARENT 25 5 9 24 29 38 91 57 57 68
REMARK Flexibility Score: inf
ROOT
ATOM      1  C   UNL A   1      33.387  30.966  27.234  1.00  0.00     0.117 C 
ENDROOT
BRANCH   1   2
ATOM      2  N   UNL A   1      33.978  29.921  26.421  1.00  0.00    -0.356 N 
ATOM      3  C   UNL A   1      33.445  28.907  25.701  1.00  0.00     0.224 C 
ATOM      4  O   UNL A   1      34.252  28.178  25.111  1.00  0.00    -0.275 OA
ATOM      5  H   UNL A   1      34.961  29.957  26.386  1.00  0.00     0.163 HD
BRANCH   3   6
ATOM      6  C   UNL A   1      31.953  28.595  25.589  1.00  0.00     0.093 C 
ATOM      7  N   UNL A   1      31.284  26.486  24.360  1.00  0.00    -0.197 NA
ATOM      8  C   UNL A   1      30.699  27.251  23.241  1.00  0.00     0.102 C 
ATOM      9  C   UNL A   1      31.576  27.129  25.665  1.00  0.00     0.116 C 
ATOM     10  C   UNL A   1      31.147  28.698  23.180  1.00  0.00     0.018 C 
ATOM     11  C   UNL A   1      31.203  29.386  24.526  1.00  0.00     0.016 C 
BRANCH   7  12
ATOM     12  S   UNL A   1      30.930  24.822  24.417  1.00  0.00     0.243 S 
ATOM     13  O   UNL A   1      30.162  24.485  23.246  1.00  0.00    -0.207 OA
ATOM     14  O   UNL A   1      30.456  24.522  25.756  1.00  0.00    -0.207 OA
BRANCH  12  15
ATOM     15  C   UNL A   1      32.491  23.980  24.252  1.00  0.00     0.083 A 
ATOM     16  C   UNL A   1      33.908  22.196  25.016  1.00  0.00     0.077 A 
ATOM     17  C   UNL A   1      32.674  22.846  25.045  1.00  0.00     0.038 A 
ATOM     18  C   UNL A   1      34.907  22.599  24.129  1.00  0.00     0.136 A 
ATOM     19  C   UNL A   1      34.727  23.733  23.348  1.00  0.00     0.041 A 
ATOM     20  F   UNL A   1      36.077  21.948  24.057  1.00  0.00    -0.206 F 
ATOM     21  C   UNL A   1      33.528  24.440  23.429  1.00  0.00     0.025 A 
BRANCH  16  22
ATOM     22  C   UNL A   1      34.175  21.160  26.018  1.00  0.00     0.258 C 
ATOM     23  N   UNL A   1      33.901  19.837  25.746  1.00  0.00    -0.322 N 
ATOM     24  H   UNL A   1      33.982  19.234  26.521  1.00  0.00     0.170 HD
ATOM     25  O   UNL A   1      34.612  21.505  27.114  1.00  0.00    -0.269 OA
BRANCH  23  26
ATOM     26  C   UNL A   1      33.524  19.197  24.540  1.00  0.00     0.044 A 
ATOM     27  C   UNL A   1      34.161  17.988  24.180  1.00  0.00    -0.025 A 
ATOM     28  C   UNL A   1      33.682  17.286  23.057  1.00  0.00     0.006 A 
ATOM     29  C   UNL A   1      32.634  17.784  22.281  1.00  0.00     0.000 A 
ATOM     30  C   UNL A   1      32.536  19.725  23.694  1.00  0.00     0.026 A 
ATOM     31  C   UNL A   1      32.077  19.015  22.585  1.00  0.00     0.002 A 
BRANCH  27  32
ATOM     32  C   UNL A   1      35.320  17.460  25.006  1.00  0.00     0.034 C 
ATOM     33  C   UNL A   1      35.314  15.978  25.359  1.00  0.00     0.009 C 
ENDBRANCH  27  32
ENDBRANCH  23  26
ENDBRANCH  16  22
ENDBRANCH  12  15
ENDBRANCH   7  12
ENDBRANCH   3   6
ENDBRANCH   1   2
BRANCH   1  34
ATOM     34  C   UNL A   1      34.447  31.805  27.930  1.00  0.00     0.042 C 
BRANCH  34  35
ATOM     35  C   UNL A   1      35.612  30.976  28.430  1.00  0.00     0.118 C 
BRANCH  35  36
ATOM     36  N   UNL A   1      35.566  30.770  29.871  1.00  0.00    -0.352 N 
ATOM     37  C   UNL A   1      36.524  30.275  30.722  1.00  0.00     0.251 C 
ATOM     38  H   UNL A   1      34.718  31.023  30.301  1.00  0.00     0.163 HD
ATOM     39  O   UNL A   1      36.224  30.013  31.884  1.00  0.00    -0.269 OA
BRANCH  37  40
ATOM     40  C   UNL A   1      37.900  30.033  30.237  1.00  0.00     0.039 A 
ATOM     41  C   UNL A   1      38.889  29.660  31.152  1.00  0.00     0.014 A 
ATOM     42  C   UNL A   1      38.220  30.176  28.886  1.00  0.00     0.014 A 
ATOM     43  C   UNL A   1      40.179  29.375  30.700  1.00  0.00     0.010 A 
ATOM     44  C   UNL A   1      39.466  29.775  28.423  1.00  0.00     0.010 A 
ATOM     45  C   UNL A   1      40.468  29.397  29.325  1.00  0.00    -0.014 A 
BRANCH  45  46
ATOM     46  C   UNL A   1      41.822  29.084  28.805  1.00  0.00     0.031 A 
ATOM     47  C   UNL A   1      42.128  27.685  28.333  1.00  0.00     0.074 A 
ATOM     48  C   UNL A   1      42.785  30.024  28.823  1.00  0.00     0.049 A 
ATOM     49  N   UNL A   1      43.266  27.174  27.943  1.00  0.00    -0.248 NA
ATOM     50  C   UNL A   1      41.014  26.722  28.343  1.00  0.00     0.031 C 
ATOM     51  C   UNL A   1      42.619  31.399  29.300  1.00  0.00     0.029 A 
ATOM     52  N   UNL A   1      44.099  29.966  28.435  1.00  0.00    -0.354 N 
ATOM     53  C   UNL A   1      43.009  25.832  27.686  1.00  0.00     0.074 A 
ATOM     54  C   UNL A   1      41.628  25.591  28.035  1.00  0.00     0.031 C 
ATOM     55  C   UNL A   1      43.776  32.064  29.141  1.00  0.00     0.029 A 
ATOM     56  C   UNL A   1      44.776  31.153  28.592  1.00  0.00     0.049 A 
ATOM     57  H   UNL A   1      44.519  29.151  28.076  1.00  0.00     0.167 HD
ATOM     58  C   UNL A   1      43.837  24.892  27.171  1.00  0.00     0.037 A 
ATOM     59  C   UNL A   1      46.057  31.467  28.326  1.00  0.00     0.037 A 
ATOM     60  C   UNL A   1      45.199  25.154  26.790  1.00  0.00     0.049 A 
ATOM     61  C   UNL A   1      46.963  30.408  27.755  1.00  0.00     0.074 A 
ATOM     62  C   UNL A   1      46.112  24.293  26.208  1.00  0.00     0.029 A 
ATOM     63  N   UNL A   1      45.841  26.375  26.947  1.00  0.00    -0.354 N 
ATOM     64  N   UNL A   1      46.688  29.156  27.469  1.00  0.00    -0.248 NA
ATOM     65  C   UNL A   1      48.347  30.803  27.466  1.00  0.00     0.031 C 
ATOM     66  C   UNL A   1      47.319  24.982  26.051  1.00  0.00     0.029 A 
ATOM     67  C   UNL A   1      47.143  26.286  26.489  1.00  0.00     0.049 A 
ATOM     68  H   UNL A   1      45.430  27.184  27.328  1.00  0.00     0.167 HD
ATOM     69  C   UNL A   1      47.857  28.624  26.936  1.00  0.00     0.074 A 
ATOM     70  C   UNL A   1      48.837  29.691  26.935  1.00  0.00     0.031 C 
ATOM     71  C   UNL A   1      48.098  27.367  26.486  1.00  0.00     0.037 A 
BRANCH  58  72
ATOM     72  C   UNL A   1      43.283  23.504  26.990  1.00  0.00     0.058 A 
ATOM     73  C   UNL A   1      43.239  22.582  28.050  1.00  0.00     0.135 A 
ATOM     74  C   UNL A   1      42.793  23.086  25.742  1.00  0.00     0.135 A 
ATOM     75  F   UNL A   1      43.709  22.921  29.261  1.00  0.00    -0.206 F 
ATOM     76  C   UNL A   1      42.775  21.283  27.867  1.00  0.00     0.059 A 
ATOM     77  C   UNL A   1      42.293  21.801  25.546  1.00  0.00     0.059 A 
ATOM     78  F   UNL A   1      42.807  23.924  24.694  1.00  0.00    -0.206 F 
ATOM     79  C   UNL A   1      42.309  20.901  26.609  1.00  0.00     0.060 A 
BRANCH  79  80
ATOM     80  S   UNL A   1      41.731  19.206  26.383  1.00  0.00     0.124 S 
ATOM     81  O   UNL A   1      42.788  18.648  25.545  1.00  0.00    -0.237 OA
ATOM     82  O   UNL A   1      41.682  18.707  27.754  1.00  0.00    -0.237 OA
ATOM     83  O   UNL A   1      40.436  19.373  25.733  1.00  0.00    -0.744 OA
ENDBRANCH  79  80
ENDBRANCH  58  72
BRANCH  59  84
ATOM     84  C   UNL A   1      46.548  32.853  28.553  1.00  0.00     0.058 A 
ATOM     85  C   UNL A   1      47.079  33.231  29.795  1.00  0.00     0.135 A 
ATOM     86  C   UNL A   1      46.517  33.819  27.535  1.00  0.00     0.135 A 
ATOM     87  F   UNL A   1      47.125  32.343  30.801  1.00  0.00    -0.206 F 
ATOM     88  C   UNL A   1      47.548  34.519  30.028  1.00  0.00     0.059 A 
ATOM     89  C   UNL A   1      47.004  35.108  27.736  1.00  0.00     0.059 A 
ATOM     90  F   UNL A   1      46.037  33.504  26.323  1.00  0.00    -0.206 F 
ATOM     91  C   UNL A   1      47.508  35.451  28.990  1.00  0.00     0.060 A 
BRANCH  91  92
ATOM     92  S   UNL A   1      48.166  37.107  29.287  1.00  0.00     0.124 S 
ATOM     93  O   UNL A   1      48.281  37.625  27.929  1.00  0.00    -0.237 OA
ATOM     94  O   UNL A   1      47.124  37.707  30.114  1.00  0.00    -0.237 OA
ATOM     95  O   UNL A   1      49.427  36.848  29.974  1.00  0.00    -0.744 OA
ENDBRANCH  91  92
ENDBRANCH  59  84
BRANCH  71  96
ATOM     96  C   UNL A   1      49.460  27.087  25.916  1.00  0.00     0.058 A 
ATOM     97  C   UNL A   1      50.510  26.609  26.712  1.00  0.00     0.135 A 
ATOM     98  C   UNL A   1      49.696  27.244  24.539  1.00  0.00     0.135 A 
ATOM     99  F   UNL A   1      50.337  26.448  28.034  1.00  0.00    -0.206 F 
ATOM    100  C   UNL A   1      51.755  26.314  26.168  1.00  0.00     0.059 A 
ATOM    101  C   UNL A   1      50.925  26.929  23.970  1.00  0.00     0.059 A 
ATOM    102  F   UNL A   1      48.720  27.689  23.733  1.00  0.00    -0.206 F 
ATOM    103  C   UNL A   1      51.952  26.474  24.795  1.00  0.00     0.060 A 
BRANCH 103 104
ATOM    104  S   UNL A   1      53.561  26.048  24.096  1.00  0.00     0.124 S 
ATOM    105  O   UNL A   1      53.273  26.061  22.666  1.00  0.00    -0.237 OA
ATOM    106  O   UNL A   1      54.409  27.132  24.583  1.00  0.00    -0.237 OA
ATOM    107  O   UNL A   1      53.842  24.735  24.669  1.00  0.00    -0.744 OA
ENDBRANCH 103 104
ENDBRANCH  71  96
ENDBRANCH  45  46
ENDBRANCH  37  40
ENDBRANCH  35  36
ENDBRANCH  34  35
ENDBRANCH   1  34
TORSDOF 18
ENDMDL
