MODEL 1
REMARK VINA RESULT:     -10.0      0.000      0.000
REMARK SMILES CC[C@@](C)(Nc1nccs1)C(=O)NCCCNC(=O)c1ccc(-c2c3nc(c(-c4c(F)cc(S(=O)(=O)[O-])cc4F)c4ccc([nH]4)c(-c4c(F)cc(S(=O)(=O)[O-])cc4F)c4nc(c(-c5c(F)cc(S(=O)(=O)[O-])cc5F)c5ccc2[nH]5)C=C4)C=C3)cc1
REMARK SMILES IDX 15 1 14 2 13 3 11 4 12 5 3 7 4 8 2 9 1 10 5 11 6 13 7 14
REMARK SMILES IDX 10 15 8 16 9 17 16 18 17 19 18 20 19 22 20 23 21 24 85 25
REMARK SMILES IDX 22 26 84 27 23 28 24 29 25 30 78 31 26 32 83 33 77 34 79 35
REMARK SMILES IDX 27 36 82 37 76 38 75 39 28 41 62 42 41 43 61 44 42 45 45 46
REMARK SMILES IDX 60 47 80 48 43 49 44 50 59 52 81 53 46 54 29 55 30 56 39 57
REMARK SMILES IDX 31 58 32 59 38 60 40 61 33 62 34 63 35 64 36 65 37 66 63 67
REMARK SMILES IDX 64 68 73 69 65 70 66 71 72 72 74 73 67 74 68 75 69 76 70 77
REMARK SMILES IDX 71 78 47 79 48 80 57 81 49 82 50 83 56 84 58 85 51 86 52 87
REMARK SMILES IDX 53 88 54 89 55 90
REMARK H PARENT 13 6 5 12 17 21 79 40 45 51
REMARK Flexibility Score: inf
ROOT
ATOM      1  C   UNL A   1      33.712  27.874  25.852  1.00  0.00     0.042 C 
ENDROOT
BRANCH   1   2
ATOM      2  C   UNL A   1      33.855  26.373  25.635  1.00  0.00     0.117 C 
BRANCH   2   3
ATOM      3  N   UNL A   1      34.050  25.980  24.252  1.00  0.00    -0.354 N 
ATOM      4  C   UNL A   1      33.867  24.799  23.593  1.00  0.00     0.245 C 
ATOM      5  O   UNL A   1      34.160  24.815  22.390  1.00  0.00    -0.272 OA
ATOM      6  H   UNL A   1      34.381  26.707  23.677  1.00  0.00     0.163 HD
BRANCH   4   7
ATOM      7  C   UNL A   1      33.245  23.533  24.275  1.00  0.00     0.115 C 
ATOM      8  C   UNL A   1      31.847  23.879  24.832  1.00  0.00     0.045 C 
BRANCH   7   9
ATOM      9  C   UNL A   1      33.085  22.374  23.240  1.00  0.00     0.035 C 
ATOM     10  C   UNL A   1      32.606  21.032  23.801  1.00  0.00     0.007 C 
ENDBRANCH   7   9
BRANCH   7  11
ATOM     11  N   UNL A   1      34.051  23.002  25.391  1.00  0.00    -0.347 N 
ATOM     12  H   UNL A   1      33.576  22.720  26.206  1.00  0.00     0.164 HD
BRANCH  11  13
ATOM     13  C   UNL A   1      35.397  22.878  25.372  1.00  0.00     0.183 A 
ATOM     14  N   UNL A   1      36.270  23.854  25.440  1.00  0.00    -0.229 NA
ATOM     15  S   UNL A   1      36.099  21.298  25.327  1.00  0.00    -0.106 S 
ATOM     16  C   UNL A   1      37.555  23.354  25.537  1.00  0.00     0.125 A 
ATOM     17  C   UNL A   1      37.659  21.983  25.500  1.00  0.00     0.088 A 
ENDBRANCH  11  13
ENDBRANCH   7  11
ENDBRANCH   4   7
ENDBRANCH   2   3
ENDBRANCH   1   2
BRANCH   1  18
ATOM     18  C   UNL A   1      33.488  28.297  27.295  1.00  0.00     0.118 C 
BRANCH  18  19
ATOM     19  N   UNL A   1      33.388  29.744  27.430  1.00  0.00    -0.352 N 
ATOM     20  C   UNL A   1      34.295  30.626  27.970  1.00  0.00     0.251 C 
ATOM     21  H   UNL A   1      32.558  30.146  27.087  1.00  0.00     0.163 HD
ATOM     22  O   UNL A   1      33.957  31.777  28.224  1.00  0.00    -0.269 OA
BRANCH  20  23
ATOM     23  C   UNL A   1      35.675  30.173  28.259  1.00  0.00     0.039 A 
ATOM     24  C   UNL A   1      36.635  30.204  27.243  1.00  0.00     0.014 A 
ATOM     25  C   UNL A   1      36.016  29.713  29.534  1.00  0.00     0.014 A 
ATOM     26  C   UNL A   1      37.953  29.834  27.524  1.00  0.00     0.010 A 
ATOM     27  C   UNL A   1      37.343  29.418  29.830  1.00  0.00     0.010 A 
ATOM     28  C   UNL A   1      38.326  29.467  28.828  1.00  0.00    -0.014 A 
BRANCH  28  29
ATOM     29  C   UNL A   1      39.724  29.102  29.176  1.00  0.00     0.031 A 
ATOM     30  C   UNL A   1      40.630  30.135  29.793  1.00  0.00     0.074 A 
ATOM     31  C   UNL A   1      40.205  27.883  28.860  1.00  0.00     0.049 A 
ATOM     32  N   UNL A   1      41.915  30.073  30.030  1.00  0.00    -0.248 NA
ATOM     33  C   UNL A   1      40.012  31.418  30.162  1.00  0.00     0.031 C 
ATOM     34  C   UNL A   1      39.437  26.804  28.235  1.00  0.00     0.029 A 
ATOM     35  N   UNL A   1      41.464  27.353  29.001  1.00  0.00    -0.354 N 
ATOM     36  C   UNL A   1      42.263  31.314  30.550  1.00  0.00     0.074 A 
ATOM     37  C   UNL A   1      41.064  32.124  30.551  1.00  0.00     0.031 C 
ATOM     38  C   UNL A   1      40.238  25.741  28.055  1.00  0.00     0.029 A 
ATOM     39  C   UNL A   1      41.585  26.075  28.508  1.00  0.00     0.049 A 
ATOM     40  H   UNL A   1      42.210  27.843  29.417  1.00  0.00     0.167 HD
ATOM     41  C   UNL A   1      43.468  31.735  31.003  1.00  0.00     0.037 A 
ATOM     42  C   UNL A   1      42.664  25.271  28.412  1.00  0.00     0.037 A 
ATOM     43  C   UNL A   1      44.649  30.913  31.028  1.00  0.00     0.049 A 
ATOM     44  C   UNL A   1      43.994  25.762  28.916  1.00  0.00     0.074 A 
ATOM     45  C   UNL A   1      45.907  31.231  31.513  1.00  0.00     0.029 A 
ATOM     46  N   UNL A   1      44.721  29.612  30.552  1.00  0.00    -0.354 N 
ATOM     47  N   UNL A   1      44.298  26.925  29.443  1.00  0.00    -0.248 NA
ATOM     48  C   UNL A   1      45.129  24.833  28.818  1.00  0.00     0.031 C 
ATOM     49  C   UNL A   1      46.748  30.137  31.291  1.00  0.00     0.029 A 
ATOM     50  C   UNL A   1      46.003  29.118  30.719  1.00  0.00     0.049 A 
ATOM     51  H   UNL A   1      43.969  29.114  30.155  1.00  0.00     0.167 HD
ATOM     52  C   UNL A   1      45.647  26.853  29.775  1.00  0.00     0.074 A 
ATOM     53  C   UNL A   1      46.102  25.533  29.389  1.00  0.00     0.031 C 
ATOM     54  C   UNL A   1      46.434  27.792  30.354  1.00  0.00     0.037 A 
BRANCH  41  55
ATOM     55  C   UNL A   1      43.569  33.147  31.510  1.00  0.00     0.058 A 
ATOM     56  C   UNL A   1      43.906  34.215  30.663  1.00  0.00     0.135 A 
ATOM     57  C   UNL A   1      43.292  33.443  32.856  1.00  0.00     0.135 A 
ATOM     58  F   UNL A   1      44.196  33.988  29.372  1.00  0.00    -0.206 F 
ATOM     59  C   UNL A   1      43.996  35.520  31.137  1.00  0.00     0.059 A 
ATOM     60  C   UNL A   1      43.346  34.746  33.344  1.00  0.00     0.059 A 
ATOM     61  F   UNL A   1      42.963  32.462  33.711  1.00  0.00    -0.206 F 
ATOM     62  C   UNL A   1      43.715  35.775  32.480  1.00  0.00     0.060 A 
BRANCH  62  63
ATOM     63  S   UNL A   1      43.833  37.474  33.077  1.00  0.00     0.124 S 
ATOM     64  O   UNL A   1      43.784  38.226  31.827  1.00  0.00    -0.237 OA
ATOM     65  O   UNL A   1      42.654  37.588  33.931  1.00  0.00    -0.237 OA
ATOM     66  O   UNL A   1      45.114  37.501  33.776  1.00  0.00    -0.744 OA
ENDBRANCH  62  63
ENDBRANCH  41  55
BRANCH  42  67
ATOM     67  C   UNL A   1      42.526  23.910  27.827  1.00  0.00     0.058 A 
ATOM     68  C   UNL A   1      42.442  22.777  28.650  1.00  0.00     0.135 A 
ATOM     69  C   UNL A   1      42.464  23.713  26.438  1.00  0.00     0.135 A 
ATOM     70  F   UNL A   1      42.504  22.912  29.984  1.00  0.00    -0.206 F 
ATOM     71  C   UNL A   1      42.318  21.497  28.119  1.00  0.00     0.059 A 
ATOM     72  C   UNL A   1      42.314  22.446  25.884  1.00  0.00     0.059 A 
ATOM     73  F   UNL A   1      42.522  24.765  25.606  1.00  0.00    -0.206 F 
ATOM     74  C   UNL A   1      42.253  21.342  26.734  1.00  0.00     0.060 A 
BRANCH  74  75
ATOM     75  S   UNL A   1      42.044  19.681  26.057  1.00  0.00     0.124 S 
ATOM     76  O   UNL A   1      42.456  18.851  27.182  1.00  0.00    -0.237 OA
ATOM     77  O   UNL A   1      40.620  19.658  25.734  1.00  0.00    -0.237 OA
ATOM     78  O   UNL A   1      42.940  19.673  24.904  1.00  0.00    -0.744 OA
ENDBRANCH  74  75
ENDBRANCH  42  67
BRANCH  54  79
ATOM     79  C   UNL A   1      47.856  27.418  30.668  1.00  0.00     0.058 A 
ATOM     80  C   UNL A   1      48.210  26.784  31.869  1.00  0.00     0.135 A 
ATOM     81  C   UNL A   1      48.865  27.624  29.713  1.00  0.00     0.135 A 
ATOM     82  F   UNL A   1      47.286  26.569  32.818  1.00  0.00    -0.206 F 
ATOM     83  C   UNL A   1      49.518  26.377  32.115  1.00  0.00     0.059 A 
ATOM     84  C   UNL A   1      50.173  27.202  29.927  1.00  0.00     0.059 A 
ATOM     85  F   UNL A   1      48.577  28.219  28.543  1.00  0.00    -0.206 F 
ATOM     86  C   UNL A   1      50.492  26.584  31.135  1.00  0.00     0.060 A 
BRANCH  86  87
ATOM     87  S   UNL A   1      52.171  26.000  31.444  1.00  0.00     0.124 S 
ATOM     88  O   UNL A   1      51.932  24.629  31.879  1.00  0.00    -0.237 OA
ATOM     89  O   UNL A   1      52.798  26.150  30.134  1.00  0.00    -0.237 OA
ATOM     90  O   UNL A   1      52.664  26.910  32.475  1.00  0.00    -0.744 OA
ENDBRANCH  86  87
ENDBRANCH  54  79
ENDBRANCH  28  29
ENDBRANCH  20  23
ENDBRANCH  18  19
ENDBRANCH   1  18
TORSDOF 16
ENDMDL
MODEL 2
REMARK VINA RESULT:      -9.8      3.648     10.199
REMARK SMILES CC[C@@](C)(Nc1nccs1)C(=O)NCCCNC(=O)c1ccc(-c2c3nc(c(-c4c(F)cc(S(=O)(=O)[O-])cc4F)c4ccc([nH]4)c(-c4c(F)cc(S(=O)(=O)[O-])cc4F)c4nc(c(-c5c(F)cc(S(=O)(=O)[O-])cc5F)c5ccc2[nH]5)C=C4)C=C3)cc1
REMARK SMILES IDX 15 1 14 2 13 3 11 4 12 5 3 7 4 8 2 9 1 10 5 11 6 13 7 14
REMARK SMILES IDX 10 15 8 16 9 17 16 18 17 19 18 20 19 22 20 23 21 24 85 25
REMARK SMILES IDX 22 26 84 27 23 28 24 29 25 30 78 31 26 32 83 33 77 34 79 35
REMARK SMILES IDX 27 36 82 37 76 38 75 39 28 41 62 42 41 43 61 44 42 45 45 46
REMARK SMILES IDX 60 47 80 48 43 49 44 50 59 52 81 53 46 54 29 55 30 56 39 57
REMARK SMILES IDX 31 58 32 59 38 60 40 61 33 62 34 63 35 64 36 65 37 66 63 67
REMARK SMILES IDX 64 68 73 69 65 70 66 71 72 72 74 73 67 74 68 75 69 76 70 77
REMARK SMILES IDX 71 78 47 79 48 80 57 81 49 82 50 83 56 84 58 85 51 86 52 87
REMARK SMILES IDX 53 88 54 89 55 90
REMARK H PARENT 13 6 5 12 17 21 79 40 45 51
REMARK Flexibility Score: inf
ROOT
ATOM      1  C   UNL A   1      41.724  22.407  27.038  1.00  0.00     0.042 C 
ENDROOT
BRANCH   1   2
ATOM      2  C   UNL A   1      42.089  22.578  25.569  1.00  0.00     0.117 C 
BRANCH   2   3
ATOM      3  N   UNL A   1      42.693  23.856  25.244  1.00  0.00    -0.354 N 
ATOM      4  C   UNL A   1      43.991  24.248  25.078  1.00  0.00     0.245 C 
ATOM      5  O   UNL A   1      44.149  25.449  24.821  1.00  0.00    -0.272 OA
ATOM      6  H   UNL A   1      42.041  24.583  25.120  1.00  0.00     0.163 HD
BRANCH   4   7
ATOM      7  C   UNL A   1      45.193  23.245  25.119  1.00  0.00     0.115 C 
ATOM      8  C   UNL A   1      46.488  23.971  24.693  1.00  0.00     0.045 C 
BRANCH   7   9
ATOM      9  C   UNL A   1      45.397  22.690  26.565  1.00  0.00     0.035 C 
ATOM     10  C   UNL A   1      45.559  23.736  27.671  1.00  0.00     0.007 C 
ENDBRANCH   7   9
BRANCH   7  11
ATOM     11  N   UNL A   1      45.024  22.078  24.232  1.00  0.00    -0.347 N 
ATOM     12  H   UNL A   1      44.925  22.245  23.267  1.00  0.00     0.164 HD
BRANCH  11  13
ATOM     13  C   UNL A   1      44.993  20.794  24.654  1.00  0.00     0.183 A 
ATOM     14  N   UNL A   1      43.920  20.077  24.892  1.00  0.00    -0.229 NA
ATOM     15  S   UNL A   1      46.480  19.933  24.850  1.00  0.00    -0.106 S 
ATOM     16  C   UNL A   1      44.260  18.767  25.170  1.00  0.00     0.125 A 
ATOM     17  C   UNL A   1      45.608  18.497  25.186  1.00  0.00     0.088 A 
ENDBRANCH  11  13
ENDBRANCH   7  11
ENDBRANCH   4   7
ENDBRANCH   2   3
ENDBRANCH   1   2
BRANCH   1  18
ATOM     18  C   UNL A   1      40.330  21.855  27.294  1.00  0.00     0.118 C 
BRANCH  18  19
ATOM     19  N   UNL A   1      39.371  22.310  26.297  1.00  0.00    -0.352 N 
ATOM     20  C   UNL A   1      38.774  23.543  26.173  1.00  0.00     0.251 C 
ATOM     21  H   UNL A   1      39.116  21.645  25.618  1.00  0.00     0.163 HD
ATOM     22  O   UNL A   1      37.813  23.687  25.424  1.00  0.00    -0.269 OA
BRANCH  20  23
ATOM     23  C   UNL A   1      39.284  24.687  26.960  1.00  0.00     0.039 A 
ATOM     24  C   UNL A   1      40.105  25.635  26.341  1.00  0.00     0.014 A 
ATOM     25  C   UNL A   1      38.955  24.820  28.312  1.00  0.00     0.014 A 
ATOM     26  C   UNL A   1      40.542  26.750  27.062  1.00  0.00     0.010 A 
ATOM     27  C   UNL A   1      39.329  25.967  29.005  1.00  0.00     0.010 A 
ATOM     28  C   UNL A   1      40.132  26.942  28.393  1.00  0.00    -0.014 A 
BRANCH  28  29
ATOM     29  C   UNL A   1      40.545  28.131  29.182  1.00  0.00     0.031 A 
ATOM     30  C   UNL A   1      41.862  28.117  29.912  1.00  0.00     0.074 A 
ATOM     31  C   UNL A   1      39.709  29.179  29.318  1.00  0.00     0.049 A 
ATOM     32  N   UNL A   1      42.342  28.977  30.772  1.00  0.00    -0.248 NA
ATOM     33  C   UNL A   1      42.743  26.964  29.662  1.00  0.00     0.031 C 
ATOM     34  C   UNL A   1      38.393  29.302  28.685  1.00  0.00     0.029 A 
ATOM     35  N   UNL A   1      39.830  30.332  30.053  1.00  0.00    -0.354 N 
ATOM     36  C   UNL A   1      43.563  28.459  31.185  1.00  0.00     0.074 A 
ATOM     37  C   UNL A   1      43.731  27.187  30.516  1.00  0.00     0.031 C 
ATOM     38  C   UNL A   1      37.836  30.468  29.053  1.00  0.00     0.029 A 
ATOM     39  C   UNL A   1      38.730  31.154  29.981  1.00  0.00     0.049 A 
ATOM     40  H   UNL A   1      40.632  30.551  30.582  1.00  0.00     0.167 HD
ATOM     41  C   UNL A   1      44.472  29.001  32.031  1.00  0.00     0.037 A 
ATOM     42  C   UNL A   1      38.462  32.318  30.608  1.00  0.00     0.037 A 
ATOM     43  C   UNL A   1      44.313  30.281  32.668  1.00  0.00     0.049 A 
ATOM     44  C   UNL A   1      39.484  32.899  31.548  1.00  0.00     0.074 A 
ATOM     45  C   UNL A   1      45.198  30.941  33.504  1.00  0.00     0.029 A 
ATOM     46  N   UNL A   1      43.199  31.098  32.541  1.00  0.00    -0.354 N 
ATOM     47  N   UNL A   1      40.652  32.415  31.897  1.00  0.00    -0.248 NA
ATOM     48  C   UNL A   1      39.155  34.186  32.178  1.00  0.00     0.031 C 
ATOM     49  C   UNL A   1      44.600  32.137  33.914  1.00  0.00     0.029 A 
ATOM     50  C   UNL A   1      43.367  32.249  33.292  1.00  0.00     0.049 A 
ATOM     51  H   UNL A   1      42.405  30.890  31.995  1.00  0.00     0.167 HD
ATOM     52  C   UNL A   1      41.214  33.356  32.754  1.00  0.00     0.074 A 
ATOM     53  C   UNL A   1      40.258  34.436  32.872  1.00  0.00     0.031 C 
ATOM     54  C   UNL A   1      42.417  33.328  33.379  1.00  0.00     0.037 A 
BRANCH  41  55
ATOM     55  C   UNL A   1      45.720  28.212  32.314  1.00  0.00     0.058 A 
ATOM     56  C   UNL A   1      46.882  28.363  31.540  1.00  0.00     0.135 A 
ATOM     57  C   UNL A   1      45.767  27.315  33.395  1.00  0.00     0.135 A 
ATOM     58  F   UNL A   1      46.889  29.193  30.486  1.00  0.00    -0.206 F 
ATOM     59  C   UNL A   1      48.035  27.632  31.807  1.00  0.00     0.059 A 
ATOM     60  C   UNL A   1      46.920  26.597  33.700  1.00  0.00     0.059 A 
ATOM     61  F   UNL A   1      44.687  27.132  34.170  1.00  0.00    -0.206 F 
ATOM     62  C   UNL A   1      48.044  26.750  32.890  1.00  0.00     0.060 A 
BRANCH  62  63
ATOM     63  S   UNL A   1      49.549  25.813  33.224  1.00  0.00     0.124 S 
ATOM     64  O   UNL A   1      49.020  24.662  33.949  1.00  0.00    -0.237 OA
ATOM     65  O   UNL A   1      50.052  25.539  31.881  1.00  0.00    -0.237 OA
ATOM     66  O   UNL A   1      50.357  26.735  34.016  1.00  0.00    -0.744 OA
ENDBRANCH  62  63
ENDBRANCH  41  55
BRANCH  42  67
ATOM     67  C   UNL A   1      37.174  33.019  30.353  1.00  0.00     0.058 A 
ATOM     68  C   UNL A   1      36.108  32.918  31.259  1.00  0.00     0.135 A 
ATOM     69  C   UNL A   1      36.987  33.812  29.210  1.00  0.00     0.135 A 
ATOM     70  F   UNL A   1      36.235  32.167  32.363  1.00  0.00    -0.206 F 
ATOM     71  C   UNL A   1      34.896  33.564  31.034  1.00  0.00     0.059 A 
ATOM     72  C   UNL A   1      35.794  34.489  28.976  1.00  0.00     0.059 A 
ATOM     73  F   UNL A   1      37.982  33.956  28.320  1.00  0.00    -0.206 F 
ATOM     74  C   UNL A   1      34.750  34.349  29.889  1.00  0.00     0.060 A 
BRANCH  74  75
ATOM     75  S   UNL A   1      33.190  35.221  29.631  1.00  0.00     0.124 S 
ATOM     76  O   UNL A   1      33.654  36.538  29.215  1.00  0.00    -0.237 OA
ATOM     77  O   UNL A   1      32.555  34.411  28.595  1.00  0.00    -0.237 OA
ATOM     78  O   UNL A   1      32.550  35.160  30.942  1.00  0.00    -0.744 OA
ENDBRANCH  74  75
ENDBRANCH  42  67
BRANCH  54  79
ATOM     79  C   UNL A   1      42.805  34.525  34.202  1.00  0.00     0.058 A 
ATOM     80  C   UNL A   1      42.520  34.609  35.574  1.00  0.00     0.135 A 
ATOM     81  C   UNL A   1      43.548  35.567  33.622  1.00  0.00     0.135 A 
ATOM     82  F   UNL A   1      41.807  33.644  36.176  1.00  0.00    -0.206 F 
ATOM     83  C   UNL A   1      42.949  35.689  36.339  1.00  0.00     0.059 A 
ATOM     84  C   UNL A   1      44.011  36.642  34.373  1.00  0.00     0.059 A 
ATOM     85  F   UNL A   1      43.856  35.530  32.315  1.00  0.00    -0.206 F 
ATOM     86  C   UNL A   1      43.701  36.698  35.731  1.00  0.00     0.060 A 
BRANCH  86  87
ATOM     87  S   UNL A   1      44.300  38.064  36.747  1.00  0.00     0.124 S 
ATOM     88  O   UNL A   1      45.694  37.689  36.953  1.00  0.00    -0.237 OA
ATOM     89  O   UNL A   1      44.075  39.218  35.880  1.00  0.00    -0.237 OA
ATOM     90  O   UNL A   1      43.451  38.005  37.933  1.00  0.00    -0.744 OA
ENDBRANCH  86  87
ENDBRANCH  54  79
ENDBRANCH  28  29
ENDBRANCH  20  23
ENDBRANCH  18  19
ENDBRANCH   1  18
TORSDOF 16
ENDMDL
MODEL 3
REMARK VINA RESULT:      -9.7      2.994      9.313
REMARK SMILES CC[C@@](C)(Nc1nccs1)C(=O)NCCCNC(=O)c1ccc(-c2c3nc(c(-c4c(F)cc(S(=O)(=O)[O-])cc4F)c4ccc([nH]4)c(-c4c(F)cc(S(=O)(=O)[O-])cc4F)c4nc(c(-c5c(F)cc(S(=O)(=O)[O-])cc5F)c5ccc2[nH]5)C=C4)C=C3)cc1
REMARK SMILES IDX 15 1 14 2 13 3 11 4 12 5 3 7 4 8 2 9 1 10 5 11 6 13 7 14
REMARK SMILES IDX 10 15 8 16 9 17 16 18 17 19 18 20 19 22 20 23 21 24 85 25
REMARK SMILES IDX 22 26 84 27 23 28 24 29 25 30 78 31 26 32 83 33 77 34 79 35
REMARK SMILES IDX 27 36 82 37 76 38 75 39 28 41 62 42 41 43 61 44 42 45 45 46
REMARK SMILES IDX 60 47 80 48 43 49 44 50 59 52 81 53 46 54 29 55 30 56 39 57
REMARK SMILES IDX 31 58 32 59 38 60 40 61 33 62 34 63 35 64 36 65 37 66 63 67
REMARK SMILES IDX 64 68 73 69 65 70 66 71 72 72 74 73 67 74 68 75 69 76 70 77
REMARK SMILES IDX 71 78 47 79 48 80 57 81 49 82 50 83 56 84 58 85 51 86 52 87
REMARK SMILES IDX 53 88 54 89 55 90
REMARK H PARENT 13 6 5 12 17 21 79 40 45 51
REMARK Flexibility Score: inf
ROOT
ATOM      1  C   UNL A   1      36.009  23.467  23.960  1.00  0.00     0.042 C 
ENDROOT
BRANCH   1   2
ATOM      2  C   UNL A   1      34.534  23.776  24.179  1.00  0.00     0.117 C 
BRANCH   2   3
ATOM      3  N   UNL A   1      33.631  23.066  23.292  1.00  0.00    -0.354 N 
ATOM      4  C   UNL A   1      32.969  21.878  23.407  1.00  0.00     0.245 C 
ATOM      5  O   UNL A   1      32.284  21.560  22.426  1.00  0.00    -0.272 OA
ATOM      6  H   UNL A   1      33.465  23.532  22.442  1.00  0.00     0.163 HD
BRANCH   4   7
ATOM      7  C   UNL A   1      32.993  21.015  24.714  1.00  0.00     0.115 C 
ATOM      8  C   UNL A   1      34.439  20.563  25.011  1.00  0.00     0.045 C 
BRANCH   7   9
ATOM      9  C   UNL A   1      32.483  21.850  25.933  1.00  0.00     0.035 C 
ATOM     10  C   UNL A   1      31.089  22.468  25.789  1.00  0.00     0.007 C 
ENDBRANCH   7   9
BRANCH   7  11
ATOM     11  N   UNL A   1      32.153  19.805  24.644  1.00  0.00    -0.347 N 
ATOM     12  H   UNL A   1      31.192  19.902  24.835  1.00  0.00     0.164 HD
BRANCH  11  13
ATOM     13  C   UNL A   1      32.611  18.571  24.336  1.00  0.00     0.183 A 
ATOM     14  N   UNL A   1      33.026  18.165  23.160  1.00  0.00    -0.229 NA
ATOM     15  S   UNL A   1      32.758  17.388  25.589  1.00  0.00    -0.106 S 
ATOM     16  C   UNL A   1      33.556  16.891  23.243  1.00  0.00     0.125 A 
ATOM     17  C   UNL A   1      33.504  16.309  24.488  1.00  0.00     0.088 A 
ENDBRANCH  11  13
ENDBRANCH   7  11
ENDBRANCH   4   7
ENDBRANCH   2   3
ENDBRANCH   1   2
BRANCH   1  18
ATOM     18  C   UNL A   1      36.925  23.847  25.113  1.00  0.00     0.118 C 
BRANCH  18  19
ATOM     19  N   UNL A   1      37.923  22.821  25.379  1.00  0.00    -0.352 N 
ATOM     20  C   UNL A   1      39.137  22.940  26.015  1.00  0.00     0.251 C 
ATOM     21  H   UNL A   1      37.697  21.917  25.061  1.00  0.00     0.163 HD
ATOM     22  O   UNL A   1      39.959  22.032  25.944  1.00  0.00    -0.269 OA
BRANCH  20  23
ATOM     23  C   UNL A   1      39.452  24.174  26.768  1.00  0.00     0.039 A 
ATOM     24  C   UNL A   1      38.915  24.355  28.046  1.00  0.00     0.014 A 
ATOM     25  C   UNL A   1      40.273  25.156  26.207  1.00  0.00     0.014 A 
ATOM     26  C   UNL A   1      39.256  25.491  28.787  1.00  0.00     0.010 A 
ATOM     27  C   UNL A   1      40.670  26.247  26.973  1.00  0.00     0.010 A 
ATOM     28  C   UNL A   1      40.161  26.432  28.269  1.00  0.00    -0.014 A 
BRANCH  28  29
ATOM     29  C   UNL A   1      40.577  27.634  29.038  1.00  0.00     0.031 A 
ATOM     30  C   UNL A   1      41.881  27.619  29.791  1.00  0.00     0.074 A 
ATOM     31  C   UNL A   1      39.751  28.695  29.136  1.00  0.00     0.049 A 
ATOM     32  N   UNL A   1      42.356  28.493  30.640  1.00  0.00    -0.248 NA
ATOM     33  C   UNL A   1      42.750  26.450  29.583  1.00  0.00     0.031 C 
ATOM     34  C   UNL A   1      38.449  28.820  28.477  1.00  0.00     0.029 A 
ATOM     35  N   UNL A   1      39.876  29.863  29.846  1.00  0.00    -0.354 N 
ATOM     36  C   UNL A   1      43.564  27.969  31.086  1.00  0.00     0.074 A 
ATOM     37  C   UNL A   1      43.726  26.680  30.449  1.00  0.00     0.031 C 
ATOM     38  C   UNL A   1      37.901  30.001  28.808  1.00  0.00     0.029 A 
ATOM     39  C   UNL A   1      38.787  30.697  29.736  1.00  0.00     0.049 A 
ATOM     40  H   UNL A   1      40.671  30.084  30.384  1.00  0.00     0.167 HD
ATOM     41  C   UNL A   1      44.465  28.519  31.934  1.00  0.00     0.037 A 
ATOM     42  C   UNL A   1      38.524  31.878  30.331  1.00  0.00     0.037 A 
ATOM     43  C   UNL A   1      44.311  29.816  32.539  1.00  0.00     0.049 A 
ATOM     44  C   UNL A   1      39.537  32.468  31.275  1.00  0.00     0.074 A 
ATOM     45  C   UNL A   1      45.191  30.483  33.375  1.00  0.00     0.029 A 
ATOM     46  N   UNL A   1      43.211  30.644  32.374  1.00  0.00    -0.354 N 
ATOM     47  N   UNL A   1      40.693  31.977  31.655  1.00  0.00    -0.248 NA
ATOM     48  C   UNL A   1      39.215  33.774  31.869  1.00  0.00     0.031 C 
ATOM     49  C   UNL A   1      44.602  31.696  33.748  1.00  0.00     0.029 A 
ATOM     50  C   UNL A   1      43.381  31.809  33.101  1.00  0.00     0.049 A 
ATOM     51  H   UNL A   1      42.424  30.433  31.819  1.00  0.00     0.167 HD
ATOM     52  C   UNL A   1      41.253  32.931  32.500  1.00  0.00     0.074 A 
ATOM     53  C   UNL A   1      40.309  34.026  32.577  1.00  0.00     0.031 C 
ATOM     54  C   UNL A   1      42.444  32.902  33.147  1.00  0.00     0.037 A 
BRANCH  41  55
ATOM     55  C   UNL A   1      45.698  27.721  32.257  1.00  0.00     0.058 A 
ATOM     56  C   UNL A   1      45.737  26.825  33.338  1.00  0.00     0.135 A 
ATOM     57  C   UNL A   1      46.847  27.828  31.456  1.00  0.00     0.135 A 
ATOM     58  F   UNL A   1      44.673  26.694  34.146  1.00  0.00    -0.206 F 
ATOM     59  C   UNL A   1      46.879  26.088  33.632  1.00  0.00     0.059 A 
ATOM     60  C   UNL A   1      47.990  27.076  31.713  1.00  0.00     0.059 A 
ATOM     61  F   UNL A   1      46.866  28.668  30.409  1.00  0.00    -0.206 F 
ATOM     62  C   UNL A   1      48.001  26.221  32.813  1.00  0.00     0.060 A 
BRANCH  62  63
ATOM     63  S   UNL A   1      49.474  25.254  33.206  1.00  0.00     0.124 S 
ATOM     64  O   UNL A   1      48.904  24.160  33.986  1.00  0.00    -0.237 OA
ATOM     65  O   UNL A   1      49.974  24.895  31.883  1.00  0.00    -0.237 OA
ATOM     66  O   UNL A   1      50.307  26.191  33.955  1.00  0.00    -0.744 OA
ENDBRANCH  62  63
ENDBRANCH  41  55
BRANCH  42  67
ATOM     67  C   UNL A   1      37.251  32.590  30.038  1.00  0.00     0.058 A 
ATOM     68  C   UNL A   1      37.196  33.595  29.060  1.00  0.00     0.135 A 
ATOM     69  C   UNL A   1      36.064  32.275  30.718  1.00  0.00     0.135 A 
ATOM     70  F   UNL A   1      38.305  33.937  28.387  1.00  0.00    -0.206 F 
ATOM     71  C   UNL A   1      36.014  34.274  28.777  1.00  0.00     0.059 A 
ATOM     72  C   UNL A   1      34.864  32.922  30.435  1.00  0.00     0.059 A 
ATOM     73  F   UNL A   1      36.058  31.310  31.651  1.00  0.00    -0.206 F 
ATOM     74  C   UNL A   1      34.853  33.928  29.469  1.00  0.00     0.060 A 
BRANCH  74  75
ATOM     75  S   UNL A   1      33.315  34.782  29.062  1.00  0.00     0.124 S 
ATOM     76  O   UNL A   1      32.749  33.902  28.047  1.00  0.00    -0.237 OA
ATOM     77  O   UNL A   1      32.625  34.801  30.348  1.00  0.00    -0.237 OA
ATOM     78  O   UNL A   1      33.771  36.085  28.585  1.00  0.00    -0.744 OA
ENDBRANCH  74  75
ENDBRANCH  42  67
BRANCH  54  79
ATOM     79  C   UNL A   1      42.834  34.113  33.949  1.00  0.00     0.058 A 
ATOM     80  C   UNL A   1      42.695  34.157  35.345  1.00  0.00     0.135 A 
ATOM     81  C   UNL A   1      43.433  35.214  33.315  1.00  0.00     0.135 A 
ATOM     82  F   UNL A   1      42.122  33.134  35.999  1.00  0.00    -0.206 F 
ATOM     83  C   UNL A   1      43.127  35.255  36.082  1.00  0.00     0.059 A 
ATOM     84  C   UNL A   1      43.897  36.310  34.035  1.00  0.00     0.059 A 
ATOM     85  F   UNL A   1      43.598  35.218  31.982  1.00  0.00    -0.206 F 
ATOM     86  C   UNL A   1      43.734  36.324  35.419  1.00  0.00     0.060 A 
BRANCH  86  87
ATOM     87  S   UNL A   1      44.342  37.716  36.393  1.00  0.00     0.124 S 
ATOM     88  O   UNL A   1      43.303  37.842  37.409  1.00  0.00    -0.237 OA
ATOM     89  O   UNL A   1      45.634  37.225  36.865  1.00  0.00    -0.237 OA
ATOM     90  O   UNL A   1      44.409  38.806  35.424  1.00  0.00    -0.744 OA
ENDBRANCH  86  87
ENDBRANCH  54  79
ENDBRANCH  28  29
ENDBRANCH  20  23
ENDBRANCH  18  19
ENDBRANCH   1  18
TORSDOF 16
ENDMDL
