MODEL 1
REMARK VINA RESULT:     -11.7      0.000      0.000
REMARK SMILES O=C(C[N@@H+]1CCO[C@@H](CCc2ccccc2)C1)NCCCNC(=O)c1ccc(-c2c3nc(c(-c4c(F)cc(S(=O)(=O)[O-])cc4F)c4ccc([nH]4)c(-c4c(F)cc(S(=O)(=O)[O-])cc4F)c4nc(c(-c5c(F)cc(S(=O)(=O)[O-])cc5F)c5ccc2[nH]5)C=C4)C=C3)cc1
REMARK SMILES IDX 19 1 18 2 1 3 2 4 3 6 4 7 5 8 17 9 6 11 8 12 7 13 9 14 10 15
REMARK SMILES IDX 11 16 12 17 16 18 13 19 15 20 14 21 20 22 21 23 22 24 23 25
REMARK SMILES IDX 24 27 25 28 26 29 90 30 27 31 89 32 28 33 29 34 30 35 83 36
REMARK SMILES IDX 31 37 88 38 82 39 84 40 32 41 87 42 81 43 80 44 33 46 67 47
REMARK SMILES IDX 46 48 66 49 47 50 50 51 65 52 85 53 48 54 49 55 64 57 86 58
REMARK SMILES IDX 51 59 34 60 35 61 44 62 36 63 37 64 43 65 45 66 38 67 39 68
REMARK SMILES IDX 40 69 41 70 42 71 68 72 69 73 78 74 70 75 71 76 77 77 79 78
REMARK SMILES IDX 72 79 73 80 74 81 75 82 76 83 52 84 53 85 62 86 54 87 55 88
REMARK SMILES IDX 61 89 63 90 56 91 57 92 58 93 59 94 60 95
REMARK H PARENT 18 5 4 10 22 26 84 45 50 56
REMARK Flexibility Score: inf
ROOT
ATOM      1  C   UNL A   1      40.001  20.857  26.208  1.00  0.00     0.118 C 
ENDROOT
BRANCH   1   2
ATOM      2  N   UNL A   1      38.691  21.377  25.883  1.00  0.00    -0.351 N 
ATOM      3  O   UNL A   1      37.997  19.539  24.692  1.00  0.00    -0.269 OA
ATOM      4  C   UNL A   1      37.773  20.654  25.158  1.00  0.00     0.275 C 
ATOM      5  H   UNL A   1      38.448  22.279  26.192  1.00  0.00     0.163 HD
BRANCH   4   6
ATOM      6  C   UNL A   1      36.440  21.367  24.928  1.00  0.00     0.363 C 
BRANCH   6   7
ATOM      7  N   UNL A   1      35.325  20.792  25.728  1.00  0.00    -0.323 N 
ATOM      8  C   UNL A   1      34.254  20.199  24.889  1.00  0.00     0.291 C 
ATOM      9  C   UNL A   1      34.699  21.866  26.546  1.00  0.00     0.295 C 
ATOM     10  H   UNL A   1      35.733  20.053  26.301  1.00  0.00     0.348 HD
ATOM     11  C   UNL A   1      33.405  21.219  24.113  1.00  0.00     0.222 C 
ATOM     12  C   UNL A   1      33.888  22.892  25.709  1.00  0.00     0.173 C 
ATOM     13  O   UNL A   1      32.843  22.205  24.992  1.00  0.00    -0.366 OA
BRANCH  12  14
ATOM     14  C   UNL A   1      33.228  23.989  26.554  1.00  0.00     0.043 C 
BRANCH  14  15
ATOM     15  C   UNL A   1      32.400  25.007  25.761  1.00  0.00     0.038 C 
BRANCH  15  16
ATOM     16  C   UNL A   1      32.573  26.434  26.225  1.00  0.00    -0.048 A 
ATOM     17  C   UNL A   1      33.809  27.081  26.089  1.00  0.00     0.004 A 
ATOM     18  C   UNL A   1      31.495  27.143  26.773  1.00  0.00     0.004 A 
ATOM     19  C   UNL A   1      33.959  28.414  26.473  1.00  0.00     0.000 A 
ATOM     20  C   UNL A   1      31.650  28.473  27.166  1.00  0.00     0.000 A 
ATOM     21  C   UNL A   1      32.881  29.110  27.012  1.00  0.00     0.000 A 
ENDBRANCH  15  16
ENDBRANCH  14  15
ENDBRANCH  12  14
ENDBRANCH   6   7
ENDBRANCH   4   6
ENDBRANCH   1   2
BRANCH   1  22
ATOM     22  C   UNL A   1      40.723  21.698  27.256  1.00  0.00     0.042 C 
BRANCH  22  23
ATOM     23  C   UNL A   1      40.348  23.177  27.243  1.00  0.00     0.118 C 
BRANCH  23  24
ATOM     24  N   UNL A   1      41.057  23.931  26.219  1.00  0.00    -0.352 N 
ATOM     25  C   UNL A   1      41.358  25.265  26.137  1.00  0.00     0.251 C 
ATOM     26  H   UNL A   1      41.372  23.394  25.458  1.00  0.00     0.163 HD
ATOM     27  O   UNL A   1      41.824  25.702  25.082  1.00  0.00    -0.269 OA
BRANCH  25  28
ATOM     28  C   UNL A   1      41.128  26.188  27.272  1.00  0.00     0.039 A 
ATOM     29  C   UNL A   1      41.995  27.273  27.436  1.00  0.00     0.014 A 
ATOM     30  C   UNL A   1      40.121  25.963  28.215  1.00  0.00     0.014 A 
ATOM     31  C   UNL A   1      41.832  28.147  28.514  1.00  0.00     0.010 A 
ATOM     32  C   UNL A   1      39.911  26.877  29.249  1.00  0.00     0.010 A 
ATOM     33  C   UNL A   1      40.776  27.968  29.421  1.00  0.00    -0.014 A 
BRANCH  33  34
ATOM     34  C   UNL A   1      40.593  28.890  30.573  1.00  0.00     0.031 A 
ATOM     35  C   UNL A   1      41.450  28.747  31.804  1.00  0.00     0.074 A 
ATOM     36  C   UNL A   1      39.633  29.835  30.529  1.00  0.00     0.049 A 
ATOM     37  N   UNL A   1      41.418  29.432  32.918  1.00  0.00    -0.248 NA
ATOM     38  C   UNL A   1      42.459  27.675  31.789  1.00  0.00     0.031 C 
ATOM     39  C   UNL A   1      38.705  30.047  29.415  1.00  0.00     0.029 A 
ATOM     40  N   UNL A   1      39.275  30.792  31.445  1.00  0.00    -0.354 N 
ATOM     41  C   UNL A   1      42.387  28.867  33.740  1.00  0.00     0.074 A 
ATOM     42  C   UNL A   1      42.954  27.750  33.016  1.00  0.00     0.031 C 
ATOM     43  C   UNL A   1      37.901  31.085  29.704  1.00  0.00     0.029 A 
ATOM     44  C   UNL A   1      38.236  31.592  31.031  1.00  0.00     0.049 A 
ATOM     45  H   UNL A   1      39.720  30.896  32.317  1.00  0.00     0.167 HD
ATOM     46  C   UNL A   1      42.787  29.257  34.975  1.00  0.00     0.037 A 
ATOM     47  C   UNL A   1      37.624  32.622  31.650  1.00  0.00     0.037 A 
ATOM     48  C   UNL A   1      42.246  30.390  35.679  1.00  0.00     0.049 A 
ATOM     49  C   UNL A   1      38.105  33.055  33.008  1.00  0.00     0.074 A 
ATOM     50  C   UNL A   1      42.618  30.896  36.912  1.00  0.00     0.029 A 
ATOM     51  N   UNL A   1      41.222  31.199  35.209  1.00  0.00    -0.354 N 
ATOM     52  N   UNL A   1      39.059  32.541  33.747  1.00  0.00    -0.248 NA
ATOM     53  C   UNL A   1      37.437  34.217  33.610  1.00  0.00     0.031 C 
ATOM     54  C   UNL A   1      41.798  31.992  37.202  1.00  0.00     0.029 A 
ATOM     55  C   UNL A   1      40.944  32.195  36.130  1.00  0.00     0.049 A 
ATOM     56  H   UNL A   1      40.760  31.081  34.347  1.00  0.00     0.167 HD
ATOM     57  C   UNL A   1      39.129  33.338  34.885  1.00  0.00     0.074 A 
ATOM     58  C   UNL A   1      38.124  34.371  34.734  1.00  0.00     0.031 C 
ATOM     59  C   UNL A   1      39.951  33.226  35.957  1.00  0.00     0.037 A 
BRANCH  46  60
ATOM     60  C   UNL A   1      43.871  28.453  35.639  1.00  0.00     0.058 A 
ATOM     61  C   UNL A   1      45.230  28.752  35.449  1.00  0.00     0.135 A 
ATOM     62  C   UNL A   1      43.550  27.388  36.496  1.00  0.00     0.135 A 
ATOM     63  F   UNL A   1      45.595  29.750  34.629  1.00  0.00    -0.206 F 
ATOM     64  C   UNL A   1      46.233  28.002  36.055  1.00  0.00     0.059 A 
ATOM     65  C   UNL A   1      44.536  26.642  37.136  1.00  0.00     0.059 A 
ATOM     66  F   UNL A   1      42.267  27.060  36.715  1.00  0.00    -0.206 F 
ATOM     67  C   UNL A   1      45.876  26.945  36.894  1.00  0.00     0.060 A 
BRANCH  67  68
ATOM     68  S   UNL A   1      47.186  25.976  37.670  1.00  0.00     0.124 S 
ATOM     69  O   UNL A   1      48.216  26.002  36.636  1.00  0.00    -0.237 OA
ATOM     70  O   UNL A   1      47.479  26.751  38.874  1.00  0.00    -0.237 OA
ATOM     71  O   UNL A   1      46.559  24.680  37.901  1.00  0.00    -0.744 OA
ENDBRANCH  67  68
ENDBRANCH  46  60
BRANCH  47  72
ATOM     72  C   UNL A   1      36.514  33.340  30.971  1.00  0.00     0.058 A 
ATOM     73  C   UNL A   1      35.192  33.214  31.423  1.00  0.00     0.135 A 
ATOM     74  C   UNL A   1      36.752  34.173  29.866  1.00  0.00     0.135 A 
ATOM     75  F   UNL A   1      34.915  32.425  32.471  1.00  0.00    -0.206 F 
ATOM     76  C   UNL A   1      34.141  33.873  30.794  1.00  0.00     0.059 A 
ATOM     77  C   UNL A   1      35.719  34.862  29.236  1.00  0.00     0.059 A 
ATOM     78  F   UNL A   1      38.001  34.341  29.407  1.00  0.00    -0.206 F 
ATOM     79  C   UNL A   1      34.415  34.696  29.701  1.00  0.00     0.060 A 
BRANCH  79  80
ATOM     80  S   UNL A   1      33.050  35.583  28.918  1.00  0.00     0.124 S 
ATOM     81  O   UNL A   1      33.763  36.603  28.156  1.00  0.00    -0.237 OA
ATOM     82  O   UNL A   1      32.410  34.532  28.134  1.00  0.00    -0.237 OA
ATOM     83  O   UNL A   1      32.273  36.070  30.053  1.00  0.00    -0.744 OA
ENDBRANCH  79  80
ENDBRANCH  47  72
BRANCH  59  84
ATOM     84  C   UNL A   1      39.836  34.274  37.029  1.00  0.00     0.058 A 
ATOM     85  C   UNL A   1      40.482  35.516  36.923  1.00  0.00     0.135 A 
ATOM     86  C   UNL A   1      39.035  34.045  38.159  1.00  0.00     0.135 A 
ATOM     87  F   UNL A   1      41.262  35.783  35.864  1.00  0.00    -0.206 F 
ATOM     88  C   UNL A   1      40.361  36.484  37.916  1.00  0.00     0.059 A 
ATOM     89  C   UNL A   1      38.880  35.008  39.151  1.00  0.00     0.059 A 
ATOM     90  F   UNL A   1      38.386  32.878  38.303  1.00  0.00    -0.206 F 
ATOM     91  C   UNL A   1      39.558  36.219  39.028  1.00  0.00     0.060 A 
BRANCH  91  92
ATOM     92  S   UNL A   1      39.391  37.489  40.300  1.00  0.00     0.124 S 
ATOM     93  O   UNL A   1      38.585  38.490  39.610  1.00  0.00    -0.237 OA
ATOM     94  O   UNL A   1      38.721  36.770  41.379  1.00  0.00    -0.237 OA
ATOM     95  O   UNL A   1      40.773  37.875  40.576  1.00  0.00    -0.744 OA
ENDBRANCH  91  92
ENDBRANCH  59  84
ENDBRANCH  33  34
ENDBRANCH  25  28
ENDBRANCH  23  24
ENDBRANCH  22  23
ENDBRANCH   1  22
TORSDOF 17
ENDMDL
MODEL 2
REMARK VINA RESULT:     -11.7      1.697      3.287
REMARK SMILES O=C(C[N@@H+]1CCO[C@@H](CCc2ccccc2)C1)NCCCNC(=O)c1ccc(-c2c3nc(c(-c4c(F)cc(S(=O)(=O)[O-])cc4F)c4ccc([nH]4)c(-c4c(F)cc(S(=O)(=O)[O-])cc4F)c4nc(c(-c5c(F)cc(S(=O)(=O)[O-])cc5F)c5ccc2[nH]5)C=C4)C=C3)cc1
REMARK SMILES IDX 19 1 18 2 1 3 2 4 3 6 4 7 5 8 17 9 6 11 8 12 7 13 9 14 10 15
REMARK SMILES IDX 11 16 12 17 16 18 13 19 15 20 14 21 20 22 21 23 22 24 23 25
REMARK SMILES IDX 24 27 25 28 26 29 90 30 27 31 89 32 28 33 29 34 30 35 83 36
REMARK SMILES IDX 31 37 88 38 82 39 84 40 32 41 87 42 81 43 80 44 33 46 67 47
REMARK SMILES IDX 46 48 66 49 47 50 50 51 65 52 85 53 48 54 49 55 64 57 86 58
REMARK SMILES IDX 51 59 34 60 35 61 44 62 36 63 37 64 43 65 45 66 38 67 39 68
REMARK SMILES IDX 40 69 41 70 42 71 68 72 69 73 78 74 70 75 71 76 77 77 79 78
REMARK SMILES IDX 72 79 73 80 74 81 75 82 76 83 52 84 53 85 62 86 54 87 55 88
REMARK SMILES IDX 61 89 63 90 56 91 57 92 58 93 59 94 60 95
REMARK H PARENT 18 5 4 10 22 26 84 45 50 56
REMARK Flexibility Score: inf
ROOT
ATOM      1  C   UNL A   1      40.819  21.522  27.878  1.00  0.00     0.118 C 
ENDROOT
BRANCH   1   2
ATOM      2  N   UNL A   1      39.749  22.202  27.182  1.00  0.00    -0.351 N 
ATOM      3  O   UNL A   1      39.386  20.549  25.631  1.00  0.00    -0.269 OA
ATOM      4  C   UNL A   1      39.095  21.641  26.111  1.00  0.00     0.275 C 
ATOM      5  H   UNL A   1      39.479  23.099  27.487  1.00  0.00     0.163 HD
BRANCH   4   6
ATOM      6  C   UNL A   1      37.984  22.509  25.518  1.00  0.00     0.363 C 
BRANCH   6   7
ATOM      7  N   UNL A   1      37.329  21.891  24.334  1.00  0.00    -0.323 N 
ATOM      8  C   UNL A   1      36.711  22.887  23.425  1.00  0.00     0.291 C 
ATOM      9  C   UNL A   1      36.245  20.978  24.790  1.00  0.00     0.295 C 
ATOM     10  H   UNL A   1      38.063  21.398  23.824  1.00  0.00     0.348 HD
ATOM     11  C   UNL A   1      35.453  23.573  23.982  1.00  0.00     0.222 C 
ATOM     12  C   UNL A   1      35.017  21.721  25.382  1.00  0.00     0.173 C 
ATOM     13  O   UNL A   1      34.469  22.609  24.386  1.00  0.00    -0.366 OA
BRANCH  12  14
ATOM     14  C   UNL A   1      33.892  20.782  25.836  1.00  0.00     0.043 C 
BRANCH  14  15
ATOM     15  C   UNL A   1      33.249  19.954  24.716  1.00  0.00     0.038 C 
BRANCH  15  16
ATOM     16  C   UNL A   1      33.437  18.464  24.868  1.00  0.00    -0.048 A 
ATOM     17  C   UNL A   1      34.572  17.833  24.338  1.00  0.00     0.004 A 
ATOM     18  C   UNL A   1      32.498  17.691  25.564  1.00  0.00     0.004 A 
ATOM     19  C   UNL A   1      34.772  16.464  24.516  1.00  0.00     0.000 A 
ATOM     20  C   UNL A   1      32.695  16.320  25.733  1.00  0.00     0.000 A 
ATOM     21  C   UNL A   1      33.834  15.707  25.214  1.00  0.00     0.000 A 
ENDBRANCH  15  16
ENDBRANCH  14  15
ENDBRANCH  12  14
ENDBRANCH   6   7
ENDBRANCH   4   6
ENDBRANCH   1   2
BRANCH   1  22
ATOM     22  C   UNL A   1      42.198  21.906  27.354  1.00  0.00     0.042 C 
BRANCH  22  23
ATOM     23  C   UNL A   1      42.531  23.390  27.487  1.00  0.00     0.118 C 
BRANCH  23  24
ATOM     24  N   UNL A   1      42.199  24.152  26.291  1.00  0.00    -0.352 N 
ATOM     25  C   UNL A   1      41.665  25.405  26.148  1.00  0.00     0.251 C 
ATOM     26  H   UNL A   1      42.390  23.690  25.444  1.00  0.00     0.163 HD
ATOM     27  O   UNL A   1      41.316  25.774  25.024  1.00  0.00    -0.269 OA
BRANCH  25  28
ATOM     28  C   UNL A   1      41.489  26.315  27.303  1.00  0.00     0.039 A 
ATOM     29  C   UNL A   1      40.447  26.059  28.201  1.00  0.00     0.014 A 
ATOM     30  C   UNL A   1      42.286  27.450  27.479  1.00  0.00     0.014 A 
ATOM     31  C   UNL A   1      40.228  26.913  29.284  1.00  0.00     0.010 A 
ATOM     32  C   UNL A   1      42.115  28.261  28.602  1.00  0.00     0.010 A 
ATOM     33  C   UNL A   1      41.072  28.012  29.506  1.00  0.00    -0.014 A 
BRANCH  33  34
ATOM     34  C   UNL A   1      40.848  28.929  30.655  1.00  0.00     0.031 A 
ATOM     35  C   UNL A   1      41.690  28.806  31.899  1.00  0.00     0.074 A 
ATOM     36  C   UNL A   1      39.867  29.851  30.596  1.00  0.00     0.049 A 
ATOM     37  N   UNL A   1      41.624  29.490  33.013  1.00  0.00    -0.248 NA
ATOM     38  C   UNL A   1      42.725  27.760  31.900  1.00  0.00     0.031 C 
ATOM     39  C   UNL A   1      38.951  30.041  29.469  1.00  0.00     0.029 A 
ATOM     40  N   UNL A   1      39.472  30.799  31.507  1.00  0.00    -0.354 N 
ATOM     41  C   UNL A   1      42.593  28.949  33.850  1.00  0.00     0.074 A 
ATOM     42  C   UNL A   1      43.198  27.846  33.134  1.00  0.00     0.031 C 
ATOM     43  C   UNL A   1      38.118  31.059  29.745  1.00  0.00     0.029 A 
ATOM     44  C   UNL A   1      38.420  31.574  31.077  1.00  0.00     0.049 A 
ATOM     45  H   UNL A   1      39.901  30.913  32.386  1.00  0.00     0.167 HD
ATOM     46  C   UNL A   1      42.966  29.348  35.090  1.00  0.00     0.037 A 
ATOM     47  C   UNL A   1      37.774  32.588  31.686  1.00  0.00     0.037 A 
ATOM     48  C   UNL A   1      42.386  30.467  35.786  1.00  0.00     0.049 A 
ATOM     49  C   UNL A   1      38.224  33.032  33.052  1.00  0.00     0.074 A 
ATOM     50  C   UNL A   1      42.727  30.982  37.025  1.00  0.00     0.029 A 
ATOM     51  N   UNL A   1      41.350  31.251  35.300  1.00  0.00    -0.354 N 
ATOM     52  N   UNL A   1      39.178  32.542  33.805  1.00  0.00    -0.248 NA
ATOM     53  C   UNL A   1      37.518  34.178  33.644  1.00  0.00     0.031 C 
ATOM     54  C   UNL A   1      41.876  32.057  37.302  1.00  0.00     0.029 A 
ATOM     55  C   UNL A   1      41.034  32.240  36.217  1.00  0.00     0.049 A 
ATOM     56  H   UNL A   1      40.904  31.123  34.431  1.00  0.00     0.167 HD
ATOM     57  C   UNL A   1      39.211  33.339  34.944  1.00  0.00     0.074 A 
ATOM     58  C   UNL A   1      38.184  34.348  34.777  1.00  0.00     0.031 C 
ATOM     59  C   UNL A   1      40.019  33.247  36.029  1.00  0.00     0.037 A 
BRANCH  46  60
ATOM     60  C   UNL A   1      44.058  28.570  35.771  1.00  0.00     0.058 A 
ATOM     61  C   UNL A   1      43.771  27.492  36.625  1.00  0.00     0.135 A 
ATOM     62  C   UNL A   1      45.408  28.889  35.552  1.00  0.00     0.135 A 
ATOM     63  F   UNL A   1      42.498  27.153  36.882  1.00  0.00    -0.206 F 
ATOM     64  C   UNL A   1      44.781  26.780  37.263  1.00  0.00     0.059 A 
ATOM     65  C   UNL A   1      46.436  28.172  36.158  1.00  0.00     0.059 A 
ATOM     66  F   UNL A   1      45.739  29.908  34.745  1.00  0.00    -0.206 F 
ATOM     67  C   UNL A   1      46.112  27.130  37.027  1.00  0.00     0.060 A 
BRANCH  67  68
ATOM     68  S   UNL A   1      47.413  26.202  37.867  1.00  0.00     0.124 S 
ATOM     69  O   UNL A   1      47.907  25.354  36.786  1.00  0.00    -0.237 OA
ATOM     70  O   UNL A   1      48.320  27.261  38.305  1.00  0.00    -0.237 OA
ATOM     71  O   UNL A   1      46.701  25.509  38.934  1.00  0.00    -0.744 OA
ENDBRANCH  67  68
ENDBRANCH  46  60
BRANCH  47  72
ATOM     72  C   UNL A   1      36.658  33.279  30.990  1.00  0.00     0.058 A 
ATOM     73  C   UNL A   1      35.327  33.077  31.386  1.00  0.00     0.135 A 
ATOM     74  C   UNL A   1      36.896  34.163  29.926  1.00  0.00     0.135 A 
ATOM     75  F   UNL A   1      35.048  32.237  32.394  1.00  0.00    -0.206 F 
ATOM     76  C   UNL A   1      34.270  33.709  30.740  1.00  0.00     0.059 A 
ATOM     77  C   UNL A   1      35.857  34.826  29.280  1.00  0.00     0.059 A 
ATOM     78  F   UNL A   1      38.153  34.404  29.522  1.00  0.00    -0.206 F 
ATOM     79  C   UNL A   1      34.546  34.584  29.688  1.00  0.00     0.060 A 
BRANCH  79  80
ATOM     80  S   UNL A   1      33.171  35.436  28.885  1.00  0.00     0.124 S 
ATOM     81  O   UNL A   1      32.543  34.347  28.145  1.00  0.00    -0.237 OA
ATOM     82  O   UNL A   1      32.419  35.949  30.026  1.00  0.00    -0.237 OA
ATOM     83  O   UNL A   1      33.834  36.451  28.074  1.00  0.00    -0.744 OA
ENDBRANCH  79  80
ENDBRANCH  47  72
BRANCH  59  84
ATOM     84  C   UNL A   1      39.863  34.291  37.098  1.00  0.00     0.058 A 
ATOM     85  C   UNL A   1      40.561  35.508  37.054  1.00  0.00     0.135 A 
ATOM     86  C   UNL A   1      38.970  34.085  38.163  1.00  0.00     0.135 A 
ATOM     87  F   UNL A   1      41.428  35.753  36.059  1.00  0.00    -0.206 F 
ATOM     88  C   UNL A   1      40.401  36.474  38.044  1.00  0.00     0.059 A 
ATOM     89  C   UNL A   1      38.776  35.047  39.149  1.00  0.00     0.059 A 
ATOM     90  F   UNL A   1      38.269  32.943  38.246  1.00  0.00    -0.206 F 
ATOM     91  C   UNL A   1      39.507  36.232  39.089  1.00  0.00     0.060 A 
BRANCH  91  92
ATOM     92  S   UNL A   1      39.291  37.499  40.356  1.00  0.00     0.124 S 
ATOM     93  O   UNL A   1      40.613  38.115  40.384  1.00  0.00    -0.237 OA
ATOM     94  O   UNL A   1      38.220  38.321  39.802  1.00  0.00    -0.237 OA
ATOM     95  O   UNL A   1      38.930  36.731  41.545  1.00  0.00    -0.744 OA
ENDBRANCH  91  92
ENDBRANCH  59  84
ENDBRANCH  33  34
ENDBRANCH  25  28
ENDBRANCH  23  24
ENDBRANCH  22  23
ENDBRANCH   1  22
TORSDOF 17
ENDMDL
MODEL 3
REMARK VINA RESULT:     -11.5      3.289      9.556
REMARK SMILES O=C(C[N@@H+]1CCO[C@@H](CCc2ccccc2)C1)NCCCNC(=O)c1ccc(-c2c3nc(c(-c4c(F)cc(S(=O)(=O)[O-])cc4F)c4ccc([nH]4)c(-c4c(F)cc(S(=O)(=O)[O-])cc4F)c4nc(c(-c5c(F)cc(S(=O)(=O)[O-])cc5F)c5ccc2[nH]5)C=C4)C=C3)cc1
REMARK SMILES IDX 19 1 18 2 1 3 2 4 3 6 4 7 5 8 17 9 6 11 8 12 7 13 9 14 10 15
REMARK SMILES IDX 11 16 12 17 16 18 13 19 15 20 14 21 20 22 21 23 22 24 23 25
REMARK SMILES IDX 24 27 25 28 26 29 90 30 27 31 89 32 28 33 29 34 30 35 83 36
REMARK SMILES IDX 31 37 88 38 82 39 84 40 32 41 87 42 81 43 80 44 33 46 67 47
REMARK SMILES IDX 46 48 66 49 47 50 50 51 65 52 85 53 48 54 49 55 64 57 86 58
REMARK SMILES IDX 51 59 34 60 35 61 44 62 36 63 37 64 43 65 45 66 38 67 39 68
REMARK SMILES IDX 40 69 41 70 42 71 68 72 69 73 78 74 70 75 71 76 77 77 79 78
REMARK SMILES IDX 72 79 73 80 74 81 75 82 76 83 52 84 53 85 62 86 54 87 55 88
REMARK SMILES IDX 61 89 63 90 56 91 57 92 58 93 59 94 60 95
REMARK H PARENT 18 5 4 10 22 26 84 45 50 56
REMARK Flexibility Score: inf
ROOT
ATOM      1  C   UNL A   1      31.946  27.160  25.573  1.00  0.00     0.118 C 
ENDROOT
BRANCH   1   2
ATOM      2  N   UNL A   1      31.715  25.766  25.265  1.00  0.00    -0.351 N 
ATOM      3  O   UNL A   1      30.780  26.132  23.200  1.00  0.00    -0.269 OA
ATOM      4  C   UNL A   1      31.162  25.358  24.074  1.00  0.00     0.275 C 
ATOM      5  H   UNL A   1      31.964  25.085  25.931  1.00  0.00     0.163 HD
BRANCH   4   6
ATOM      6  C   UNL A   1      31.010  23.843  23.929  1.00  0.00     0.363 C 
BRANCH   6   7
ATOM      7  N   UNL A   1      31.752  23.292  22.763  1.00  0.00    -0.323 N 
ATOM      8  C   UNL A   1      31.796  21.809  22.750  1.00  0.00     0.291 C 
ATOM      9  C   UNL A   1      33.160  23.773  22.801  1.00  0.00     0.295 C 
ATOM     10  H   UNL A   1      31.255  23.608  21.930  1.00  0.00     0.348 HD
ATOM     11  C   UNL A   1      32.685  21.181  23.836  1.00  0.00     0.222 C 
ATOM     12  C   UNL A   1      34.002  23.139  23.941  1.00  0.00     0.173 C 
ATOM     13  O   UNL A   1      34.020  21.706  23.784  1.00  0.00    -0.366 OA
BRANCH  12  14
ATOM     14  C   UNL A   1      35.458  23.622  23.970  1.00  0.00     0.043 C 
BRANCH  14  15
ATOM     15  C   UNL A   1      35.978  24.029  25.354  1.00  0.00     0.038 C 
BRANCH  15  16
ATOM     16  C   UNL A   1      37.286  23.378  25.734  1.00  0.00    -0.048 A 
ATOM     17  C   UNL A   1      38.235  24.078  26.494  1.00  0.00     0.004 A 
ATOM     18  C   UNL A   1      37.562  22.056  25.361  1.00  0.00     0.004 A 
ATOM     19  C   UNL A   1      39.424  23.465  26.886  1.00  0.00     0.000 A 
ATOM     20  C   UNL A   1      38.758  21.447  25.747  1.00  0.00     0.000 A 
ATOM     21  C   UNL A   1      39.686  22.149  26.513  1.00  0.00     0.000 A 
ENDBRANCH  15  16
ENDBRANCH  14  15
ENDBRANCH  12  14
ENDBRANCH   6   7
ENDBRANCH   4   6
ENDBRANCH   1   2
BRANCH   1  22
ATOM     22  C   UNL A   1      33.279  27.394  26.274  1.00  0.00     0.042 C 
BRANCH  22  23
ATOM     23  C   UNL A   1      34.106  28.535  25.688  1.00  0.00     0.118 C 
BRANCH  23  24
ATOM     24  N   UNL A   1      33.728  29.838  26.218  1.00  0.00    -0.352 N 
ATOM     25  C   UNL A   1      34.264  30.580  27.237  1.00  0.00     0.251 C 
ATOM     26  H   UNL A   1      32.957  30.255  25.771  1.00  0.00     0.163 HD
ATOM     27  O   UNL A   1      33.661  31.587  27.615  1.00  0.00    -0.269 OA
BRANCH  25  28
ATOM     28  C   UNL A   1      35.535  30.198  27.894  1.00  0.00     0.039 A 
ATOM     29  C   UNL A   1      35.485  29.679  29.192  1.00  0.00     0.014 A 
ATOM     30  C   UNL A   1      36.775  30.407  27.283  1.00  0.00     0.014 A 
ATOM     31  C   UNL A   1      36.665  29.339  29.859  1.00  0.00     0.010 A 
ATOM     32  C   UNL A   1      37.948  29.998  27.919  1.00  0.00     0.010 A 
ATOM     33  C   UNL A   1      37.907  29.477  29.221  1.00  0.00    -0.014 A 
BRANCH  33  34
ATOM     34  C   UNL A   1      39.170  29.119  29.920  1.00  0.00     0.031 A 
ATOM     35  C   UNL A   1      39.575  29.847  31.176  1.00  0.00     0.074 A 
ATOM     36  C   UNL A   1      39.971  28.164  29.409  1.00  0.00     0.049 A 
ATOM     37  N   UNL A   1      40.650  29.700  31.907  1.00  0.00    -0.248 NA
ATOM     38  C   UNL A   1      38.662  30.895  31.659  1.00  0.00     0.031 C 
ATOM     39  C   UNL A   1      39.718  27.417  28.175  1.00  0.00     0.029 A 
ATOM     40  N   UNL A   1      41.164  27.659  29.862  1.00  0.00    -0.354 N 
ATOM     41  C   UNL A   1      40.552  30.644  32.923  1.00  0.00     0.074 A 
ATOM     42  C   UNL A   1      39.337  31.393  32.685  1.00  0.00     0.031 C 
ATOM     43  C   UNL A   1      40.711  26.534  27.982  1.00  0.00     0.029 A 
ATOM     44  C   UNL A   1      41.685  26.670  29.061  1.00  0.00     0.049 A 
ATOM     45  H   UNL A   1      41.606  27.975  30.683  1.00  0.00     0.167 HD
ATOM     46  C   UNL A   1      41.382  30.852  33.974  1.00  0.00     0.037 A 
ATOM     47  C   UNL A   1      42.819  25.951  29.183  1.00  0.00     0.037 A 
ATOM     48  C   UNL A   1      42.572  30.083  34.228  1.00  0.00     0.049 A 
ATOM     49  C   UNL A   1      43.711  26.180  30.373  1.00  0.00     0.074 A 
ATOM     50  C   UNL A   1      43.453  30.183  35.290  1.00  0.00     0.029 A 
ATOM     51  N   UNL A   1      43.044  29.063  33.414  1.00  0.00    -0.354 N 
ATOM     52  N   UNL A   1      43.573  27.041  31.353  1.00  0.00    -0.248 NA
ATOM     53  C   UNL A   1      44.905  25.329  30.483  1.00  0.00     0.031 C 
ATOM     54  C   UNL A   1      44.475  29.246  35.103  1.00  0.00     0.029 A 
ATOM     55  C   UNL A   1      44.208  28.532  33.946  1.00  0.00     0.049 A 
ATOM     56  H   UNL A   1      42.616  28.762  32.580  1.00  0.00     0.167 HD
ATOM     57  C   UNL A   1      44.643  26.813  32.213  1.00  0.00     0.074 A 
ATOM     58  C   UNL A   1      45.414  25.729  31.640  1.00  0.00     0.031 C 
ATOM     59  C   UNL A   1      44.956  27.441  33.372  1.00  0.00     0.037 A 
BRANCH  46  60
ATOM     60  C   UNL A   1      41.026  31.955  34.933  1.00  0.00     0.058 A 
ATOM     61  C   UNL A   1      41.526  33.258  34.774  1.00  0.00     0.135 A 
ATOM     62  C   UNL A   1      40.156  31.715  36.008  1.00  0.00     0.135 A 
ATOM     63  F   UNL A   1      42.373  33.540  33.772  1.00  0.00    -0.206 F 
ATOM     64  C   UNL A   1      41.205  34.275  35.667  1.00  0.00     0.059 A 
ATOM     65  C   UNL A   1      39.798  32.725  36.899  1.00  0.00     0.059 A 
ATOM     66  F   UNL A   1      39.647  30.489  36.206  1.00  0.00    -0.206 F 
ATOM     67  C   UNL A   1      40.343  33.997  36.730  1.00  0.00     0.060 A 
BRANCH  67  68
ATOM     68  S   UNL A   1      39.939  35.324  37.886  1.00  0.00     0.124 S 
ATOM     69  O   UNL A   1      38.785  34.761  38.581  1.00  0.00    -0.237 OA
ATOM     70  O   UNL A   1      41.162  35.434  38.677  1.00  0.00    -0.237 OA
ATOM     71  O   UNL A   1      39.656  36.459  37.015  1.00  0.00    -0.744 OA
ENDBRANCH  67  68
ENDBRANCH  46  60
BRANCH  47  72
ATOM     72  C   UNL A   1      43.154  24.917  28.169  1.00  0.00     0.058 A 
ATOM     73  C   UNL A   1      42.836  23.567  28.384  1.00  0.00     0.135 A 
ATOM     74  C   UNL A   1      43.787  25.256  26.963  1.00  0.00     0.135 A 
ATOM     75  F   UNL A   1      42.236  23.194  29.524  1.00  0.00    -0.206 F 
ATOM     76  C   UNL A   1      43.150  22.587  27.450  1.00  0.00     0.059 A 
ATOM     77  C   UNL A   1      44.089  24.296  26.002  1.00  0.00     0.059 A 
ATOM     78  F   UNL A   1      44.094  26.535  26.702  1.00  0.00    -0.206 F 
ATOM     79  C   UNL A   1      43.776  22.961  26.261  1.00  0.00     0.060 A 
BRANCH  79  80
ATOM     80  S   UNL A   1      44.139  21.688  25.032  1.00  0.00     0.124 S 
ATOM     81  O   UNL A   1      45.485  21.280  25.421  1.00  0.00    -0.237 OA
ATOM     82  O   UNL A   1      43.081  20.713  25.278  1.00  0.00    -0.237 OA
ATOM     83  O   UNL A   1      44.037  22.405  23.766  1.00  0.00    -0.744 OA
ENDBRANCH  79  80
ENDBRANCH  47  72
BRANCH  59  84
ATOM     84  C   UNL A   1      46.156  26.942  34.127  1.00  0.00     0.058 A 
ATOM     85  C   UNL A   1      47.434  27.491  33.934  1.00  0.00     0.135 A 
ATOM     86  C   UNL A   1      46.015  25.927  35.087  1.00  0.00     0.135 A 
ATOM     87  F   UNL A   1      47.621  28.462  33.027  1.00  0.00    -0.206 F 
ATOM     88  C   UNL A   1      48.537  27.029  34.646  1.00  0.00     0.059 A 
ATOM     89  C   UNL A   1      47.100  25.467  35.827  1.00  0.00     0.059 A 
ATOM     90  F   UNL A   1      44.813  25.376  35.318  1.00  0.00    -0.206 F 
ATOM     91  C   UNL A   1      48.359  26.014  35.590  1.00  0.00     0.060 A 
BRANCH  91  92
ATOM     92  S   UNL A   1      49.793  25.437  36.522  1.00  0.00     0.124 S 
ATOM     93  O   UNL A   1      50.685  26.588  36.432  1.00  0.00    -0.237 OA
ATOM     94  O   UNL A   1      49.227  25.175  37.842  1.00  0.00    -0.237 OA
ATOM     95  O   UNL A   1      50.221  24.251  35.785  1.00  0.00    -0.744 OA
ENDBRANCH  91  92
ENDBRANCH  59  84
ENDBRANCH  33  34
ENDBRANCH  25  28
ENDBRANCH  23  24
ENDBRANCH  22  23
ENDBRANCH   1  22
TORSDOF 17
ENDMDL
