MODEL 1
REMARK VINA RESULT:     -11.4      0.000      0.000
REMARK SMILES CNC(=O)[C@H](C)Oc1cc([N+](=O)[O-])c(C(=O)NCCCNC(=O)c2ccc(-c3c4nc(c(-c5c(F)cc(S(=O)(=O)[O-])cc5F)c5ccc([nH]5)c(-c5c(F)cc(S(=O)(=O)[O-])cc5F)c5nc(c(-c6c(F)cc(S(=O)(=O)[O-])cc6F)c6ccc3[nH]6)C=C5)C=C4)cc2)cc1OC
REMARK SMILES IDX 19 1 18 2 17 3 15 4 16 5 14 7 8 8 9 9 91 10 10 11 90 12 7 13
REMARK SMILES IDX 5 14 6 15 3 16 1 17 2 18 4 20 92 21 93 22 11 23 12 24 13 25
REMARK SMILES IDX 20 26 21 27 22 28 23 30 24 31 25 32 89 33 26 34 88 35 27 36
REMARK SMILES IDX 28 37 29 38 82 39 30 40 87 41 81 42 83 43 31 44 86 45 80 46
REMARK SMILES IDX 79 47 32 49 66 50 45 51 65 52 46 53 49 54 64 55 84 56 47 57
REMARK SMILES IDX 48 58 63 60 85 61 50 62 33 63 34 64 43 65 35 66 36 67 42 68
REMARK SMILES IDX 44 69 37 70 38 71 39 72 40 73 41 74 67 75 68 76 77 77 69 78
REMARK SMILES IDX 70 79 76 80 78 81 71 82 72 83 73 84 74 85 75 86 51 87 52 88
REMARK SMILES IDX 61 89 53 90 54 91 60 92 62 93 55 94 56 95 57 96 58 97 59 98
REMARK H PARENT 17 6 2 19 21 29 83 48 49 59
REMARK Flexibility Score: inf
ROOT
ATOM      1  C   UNL A   1      33.817  30.026  27.182  1.00  0.00     0.042 C 
ENDROOT
BRANCH   1   2
ATOM      2  C   UNL A   1      33.696  29.311  25.838  1.00  0.00     0.118 C 
BRANCH   2   3
ATOM      3  N   UNL A   1      32.362  29.451  25.278  1.00  0.00    -0.352 N 
ATOM      4  C   UNL A   1      31.545  28.633  24.543  1.00  0.00     0.258 C 
ATOM      5  O   UNL A   1      30.410  29.058  24.335  1.00  0.00    -0.269 OA
ATOM      6  H   UNL A   1      31.956  30.327  25.471  1.00  0.00     0.163 HD
BRANCH   4   7
ATOM      7  C   UNL A   1      31.918  27.261  24.090  1.00  0.00     0.121 A 
ATOM      8  C   UNL A   1      33.031  24.726  23.439  1.00  0.00     0.169 A 
ATOM      9  C   UNL A   1      32.361  24.911  24.645  1.00  0.00     0.137 A 
ATOM     10  C   UNL A   1      33.025  25.758  22.502  1.00  0.00     0.162 A 
ATOM     11  C   UNL A   1      31.812  26.165  24.956  1.00  0.00     0.286 A 
ATOM     12  C   UNL A   1      32.436  26.993  22.817  1.00  0.00     0.071 A 
BRANCH   8  13
ATOM     13  O   UNL A   1      33.495  23.475  23.233  1.00  0.00    -0.477 OA
BRANCH  13  14
ATOM     14  C   UNL A   1      34.673  23.012  23.855  1.00  0.00     0.259 C 
ATOM     15  C   UNL A   1      34.371  21.703  24.612  1.00  0.00     0.064 C 
BRANCH  14  16
ATOM     16  C   UNL A   1      36.224  23.107  23.585  1.00  0.00     0.260 C 
ATOM     17  C   UNL A   1      37.323  23.690  25.849  1.00  0.00     0.142 C 
ATOM     18  N   UNL A   1      37.220  23.377  24.451  1.00  0.00    -0.356 N 
ATOM     19  H   UNL A   1      38.102  23.353  24.015  1.00  0.00     0.163 HD
ATOM     20  O   UNL A   1      36.624  22.928  22.420  1.00  0.00    -0.271 OA
ENDBRANCH  14  16
ENDBRANCH  13  14
ENDBRANCH   8  13
BRANCH  10  21
ATOM     21  O   UNL A   1      33.519  25.577  21.241  1.00  0.00    -0.493 OA
ATOM     22  C   UNL A   1      32.485  25.485  20.255  1.00  0.00     0.278 C 
ENDBRANCH  10  21
BRANCH  11  23
ATOM     23  N   UNL A   1      31.062  26.230  26.193  1.00  0.00     0.063 N 
ATOM     24  O   UNL A   1      31.642  26.731  27.166  1.00  0.00    -0.258 OA
ATOM     25  O   UNL A   1      29.969  25.647  26.214  1.00  0.00    -0.258 OA
ENDBRANCH  11  23
ENDBRANCH   4   7
ENDBRANCH   2   3
ENDBRANCH   1   2
BRANCH   1  26
ATOM     26  C   UNL A   1      35.186  29.858  27.833  1.00  0.00     0.118 C 
BRANCH  26  27
ATOM     27  N   UNL A   1      35.233  30.457  29.160  1.00  0.00    -0.352 N 
ATOM     28  C   UNL A   1      36.251  30.495  30.075  1.00  0.00     0.251 C 
ATOM     29  H   UNL A   1      34.403  30.905  29.444  1.00  0.00     0.163 HD
ATOM     30  O   UNL A   1      35.998  30.827  31.236  1.00  0.00    -0.269 OA
BRANCH  28  31
ATOM     31  C   UNL A   1      37.633  30.141  29.689  1.00  0.00     0.039 A 
ATOM     32  C   UNL A   1      38.543  29.780  30.687  1.00  0.00     0.014 A 
ATOM     33  C   UNL A   1      38.051  30.207  28.357  1.00  0.00     0.014 A 
ATOM     34  C   UNL A   1      39.853  29.439  30.343  1.00  0.00     0.010 A 
ATOM     35  C   UNL A   1      39.332  29.787  28.007  1.00  0.00     0.010 A 
ATOM     36  C   UNL A   1      40.251  29.412  28.996  1.00  0.00    -0.014 A 
BRANCH  36  37
ATOM     37  C   UNL A   1      41.624  29.005  28.607  1.00  0.00     0.031 A 
ATOM     38  C   UNL A   1      42.742  30.012  28.604  1.00  0.00     0.074 A 
ATOM     39  C   UNL A   1      41.852  27.738  28.206  1.00  0.00     0.049 A 
ATOM     40  N   UNL A   1      43.995  29.857  28.260  1.00  0.00    -0.248 NA
ATOM     41  C   UNL A   1      42.400  31.383  29.015  1.00  0.00     0.031 C 
ATOM     42  C   UNL A   1      40.841  26.682  28.129  1.00  0.00     0.029 A 
ATOM     43  N   UNL A   1      43.006  27.124  27.789  1.00  0.00    -0.354 N 
ATOM     44  C   UNL A   1      44.586  31.107  28.403  1.00  0.00     0.074 A 
ATOM     45  C   UNL A   1      43.540  32.023  28.802  1.00  0.00     0.031 C 
ATOM     46  C   UNL A   1      41.426  25.542  27.729  1.00  0.00     0.029 A 
ATOM     47  C   UNL A   1      42.842  25.794  27.482  1.00  0.00     0.049 A 
ATOM     48  H   UNL A   1      43.868  27.592  27.715  1.00  0.00     0.167 HD
ATOM     49  C   UNL A   1      45.886  31.456  28.241  1.00  0.00     0.037 A 
ATOM     50  C   UNL A   1      43.733  24.882  27.051  1.00  0.00     0.037 A 
ATOM     51  C   UNL A   1      46.922  30.534  27.854  1.00  0.00     0.049 A 
ATOM     52  C   UNL A   1      45.166  25.296  26.854  1.00  0.00     0.074 A 
ATOM     53  C   UNL A   1      48.277  30.771  27.708  1.00  0.00     0.029 A 
ATOM     54  N   UNL A   1      46.715  29.197  27.542  1.00  0.00    -0.354 N 
ATOM     55  N   UNL A   1      45.722  26.469  27.053  1.00  0.00    -0.248 NA
ATOM     56  C   UNL A   1      46.094  24.263  26.377  1.00  0.00     0.031 C 
ATOM     57  C   UNL A   1      48.882  29.590  27.261  1.00  0.00     0.029 A 
ATOM     58  C   UNL A   1      47.914  28.602  27.181  1.00  0.00     0.049 A 
ATOM     59  H   UNL A   1      45.845  28.738  27.573  1.00  0.00     0.167 HD
ATOM     60  C   UNL A   1      47.070  26.306  26.757  1.00  0.00     0.074 A 
ATOM     61  C   UNL A   1      47.247  24.919  26.375  1.00  0.00     0.031 C 
ATOM     62  C   UNL A   1      48.072  27.219  26.802  1.00  0.00     0.037 A 
BRANCH  49  63
ATOM     63  C   UNL A   1      46.248  32.899  28.476  1.00  0.00     0.058 A 
ATOM     64  C   UNL A   1      46.590  33.378  29.753  1.00  0.00     0.135 A 
ATOM     65  C   UNL A   1      46.248  33.820  27.416  1.00  0.00     0.135 A 
ATOM     66  F   UNL A   1      46.596  32.546  30.807  1.00  0.00    -0.206 F 
ATOM     67  C   UNL A   1      46.864  34.722  29.979  1.00  0.00     0.059 A 
ATOM     68  C   UNL A   1      46.553  35.165  27.613  1.00  0.00     0.059 A 
ATOM     69  F   UNL A   1      45.936  33.421  26.173  1.00  0.00    -0.206 F 
ATOM     70  C   UNL A   1      46.835  35.610  28.903  1.00  0.00     0.060 A 
BRANCH  70  71
ATOM     71  S   UNL A   1      47.157  37.358  29.219  1.00  0.00     0.124 S 
ATOM     72  O   UNL A   1      47.106  37.910  27.868  1.00  0.00    -0.237 OA
ATOM     73  O   UNL A   1      46.051  37.728  30.096  1.00  0.00    -0.237 OA
ATOM     74  O   UNL A   1      48.476  37.354  29.845  1.00  0.00    -0.744 OA
ENDBRANCH  70  71
ENDBRANCH  49  63
BRANCH  50  75
ATOM     75  C   UNL A   1      43.305  23.475  26.828  1.00  0.00     0.058 A 
ATOM     76  C   UNL A   1      43.160  22.970  25.528  1.00  0.00     0.135 A 
ATOM     77  C   UNL A   1      43.060  22.602  27.899  1.00  0.00     0.135 A 
ATOM     78  F   UNL A   1      43.379  23.769  24.471  1.00  0.00    -0.206 F 
ATOM     79  C   UNL A   1      42.780  21.654  25.294  1.00  0.00     0.059 A 
ATOM     80  C   UNL A   1      42.702  21.274  27.691  1.00  0.00     0.059 A 
ATOM     81  F   UNL A   1      43.201  23.031  29.163  1.00  0.00    -0.206 F 
ATOM     82  C   UNL A   1      42.559  20.811  26.383  1.00  0.00     0.060 A 
BRANCH  82  83
ATOM     83  S   UNL A   1      42.127  19.085  26.066  1.00  0.00     0.124 S 
ATOM     84  O   UNL A   1      43.009  18.761  24.951  1.00  0.00    -0.237 OA
ATOM     85  O   UNL A   1      42.449  18.452  27.342  1.00  0.00    -0.237 OA
ATOM     86  O   UNL A   1      40.702  19.150  25.749  1.00  0.00    -0.744 OA
ENDBRANCH  82  83
ENDBRANCH  50  75
BRANCH  62  87
ATOM     87  C   UNL A   1      49.458  26.738  26.463  1.00  0.00     0.058 A 
ATOM     88  C   UNL A   1      50.244  26.033  27.387  1.00  0.00     0.135 A 
ATOM     89  C   UNL A   1      49.990  26.957  25.182  1.00  0.00     0.135 A 
ATOM     90  F   UNL A   1      49.786  25.804  28.629  1.00  0.00    -0.206 F 
ATOM     91  C   UNL A   1      51.521  25.587  27.064  1.00  0.00     0.059 A 
ATOM     92  C   UNL A   1      51.252  26.493  24.826  1.00  0.00     0.059 A 
ATOM     93  F   UNL A   1      49.276  27.617  24.256  1.00  0.00    -0.206 F 
ATOM     94  C   UNL A   1      52.016  25.822  25.779  1.00  0.00     0.060 A 
BRANCH  94  95
ATOM     95  S   UNL A   1      53.665  25.217  25.364  1.00  0.00     0.124 S 
ATOM     96  O   UNL A   1      53.719  25.469  23.928  1.00  0.00    -0.237 OA
ATOM     97  O   UNL A   1      54.525  26.060  26.189  1.00  0.00    -0.237 OA
ATOM     98  O   UNL A   1      53.619  23.810  25.754  1.00  0.00    -0.744 OA
ENDBRANCH  94  95
ENDBRANCH  62  87
ENDBRANCH  36  37
ENDBRANCH  28  31
ENDBRANCH  26  27
ENDBRANCH   1  26
TORSDOF 18
ENDMDL
MODEL 2
REMARK VINA RESULT:     -11.4      1.200      2.053
REMARK SMILES CNC(=O)[C@H](C)Oc1cc([N+](=O)[O-])c(C(=O)NCCCNC(=O)c2ccc(-c3c4nc(c(-c5c(F)cc(S(=O)(=O)[O-])cc5F)c5ccc([nH]5)c(-c5c(F)cc(S(=O)(=O)[O-])cc5F)c5nc(c(-c6c(F)cc(S(=O)(=O)[O-])cc6F)c6ccc3[nH]6)C=C5)C=C4)cc2)cc1OC
REMARK SMILES IDX 19 1 18 2 17 3 15 4 16 5 14 7 8 8 9 9 91 10 10 11 90 12 7 13
REMARK SMILES IDX 5 14 6 15 3 16 1 17 2 18 4 20 92 21 93 22 11 23 12 24 13 25
REMARK SMILES IDX 20 26 21 27 22 28 23 30 24 31 25 32 89 33 26 34 88 35 27 36
REMARK SMILES IDX 28 37 29 38 82 39 30 40 87 41 81 42 83 43 31 44 86 45 80 46
REMARK SMILES IDX 79 47 32 49 66 50 45 51 65 52 46 53 49 54 64 55 84 56 47 57
REMARK SMILES IDX 48 58 63 60 85 61 50 62 33 63 34 64 43 65 35 66 36 67 42 68
REMARK SMILES IDX 44 69 37 70 38 71 39 72 40 73 41 74 67 75 68 76 77 77 69 78
REMARK SMILES IDX 70 79 76 80 78 81 71 82 72 83 73 84 74 85 75 86 51 87 52 88
REMARK SMILES IDX 61 89 53 90 54 91 60 92 62 93 55 94 56 95 57 96 58 97 59 98
REMARK H PARENT 17 6 2 19 21 29 83 48 49 59
REMARK Flexibility Score: inf
ROOT
ATOM      1  C   UNL A   1      34.164  29.931  26.913  1.00  0.00     0.042 C 
ENDROOT
BRANCH   1   2
ATOM      2  C   UNL A   1      33.514  28.858  26.042  1.00  0.00     0.118 C 
BRANCH   2   3
ATOM      3  N   UNL A   1      33.767  29.092  24.630  1.00  0.00    -0.352 N 
ATOM      4  C   UNL A   1      33.610  28.342  23.495  1.00  0.00     0.258 C 
ATOM      5  O   UNL A   1      33.832  28.923  22.435  1.00  0.00    -0.269 OA
ATOM      6  H   UNL A   1      34.131  29.989  24.450  1.00  0.00     0.163 HD
BRANCH   4   7
ATOM      7  C   UNL A   1      33.101  26.939  23.480  1.00  0.00     0.121 A 
ATOM      8  C   UNL A   1      32.082  24.318  23.907  1.00  0.00     0.169 A 
ATOM      9  C   UNL A   1      31.213  25.385  23.694  1.00  0.00     0.137 A 
ATOM     10  C   UNL A   1      33.452  24.531  23.769  1.00  0.00     0.162 A 
ATOM     11  C   UNL A   1      31.725  26.674  23.480  1.00  0.00     0.286 A 
ATOM     12  C   UNL A   1      33.944  25.822  23.517  1.00  0.00     0.071 A 
BRANCH   8  13
ATOM     13  O   UNL A   1      31.482  23.120  24.075  1.00  0.00    -0.477 OA
BRANCH  13  14
ATOM     14  C   UNL A   1      31.689  22.346  25.234  1.00  0.00     0.259 C 
ATOM     15  C   UNL A   1      30.542  22.603  26.233  1.00  0.00     0.064 C 
BRANCH  14  16
ATOM     16  C   UNL A   1      32.384  20.974  25.586  1.00  0.00     0.260 C 
ATOM     17  C   UNL A   1      34.099  21.484  27.450  1.00  0.00     0.142 C 
ATOM     18  N   UNL A   1      33.340  20.719  26.501  1.00  0.00    -0.356 N 
ATOM     19  H   UNL A   1      33.579  19.764  26.525  1.00  0.00     0.163 HD
ATOM     20  O   UNL A   1      32.040  19.965  24.943  1.00  0.00    -0.271 OA
ENDBRANCH  14  16
ENDBRANCH  13  14
ENDBRANCH   8  13
BRANCH  10  21
ATOM     21  O   UNL A   1      34.341  23.493  23.801  1.00  0.00    -0.493 OA
ATOM     22  C   UNL A   1      35.399  23.706  24.741  1.00  0.00     0.278 C 
ENDBRANCH  10  21
BRANCH  11  23
ATOM     23  N   UNL A   1      30.743  27.696  23.182  1.00  0.00     0.063 N 
ATOM     24  O   UNL A   1      30.191  28.232  24.154  1.00  0.00    -0.258 OA
ATOM     25  O   UNL A   1      30.430  27.838  21.993  1.00  0.00    -0.258 OA
ENDBRANCH  11  23
ENDBRANCH   4   7
ENDBRANCH   2   3
ENDBRANCH   1   2
BRANCH   1  26
ATOM     26  C   UNL A   1      35.214  29.376  27.870  1.00  0.00     0.118 C 
BRANCH  26  27
ATOM     27  N   UNL A   1      35.278  30.142  29.108  1.00  0.00    -0.352 N 
ATOM     28  C   UNL A   1      36.323  30.332  29.973  1.00  0.00     0.251 C 
ATOM     29  H   UNL A   1      34.441  30.593  29.362  1.00  0.00     0.163 HD
ATOM     30  O   UNL A   1      36.093  30.801  31.091  1.00  0.00    -0.269 OA
BRANCH  28  31
ATOM     31  C   UNL A   1      37.705  29.980  29.586  1.00  0.00     0.039 A 
ATOM     32  C   UNL A   1      38.623  29.642  30.585  1.00  0.00     0.014 A 
ATOM     33  C   UNL A   1      38.115  30.026  28.251  1.00  0.00     0.014 A 
ATOM     34  C   UNL A   1      39.932  29.304  30.240  1.00  0.00     0.010 A 
ATOM     35  C   UNL A   1      39.397  29.608  27.901  1.00  0.00     0.010 A 
ATOM     36  C   UNL A   1      40.323  29.255  28.892  1.00  0.00    -0.014 A 
BRANCH  36  37
ATOM     37  C   UNL A   1      41.697  28.850  28.502  1.00  0.00     0.031 A 
ATOM     38  C   UNL A   1      42.807  29.866  28.468  1.00  0.00     0.074 A 
ATOM     39  C   UNL A   1      41.932  27.577  28.129  1.00  0.00     0.049 A 
ATOM     40  N   UNL A   1      44.059  29.713  28.120  1.00  0.00    -0.248 NA
ATOM     41  C   UNL A   1      42.457  31.243  28.851  1.00  0.00     0.031 C 
ATOM     42  C   UNL A   1      40.929  26.511  28.082  1.00  0.00     0.029 A 
ATOM     43  N   UNL A   1      43.087  26.963  27.717  1.00  0.00    -0.354 N 
ATOM     44  C   UNL A   1      44.641  30.971  28.230  1.00  0.00     0.074 A 
ATOM     45  C   UNL A   1      43.590  31.887  28.616  1.00  0.00     0.031 C 
ATOM     46  C   UNL A   1      41.520  25.367  27.704  1.00  0.00     0.029 A 
ATOM     47  C   UNL A   1      42.933  25.625  27.441  1.00  0.00     0.049 A 
ATOM     48  H   UNL A   1      43.946  27.435  27.627  1.00  0.00     0.167 HD
ATOM     49  C   UNL A   1      45.937  31.325  28.051  1.00  0.00     0.037 A 
ATOM     50  C   UNL A   1      43.828  24.710  27.026  1.00  0.00     0.037 A 
ATOM     51  C   UNL A   1      46.977  30.403  27.677  1.00  0.00     0.049 A 
ATOM     52  C   UNL A   1      45.256  25.130  26.809  1.00  0.00     0.074 A 
ATOM     53  C   UNL A   1      48.329  30.647  27.517  1.00  0.00     0.029 A 
ATOM     54  N   UNL A   1      46.779  29.058  27.398  1.00  0.00    -0.354 N 
ATOM     55  N   UNL A   1      45.804  26.311  26.977  1.00  0.00    -0.248 NA
ATOM     56  C   UNL A   1      46.189  24.093  26.349  1.00  0.00     0.031 C 
ATOM     57  C   UNL A   1      48.941  29.461  27.093  1.00  0.00     0.029 A 
ATOM     58  C   UNL A   1      47.980  28.464  27.042  1.00  0.00     0.049 A 
ATOM     59  H   UNL A   1      45.912  28.593  27.445  1.00  0.00     0.167 HD
ATOM     60  C   UNL A   1      47.152  26.152  26.676  1.00  0.00     0.074 A 
ATOM     61  C   UNL A   1      47.336  24.758  26.324  1.00  0.00     0.031 C 
ATOM     62  C   UNL A   1      48.146  27.074  26.693  1.00  0.00     0.037 A 
BRANCH  49  63
ATOM     63  C   UNL A   1      46.289  32.776  28.251  1.00  0.00     0.058 A 
ATOM     64  C   UNL A   1      46.233  33.703  27.196  1.00  0.00     0.135 A 
ATOM     65  C   UNL A   1      46.693  33.249  29.510  1.00  0.00     0.135 A 
ATOM     66  F   UNL A   1      45.864  33.307  25.967  1.00  0.00    -0.206 F 
ATOM     67  C   UNL A   1      46.617  35.029  27.367  1.00  0.00     0.059 A 
ATOM     68  C   UNL A   1      47.050  34.580  29.713  1.00  0.00     0.059 A 
ATOM     69  F   UNL A   1      46.761  32.413  30.557  1.00  0.00    -0.206 F 
ATOM     70  C   UNL A   1      47.033  35.456  28.629  1.00  0.00     0.060 A 
BRANCH  70  71
ATOM     71  S   UNL A   1      47.563  37.170  28.827  1.00  0.00     0.124 S 
ATOM     72  O   UNL A   1      48.956  36.997  29.232  1.00  0.00    -0.237 OA
ATOM     73  O   UNL A   1      47.356  37.719  27.492  1.00  0.00    -0.237 OA
ATOM     74  O   UNL A   1      46.670  37.686  29.860  1.00  0.00    -0.744 OA
ENDBRANCH  70  71
ENDBRANCH  49  63
BRANCH  50  75
ATOM     75  C   UNL A   1      43.409  23.295  26.837  1.00  0.00     0.058 A 
ATOM     76  C   UNL A   1      43.289  22.751  25.550  1.00  0.00     0.135 A 
ATOM     77  C   UNL A   1      43.150  22.453  27.929  1.00  0.00     0.135 A 
ATOM     78  F   UNL A   1      43.522  23.519  24.474  1.00  0.00    -0.206 F 
ATOM     79  C   UNL A   1      42.918  21.427  25.350  1.00  0.00     0.059 A 
ATOM     80  C   UNL A   1      42.801  21.117  27.755  1.00  0.00     0.059 A 
ATOM     81  F   UNL A   1      43.267  22.920  29.183  1.00  0.00    -0.206 F 
ATOM     82  C   UNL A   1      42.682  20.615  26.460  1.00  0.00     0.060 A 
BRANCH  82  83
ATOM     83  S   UNL A   1      42.262  18.879  26.187  1.00  0.00     0.124 S 
ATOM     84  O   UNL A   1      40.857  18.972  25.807  1.00  0.00    -0.237 OA
ATOM     85  O   UNL A   1      43.189  18.506  25.122  1.00  0.00    -0.237 OA
ATOM     86  O   UNL A   1      42.528  18.262  27.484  1.00  0.00    -0.744 OA
ENDBRANCH  82  83
ENDBRANCH  50  75
BRANCH  62  87
ATOM     87  C   UNL A   1      49.533  26.596  26.355  1.00  0.00     0.058 A 
ATOM     88  C   UNL A   1      50.353  25.971  27.307  1.00  0.00     0.135 A 
ATOM     89  C   UNL A   1      50.033  26.736  25.050  1.00  0.00     0.135 A 
ATOM     90  F   UNL A   1      49.928  25.819  28.571  1.00  0.00    -0.206 F 
ATOM     91  C   UNL A   1      51.632  25.527  26.985  1.00  0.00     0.059 A 
ATOM     92  C   UNL A   1      51.295  26.272  24.697  1.00  0.00     0.059 A 
ATOM     93  F   UNL A   1      49.285  27.318  24.099  1.00  0.00    -0.206 F 
ATOM     94  C   UNL A   1      52.093  25.682  25.676  1.00  0.00     0.060 A 
BRANCH  94  95
ATOM     95  S   UNL A   1      53.745  25.080  25.264  1.00  0.00     0.124 S 
ATOM     96  O   UNL A   1      53.562  23.635  25.354  1.00  0.00    -0.237 OA
ATOM     97  O   UNL A   1      53.946  25.612  23.920  1.00  0.00    -0.237 OA
ATOM     98  O   UNL A   1      54.590  25.672  26.298  1.00  0.00    -0.744 OA
ENDBRANCH  94  95
ENDBRANCH  62  87
ENDBRANCH  36  37
ENDBRANCH  28  31
ENDBRANCH  26  27
ENDBRANCH   1  26
TORSDOF 18
ENDMDL
MODEL 3
REMARK VINA RESULT:     -11.3      2.898      4.111
REMARK SMILES CNC(=O)[C@H](C)Oc1cc([N+](=O)[O-])c(C(=O)NCCCNC(=O)c2ccc(-c3c4nc(c(-c5c(F)cc(S(=O)(=O)[O-])cc5F)c5ccc([nH]5)c(-c5c(F)cc(S(=O)(=O)[O-])cc5F)c5nc(c(-c6c(F)cc(S(=O)(=O)[O-])cc6F)c6ccc3[nH]6)C=C5)C=C4)cc2)cc1OC
REMARK SMILES IDX 19 1 18 2 17 3 15 4 16 5 14 7 8 8 9 9 91 10 10 11 90 12 7 13
REMARK SMILES IDX 5 14 6 15 3 16 1 17 2 18 4 20 92 21 93 22 11 23 12 24 13 25
REMARK SMILES IDX 20 26 21 27 22 28 23 30 24 31 25 32 89 33 26 34 88 35 27 36
REMARK SMILES IDX 28 37 29 38 82 39 30 40 87 41 81 42 83 43 31 44 86 45 80 46
REMARK SMILES IDX 79 47 32 49 66 50 45 51 65 52 46 53 49 54 64 55 84 56 47 57
REMARK SMILES IDX 48 58 63 60 85 61 50 62 33 63 34 64 43 65 35 66 36 67 42 68
REMARK SMILES IDX 44 69 37 70 38 71 39 72 40 73 41 74 67 75 68 76 77 77 69 78
REMARK SMILES IDX 70 79 76 80 78 81 71 82 72 83 73 84 74 85 75 86 51 87 52 88
REMARK SMILES IDX 61 89 53 90 54 91 60 92 62 93 55 94 56 95 57 96 58 97 59 98
REMARK H PARENT 17 6 2 19 21 29 83 48 49 59
REMARK Flexibility Score: inf
ROOT
ATOM      1  C   UNL A   1      33.302  28.195  25.105  1.00  0.00     0.042 C 
ENDROOT
BRANCH   1   2
ATOM      2  C   UNL A   1      31.781  28.325  25.158  1.00  0.00     0.118 C 
BRANCH   2   3
ATOM      3  N   UNL A   1      31.187  28.158  23.842  1.00  0.00    -0.352 N 
ATOM      4  C   UNL A   1      31.039  27.096  22.990  1.00  0.00     0.258 C 
ATOM      5  O   UNL A   1      30.369  27.310  21.981  1.00  0.00    -0.269 OA
ATOM      6  H   UNL A   1      30.807  28.993  23.484  1.00  0.00     0.163 HD
BRANCH   4   7
ATOM      7  C   UNL A   1      31.542  25.720  23.268  1.00  0.00     0.121 A 
ATOM      8  C   UNL A   1      32.183  22.958  23.496  1.00  0.00     0.169 A 
ATOM      9  C   UNL A   1      32.779  23.739  22.510  1.00  0.00     0.137 A 
ATOM     10  C   UNL A   1      31.380  23.579  24.451  1.00  0.00     0.162 A 
ATOM     11  C   UNL A   1      32.459  25.102  22.408  1.00  0.00     0.286 A 
ATOM     12  C   UNL A   1      31.102  24.952  24.354  1.00  0.00     0.071 A 
BRANCH   8  13
ATOM     13  O   UNL A   1      32.583  21.668  23.519  1.00  0.00    -0.477 OA
BRANCH  13  14
ATOM     14  C   UNL A   1      33.481  21.190  24.495  1.00  0.00     0.259 C 
ATOM     15  C   UNL A   1      34.758  22.054  24.482  1.00  0.00     0.064 C 
BRANCH  14  16
ATOM     16  C   UNL A   1      33.376  20.442  25.879  1.00  0.00     0.260 C 
ATOM     17  C   UNL A   1      32.539  18.054  25.355  1.00  0.00     0.142 C 
ATOM     18  N   UNL A   1      32.995  19.174  26.131  1.00  0.00    -0.356 N 
ATOM     19  H   UNL A   1      33.042  18.961  27.091  1.00  0.00     0.163 HD
ATOM     20  O   UNL A   1      33.663  21.080  26.909  1.00  0.00    -0.271 OA
ENDBRANCH  14  16
ENDBRANCH  13  14
ENDBRANCH   8  13
BRANCH  10  21
ATOM     21  O   UNL A   1      30.905  22.897  25.535  1.00  0.00    -0.493 OA
ATOM     22  C   UNL A   1      30.389  23.766  26.548  1.00  0.00     0.278 C 
ENDBRANCH  10  21
BRANCH  11  23
ATOM     23  N   UNL A   1      33.197  25.844  21.407  1.00  0.00     0.063 N 
ATOM     24  O   UNL A   1      33.005  25.521  20.226  1.00  0.00    -0.258 OA
ATOM     25  O   UNL A   1      34.064  26.627  21.820  1.00  0.00    -0.258 OA
ENDBRANCH  11  23
ENDBRANCH   4   7
ENDBRANCH   2   3
ENDBRANCH   1   2
BRANCH   1  26
ATOM     26  C   UNL A   1      33.967  28.339  26.471  1.00  0.00     0.118 C 
BRANCH  26  27
ATOM     27  N   UNL A   1      33.751  29.661  27.043  1.00  0.00    -0.352 N 
ATOM     28  C   UNL A   1      34.523  30.381  27.914  1.00  0.00     0.251 C 
ATOM     29  H   UNL A   1      32.919  30.106  26.759  1.00  0.00     0.163 HD
ATOM     30  O   UNL A   1      34.033  31.366  28.473  1.00  0.00    -0.269 OA
BRANCH  28  31
ATOM     31  C   UNL A   1      35.921  29.991  28.193  1.00  0.00     0.039 A 
ATOM     32  C   UNL A   1      36.866  30.078  27.165  1.00  0.00     0.014 A 
ATOM     33  C   UNL A   1      36.298  29.496  29.444  1.00  0.00     0.014 A 
ATOM     34  C   UNL A   1      38.192  29.717  27.408  1.00  0.00     0.010 A 
ATOM     35  C   UNL A   1      37.637  29.216  29.709  1.00  0.00     0.010 A 
ATOM     36  C   UNL A   1      38.596  29.310  28.691  1.00  0.00    -0.014 A 
BRANCH  36  37
ATOM     37  C   UNL A   1      40.011  28.969  28.981  1.00  0.00     0.031 A 
ATOM     38  C   UNL A   1      40.917  29.980  29.631  1.00  0.00     0.074 A 
ATOM     39  C   UNL A   1      40.492  27.766  28.612  1.00  0.00     0.049 A 
ATOM     40  N   UNL A   1      42.187  29.883  29.928  1.00  0.00    -0.248 NA
ATOM     41  C   UNL A   1      40.323  31.285  29.964  1.00  0.00     0.031 C 
ATOM     42  C   UNL A   1      39.722  26.718  27.941  1.00  0.00     0.029 A 
ATOM     43  N   UNL A   1      41.744  27.222  28.749  1.00  0.00    -0.354 N 
ATOM     44  C   UNL A   1      42.546  31.111  30.472  1.00  0.00     0.074 A 
ATOM     45  C   UNL A   1      41.376  31.959  30.403  1.00  0.00     0.031 C 
ATOM     46  C   UNL A   1      40.506  25.643  27.760  1.00  0.00     0.029 A 
ATOM     47  C   UNL A   1      41.843  25.939  28.263  1.00  0.00     0.049 A 
ATOM     48  H   UNL A   1      42.500  27.704  29.156  1.00  0.00     0.167 HD
ATOM     49  C   UNL A   1      43.734  31.490  31.003  1.00  0.00     0.037 A 
ATOM     50  C   UNL A   1      42.893  25.098  28.229  1.00  0.00     0.037 A 
ATOM     51  C   UNL A   1      44.890  30.635  31.076  1.00  0.00     0.049 A 
ATOM     52  C   UNL A   1      44.210  25.548  28.801  1.00  0.00     0.074 A 
ATOM     53  C   UNL A   1      46.127  30.902  31.636  1.00  0.00     0.029 A 
ATOM     54  N   UNL A   1      44.955  29.346  30.564  1.00  0.00    -0.354 N 
ATOM     55  N   UNL A   1      44.516  26.691  29.368  1.00  0.00    -0.248 NA
ATOM     56  C   UNL A   1      45.323  24.592  28.732  1.00  0.00     0.031 C 
ATOM     57  C   UNL A   1      46.954  29.793  31.420  1.00  0.00     0.029 A 
ATOM     58  C   UNL A   1      46.217  28.813  30.774  1.00  0.00     0.049 A 
ATOM     59  H   UNL A   1      44.212  28.878  30.118  1.00  0.00     0.167 HD
ATOM     60  C   UNL A   1      45.848  26.581  29.753  1.00  0.00     0.074 A 
ATOM     61  C   UNL A   1      46.284  25.255  29.362  1.00  0.00     0.031 C 
ATOM     62  C   UNL A   1      46.635  27.491  30.377  1.00  0.00     0.037 A 
BRANCH  49  63
ATOM     63  C   UNL A   1      43.835  32.896  31.535  1.00  0.00     0.058 A 
ATOM     64  C   UNL A   1      44.268  33.963  30.729  1.00  0.00     0.135 A 
ATOM     65  C   UNL A   1      43.502  33.183  32.868  1.00  0.00     0.135 A 
ATOM     66  F   UNL A   1      44.612  33.746  29.449  1.00  0.00    -0.206 F 
ATOM     67  C   UNL A   1      44.419  35.248  31.238  1.00  0.00     0.059 A 
ATOM     68  C   UNL A   1      43.613  34.470  33.391  1.00  0.00     0.059 A 
ATOM     69  F   UNL A   1      43.076  32.207  33.685  1.00  0.00    -0.206 F 
ATOM     70  C   UNL A   1      44.097  35.490  32.574  1.00  0.00     0.060 A 
BRANCH  70  71
ATOM     71  S   UNL A   1      44.333  37.155  33.230  1.00  0.00     0.124 S 
ATOM     72  O   UNL A   1      45.685  37.061  33.775  1.00  0.00    -0.237 OA
ATOM     73  O   UNL A   1      44.187  37.985  32.040  1.00  0.00    -0.237 OA
ATOM     74  O   UNL A   1      43.267  37.286  34.219  1.00  0.00    -0.744 OA
ENDBRANCH  70  71
ENDBRANCH  49  63
BRANCH  50  75
ATOM     75  C   UNL A   1      42.726  23.726  27.678  1.00  0.00     0.058 A 
ATOM     76  C   UNL A   1      42.510  22.635  28.532  1.00  0.00     0.135 A 
ATOM     77  C   UNL A   1      42.750  23.480  26.297  1.00  0.00     0.135 A 
ATOM     78  F   UNL A   1      42.484  22.819  29.861  1.00  0.00    -0.206 F 
ATOM     79  C   UNL A   1      42.332  21.347  28.039  1.00  0.00     0.059 A 
ATOM     80  C   UNL A   1      42.550  22.205  25.778  1.00  0.00     0.059 A 
ATOM     81  F   UNL A   1      42.937  24.494  25.436  1.00  0.00    -0.206 F 
ATOM     82  C   UNL A   1      42.348  21.143  26.659  1.00  0.00     0.060 A 
BRANCH  82  83
ATOM     83  S   UNL A   1      42.053  19.476  26.029  1.00  0.00     0.124 S 
ATOM     84  O   UNL A   1      40.610  19.491  25.821  1.00  0.00    -0.237 OA
ATOM     85  O   UNL A   1      42.873  19.457  24.822  1.00  0.00    -0.237 OA
ATOM     86  O   UNL A   1      42.527  18.619  27.113  1.00  0.00    -0.744 OA
ENDBRANCH  82  83
ENDBRANCH  50  75
BRANCH  62  87
ATOM     87  C   UNL A   1      48.042  27.071  30.709  1.00  0.00     0.058 A 
ATOM     88  C   UNL A   1      49.114  27.318  29.838  1.00  0.00     0.135 A 
ATOM     89  C   UNL A   1      48.325  26.444  31.934  1.00  0.00     0.135 A 
ATOM     90  F   UNL A   1      48.898  27.907  28.650  1.00  0.00    -0.206 F 
ATOM     91  C   UNL A   1      50.412  26.932  30.154  1.00  0.00     0.059 A 
ATOM     92  C   UNL A   1      49.619  26.077  32.285  1.00  0.00     0.059 A 
ATOM     93  F   UNL A   1      47.338  26.193  32.809  1.00  0.00    -0.206 F 
ATOM     94  C   UNL A   1      50.655  26.312  31.382  1.00  0.00     0.060 A 
BRANCH  94  95
ATOM     95  S   UNL A   1      52.348  25.838  31.792  1.00  0.00     0.124 S 
ATOM     96  O   UNL A   1      52.179  24.439  32.167  1.00  0.00    -0.237 OA
ATOM     97  O   UNL A   1      53.053  26.078  30.537  1.00  0.00    -0.237 OA
ATOM     98  O   UNL A   1      52.699  26.743  32.883  1.00  0.00    -0.744 OA
ENDBRANCH  94  95
ENDBRANCH  62  87
ENDBRANCH  36  37
ENDBRANCH  28  31
ENDBRANCH  26  27
ENDBRANCH   1  26
TORSDOF 18
ENDMDL
