MODEL 1
REMARK VINA RESULT:     -11.5      0.000      0.000
REMARK SMILES CCCc1nnc(SCC(=O)NCCCNC(=O)c2ccc(-c3c4nc(c(-c5c(F)cc(S(=O)(=O)[O-])cc5F)c5ccc([nH]5)c(-c5c(F)cc(S(=O)(=O)[O-])cc5F)c5nc(c(-c6c(F)cc(S(=O)(=O)[O-])cc6F)c6ccc3[nH]6)C=C5)C=C4)cc2)n1C[C@H]1CCCO1
REMARK SMILES IDX 13 1 12 2 10 3 11 4 9 6 8 7 7 8 4 9 5 10 85 11 6 12 3 13
REMARK SMILES IDX 2 14 1 15 86 16 87 17 88 18 91 19 89 20 90 21 14 22 15 23
REMARK SMILES IDX 16 24 17 25 18 27 19 28 20 29 84 30 21 31 83 32 22 33 23 34
REMARK SMILES IDX 24 35 77 36 25 37 82 38 76 39 78 40 26 41 81 42 75 43 74 44
REMARK SMILES IDX 27 46 61 47 40 48 60 49 41 50 44 51 59 52 79 53 42 54 43 55
REMARK SMILES IDX 58 57 80 58 45 59 28 60 29 61 38 62 30 63 31 64 37 65 39 66
REMARK SMILES IDX 32 67 33 68 34 69 35 70 36 71 62 72 63 73 72 74 64 75 65 76
REMARK SMILES IDX 71 77 73 78 66 79 67 80 68 81 69 82 70 83 46 84 47 85 56 86
REMARK SMILES IDX 48 87 49 88 55 89 57 90 50 91 51 92 52 93 53 94 54 95
REMARK H PARENT 12 5 16 26 78 45 44 56
REMARK Flexibility Score: inf
ROOT
ATOM      1  C   UNL A   1      36.299  21.485  25.659  1.00  0.00     0.117 C 
ENDROOT
BRANCH   1   2
ATOM      2  N   UNL A   1      35.516  20.338  25.252  1.00  0.00    -0.355 N 
ATOM      3  C   UNL A   1      34.163  20.226  25.205  1.00  0.00     0.230 C 
ATOM      4  O   UNL A   1      33.666  19.117  25.011  1.00  0.00    -0.274 OA
ATOM      5  H   UNL A   1      36.025  19.542  24.975  1.00  0.00     0.163 HD
BRANCH   3   6
ATOM      6  C   UNL A   1      33.329  21.473  25.253  1.00  0.00     0.178 C 
BRANCH   6   7
ATOM      7  S   UNL A   1      33.121  22.241  26.834  1.00  0.00    -0.076 SA
BRANCH   7   8
ATOM      8  C   UNL A   1      32.054  23.588  26.704  1.00  0.00     0.191 A 
ATOM      9  C   UNL A   1      30.938  25.384  26.162  1.00  0.00     0.133 A 
ATOM     10  N   UNL A   1      30.114  24.553  26.763  1.00  0.00    -0.134 NA
ATOM     11  N   UNL A   1      32.236  24.878  26.259  1.00  0.00    -0.303 N 
ATOM     12  N   UNL A   1      30.812  23.442  27.109  1.00  0.00    -0.123 NA
BRANCH   9  13
ATOM     13  C   UNL A   1      30.536  26.623  25.423  1.00  0.00     0.077 C 
BRANCH  13  14
ATOM     14  C   UNL A   1      29.463  26.398  24.350  1.00  0.00     0.005 C 
ATOM     15  C   UNL A   1      29.364  27.528  23.333  1.00  0.00     0.004 C 
ENDBRANCH  13  14
ENDBRANCH   9  13
BRANCH  11  16
ATOM     16  C   UNL A   1      33.413  25.562  25.775  1.00  0.00     0.158 C 
BRANCH  16  17
ATOM     17  C   UNL A   1      33.899  25.363  24.315  1.00  0.00     0.138 C 
ATOM     18  C   UNL A   1      33.167  24.468  23.319  1.00  0.00     0.036 C 
ATOM     19  O   UNL A   1      33.917  26.671  23.695  1.00  0.00    -0.376 OA
ATOM     20  C   UNL A   1      32.356  25.383  22.426  1.00  0.00     0.031 C 
ATOM     21  C   UNL A   1      32.966  26.748  22.630  1.00  0.00     0.160 C 
ENDBRANCH  16  17
ENDBRANCH  11  16
ENDBRANCH   7   8
ENDBRANCH   6   7
ENDBRANCH   3   6
ENDBRANCH   1   2
BRANCH   1  22
ATOM     22  C   UNL A   1      37.749  21.387  25.186  1.00  0.00     0.042 C 
BRANCH  22  23
ATOM     23  C   UNL A   1      38.677  22.275  25.993  1.00  0.00     0.118 C 
BRANCH  23  24
ATOM     24  N   UNL A   1      40.076  21.937  25.761  1.00  0.00    -0.352 N 
ATOM     25  C   UNL A   1      41.174  22.754  25.901  1.00  0.00     0.251 C 
ATOM     26  H   UNL A   1      40.256  21.014  25.470  1.00  0.00     0.163 HD
ATOM     27  O   UNL A   1      42.226  22.478  25.347  1.00  0.00    -0.269 OA
BRANCH  25  28
ATOM     28  C   UNL A   1      41.045  23.959  26.736  1.00  0.00     0.039 A 
ATOM     29  C   UNL A   1      41.444  23.936  28.072  1.00  0.00     0.014 A 
ATOM     30  C   UNL A   1      40.542  25.123  26.151  1.00  0.00     0.014 A 
ATOM     31  C   UNL A   1      41.384  25.117  28.800  1.00  0.00     0.010 A 
ATOM     32  C   UNL A   1      40.608  26.314  26.830  1.00  0.00     0.010 A 
ATOM     33  C   UNL A   1      40.983  26.307  28.166  1.00  0.00    -0.014 A 
BRANCH  33  34
ATOM     34  C   UNL A   1      41.124  27.586  28.853  1.00  0.00     0.031 A 
ATOM     35  C   UNL A   1      42.242  28.400  28.311  1.00  0.00     0.074 A 
ATOM     36  C   UNL A   1      40.227  28.066  29.742  1.00  0.00     0.049 A 
ATOM     37  N   UNL A   1      43.411  28.557  28.835  1.00  0.00    -0.248 NA
ATOM     38  C   UNL A   1      42.145  28.902  26.927  1.00  0.00     0.031 C 
ATOM     39  C   UNL A   1      38.930  27.492  30.118  1.00  0.00     0.029 A 
ATOM     40  N   UNL A   1      40.244  29.233  30.444  1.00  0.00    -0.354 N 
ATOM     41  C   UNL A   1      44.077  29.441  27.993  1.00  0.00     0.074 A 
ATOM     42  C   UNL A   1      43.374  29.394  26.740  1.00  0.00     0.031 C 
ATOM     43  C   UNL A   1      38.200  28.413  30.786  1.00  0.00     0.029 A 
ATOM     44  C   UNL A   1      39.029  29.578  31.034  1.00  0.00     0.049 A 
ATOM     45  H   UNL A   1      41.053  29.788  30.529  1.00  0.00     0.167 HD
ATOM     46  C   UNL A   1      44.926  30.371  28.514  1.00  0.00     0.037 A 
ATOM     47  C   UNL A   1      38.727  30.743  31.669  1.00  0.00     0.037 A 
ATOM     48  C   UNL A   1      45.268  30.032  29.878  1.00  0.00     0.049 A 
ATOM     49  C   UNL A   1      40.020  31.354  32.071  1.00  0.00     0.074 A 
ATOM     50  C   UNL A   1      45.836  28.941  30.510  1.00  0.00     0.029 A 
ATOM     51  N   UNL A   1      44.635  30.750  30.864  1.00  0.00    -0.354 N 
ATOM     52  N   UNL A   1      40.823  30.833  32.958  1.00  0.00    -0.248 NA
ATOM     53  C   UNL A   1      40.637  32.294  31.150  1.00  0.00     0.031 C 
ATOM     54  C   UNL A   1      45.137  28.821  31.747  1.00  0.00     0.029 A 
ATOM     55  C   UNL A   1      44.244  29.888  31.853  1.00  0.00     0.049 A 
ATOM     56  H   UNL A   1      44.487  31.722  30.859  1.00  0.00     0.167 HD
ATOM     57  C   UNL A   1      42.093  31.009  32.428  1.00  0.00     0.074 A 
ATOM     58  C   UNL A   1      41.922  32.004  31.370  1.00  0.00     0.031 C 
ATOM     59  C   UNL A   1      43.091  30.115  32.700  1.00  0.00     0.037 A 
BRANCH  46  60
ATOM     60  C   UNL A   1      45.066  31.790  27.993  1.00  0.00     0.058 A 
ATOM     61  C   UNL A   1      46.345  32.238  27.596  1.00  0.00     0.135 A 
ATOM     62  C   UNL A   1      44.095  32.806  28.149  1.00  0.00     0.135 A 
ATOM     63  F   UNL A   1      47.349  31.366  27.414  1.00  0.00    -0.206 F 
ATOM     64  C   UNL A   1      46.658  33.592  27.463  1.00  0.00     0.059 A 
ATOM     65  C   UNL A   1      44.372  34.156  27.970  1.00  0.00     0.059 A 
ATOM     66  F   UNL A   1      42.851  32.563  28.572  1.00  0.00    -0.206 F 
ATOM     67  C   UNL A   1      45.666  34.543  27.667  1.00  0.00     0.060 A 
BRANCH  67  68
ATOM     68  S   UNL A   1      46.082  36.292  27.570  1.00  0.00     0.124 S 
ATOM     69  O   UNL A   1      46.439  36.426  26.163  1.00  0.00    -0.237 OA
ATOM     70  O   UNL A   1      44.829  36.919  27.978  1.00  0.00    -0.237 OA
ATOM     71  O   UNL A   1      47.182  36.428  28.519  1.00  0.00    -0.744 OA
ENDBRANCH  67  68
ENDBRANCH  46  60
BRANCH  47  72
ATOM     72  C   UNL A   1      37.454  31.520  31.659  1.00  0.00     0.058 A 
ATOM     73  C   UNL A   1      36.729  31.746  32.846  1.00  0.00     0.135 A 
ATOM     74  C   UNL A   1      37.085  32.312  30.554  1.00  0.00     0.135 A 
ATOM     75  F   UNL A   1      37.016  31.048  33.956  1.00  0.00    -0.206 F 
ATOM     76  C   UNL A   1      35.748  32.742  32.951  1.00  0.00     0.059 A 
ATOM     77  C   UNL A   1      36.107  33.305  30.632  1.00  0.00     0.059 A 
ATOM     78  F   UNL A   1      37.735  32.211  29.386  1.00  0.00    -0.206 F 
ATOM     79  C   UNL A   1      35.461  33.536  31.841  1.00  0.00     0.060 A 
BRANCH  79  80
ATOM     80  S   UNL A   1      34.338  34.946  32.015  1.00  0.00     0.124 S 
ATOM     81  O   UNL A   1      35.131  35.866  32.825  1.00  0.00    -0.237 OA
ATOM     82  O   UNL A   1      34.121  35.343  30.628  1.00  0.00    -0.237 OA
ATOM     83  O   UNL A   1      33.175  34.371  32.685  1.00  0.00    -0.744 OA
ENDBRANCH  79  80
ENDBRANCH  47  72
BRANCH  59  84
ATOM     84  C   UNL A   1      42.910  29.181  33.871  1.00  0.00     0.058 A 
ATOM     85  C   UNL A   1      43.158  29.500  35.219  1.00  0.00     0.135 A 
ATOM     86  C   UNL A   1      42.348  27.923  33.609  1.00  0.00     0.135 A 
ATOM     87  F   UNL A   1      43.597  30.716  35.574  1.00  0.00    -0.206 F 
ATOM     88  C   UNL A   1      42.911  28.586  36.248  1.00  0.00     0.059 A 
ATOM     89  C   UNL A   1      42.061  27.011  34.619  1.00  0.00     0.059 A 
ATOM     90  F   UNL A   1      42.032  27.577  32.349  1.00  0.00    -0.206 F 
ATOM     91  C   UNL A   1      42.365  27.340  35.935  1.00  0.00     0.060 A 
BRANCH  91  92
ATOM     92  S   UNL A   1      42.017  26.166  37.262  1.00  0.00     0.124 S 
ATOM     93  O   UNL A   1      43.073  26.464  38.223  1.00  0.00    -0.237 OA
ATOM     94  O   UNL A   1      40.664  26.537  37.669  1.00  0.00    -0.237 OA
ATOM     95  O   UNL A   1      42.122  24.865  36.603  1.00  0.00    -0.744 OA
ENDBRANCH  91  92
ENDBRANCH  59  84
ENDBRANCH  33  34
ENDBRANCH  25  28
ENDBRANCH  23  24
ENDBRANCH  22  23
ENDBRANCH   1  22
TORSDOF 19
ENDMDL
MODEL 2
REMARK VINA RESULT:     -11.3      1.432      2.125
REMARK SMILES CCCc1nnc(SCC(=O)NCCCNC(=O)c2ccc(-c3c4nc(c(-c5c(F)cc(S(=O)(=O)[O-])cc5F)c5ccc([nH]5)c(-c5c(F)cc(S(=O)(=O)[O-])cc5F)c5nc(c(-c6c(F)cc(S(=O)(=O)[O-])cc6F)c6ccc3[nH]6)C=C5)C=C4)cc2)n1C[C@H]1CCCO1
REMARK SMILES IDX 13 1 12 2 10 3 11 4 9 6 8 7 7 8 4 9 5 10 85 11 6 12 3 13
REMARK SMILES IDX 2 14 1 15 86 16 87 17 88 18 91 19 89 20 90 21 14 22 15 23
REMARK SMILES IDX 16 24 17 25 18 27 19 28 20 29 84 30 21 31 83 32 22 33 23 34
REMARK SMILES IDX 24 35 77 36 25 37 82 38 76 39 78 40 26 41 81 42 75 43 74 44
REMARK SMILES IDX 27 46 61 47 40 48 60 49 41 50 44 51 59 52 79 53 42 54 43 55
REMARK SMILES IDX 58 57 80 58 45 59 28 60 29 61 38 62 30 63 31 64 37 65 39 66
REMARK SMILES IDX 32 67 33 68 34 69 35 70 36 71 62 72 63 73 72 74 64 75 65 76
REMARK SMILES IDX 71 77 73 78 66 79 67 80 68 81 69 82 70 83 46 84 47 85 56 86
REMARK SMILES IDX 48 87 49 88 55 89 57 90 50 91 51 92 52 93 53 94 54 95
REMARK H PARENT 12 5 16 26 78 45 44 56
REMARK Flexibility Score: inf
ROOT
ATOM      1  C   UNL A   1      37.975  23.146  25.824  1.00  0.00     0.117 C 
ENDROOT
BRANCH   1   2
ATOM      2  N   UNL A   1      37.338  23.349  24.541  1.00  0.00    -0.355 N 
ATOM      3  C   UNL A   1      36.149  22.852  24.113  1.00  0.00     0.230 C 
ATOM      4  O   UNL A   1      35.847  22.975  22.927  1.00  0.00    -0.274 OA
ATOM      5  H   UNL A   1      37.824  23.916  23.900  1.00  0.00     0.163 HD
BRANCH   3   6
ATOM      6  C   UNL A   1      35.188  22.296  25.124  1.00  0.00     0.178 C 
BRANCH   6   7
ATOM      7  S   UNL A   1      33.465  22.396  24.737  1.00  0.00    -0.076 SA
BRANCH   7   8
ATOM      8  C   UNL A   1      32.746  23.724  25.567  1.00  0.00     0.191 A 
ATOM      9  C   UNL A   1      31.885  25.620  26.221  1.00  0.00     0.133 A 
ATOM     10  N   UNL A   1      31.275  24.648  26.864  1.00  0.00    -0.134 NA
ATOM     11  N   UNL A   1      32.958  25.083  25.508  1.00  0.00    -0.303 N 
ATOM     12  N   UNL A   1      31.818  23.471  26.464  1.00  0.00    -0.123 NA
BRANCH   9  13
ATOM     13  C   UNL A   1      31.447  27.052  26.194  1.00  0.00     0.077 C 
BRANCH  13  14
ATOM     14  C   UNL A   1      31.836  27.855  27.441  1.00  0.00     0.005 C 
ATOM     15  C   UNL A   1      33.010  28.801  27.222  1.00  0.00     0.004 C 
ENDBRANCH  13  14
ENDBRANCH   9  13
BRANCH  11  16
ATOM     16  C   UNL A   1      33.900  25.867  24.742  1.00  0.00     0.158 C 
BRANCH  16  17
ATOM     17  C   UNL A   1      33.627  26.193  23.250  1.00  0.00     0.138 C 
ATOM     18  C   UNL A   1      32.389  25.695  22.511  1.00  0.00     0.036 C 
ATOM     19  O   UNL A   1      33.572  27.635  23.137  1.00  0.00    -0.376 OA
ATOM     20  C   UNL A   1      31.420  26.857  22.453  1.00  0.00     0.031 C 
ATOM     21  C   UNL A   1      32.267  28.071  22.748  1.00  0.00     0.160 C 
ENDBRANCH  16  17
ENDBRANCH  11  16
ENDBRANCH   7   8
ENDBRANCH   6   7
ENDBRANCH   3   6
ENDBRANCH   1   2
BRANCH   1  22
ATOM     22  C   UNL A   1      38.871  21.907  25.832  1.00  0.00     0.042 C 
BRANCH  22  23
ATOM     23  C   UNL A   1      40.029  22.042  26.801  1.00  0.00     0.118 C 
BRANCH  23  24
ATOM     24  N   UNL A   1      41.294  21.678  26.176  1.00  0.00    -0.352 N 
ATOM     25  C   UNL A   1      42.295  22.521  25.747  1.00  0.00     0.251 C 
ATOM     26  H   UNL A   1      41.453  20.716  26.045  1.00  0.00     0.163 HD
ATOM     27  O   UNL A   1      43.121  22.137  24.936  1.00  0.00    -0.269 OA
BRANCH  25  28
ATOM     28  C   UNL A   1      42.341  23.885  26.298  1.00  0.00     0.039 A 
ATOM     29  C   UNL A   1      41.767  24.946  25.598  1.00  0.00     0.014 A 
ATOM     30  C   UNL A   1      42.945  24.081  27.541  1.00  0.00     0.014 A 
ATOM     31  C   UNL A   1      41.756  26.201  26.193  1.00  0.00     0.010 A 
ATOM     32  C   UNL A   1      42.817  25.287  28.182  1.00  0.00     0.010 A 
ATOM     33  C   UNL A   1      42.267  26.360  27.494  1.00  0.00    -0.014 A 
BRANCH  33  34
ATOM     34  C   UNL A   1      42.066  27.613  28.211  1.00  0.00     0.031 A 
ATOM     35  C   UNL A   1      43.167  28.583  27.977  1.00  0.00     0.074 A 
ATOM     36  C   UNL A   1      40.923  27.939  28.853  1.00  0.00     0.049 A 
ATOM     37  N   UNL A   1      44.140  28.859  28.780  1.00  0.00    -0.248 NA
ATOM     38  C   UNL A   1      43.350  29.131  26.620  1.00  0.00     0.031 C 
ATOM     39  C   UNL A   1      39.660  27.193  28.885  1.00  0.00     0.029 A 
ATOM     40  N   UNL A   1      40.614  29.066  29.552  1.00  0.00    -0.354 N 
ATOM     41  C   UNL A   1      44.871  29.856  28.143  1.00  0.00     0.074 A 
ATOM     42  C   UNL A   1      44.512  29.779  26.754  1.00  0.00     0.031 C 
ATOM     43  C   UNL A   1      38.674  27.986  29.361  1.00  0.00     0.029 A 
ATOM     44  C   UNL A   1      39.256  29.232  29.823  1.00  0.00     0.049 A 
ATOM     45  H   UNL A   1      41.296  29.712  29.845  1.00  0.00     0.167 HD
ATOM     46  C   UNL A   1      45.437  30.858  28.872  1.00  0.00     0.037 A 
ATOM     47  C   UNL A   1      38.657  30.321  30.378  1.00  0.00     0.037 A 
ATOM     48  C   UNL A   1      45.473  30.502  30.274  1.00  0.00     0.049 A 
ATOM     49  C   UNL A   1      39.719  31.067  31.099  1.00  0.00     0.074 A 
ATOM     50  C   UNL A   1      46.005  29.463  31.014  1.00  0.00     0.029 A 
ATOM     51  N   UNL A   1      44.528  31.092  31.079  1.00  0.00    -0.354 N 
ATOM     52  N   UNL A   1      40.340  30.609  32.152  1.00  0.00    -0.248 NA
ATOM     53  C   UNL A   1      40.416  32.117  30.375  1.00  0.00     0.031 C 
ATOM     54  C   UNL A   1      45.043  29.202  32.035  1.00  0.00     0.029 A 
ATOM     55  C   UNL A   1      44.021  30.145  31.928  1.00  0.00     0.049 A 
ATOM     56  H   UNL A   1      44.260  32.038  31.050  1.00  0.00     0.167 HD
ATOM     57  C   UNL A   1      41.667  30.964  31.959  1.00  0.00     0.074 A 
ATOM     58  C   UNL A   1      41.634  31.978  30.905  1.00  0.00     0.031 C 
ATOM     59  C   UNL A   1      42.675  30.189  32.461  1.00  0.00     0.037 A 
BRANCH  46  60
ATOM     60  C   UNL A   1      45.515  32.306  28.422  1.00  0.00     0.058 A 
ATOM     61  C   UNL A   1      46.748  32.982  28.539  1.00  0.00     0.135 A 
ATOM     62  C   UNL A   1      44.396  33.135  28.176  1.00  0.00     0.135 A 
ATOM     63  F   UNL A   1      47.882  32.302  28.772  1.00  0.00    -0.206 F 
ATOM     64  C   UNL A   1      46.847  34.374  28.514  1.00  0.00     0.059 A 
ATOM     65  C   UNL A   1      44.480  34.520  28.095  1.00  0.00     0.059 A 
ATOM     66  F   UNL A   1      43.148  32.666  28.093  1.00  0.00    -0.206 F 
ATOM     67  C   UNL A   1      45.702  35.134  28.306  1.00  0.00     0.060 A 
BRANCH  67  68
ATOM     68  S   UNL A   1      45.812  36.930  28.347  1.00  0.00     0.124 S 
ATOM     69  O   UNL A   1      44.915  37.250  29.451  1.00  0.00    -0.237 OA
ATOM     70  O   UNL A   1      47.236  37.135  28.595  1.00  0.00    -0.237 OA
ATOM     71  O   UNL A   1      45.350  37.325  27.020  1.00  0.00    -0.744 OA
ENDBRANCH  67  68
ENDBRANCH  46  60
BRANCH  47  72
ATOM     72  C   UNL A   1      37.335  30.934  30.059  1.00  0.00     0.058 A 
ATOM     73  C   UNL A   1      36.562  31.558  31.058  1.00  0.00     0.135 A 
ATOM     74  C   UNL A   1      36.948  31.195  28.730  1.00  0.00     0.135 A 
ATOM     75  F   UNL A   1      36.862  31.380  32.354  1.00  0.00    -0.206 F 
ATOM     76  C   UNL A   1      35.514  32.439  30.757  1.00  0.00     0.059 A 
ATOM     77  C   UNL A   1      35.903  32.062  28.407  1.00  0.00     0.059 A 
ATOM     78  F   UNL A   1      37.637  30.687  27.698  1.00  0.00    -0.206 F 
ATOM     79  C   UNL A   1      35.208  32.705  29.424  1.00  0.00     0.060 A 
BRANCH  79  80
ATOM     80  S   UNL A   1      33.988  33.982  29.022  1.00  0.00     0.124 S 
ATOM     81  O   UNL A   1      34.828  35.040  28.469  1.00  0.00    -0.237 OA
ATOM     82  O   UNL A   1      33.120  33.296  28.071  1.00  0.00    -0.237 OA
ATOM     83  O   UNL A   1      33.377  34.284  30.314  1.00  0.00    -0.744 OA
ENDBRANCH  79  80
ENDBRANCH  47  72
BRANCH  59  84
ATOM     84  C   UNL A   1      42.334  29.188  33.538  1.00  0.00     0.058 A 
ATOM     85  C   UNL A   1      41.816  27.898  33.323  1.00  0.00     0.135 A 
ATOM     86  C   UNL A   1      42.660  29.530  34.859  1.00  0.00     0.135 A 
ATOM     87  F   UNL A   1      41.573  27.447  32.084  1.00  0.00    -0.206 F 
ATOM     88  C   UNL A   1      41.581  27.015  34.380  1.00  0.00     0.059 A 
ATOM     89  C   UNL A   1      42.468  28.655  35.923  1.00  0.00     0.059 A 
ATOM     90  F   UNL A   1      43.214  30.725  35.128  1.00  0.00    -0.206 F 
ATOM     91  C   UNL A   1      41.907  27.406  35.680  1.00  0.00     0.060 A 
BRANCH  91  92
ATOM     92  S   UNL A   1      41.632  26.260  37.048  1.00  0.00     0.124 S 
ATOM     93  O   UNL A   1      41.522  24.979  36.359  1.00  0.00    -0.237 OA
ATOM     94  O   UNL A   1      42.831  26.442  37.862  1.00  0.00    -0.237 OA
ATOM     95  O   UNL A   1      40.397  26.746  37.659  1.00  0.00    -0.744 OA
ENDBRANCH  91  92
ENDBRANCH  59  84
ENDBRANCH  33  34
ENDBRANCH  25  28
ENDBRANCH  23  24
ENDBRANCH  22  23
ENDBRANCH   1  22
TORSDOF 19
ENDMDL
MODEL 3
REMARK VINA RESULT:     -11.2      1.398      1.981
REMARK SMILES CCCc1nnc(SCC(=O)NCCCNC(=O)c2ccc(-c3c4nc(c(-c5c(F)cc(S(=O)(=O)[O-])cc5F)c5ccc([nH]5)c(-c5c(F)cc(S(=O)(=O)[O-])cc5F)c5nc(c(-c6c(F)cc(S(=O)(=O)[O-])cc6F)c6ccc3[nH]6)C=C5)C=C4)cc2)n1C[C@H]1CCCO1
REMARK SMILES IDX 13 1 12 2 10 3 11 4 9 6 8 7 7 8 4 9 5 10 85 11 6 12 3 13
REMARK SMILES IDX 2 14 1 15 86 16 87 17 88 18 91 19 89 20 90 21 14 22 15 23
REMARK SMILES IDX 16 24 17 25 18 27 19 28 20 29 84 30 21 31 83 32 22 33 23 34
REMARK SMILES IDX 24 35 77 36 25 37 82 38 76 39 78 40 26 41 81 42 75 43 74 44
REMARK SMILES IDX 27 46 61 47 40 48 60 49 41 50 44 51 59 52 79 53 42 54 43 55
REMARK SMILES IDX 58 57 80 58 45 59 28 60 29 61 38 62 30 63 31 64 37 65 39 66
REMARK SMILES IDX 32 67 33 68 34 69 35 70 36 71 62 72 63 73 72 74 64 75 65 76
REMARK SMILES IDX 71 77 73 78 66 79 67 80 68 81 69 82 70 83 46 84 47 85 56 86
REMARK SMILES IDX 48 87 49 88 55 89 57 90 50 91 51 92 52 93 53 94 54 95
REMARK H PARENT 12 5 16 26 78 45 44 56
REMARK Flexibility Score: inf
ROOT
ATOM      1  C   UNL A   1      37.803  22.606  25.393  1.00  0.00     0.117 C 
ENDROOT
BRANCH   1   2
ATOM      2  N   UNL A   1      36.573  22.509  26.150  1.00  0.00    -0.355 N 
ATOM      3  C   UNL A   1      35.389  23.127  25.900  1.00  0.00     0.230 C 
ATOM      4  O   UNL A   1      34.503  23.075  26.751  1.00  0.00    -0.274 OA
ATOM      5  H   UNL A   1      36.596  21.925  26.942  1.00  0.00     0.163 HD
BRANCH   3   6
ATOM      6  C   UNL A   1      35.156  23.728  24.544  1.00  0.00     0.178 C 
BRANCH   6   7
ATOM      7  S   UNL A   1      33.897  22.993  23.543  1.00  0.00    -0.076 SA
BRANCH   7   8
ATOM      8  C   UNL A   1      32.963  24.216  22.769  1.00  0.00     0.191 A 
ATOM      9  C   UNL A   1      31.779  25.959  22.198  1.00  0.00     0.133 A 
ATOM     10  N   UNL A   1      32.510  25.603  21.165  1.00  0.00    -0.134 NA
ATOM     11  N   UNL A   1      31.907  24.989  23.195  1.00  0.00    -0.303 N 
ATOM     12  N   UNL A   1      33.238  24.513  21.517  1.00  0.00    -0.123 NA
BRANCH   9  13
ATOM     13  C   UNL A   1      31.006  27.236  22.315  1.00  0.00     0.077 C 
BRANCH  13  14
ATOM     14  C   UNL A   1      31.771  28.378  22.995  1.00  0.00     0.005 C 
ATOM     15  C   UNL A   1      30.885  29.318  23.802  1.00  0.00     0.004 C 
ENDBRANCH  13  14
ENDBRANCH   9  13
BRANCH  11  16
ATOM     16  C   UNL A   1      31.187  25.011  24.447  1.00  0.00     0.158 C 
BRANCH  16  17
ATOM     17  C   UNL A   1      31.923  25.326  25.777  1.00  0.00     0.138 C 
ATOM     18  C   UNL A   1      33.171  26.201  25.839  1.00  0.00     0.036 C 
ATOM     19  O   UNL A   1      30.966  25.981  26.643  1.00  0.00    -0.376 OA
ATOM     20  C   UNL A   1      32.721  27.567  26.313  1.00  0.00     0.031 C 
ATOM     21  C   UNL A   1      31.360  27.328  26.918  1.00  0.00     0.160 C 
ENDBRANCH  16  17
ENDBRANCH  11  16
ENDBRANCH   7   8
ENDBRANCH   6   7
ENDBRANCH   3   6
ENDBRANCH   1   2
BRANCH   1  22
ATOM     22  C   UNL A   1      38.763  21.459  25.709  1.00  0.00     0.042 C 
BRANCH  22  23
ATOM     23  C   UNL A   1      39.878  21.885  26.644  1.00  0.00     0.118 C 
BRANCH  23  24
ATOM     24  N   UNL A   1      41.148  22.010  25.939  1.00  0.00    -0.352 N 
ATOM     25  C   UNL A   1      41.894  23.151  25.743  1.00  0.00     0.251 C 
ATOM     26  H   UNL A   1      41.516  21.181  25.559  1.00  0.00     0.163 HD
ATOM     27  O   UNL A   1      42.729  23.198  24.856  1.00  0.00    -0.269 OA
BRANCH  25  28
ATOM     28  C   UNL A   1      41.659  24.298  26.634  1.00  0.00     0.039 A 
ATOM     29  C   UNL A   1      42.119  24.275  27.950  1.00  0.00     0.014 A 
ATOM     30  C   UNL A   1      40.993  25.413  26.120  1.00  0.00     0.014 A 
ATOM     31  C   UNL A   1      41.951  25.413  28.729  1.00  0.00     0.010 A 
ATOM     32  C   UNL A   1      40.947  26.577  26.844  1.00  0.00     0.010 A 
ATOM     33  C   UNL A   1      41.380  26.567  28.163  1.00  0.00    -0.014 A 
BRANCH  33  34
ATOM     34  C   UNL A   1      41.398  27.827  28.897  1.00  0.00     0.031 A 
ATOM     35  C   UNL A   1      42.471  28.741  28.428  1.00  0.00     0.074 A 
ATOM     36  C   UNL A   1      40.434  28.207  29.763  1.00  0.00     0.049 A 
ATOM     37  N   UNL A   1      43.604  28.965  29.005  1.00  0.00    -0.248 NA
ATOM     38  C   UNL A   1      42.390  29.284  27.059  1.00  0.00     0.031 C 
ATOM     39  C   UNL A   1      39.171  27.525  30.067  1.00  0.00     0.029 A 
ATOM     40  N   UNL A   1      40.336  29.346  30.504  1.00  0.00    -0.354 N 
ATOM     41  C   UNL A   1      44.233  29.926  28.221  1.00  0.00     0.074 A 
ATOM     42  C   UNL A   1      43.585  29.872  26.940  1.00  0.00     0.031 C 
ATOM     43  C   UNL A   1      38.348  28.365  30.735  1.00  0.00     0.029 A 
ATOM     44  C   UNL A   1      39.076  29.579  31.054  1.00  0.00     0.049 A 
ATOM     45  H   UNL A   1      41.096  29.957  30.640  1.00  0.00     0.167 HD
ATOM     46  C   UNL A   1      44.989  30.896  28.807  1.00  0.00     0.037 A 
ATOM     47  C   UNL A   1      38.663  30.695  31.715  1.00  0.00     0.037 A 
ATOM     48  C   UNL A   1      45.303  30.535  30.172  1.00  0.00     0.049 A 
ATOM     49  C   UNL A   1      39.889  31.385  32.189  1.00  0.00     0.074 A 
ATOM     50  C   UNL A   1      45.927  29.467  30.790  1.00  0.00     0.029 A 
ATOM     51  N   UNL A   1      44.580  31.169  31.154  1.00  0.00    -0.354 N 
ATOM     52  N   UNL A   1      40.695  30.893  33.091  1.00  0.00    -0.248 NA
ATOM     53  C   UNL A   1      40.469  32.401  31.327  1.00  0.00     0.031 C 
ATOM     54  C   UNL A   1      45.191  29.251  31.993  1.00  0.00     0.029 A 
ATOM     55  C   UNL A   1      44.217  30.245  32.097  1.00  0.00     0.049 A 
ATOM     56  H   UNL A   1      44.359  32.127  31.175  1.00  0.00     0.167 HD
ATOM     57  C   UNL A   1      41.967  31.181  32.620  1.00  0.00     0.074 A 
ATOM     58  C   UNL A   1      41.763  32.199  31.589  1.00  0.00     0.031 C 
ATOM     59  C   UNL A   1      43.018  30.355  32.903  1.00  0.00     0.037 A 
BRANCH  46  60
ATOM     60  C   UNL A   1      45.042  32.340  28.339  1.00  0.00     0.058 A 
ATOM     61  C   UNL A   1      46.299  32.902  28.029  1.00  0.00     0.135 A 
ATOM     62  C   UNL A   1      43.985  33.270  28.473  1.00  0.00     0.135 A 
ATOM     63  F   UNL A   1      47.379  32.119  27.876  1.00  0.00    -0.206 F 
ATOM     64  C   UNL A   1      46.508  34.279  27.956  1.00  0.00     0.059 A 
ATOM     65  C   UNL A   1      44.162  34.643  28.352  1.00  0.00     0.059 A 
ATOM     66  F   UNL A   1      42.744  32.915  28.818  1.00  0.00    -0.206 F 
ATOM     67  C   UNL A   1      45.434  35.142  28.134  1.00  0.00     0.060 A 
BRANCH  67  68
ATOM     68  S   UNL A   1      45.712  36.920  28.115  1.00  0.00     0.124 S 
ATOM     69  O   UNL A   1      45.665  37.236  29.537  1.00  0.00    -0.237 OA
ATOM     70  O   UNL A   1      47.023  37.009  27.479  1.00  0.00    -0.237 OA
ATOM     71  O   UNL A   1      44.600  37.425  27.316  1.00  0.00    -0.744 OA
ENDBRANCH  67  68
ENDBRANCH  46  60
BRANCH  47  72
ATOM     72  C   UNL A   1      37.336  31.375  31.678  1.00  0.00     0.058 A 
ATOM     73  C   UNL A   1      36.649  31.697  32.865  1.00  0.00     0.135 A 
ATOM     74  C   UNL A   1      36.861  31.995  30.506  1.00  0.00     0.135 A 
ATOM     75  F   UNL A   1      37.036  31.165  34.035  1.00  0.00    -0.206 F 
ATOM     76  C   UNL A   1      35.602  32.629  32.900  1.00  0.00     0.059 A 
ATOM     77  C   UNL A   1      35.815  32.920  30.515  1.00  0.00     0.059 A 
ATOM     78  F   UNL A   1      37.464  31.794  29.326  1.00  0.00    -0.206 F 
ATOM     79  C   UNL A   1      35.208  33.256  31.719  1.00  0.00     0.060 A 
BRANCH  79  80
ATOM     80  S   UNL A   1      33.992  34.596  31.780  1.00  0.00     0.124 S 
ATOM     81  O   UNL A   1      33.494  34.615  30.408  1.00  0.00    -0.237 OA
ATOM     82  O   UNL A   1      33.054  34.120  32.791  1.00  0.00    -0.237 OA
ATOM     83  O   UNL A   1      34.787  35.757  32.169  1.00  0.00    -0.744 OA
ENDBRANCH  79  80
ENDBRANCH  47  72
BRANCH  59  84
ATOM     84  C   UNL A   1      42.864  29.369  34.035  1.00  0.00     0.058 A 
ATOM     85  C   UNL A   1      43.047  29.653  35.400  1.00  0.00     0.135 A 
ATOM     86  C   UNL A   1      42.396  28.086  33.709  1.00  0.00     0.135 A 
ATOM     87  F   UNL A   1      43.391  30.882  35.812  1.00  0.00    -0.206 F 
ATOM     88  C   UNL A   1      42.829  28.688  36.388  1.00  0.00     0.059 A 
ATOM     89  C   UNL A   1      42.139  27.121  34.677  1.00  0.00     0.059 A 
ATOM     90  F   UNL A   1      42.144  27.767  32.428  1.00  0.00    -0.206 F 
ATOM     91  C   UNL A   1      42.379  27.421  36.014  1.00  0.00     0.060 A 
BRANCH  91  92
ATOM     92  S   UNL A   1      42.067  26.178  37.286  1.00  0.00     0.124 S 
ATOM     93  O   UNL A   1      43.094  26.487  38.276  1.00  0.00    -0.237 OA
ATOM     94  O   UNL A   1      40.693  26.467  37.685  1.00  0.00    -0.237 OA
ATOM     95  O   UNL A   1      42.247  24.912  36.578  1.00  0.00    -0.744 OA
ENDBRANCH  91  92
ENDBRANCH  59  84
ENDBRANCH  33  34
ENDBRANCH  25  28
ENDBRANCH  23  24
ENDBRANCH  22  23
ENDBRANCH   1  22
TORSDOF 19
ENDMDL
