MODEL 1
REMARK VINA RESULT:     -10.9      0.000      0.000
REMARK SMILES C=C(c1ccccc1)[C@@H](C(=O)NCCCNC(=O)c1ccc(-c2c3nc(c(-c4c(F)cc(S(=O)(=O)[O-])cc4F)c4ccc([nH]4)c(-c4c(F)cc(S(=O)(=O)[O-])cc4F)c4nc(c(-c5c(F)cc(S(=O)(=O)[O-])cc5F)c5ccc2[nH]5)C=C4)C=C3)cc1)S(C)(=O)=O
REMARK SMILES IDX 14 1 13 2 12 3 10 4 11 5 9 7 2 8 1 9 3 10 4 11 8 12 5 13
REMARK SMILES IDX 7 14 6 15 85 16 86 17 87 18 88 19 15 20 16 21 17 22 18 24
REMARK SMILES IDX 19 25 20 26 84 27 21 28 83 29 22 30 23 31 24 32 77 33 25 34
REMARK SMILES IDX 82 35 76 36 78 37 26 38 81 39 75 40 74 41 27 43 61 44 40 45
REMARK SMILES IDX 60 46 41 47 44 48 59 49 79 50 42 51 43 52 58 54 80 55 45 56
REMARK SMILES IDX 28 57 29 58 38 59 30 60 31 61 37 62 39 63 32 64 33 65 34 66
REMARK SMILES IDX 35 67 36 68 62 69 63 70 72 71 64 72 65 73 71 74 73 75 66 76
REMARK SMILES IDX 67 77 68 78 69 79 70 80 46 81 47 82 56 83 48 84 49 85 55 86
REMARK SMILES IDX 57 87 50 88 51 89 52 90 53 91 54 92
REMARK H PARENT 12 6 16 23 78 42 44 53
REMARK Flexibility Score: inf
ROOT
ATOM      1  C   UNL A   1      33.573  28.096  25.062  1.00  0.00     0.042 C 
ENDROOT
BRANCH   1   2
ATOM      2  C   UNL A   1      33.650  26.670  24.525  1.00  0.00     0.117 C 
BRANCH   2   3
ATOM      3  N   UNL A   1      32.332  26.151  24.210  1.00  0.00    -0.355 N 
ATOM      4  C   UNL A   1      31.840  24.875  24.309  1.00  0.00     0.242 C 
ATOM      5  O   UNL A   1      30.743  24.679  23.789  1.00  0.00    -0.273 OA
ATOM      6  H   UNL A   1      31.692  26.819  23.874  1.00  0.00     0.163 HD
BRANCH   4   7
ATOM      7  C   UNL A   1      32.644  23.809  25.054  1.00  0.00     0.227 C 
BRANCH   7   8
ATOM      8  C   UNL A   1      33.075  22.648  24.161  1.00  0.00    -0.020 C 
ATOM      9  C   UNL A   1      32.240  22.053  23.286  1.00  0.00     0.015 C 
BRANCH   8  10
ATOM     10  C   UNL A   1      34.502  22.210  24.225  1.00  0.00    -0.021 A 
ATOM     11  C   UNL A   1      34.883  20.994  24.813  1.00  0.00     0.008 A 
ATOM     12  C   UNL A   1      35.531  23.064  23.785  1.00  0.00     0.008 A 
ATOM     13  C   UNL A   1      36.232  20.654  24.975  1.00  0.00     0.001 A 
ATOM     14  C   UNL A   1      36.878  22.733  23.959  1.00  0.00     0.001 A 
ATOM     15  C   UNL A   1      37.229  21.530  24.558  1.00  0.00     0.000 A 
ENDBRANCH   8  10
ENDBRANCH   7   8
BRANCH   7  16
ATOM     16  S   UNL A   1      31.676  23.237  26.475  1.00  0.00     0.163 S 
ATOM     17  C   UNL A   1      32.856  22.445  27.538  1.00  0.00     0.159 C 
ATOM     18  O   UNL A   1      31.231  24.406  27.221  1.00  0.00    -0.228 OA
ATOM     19  O   UNL A   1      30.732  22.201  26.101  1.00  0.00    -0.228 OA
ENDBRANCH   7  16
ENDBRANCH   4   7
ENDBRANCH   2   3
ENDBRANCH   1   2
BRANCH   1  20
ATOM     20  C   UNL A   1      33.907  28.229  26.544  1.00  0.00     0.118 C 
BRANCH  20  21
ATOM     21  N   UNL A   1      33.709  29.581  27.039  1.00  0.00    -0.352 N 
ATOM     22  C   UNL A   1      34.509  30.365  27.832  1.00  0.00     0.251 C 
ATOM     23  H   UNL A   1      32.866  30.004  26.760  1.00  0.00     0.163 HD
ATOM     24  O   UNL A   1      34.046  31.403  28.299  1.00  0.00    -0.269 OA
BRANCH  22  25
ATOM     25  C   UNL A   1      35.904  29.973  28.142  1.00  0.00     0.039 A 
ATOM     26  C   UNL A   1      36.871  30.094  27.138  1.00  0.00     0.014 A 
ATOM     27  C   UNL A   1      36.261  29.441  29.384  1.00  0.00     0.014 A 
ATOM     28  C   UNL A   1      38.194  29.727  27.395  1.00  0.00     0.010 A 
ATOM     29  C   UNL A   1      37.598  29.157  29.666  1.00  0.00     0.010 A 
ATOM     30  C   UNL A   1      38.577  29.282  28.671  1.00  0.00    -0.014 A 
BRANCH  30  31
ATOM     31  C   UNL A   1      39.991  28.930  28.967  1.00  0.00     0.031 A 
ATOM     32  C   UNL A   1      40.914  29.945  29.591  1.00  0.00     0.074 A 
ATOM     33  C   UNL A   1      40.458  27.709  28.638  1.00  0.00     0.049 A 
ATOM     34  N   UNL A   1      42.183  29.834  29.891  1.00  0.00    -0.248 NA
ATOM     35  C   UNL A   1      40.343  31.268  29.894  1.00  0.00     0.031 C 
ATOM     36  C   UNL A   1      39.679  26.653  27.988  1.00  0.00     0.029 A 
ATOM     37  N   UNL A   1      41.700  27.148  28.802  1.00  0.00    -0.354 N 
ATOM     38  C   UNL A   1      42.562  31.068  30.407  1.00  0.00     0.074 A 
ATOM     39  C   UNL A   1      41.406  31.932  30.322  1.00  0.00     0.031 C 
ATOM     40  C   UNL A   1      40.451  25.566  27.833  1.00  0.00     0.029 A 
ATOM     41  C   UNL A   1      41.790  25.857  28.336  1.00  0.00     0.049 A 
ATOM     42  H   UNL A   1      42.456  27.625  29.215  1.00  0.00     0.167 HD
ATOM     43  C   UNL A   1      43.757  31.441  30.926  1.00  0.00     0.037 A 
ATOM     44  C   UNL A   1      42.834  25.006  28.307  1.00  0.00     0.037 A 
ATOM     45  C   UNL A   1      44.901  30.570  31.025  1.00  0.00     0.049 A 
ATOM     46  C   UNL A   1      44.153  25.446  28.885  1.00  0.00     0.074 A 
ATOM     47  C   UNL A   1      46.139  30.836  31.583  1.00  0.00     0.029 A 
ATOM     48  N   UNL A   1      44.949  29.267  30.551  1.00  0.00    -0.354 N 
ATOM     49  N   UNL A   1      44.474  26.596  29.427  1.00  0.00    -0.248 NA
ATOM     50  C   UNL A   1      45.248  24.467  28.856  1.00  0.00     0.031 C 
ATOM     51  C   UNL A   1      46.953  29.713  31.399  1.00  0.00     0.029 A 
ATOM     52  C   UNL A   1      46.203  28.724  30.782  1.00  0.00     0.049 A 
ATOM     53  H   UNL A   1      44.202  28.796  30.115  1.00  0.00     0.167 HD
ATOM     54  C   UNL A   1      45.800  26.469  29.831  1.00  0.00     0.074 A 
ATOM     55  C   UNL A   1      46.213  25.124  29.484  1.00  0.00     0.031 C 
ATOM     56  C   UNL A   1      46.603  27.383  30.434  1.00  0.00     0.037 A 
BRANCH  43  57
ATOM     57  C   UNL A   1      43.891  32.854  31.431  1.00  0.00     0.058 A 
ATOM     58  C   UNL A   1      44.246  33.914  30.579  1.00  0.00     0.135 A 
ATOM     59  C   UNL A   1      43.626  33.161  32.776  1.00  0.00     0.135 A 
ATOM     60  F   UNL A   1      44.525  33.679  29.287  1.00  0.00    -0.206 F 
ATOM     61  C   UNL A   1      44.364  35.218  31.049  1.00  0.00     0.059 A 
ATOM     62  C   UNL A   1      43.707  34.464  33.260  1.00  0.00     0.059 A 
ATOM     63  F   UNL A   1      43.281  32.190  33.636  1.00  0.00    -0.206 F 
ATOM     64  C   UNL A   1      44.092  35.483  32.391  1.00  0.00     0.060 A 
BRANCH  64  65
ATOM     65  S   UNL A   1      44.244  37.183  32.981  1.00  0.00     0.124 S 
ATOM     66  O   UNL A   1      44.391  37.914  31.726  1.00  0.00    -0.237 OA
ATOM     67  O   UNL A   1      42.981  37.382  33.684  1.00  0.00    -0.237 OA
ATOM     68  O   UNL A   1      45.431  37.145  33.828  1.00  0.00    -0.744 OA
ENDBRANCH  64  65
ENDBRANCH  43  57
BRANCH  44  69
ATOM     69  C   UNL A   1      42.669  23.643  27.732  1.00  0.00     0.058 A 
ATOM     70  C   UNL A   1      42.793  23.419  26.352  1.00  0.00     0.135 A 
ATOM     71  C   UNL A   1      42.391  22.537  28.550  1.00  0.00     0.135 A 
ATOM     72  F   UNL A   1      43.053  24.445  25.527  1.00  0.00    -0.206 F 
ATOM     73  C   UNL A   1      42.629  22.152  25.801  1.00  0.00     0.059 A 
ATOM     74  C   UNL A   1      42.252  21.256  28.026  1.00  0.00     0.059 A 
ATOM     75  F   UNL A   1      42.280  22.693  29.878  1.00  0.00    -0.206 F 
ATOM     76  C   UNL A   1      42.362  21.075  26.648  1.00  0.00     0.060 A 
BRANCH  76  77
ATOM     77  S   UNL A   1      42.200  19.427  25.927  1.00  0.00     0.124 S 
ATOM     78  O   UNL A   1      43.021  19.548  24.729  1.00  0.00    -0.237 OA
ATOM     79  O   UNL A   1      42.734  18.577  26.987  1.00  0.00    -0.237 OA
ATOM     80  O   UNL A   1      40.763  19.301  25.699  1.00  0.00    -0.744 OA
ENDBRANCH  76  77
ENDBRANCH  44  69
BRANCH  56  81
ATOM     81  C   UNL A   1      47.998  26.946  30.792  1.00  0.00     0.058 A 
ATOM     82  C   UNL A   1      49.092  27.185  29.945  1.00  0.00     0.135 A 
ATOM     83  C   UNL A   1      48.248  26.306  32.018  1.00  0.00     0.135 A 
ATOM     84  F   UNL A   1      48.910  27.789  28.760  1.00  0.00    -0.206 F 
ATOM     85  C   UNL A   1      50.376  26.769  30.281  1.00  0.00     0.059 A 
ATOM     86  C   UNL A   1      49.529  25.912  32.390  1.00  0.00     0.059 A 
ATOM     87  F   UNL A   1      47.241  26.064  32.873  1.00  0.00    -0.206 F 
ATOM     88  C   UNL A   1      50.585  26.133  31.507  1.00  0.00     0.060 A 
BRANCH  88  89
ATOM     89  S   UNL A   1      52.257  25.607  31.935  1.00  0.00     0.124 S 
ATOM     90  O   UNL A   1      52.558  26.476  33.068  1.00  0.00    -0.237 OA
ATOM     91  O   UNL A   1      52.068  24.194  32.253  1.00  0.00    -0.237 OA
ATOM     92  O   UNL A   1      53.020  25.872  30.719  1.00  0.00    -0.744 OA
ENDBRANCH  88  89
ENDBRANCH  56  81
ENDBRANCH  30  31
ENDBRANCH  22  25
ENDBRANCH  20  21
ENDBRANCH   1  20
TORSDOF 16
ENDMDL
MODEL 2
REMARK VINA RESULT:     -10.7      3.140      9.356
REMARK SMILES C=C(c1ccccc1)[C@@H](C(=O)NCCCNC(=O)c1ccc(-c2c3nc(c(-c4c(F)cc(S(=O)(=O)[O-])cc4F)c4ccc([nH]4)c(-c4c(F)cc(S(=O)(=O)[O-])cc4F)c4nc(c(-c5c(F)cc(S(=O)(=O)[O-])cc5F)c5ccc2[nH]5)C=C4)C=C3)cc1)S(C)(=O)=O
REMARK SMILES IDX 14 1 13 2 12 3 10 4 11 5 9 7 2 8 1 9 3 10 4 11 8 12 5 13
REMARK SMILES IDX 7 14 6 15 85 16 86 17 87 18 88 19 15 20 16 21 17 22 18 24
REMARK SMILES IDX 19 25 20 26 84 27 21 28 83 29 22 30 23 31 24 32 77 33 25 34
REMARK SMILES IDX 82 35 76 36 78 37 26 38 81 39 75 40 74 41 27 43 61 44 40 45
REMARK SMILES IDX 60 46 41 47 44 48 59 49 79 50 42 51 43 52 58 54 80 55 45 56
REMARK SMILES IDX 28 57 29 58 38 59 30 60 31 61 37 62 39 63 32 64 33 65 34 66
REMARK SMILES IDX 35 67 36 68 62 69 63 70 72 71 64 72 65 73 71 74 73 75 66 76
REMARK SMILES IDX 67 77 68 78 69 79 70 80 46 81 47 82 56 83 48 84 49 85 55 86
REMARK SMILES IDX 57 87 50 88 51 89 52 90 53 91 54 92
REMARK H PARENT 12 6 16 23 78 42 44 53
REMARK Flexibility Score: inf
ROOT
ATOM      1  C   UNL A   1      35.525  23.966  24.688  1.00  0.00     0.042 C 
ENDROOT
BRANCH   1   2
ATOM      2  C   UNL A   1      34.532  25.123  24.636  1.00  0.00     0.117 C 
BRANCH   2   3
ATOM      3  N   UNL A   1      33.373  24.864  25.470  1.00  0.00    -0.355 N 
ATOM      4  C   UNL A   1      32.482  25.738  26.038  1.00  0.00     0.242 C 
ATOM      5  O   UNL A   1      31.703  25.257  26.859  1.00  0.00    -0.273 OA
ATOM      6  H   UNL A   1      33.198  23.913  25.655  1.00  0.00     0.163 HD
BRANCH   4   7
ATOM      7  C   UNL A   1      32.489  27.208  25.616  1.00  0.00     0.227 C 
BRANCH   7   8
ATOM      8  C   UNL A   1      32.280  28.169  26.784  1.00  0.00    -0.020 C 
ATOM      9  C   UNL A   1      31.229  28.079  27.623  1.00  0.00     0.015 C 
BRANCH   8  10
ATOM     10  C   UNL A   1      33.329  29.204  27.033  1.00  0.00    -0.021 A 
ATOM     11  C   UNL A   1      34.695  28.884  27.078  1.00  0.00     0.008 A 
ATOM     12  C   UNL A   1      32.967  30.529  27.336  1.00  0.00     0.008 A 
ATOM     13  C   UNL A   1      35.655  29.839  27.432  1.00  0.00     0.001 A 
ATOM     14  C   UNL A   1      33.923  31.481  27.705  1.00  0.00     0.001 A 
ATOM     15  C   UNL A   1      35.267  31.135  27.757  1.00  0.00     0.000 A 
ENDBRANCH   8  10
ENDBRANCH   7   8
BRANCH   7  16
ATOM     16  S   UNL A   1      31.245  27.449  24.321  1.00  0.00     0.163 S 
ATOM     17  C   UNL A   1      30.996  29.204  24.252  1.00  0.00     0.159 C 
ATOM     18  O   UNL A   1      31.850  27.109  23.041  1.00  0.00    -0.228 OA
ATOM     19  O   UNL A   1      29.961  26.888  24.698  1.00  0.00    -0.228 OA
ENDBRANCH   7  16
ENDBRANCH   4   7
ENDBRANCH   2   3
ENDBRANCH   1   2
BRANCH   1  20
ATOM     20  C   UNL A   1      36.153  23.737  26.059  1.00  0.00     0.118 C 
BRANCH  20  21
ATOM     21  N   UNL A   1      37.122  22.655  26.052  1.00  0.00    -0.352 N 
ATOM     22  C   UNL A   1      38.482  22.676  26.239  1.00  0.00     0.251 C 
ATOM     23  H   UNL A   1      36.744  21.762  25.885  1.00  0.00     0.163 HD
ATOM     24  O   UNL A   1      39.131  21.665  25.983  1.00  0.00    -0.269 OA
BRANCH  22  25
ATOM     25  C   UNL A   1      39.171  23.893  26.729  1.00  0.00     0.039 A 
ATOM     26  C   UNL A   1      39.755  24.753  25.793  1.00  0.00     0.014 A 
ATOM     27  C   UNL A   1      39.295  24.170  28.093  1.00  0.00     0.014 A 
ATOM     28  C   UNL A   1      40.418  25.905  26.222  1.00  0.00     0.010 A 
ATOM     29  C   UNL A   1      39.881  25.364  28.514  1.00  0.00     0.010 A 
ATOM     30  C   UNL A   1      40.462  26.238  27.585  1.00  0.00    -0.014 A 
BRANCH  30  31
ATOM     31  C   UNL A   1      41.128  27.485  28.049  1.00  0.00     0.031 A 
ATOM     32  C   UNL A   1      42.624  27.629  27.959  1.00  0.00     0.074 A 
ATOM     33  C   UNL A   1      40.388  28.474  28.590  1.00  0.00     0.049 A 
ATOM     34  N   UNL A   1      43.384  28.623  28.341  1.00  0.00    -0.248 NA
ATOM     35  C   UNL A   1      43.370  26.495  27.386  1.00  0.00     0.031 C 
ATOM     36  C   UNL A   1      38.936  28.439  28.776  1.00  0.00     0.029 A 
ATOM     37  N   UNL A   1      40.754  29.701  29.085  1.00  0.00    -0.354 N 
ATOM     38  C   UNL A   1      44.690  28.233  28.066  1.00  0.00     0.074 A 
ATOM     39  C   UNL A   1      44.626  26.888  27.541  1.00  0.00     0.031 C 
ATOM     40  C   UNL A   1      38.533  29.599  29.319  1.00  0.00     0.029 A 
ATOM     41  C   UNL A   1      39.697  30.445  29.555  1.00  0.00     0.049 A 
ATOM     42  H   UNL A   1      41.686  30.019  29.102  1.00  0.00     0.167 HD
ATOM     43  C   UNL A   1      45.837  28.940  28.214  1.00  0.00     0.037 A 
ATOM     44  C   UNL A   1      39.669  31.668  30.121  1.00  0.00     0.037 A 
ATOM     45  C   UNL A   1      45.894  30.288  28.720  1.00  0.00     0.049 A 
ATOM     46  C   UNL A   1      40.957  32.431  30.281  1.00  0.00     0.074 A 
ATOM     47  C   UNL A   1      46.999  31.109  28.858  1.00  0.00     0.029 A 
ATOM     48  N   UNL A   1      44.801  31.011  29.177  1.00  0.00    -0.354 N 
ATOM     49  N   UNL A   1      42.176  32.071  29.954  1.00  0.00    -0.248 NA
ATOM     50  C   UNL A   1      40.864  33.771  30.875  1.00  0.00     0.031 C 
ATOM     51  C   UNL A   1      46.584  32.308  29.447  1.00  0.00     0.029 A 
ATOM     52  C   UNL A   1      45.209  32.259  29.619  1.00  0.00     0.049 A 
ATOM     53  H   UNL A   1      43.872  30.685  29.184  1.00  0.00     0.167 HD
ATOM     54  C   UNL A   1      42.991  33.152  30.277  1.00  0.00     0.074 A 
ATOM     55  C   UNL A   1      42.122  34.182  30.808  1.00  0.00     0.031 C 
ATOM     56  C   UNL A   1      44.336  33.279  30.145  1.00  0.00     0.037 A 
BRANCH  43  57
ATOM     57  C   UNL A   1      47.128  28.270  27.820  1.00  0.00     0.058 A 
ATOM     58  C   UNL A   1      47.886  27.527  28.741  1.00  0.00     0.135 A 
ATOM     59  C   UNL A   1      47.596  28.342  26.498  1.00  0.00     0.135 A 
ATOM     60  F   UNL A   1      47.496  27.436  30.022  1.00  0.00    -0.206 F 
ATOM     61  C   UNL A   1      49.076  26.906  28.372  1.00  0.00     0.059 A 
ATOM     62  C   UNL A   1      48.768  27.701  26.100  1.00  0.00     0.059 A 
ATOM     63  F   UNL A   1      46.914  29.037  25.575  1.00  0.00    -0.206 F 
ATOM     64  C   UNL A   1      49.508  26.999  27.049  1.00  0.00     0.060 A 
BRANCH  64  65
ATOM     65  S   UNL A   1      51.050  26.182  26.588  1.00  0.00     0.124 S 
ATOM     66  O   UNL A   1      52.039  27.052  27.217  1.00  0.00    -0.237 OA
ATOM     67  O   UNL A   1      50.894  24.862  27.190  1.00  0.00    -0.237 OA
ATOM     68  O   UNL A   1      51.028  26.209  25.129  1.00  0.00    -0.744 OA
ENDBRANCH  64  65
ENDBRANCH  43  57
BRANCH  44  69
ATOM     69  C   UNL A   1      38.374  32.257  30.559  1.00  0.00     0.058 A 
ATOM     70  C   UNL A   1      37.832  31.961  31.819  1.00  0.00     0.135 A 
ATOM     71  C   UNL A   1      37.656  33.133  29.729  1.00  0.00     0.135 A 
ATOM     72  F   UNL A   1      38.477  31.124  32.646  1.00  0.00    -0.206 F 
ATOM     73  C   UNL A   1      36.616  32.495  32.234  1.00  0.00     0.059 A 
ATOM     74  C   UNL A   1      36.453  33.702  30.134  1.00  0.00     0.059 A 
ATOM     75  F   UNL A   1      38.139  33.463  28.522  1.00  0.00    -0.206 F 
ATOM     76  C   UNL A   1      35.936  33.369  31.384  1.00  0.00     0.060 A 
BRANCH  76  77
ATOM     77  S   UNL A   1      34.384  34.096  31.953  1.00  0.00     0.124 S 
ATOM     78  O   UNL A   1      34.850  35.311  32.609  1.00  0.00    -0.237 OA
ATOM     79  O   UNL A   1      33.657  34.283  30.701  1.00  0.00    -0.237 OA
ATOM     80  O   UNL A   1      33.838  33.070  32.838  1.00  0.00    -0.744 OA
ENDBRANCH  76  77
ENDBRANCH  44  69
BRANCH  56  81
ATOM     81  C   UNL A   1      44.947  34.595  30.547  1.00  0.00     0.058 A 
ATOM     82  C   UNL A   1      45.428  34.824  31.846  1.00  0.00     0.135 A 
ATOM     83  C   UNL A   1      45.081  35.631  29.608  1.00  0.00     0.135 A 
ATOM     84  F   UNL A   1      45.321  33.871  32.785  1.00  0.00    -0.206 F 
ATOM     85  C   UNL A   1      45.983  36.046  32.210  1.00  0.00     0.059 A 
ATOM     86  C   UNL A   1      45.664  36.849  29.940  1.00  0.00     0.059 A 
ATOM     87  F   UNL A   1      44.651  35.461  28.346  1.00  0.00    -0.206 F 
ATOM     88  C   UNL A   1      46.097  37.054  31.250  1.00  0.00     0.060 A 
BRANCH  88  89
ATOM     89  S   UNL A   1      46.828  38.632  31.732  1.00  0.00     0.124 S 
ATOM     90  O   UNL A   1      46.654  39.421  30.517  1.00  0.00    -0.237 OA
ATOM     91  O   UNL A   1      45.998  39.025  32.867  1.00  0.00    -0.237 OA
ATOM     92  O   UNL A   1      48.206  38.282  32.063  1.00  0.00    -0.744 OA
ENDBRANCH  88  89
ENDBRANCH  56  81
ENDBRANCH  30  31
ENDBRANCH  22  25
ENDBRANCH  20  21
ENDBRANCH   1  20
TORSDOF 16
ENDMDL
MODEL 3
REMARK VINA RESULT:     -10.7      3.905     10.830
REMARK SMILES C=C(c1ccccc1)[C@@H](C(=O)NCCCNC(=O)c1ccc(-c2c3nc(c(-c4c(F)cc(S(=O)(=O)[O-])cc4F)c4ccc([nH]4)c(-c4c(F)cc(S(=O)(=O)[O-])cc4F)c4nc(c(-c5c(F)cc(S(=O)(=O)[O-])cc5F)c5ccc2[nH]5)C=C4)C=C3)cc1)S(C)(=O)=O
REMARK SMILES IDX 14 1 13 2 12 3 10 4 11 5 9 7 2 8 1 9 3 10 4 11 8 12 5 13
REMARK SMILES IDX 7 14 6 15 85 16 86 17 87 18 88 19 15 20 16 21 17 22 18 24
REMARK SMILES IDX 19 25 20 26 84 27 21 28 83 29 22 30 23 31 24 32 77 33 25 34
REMARK SMILES IDX 82 35 76 36 78 37 26 38 81 39 75 40 74 41 27 43 61 44 40 45
REMARK SMILES IDX 60 46 41 47 44 48 59 49 79 50 42 51 43 52 58 54 80 55 45 56
REMARK SMILES IDX 28 57 29 58 38 59 30 60 31 61 37 62 39 63 32 64 33 65 34 66
REMARK SMILES IDX 35 67 36 68 62 69 63 70 72 71 64 72 65 73 71 74 73 75 66 76
REMARK SMILES IDX 67 77 68 78 69 79 70 80 46 81 47 82 56 83 48 84 49 85 55 86
REMARK SMILES IDX 57 87 50 88 51 89 52 90 53 91 54 92
REMARK H PARENT 12 6 16 23 78 42 44 53
REMARK Flexibility Score: inf
ROOT
ATOM      1  C   UNL A   1      42.150  22.132  25.741  1.00  0.00     0.042 C 
ENDROOT
BRANCH   1   2
ATOM      2  C   UNL A   1      42.709  23.543  25.586  1.00  0.00     0.117 C 
BRANCH   2   3
ATOM      3  N   UNL A   1      43.970  23.537  24.870  1.00  0.00    -0.355 N 
ATOM      4  C   UNL A   1      45.093  24.302  25.054  1.00  0.00     0.242 C 
ATOM      5  O   UNL A   1      45.951  24.221  24.176  1.00  0.00    -0.273 OA
ATOM      6  H   UNL A   1      44.029  22.881  24.137  1.00  0.00     0.163 HD
BRANCH   4   7
ATOM      7  C   UNL A   1      45.223  25.165  26.309  1.00  0.00     0.227 C 
BRANCH   7   8
ATOM      8  C   UNL A   1      45.741  26.572  26.019  1.00  0.00    -0.020 C 
ATOM      9  C   UNL A   1      46.880  26.803  25.338  1.00  0.00     0.015 C 
BRANCH   8  10
ATOM     10  C   UNL A   1      44.902  27.729  26.457  1.00  0.00    -0.021 A 
ATOM     11  C   UNL A   1      43.580  27.901  26.015  1.00  0.00     0.008 A 
ATOM     12  C   UNL A   1      45.453  28.749  27.254  1.00  0.00     0.008 A 
ATOM     13  C   UNL A   1      42.849  29.050  26.336  1.00  0.00     0.001 A 
ATOM     14  C   UNL A   1      44.729  29.905  27.564  1.00  0.00     0.001 A 
ATOM     15  C   UNL A   1      43.428  30.057  27.101  1.00  0.00     0.000 A 
ENDBRANCH   8  10
ENDBRANCH   7   8
BRANCH   7  16
ATOM     16  S   UNL A   1      46.274  24.300  27.506  1.00  0.00     0.163 S 
ATOM     17  C   UNL A   1      46.567  25.486  28.792  1.00  0.00     0.159 C 
ATOM     18  O   UNL A   1      45.477  23.257  28.138  1.00  0.00    -0.228 OA
ATOM     19  O   UNL A   1      47.579  23.994  26.953  1.00  0.00    -0.228 OA
ENDBRANCH   7  16
ENDBRANCH   4   7
ENDBRANCH   2   3
ENDBRANCH   1   2
BRANCH   1  20
ATOM     20  C   UNL A   1      40.992  22.019  26.728  1.00  0.00     0.118 C 
BRANCH  20  21
ATOM     21  N   UNL A   1      39.707  22.303  26.112  1.00  0.00    -0.352 N 
ATOM     22  C   UNL A   1      38.865  23.376  26.263  1.00  0.00     0.251 C 
ATOM     23  H   UNL A   1      39.389  21.615  25.484  1.00  0.00     0.163 HD
ATOM     24  O   UNL A   1      37.729  23.308  25.800  1.00  0.00    -0.269 OA
BRANCH  22  25
ATOM     25  C   UNL A   1      39.298  24.597  26.982  1.00  0.00     0.039 A 
ATOM     26  C   UNL A   1      38.936  24.746  28.325  1.00  0.00     0.014 A 
ATOM     27  C   UNL A   1      40.008  25.617  26.342  1.00  0.00     0.014 A 
ATOM     28  C   UNL A   1      39.322  25.888  29.031  1.00  0.00     0.010 A 
ATOM     29  C   UNL A   1      40.467  26.714  27.070  1.00  0.00     0.010 A 
ATOM     30  C   UNL A   1      40.117  26.871  28.418  1.00  0.00    -0.014 A 
BRANCH  30  31
ATOM     31  C   UNL A   1      40.571  28.070  29.172  1.00  0.00     0.031 A 
ATOM     32  C   UNL A   1      41.947  28.109  29.785  1.00  0.00     0.074 A 
ATOM     33  C   UNL A   1      39.730  29.109  29.341  1.00  0.00     0.049 A 
ATOM     34  N   UNL A   1      42.506  29.049  30.503  1.00  0.00    -0.248 NA
ATOM     35  C   UNL A   1      42.799  26.925  29.586  1.00  0.00     0.031 C 
ATOM     36  C   UNL A   1      38.356  29.176  28.838  1.00  0.00     0.029 A 
ATOM     37  N   UNL A   1      39.903  30.309  29.986  1.00  0.00    -0.354 N 
ATOM     38  C   UNL A   1      43.764  28.568  30.848  1.00  0.00     0.074 A 
ATOM     39  C   UNL A   1      43.864  27.229  30.313  1.00  0.00     0.031 C 
ATOM     40  C   UNL A   1      37.822  30.362  29.168  1.00  0.00     0.029 A 
ATOM     41  C   UNL A   1      38.797  31.126  29.939  1.00  0.00     0.049 A 
ATOM     42  H   UNL A   1      40.740  30.561  30.439  1.00  0.00     0.167 HD
ATOM     43  C   UNL A   1      44.756  29.194  31.528  1.00  0.00     0.037 A 
ATOM     44  C   UNL A   1      38.589  32.349  30.465  1.00  0.00     0.037 A 
ATOM     45  C   UNL A   1      44.658  30.536  32.043  1.00  0.00     0.049 A 
ATOM     46  C   UNL A   1      39.703  33.021  31.221  1.00  0.00     0.074 A 
ATOM     47  C   UNL A   1      45.624  31.278  32.699  1.00  0.00     0.029 A 
ATOM     48  N   UNL A   1      43.525  31.334  31.968  1.00  0.00    -0.354 N 
ATOM     49  N   UNL A   1      40.910  32.577  31.481  1.00  0.00    -0.248 NA
ATOM     50  C   UNL A   1      39.431  34.366  31.746  1.00  0.00     0.031 C 
ATOM     51  C   UNL A   1      45.060  32.505  33.066  1.00  0.00     0.029 A 
ATOM     52  C   UNL A   1      43.761  32.553  32.585  1.00  0.00     0.049 A 
ATOM     53  H   UNL A   1      42.679  31.075  31.537  1.00  0.00     0.167 HD
ATOM     54  C   UNL A   1      41.550  33.599  32.175  1.00  0.00     0.074 A 
ATOM     55  C   UNL A   1      40.602  34.689  32.277  1.00  0.00     0.031 C 
ATOM     56  C   UNL A   1      42.810  33.632  32.680  1.00  0.00     0.037 A 
BRANCH  43  57
ATOM     57  C   UNL A   1      46.037  28.435  31.753  1.00  0.00     0.058 A 
ATOM     58  C   UNL A   1      46.168  27.494  32.788  1.00  0.00     0.135 A 
ATOM     59  C   UNL A   1      47.139  28.624  30.902  1.00  0.00     0.135 A 
ATOM     60  F   UNL A   1      45.154  27.281  33.641  1.00  0.00    -0.206 F 
ATOM     61  C   UNL A   1      47.352  26.791  32.989  1.00  0.00     0.059 A 
ATOM     62  C   UNL A   1      48.323  27.909  31.066  1.00  0.00     0.059 A 
ATOM     63  F   UNL A   1      47.072  29.510  29.896  1.00  0.00    -0.206 F 
ATOM     64  C   UNL A   1      48.424  27.006  32.123  1.00  0.00     0.060 A 
BRANCH  64  65
ATOM     65  S   UNL A   1      49.950  26.081  32.396  1.00  0.00     0.124 S 
ATOM     66  O   UNL A   1      50.845  26.702  31.424  1.00  0.00    -0.237 OA
ATOM     67  O   UNL A   1      50.241  26.368  33.797  1.00  0.00    -0.237 OA
ATOM     68  O   UNL A   1      49.570  24.702  32.106  1.00  0.00    -0.744 OA
ENDBRANCH  64  65
ENDBRANCH  43  57
BRANCH  44  69
ATOM     69  C   UNL A   1      37.277  33.028  30.275  1.00  0.00     0.058 A 
ATOM     70  C   UNL A   1      36.948  33.638  29.055  1.00  0.00     0.135 A 
ATOM     71  C   UNL A   1      36.325  33.073  31.305  1.00  0.00     0.135 A 
ATOM     72  F   UNL A   1      37.826  33.627  28.041  1.00  0.00    -0.206 F 
ATOM     73  C   UNL A   1      35.730  34.286  28.869  1.00  0.00     0.059 A 
ATOM     74  C   UNL A   1      35.090  33.689  31.134  1.00  0.00     0.059 A 
ATOM     75  F   UNL A   1      36.583  32.490  32.485  1.00  0.00    -0.206 F 
ATOM     76  C   UNL A   1      34.806  34.303  29.915  1.00  0.00     0.060 A 
BRANCH  76  77
ATOM     77  S   UNL A   1      33.209  35.103  29.645  1.00  0.00     0.124 S 
ATOM     78  O   UNL A   1      32.576  34.944  30.949  1.00  0.00    -0.237 OA
ATOM     79  O   UNL A   1      33.606  36.462  29.288  1.00  0.00    -0.237 OA
ATOM     80  O   UNL A   1      32.623  34.324  28.558  1.00  0.00    -0.744 OA
ENDBRANCH  76  77
ENDBRANCH  44  69
BRANCH  56  81
ATOM     81  C   UNL A   1      43.249  34.903  33.357  1.00  0.00     0.058 A 
ATOM     82  C   UNL A   1      43.094  35.101  34.739  1.00  0.00     0.135 A 
ATOM     83  C   UNL A   1      43.862  35.927  32.615  1.00  0.00     0.135 A 
ATOM     84  F   UNL A   1      42.510  34.158  35.495  1.00  0.00    -0.206 F 
ATOM     85  C   UNL A   1      43.494  36.282  35.353  1.00  0.00     0.059 A 
ATOM     86  C   UNL A   1      44.302  37.102  33.214  1.00  0.00     0.059 A 
ATOM     87  F   UNL A   1      44.048  35.785  31.292  1.00  0.00    -0.206 F 
ATOM     88  C   UNL A   1      44.097  37.278  34.582  1.00  0.00     0.060 A 
BRANCH  88  89
ATOM     89  S   UNL A   1      44.621  38.803  35.394  1.00  0.00     0.124 S 
ATOM     90  O   UNL A   1      44.229  38.550  36.776  1.00  0.00    -0.237 OA
ATOM     91  O   UNL A   1      46.058  38.815  35.134  1.00  0.00    -0.237 OA
ATOM     92  O   UNL A   1      43.857  39.836  34.702  1.00  0.00    -0.744 OA
ENDBRANCH  88  89
ENDBRANCH  56  81
ENDBRANCH  30  31
ENDBRANCH  22  25
ENDBRANCH  20  21
ENDBRANCH   1  20
TORSDOF 16
ENDMDL
