MODEL 1
REMARK VINA RESULT:     -13.3      0.000      0.000
REMARK SMILES CC1(C)[C@@]2(C(=O)NCCCNC(=O)c3ccc(-c4c5nc(c(-c6c(F)cc(S(=O)(=O)[O-])cc6F)c6ccc([nH]6)c(-c6c(F)cc(S(=O)(=O)[O-])cc6F)c6nc(c(-c7c(F)cc(S(=O)(=O)[O-])cc7F)c7ccc4[nH]7)C=C6)C=C5)cc3)CC[C@]1(C)/C(=N/NC(=O)c1ccc(Cl)cc1)C2
REMARK SMILES IDX 9 1 8 2 7 3 5 4 6 5 4 7 1 8 2 9 3 10 82 11 80 12 96 13 81 14
REMARK SMILES IDX 83 15 84 16 85 17 86 18 87 19 88 21 89 22 90 23 95 24 91 25
REMARK SMILES IDX 94 26 92 27 93 28 10 29 11 30 12 31 13 33 14 34 15 35 79 36
REMARK SMILES IDX 16 37 78 38 17 39 18 40 19 41 72 42 20 43 77 44 71 45 73 46
REMARK SMILES IDX 21 47 76 48 70 49 69 50 22 52 56 53 35 54 55 55 36 56 39 57
REMARK SMILES IDX 54 58 74 59 37 60 38 61 53 63 75 64 40 65 23 66 24 67 33 68
REMARK SMILES IDX 25 69 26 70 32 71 34 72 27 73 28 74 29 75 30 76 31 77 57 78
REMARK SMILES IDX 58 79 67 80 59 81 60 82 66 83 68 84 61 85 62 86 63 87 64 88
REMARK SMILES IDX 65 89 41 90 42 91 51 92 43 93 44 94 50 95 52 96 45 97 46 98
REMARK SMILES IDX 47 99 48 100 49 101
REMARK H PARENT 7 6 86 20 11 32 73 51 39 62
REMARK Flexibility Score: inf
ROOT
ATOM      1  C   UNL A   1      38.253  23.473  26.118  1.00  0.00     0.042 C 
ENDROOT
BRANCH   1   2
ATOM      2  C   UNL A   1      36.994  22.585  26.106  1.00  0.00     0.117 C 
BRANCH   2   3
ATOM      3  N   UNL A   1      35.829  23.046  26.845  1.00  0.00    -0.356 N 
ATOM      4  C   UNL A   1      34.498  22.796  26.641  1.00  0.00     0.227 C 
ATOM      5  O   UNL A   1      33.821  22.638  27.660  1.00  0.00    -0.274 OA
ATOM      6  H   UNL A   1      36.028  23.631  27.612  1.00  0.00     0.163 HD
BRANCH   4   7
ATOM      7  C   UNL A   1      33.836  22.857  25.258  1.00  0.00     0.060 C 
ATOM      8  C   UNL A   1      34.635  20.564  24.298  1.00  0.00     0.013 C 
ATOM      9  C   UNL A   1      33.420  21.471  24.626  1.00  0.00    -0.010 C 
ATOM     10  C   UNL A   1      32.393  20.605  25.385  1.00  0.00     0.013 C 
ATOM     11  C   UNL A   1      32.780  22.160  23.380  1.00  0.00     0.014 C 
ATOM     12  C   UNL A   1      34.639  23.514  24.094  1.00  0.00     0.019 C 
ATOM     13  C   UNL A   1      32.491  23.615  25.354  1.00  0.00     0.071 C 
ATOM     14  C   UNL A   1      33.948  22.991  22.815  1.00  0.00     0.014 C 
ATOM     15  C   UNL A   1      32.084  21.282  22.359  1.00  0.00     0.018 C 
ATOM     16  C   UNL A   1      31.873  23.227  24.049  1.00  0.00     0.046 C 
ATOM     17  N   UNL A   1      30.868  23.697  23.391  1.00  0.00    -0.181 NA
BRANCH  17  18
ATOM     18  N   UNL A   1      29.976  24.686  23.644  1.00  0.00    -0.243 N 
ATOM     19  C   UNL A   1      29.893  25.931  24.221  1.00  0.00     0.271 C 
ATOM     20  H   UNL A   1      29.093  24.425  23.298  1.00  0.00     0.194 HD
ATOM     21  O   UNL A   1      28.794  26.488  24.269  1.00  0.00    -0.267 OA
BRANCH  19  22
ATOM     22  C   UNL A   1      31.004  26.647  24.832  1.00  0.00     0.041 A 
ATOM     23  C   UNL A   1      30.932  26.991  26.186  1.00  0.00     0.015 A 
ATOM     24  C   UNL A   1      32.051  27.119  24.043  1.00  0.00     0.015 A 
ATOM     25  C   UNL A   1      32.010  27.639  26.793  1.00  0.00     0.021 A 
ATOM     26  C   UNL A   1      33.141  27.732  24.661  1.00  0.00     0.021 A 
ATOM     27  C   UNL A   1      33.137  27.951  26.038  1.00  0.00     0.041 A 
ATOM     28  Cl  UNL A   1      34.540  28.578  26.809  1.00  0.00    -0.084 Cl
ENDBRANCH  19  22
ENDBRANCH  17  18
ENDBRANCH   4   7
ENDBRANCH   2   3
ENDBRANCH   1   2
BRANCH   1  29
ATOM     29  C   UNL A   1      39.508  22.969  26.850  1.00  0.00     0.118 C 
BRANCH  29  30
ATOM     30  N   UNL A   1      40.725  23.474  26.236  1.00  0.00    -0.352 N 
ATOM     31  C   UNL A   1      41.361  24.690  26.317  1.00  0.00     0.251 C 
ATOM     32  H   UNL A   1      41.179  22.824  25.653  1.00  0.00     0.163 HD
ATOM     33  O   UNL A   1      42.232  24.934  25.480  1.00  0.00    -0.269 OA
BRANCH  31  34
ATOM     34  C   UNL A   1      41.065  25.715  27.355  1.00  0.00     0.039 A 
ATOM     35  C   UNL A   1      41.929  26.817  27.449  1.00  0.00     0.014 A 
ATOM     36  C   UNL A   1      40.087  25.543  28.339  1.00  0.00     0.014 A 
ATOM     37  C   UNL A   1      41.814  27.736  28.502  1.00  0.00     0.010 A 
ATOM     38  C   UNL A   1      39.957  26.480  29.384  1.00  0.00     0.010 A 
ATOM     39  C   UNL A   1      40.825  27.581  29.484  1.00  0.00    -0.014 A 
BRANCH  39  40
ATOM     40  C   UNL A   1      40.695  28.573  30.595  1.00  0.00     0.031 A 
ATOM     41  C   UNL A   1      41.541  28.475  31.840  1.00  0.00     0.074 A 
ATOM     42  C   UNL A   1      39.792  29.570  30.500  1.00  0.00     0.049 A 
ATOM     43  N   UNL A   1      41.526  29.228  32.913  1.00  0.00    -0.248 NA
ATOM     44  C   UNL A   1      42.528  27.387  31.887  1.00  0.00     0.031 C 
ATOM     45  C   UNL A   1      38.901  29.789  29.361  1.00  0.00     0.029 A 
ATOM     46  N   UNL A   1      39.463  30.575  31.378  1.00  0.00    -0.354 N 
ATOM     47  C   UNL A   1      42.486  28.699  33.771  1.00  0.00     0.074 A 
ATOM     48  C   UNL A   1      43.051  27.546  33.097  1.00  0.00     0.031 C 
ATOM     49  C   UNL A   1      38.123  30.854  29.612  1.00  0.00     0.029 A 
ATOM     50  C   UNL A   1      38.433  31.375  30.942  1.00  0.00     0.049 A 
ATOM     51  H   UNL A   1      39.922  30.710  32.239  1.00  0.00     0.167 HD
ATOM     52  C   UNL A   1      42.866  29.133  34.999  1.00  0.00     0.037 A 
ATOM     53  C   UNL A   1      37.788  32.395  31.543  1.00  0.00     0.037 A 
ATOM     54  C   UNL A   1      42.323  30.291  35.667  1.00  0.00     0.049 A 
ATOM     55  C   UNL A   1      38.201  32.839  32.920  1.00  0.00     0.074 A 
ATOM     56  C   UNL A   1      42.711  30.850  36.874  1.00  0.00     0.029 A 
ATOM     57  N   UNL A   1      41.265  31.057  35.199  1.00  0.00    -0.354 N 
ATOM     58  N   UNL A   1      39.156  32.368  33.683  1.00  0.00    -0.248 NA
ATOM     59  C   UNL A   1      37.447  33.950  33.518  1.00  0.00     0.031 C 
ATOM     60  C   UNL A   1      41.856  31.922  37.160  1.00  0.00     0.029 A 
ATOM     61  C   UNL A   1      40.961  32.057  36.112  1.00  0.00     0.049 A 
ATOM     62  H   UNL A   1      40.798  30.913  34.345  1.00  0.00     0.167 HD
ATOM     63  C   UNL A   1      39.120  33.124  34.850  1.00  0.00     0.074 A 
ATOM     64  C   UNL A   1      38.063  34.100  34.683  1.00  0.00     0.031 C 
ATOM     65  C   UNL A   1      39.894  33.016  35.958  1.00  0.00     0.037 A 
BRANCH  52  66
ATOM     66  C   UNL A   1      43.921  28.340  35.725  1.00  0.00     0.058 A 
ATOM     67  C   UNL A   1      45.290  28.602  35.558  1.00  0.00     0.135 A 
ATOM     68  C   UNL A   1      43.554  27.334  36.634  1.00  0.00     0.135 A 
ATOM     69  F   UNL A   1      45.696  29.552  34.701  1.00  0.00    -0.206 F 
ATOM     70  C   UNL A   1      46.259  27.870  36.239  1.00  0.00     0.059 A 
ATOM     71  C   UNL A   1      44.506  26.604  37.343  1.00  0.00     0.059 A 
ATOM     72  F   UNL A   1      42.258  27.050  36.841  1.00  0.00    -0.206 F 
ATOM     73  C   UNL A   1      45.857  26.868  37.123  1.00  0.00     0.060 A 
BRANCH  73  74
ATOM     74  S   UNL A   1      47.122  25.910  37.986  1.00  0.00     0.124 S 
ATOM     75  O   UNL A   1      46.380  25.440  39.154  1.00  0.00    -0.237 OA
ATOM     76  O   UNL A   1      47.461  24.882  37.001  1.00  0.00    -0.237 OA
ATOM     77  O   UNL A   1      48.167  26.883  38.254  1.00  0.00    -0.744 OA
ENDBRANCH  73  74
ENDBRANCH  52  66
BRANCH  53  78
ATOM     78  C   UNL A   1      36.660  33.060  30.839  1.00  0.00     0.058 A 
ATOM     79  C   UNL A   1      35.331  32.824  31.218  1.00  0.00     0.135 A 
ATOM     80  C   UNL A   1      36.895  33.977  29.802  1.00  0.00     0.135 A 
ATOM     81  F   UNL A   1      35.058  31.946  32.194  1.00  0.00    -0.206 F 
ATOM     82  C   UNL A   1      34.272  33.477  30.597  1.00  0.00     0.059 A 
ATOM     83  C   UNL A   1      35.855  34.659  29.181  1.00  0.00     0.059 A 
ATOM     84  F   UNL A   1      38.152  34.241  29.411  1.00  0.00    -0.206 F 
ATOM     85  C   UNL A   1      34.545  34.401  29.585  1.00  0.00     0.060 A 
BRANCH  85  86
ATOM     86  S   UNL A   1      33.169  35.308  28.847  1.00  0.00     0.124 S 
ATOM     87  O   UNL A   1      32.463  35.786  30.030  1.00  0.00    -0.237 OA
ATOM     88  O   UNL A   1      33.860  36.327  28.062  1.00  0.00    -0.237 OA
ATOM     89  O   UNL A   1      32.476  34.290  28.065  1.00  0.00    -0.744 OA
ENDBRANCH  85  86
ENDBRANCH  53  78
BRANCH  65  90
ATOM     90  C   UNL A   1      39.625  33.966  37.092  1.00  0.00     0.058 A 
ATOM     91  C   UNL A   1      38.870  33.573  38.209  1.00  0.00     0.135 A 
ATOM     92  C   UNL A   1      40.169  35.260  37.093  1.00  0.00     0.135 A 
ATOM     93  F   UNL A   1      38.320  32.350  38.255  1.00  0.00    -0.206 F 
ATOM     94  C   UNL A   1      38.656  34.432  39.282  1.00  0.00     0.059 A 
ATOM     95  C   UNL A   1      39.985  36.130  38.165  1.00  0.00     0.059 A 
ATOM     96  F   UNL A   1      40.903  35.686  36.052  1.00  0.00    -0.206 F 
ATOM     97  C   UNL A   1      39.220  35.709  39.253  1.00  0.00     0.060 A 
BRANCH  97  98
ATOM     98  S   UNL A   1      38.973  36.800  40.672  1.00  0.00     0.124 S 
ATOM     99  O   UNL A   1      40.347  37.043  41.099  1.00  0.00    -0.237 OA
ATOM    100  O   UNL A   1      38.283  37.939  40.076  1.00  0.00    -0.237 OA
ATOM    101  O   UNL A   1      38.166  35.993  41.583  1.00  0.00    -0.744 OA
ENDBRANCH  97  98
ENDBRANCH  65  90
ENDBRANCH  39  40
ENDBRANCH  31  34
ENDBRANCH  29  30
ENDBRANCH   1  29
TORSDOF 15
ENDMDL
MODEL 2
REMARK VINA RESULT:     -12.9      6.461     11.858
REMARK SMILES CC1(C)[C@@]2(C(=O)NCCCNC(=O)c3ccc(-c4c5nc(c(-c6c(F)cc(S(=O)(=O)[O-])cc6F)c6ccc([nH]6)c(-c6c(F)cc(S(=O)(=O)[O-])cc6F)c6nc(c(-c7c(F)cc(S(=O)(=O)[O-])cc7F)c7ccc4[nH]7)C=C6)C=C5)cc3)CC[C@]1(C)/C(=N/NC(=O)c1ccc(Cl)cc1)C2
REMARK SMILES IDX 9 1 8 2 7 3 5 4 6 5 4 7 1 8 2 9 3 10 82 11 80 12 96 13 81 14
REMARK SMILES IDX 83 15 84 16 85 17 86 18 87 19 88 21 89 22 90 23 95 24 91 25
REMARK SMILES IDX 94 26 92 27 93 28 10 29 11 30 12 31 13 33 14 34 15 35 79 36
REMARK SMILES IDX 16 37 78 38 17 39 18 40 19 41 72 42 20 43 77 44 71 45 73 46
REMARK SMILES IDX 21 47 76 48 70 49 69 50 22 52 56 53 35 54 55 55 36 56 39 57
REMARK SMILES IDX 54 58 74 59 37 60 38 61 53 63 75 64 40 65 23 66 24 67 33 68
REMARK SMILES IDX 25 69 26 70 32 71 34 72 27 73 28 74 29 75 30 76 31 77 57 78
REMARK SMILES IDX 58 79 67 80 59 81 60 82 66 83 68 84 61 85 62 86 63 87 64 88
REMARK SMILES IDX 65 89 41 90 42 91 51 92 43 93 44 94 50 95 52 96 45 97 46 98
REMARK SMILES IDX 47 99 48 100 49 101
REMARK H PARENT 7 6 86 20 11 32 73 51 39 62
REMARK Flexibility Score: inf
ROOT
ATOM      1  C   UNL A   1      34.152  30.822  27.273  1.00  0.00     0.042 C 
ENDROOT
BRANCH   1   2
ATOM      2  C   UNL A   1      33.919  29.315  27.055  1.00  0.00     0.117 C 
BRANCH   2   3
ATOM      3  N   UNL A   1      34.470  28.708  25.852  1.00  0.00    -0.356 N 
ATOM      4  C   UNL A   1      33.842  28.268  24.718  1.00  0.00     0.227 C 
ATOM      5  O   UNL A   1      34.437  28.485  23.659  1.00  0.00    -0.274 OA
ATOM      6  H   UNL A   1      35.448  28.595  25.855  1.00  0.00     0.163 HD
BRANCH   4   7
ATOM      7  C   UNL A   1      32.562  27.423  24.743  1.00  0.00     0.060 C 
ATOM      8  C   UNL A   1      30.795  29.328  25.006  1.00  0.00     0.013 C 
ATOM      9  C   UNL A   1      31.264  28.113  24.164  1.00  0.00    -0.010 C 
ATOM     10  C   UNL A   1      31.273  28.555  22.686  1.00  0.00     0.013 C 
ATOM     11  C   UNL A   1      30.410  26.823  24.371  1.00  0.00     0.014 C 
ATOM     12  C   UNL A   1      32.060  26.900  26.123  1.00  0.00     0.019 C 
ATOM     13  C   UNL A   1      32.734  26.184  23.833  1.00  0.00     0.071 C 
ATOM     14  C   UNL A   1      30.578  26.543  25.877  1.00  0.00     0.014 C 
ATOM     15  C   UNL A   1      28.972  26.835  23.891  1.00  0.00     0.018 C 
ATOM     16  C   UNL A   1      31.310  25.747  23.706  1.00  0.00     0.046 C 
ATOM     17  N   UNL A   1      30.773  24.650  23.289  1.00  0.00    -0.181 NA
BRANCH  17  18
ATOM     18  N   UNL A   1      31.285  23.504  22.779  1.00  0.00    -0.243 N 
ATOM     19  C   UNL A   1      32.399  22.701  22.855  1.00  0.00     0.271 C 
ATOM     20  H   UNL A   1      30.644  23.116  22.141  1.00  0.00     0.194 HD
ATOM     21  O   UNL A   1      32.461  21.707  22.128  1.00  0.00    -0.267 OA
BRANCH  19  22
ATOM     22  C   UNL A   1      33.555  22.952  23.703  1.00  0.00     0.041 A 
ATOM     23  C   UNL A   1      34.822  23.052  23.118  1.00  0.00     0.015 A 
ATOM     24  C   UNL A   1      33.422  22.935  25.090  1.00  0.00     0.015 A 
ATOM     25  C   UNL A   1      35.931  23.335  23.917  1.00  0.00     0.021 A 
ATOM     26  C   UNL A   1      34.527  23.255  25.879  1.00  0.00     0.021 A 
ATOM     27  C   UNL A   1      35.767  23.497  25.290  1.00  0.00     0.041 A 
ATOM     28  Cl  UNL A   1      37.086  24.028  26.256  1.00  0.00    -0.084 Cl
ENDBRANCH  19  22
ENDBRANCH  17  18
ENDBRANCH   4   7
ENDBRANCH   2   3
ENDBRANCH   1   2
BRANCH   1  29
ATOM     29  C   UNL A   1      35.463  31.281  27.932  1.00  0.00     0.118 C 
BRANCH  29  30
ATOM     30  N   UNL A   1      35.415  31.132  29.379  1.00  0.00    -0.352 N 
ATOM     31  C   UNL A   1      36.313  30.613  30.280  1.00  0.00     0.251 C 
ATOM     32  H   UNL A   1      34.584  31.464  29.788  1.00  0.00     0.163 HD
ATOM     33  O   UNL A   1      35.902  30.368  31.415  1.00  0.00    -0.269 OA
BRANCH  31  34
ATOM     34  C   UNL A   1      37.743  30.343  29.967  1.00  0.00     0.039 A 
ATOM     35  C   UNL A   1      38.078  30.069  28.632  1.00  0.00     0.014 A 
ATOM     36  C   UNL A   1      38.721  30.176  30.953  1.00  0.00     0.014 A 
ATOM     37  C   UNL A   1      39.369  29.645  28.285  1.00  0.00     0.010 A 
ATOM     38  C   UNL A   1      40.024  29.773  30.600  1.00  0.00     0.010 A 
ATOM     39  C   UNL A   1      40.362  29.493  29.265  1.00  0.00    -0.014 A 
BRANCH  39  40
ATOM     40  C   UNL A   1      41.742  29.057  28.887  1.00  0.00     0.031 A 
ATOM     41  C   UNL A   1      42.890  30.034  28.843  1.00  0.00     0.074 A 
ATOM     42  C   UNL A   1      41.971  27.769  28.562  1.00  0.00     0.049 A 
ATOM     43  N   UNL A   1      44.138  29.830  28.498  1.00  0.00    -0.248 NA
ATOM     44  C   UNL A   1      42.597  31.421  29.230  1.00  0.00     0.031 C 
ATOM     45  C   UNL A   1      40.959  26.713  28.554  1.00  0.00     0.029 A 
ATOM     46  N   UNL A   1      43.120  27.132  28.159  1.00  0.00    -0.354 N 
ATOM     47  C   UNL A   1      44.777  31.061  28.609  1.00  0.00     0.074 A 
ATOM     48  C   UNL A   1      43.770  32.011  29.036  1.00  0.00     0.031 C 
ATOM     49  C   UNL A   1      41.529  25.562  28.160  1.00  0.00     0.029 A 
ATOM     50  C   UNL A   1      42.938  25.803  27.854  1.00  0.00     0.049 A 
ATOM     51  H   UNL A   1      43.993  27.584  28.096  1.00  0.00     0.167 HD
ATOM     52  C   UNL A   1      46.079  31.371  28.384  1.00  0.00     0.037 A 
ATOM     53  C   UNL A   1      43.791  24.883  27.361  1.00  0.00     0.037 A 
ATOM     54  C   UNL A   1      47.091  30.426  27.979  1.00  0.00     0.049 A 
ATOM     55  C   UNL A   1      45.222  25.255  27.084  1.00  0.00     0.074 A 
ATOM     56  C   UNL A   1      48.450  30.638  27.812  1.00  0.00     0.029 A 
ATOM     57  N   UNL A   1      46.857  29.097  27.658  1.00  0.00    -0.354 N 
ATOM     58  N   UNL A   1      45.821  26.408  27.262  1.00  0.00    -0.248 NA
ATOM     59  C   UNL A   1      46.092  24.204  26.538  1.00  0.00     0.031 C 
ATOM     60  C   UNL A   1      49.029  29.453  27.342  1.00  0.00     0.029 A 
ATOM     61  C   UNL A   1      48.039  28.490  27.255  1.00  0.00     0.049 A 
ATOM     62  H   UNL A   1      45.982  28.650  27.709  1.00  0.00     0.167 HD
ATOM     63  C   UNL A   1      47.136  26.221  26.851  1.00  0.00     0.074 A 
ATOM     64  C   UNL A   1      47.253  24.838  26.437  1.00  0.00     0.031 C 
ATOM     65  C   UNL A   1      48.152  27.118  26.821  1.00  0.00     0.037 A 
BRANCH  52  66
ATOM     66  C   UNL A   1      46.495  32.808  28.555  1.00  0.00     0.058 A 
ATOM     67  C   UNL A   1      46.961  33.303  29.783  1.00  0.00     0.135 A 
ATOM     68  C   UNL A   1      46.468  33.691  27.462  1.00  0.00     0.135 A 
ATOM     69  F   UNL A   1      47.006  32.504  30.860  1.00  0.00    -0.206 F 
ATOM     70  C   UNL A   1      47.351  34.631  29.931  1.00  0.00     0.059 A 
ATOM     71  C   UNL A   1      46.875  35.017  27.581  1.00  0.00     0.059 A 
ATOM     72  F   UNL A   1      46.042  33.267  26.261  1.00  0.00    -0.206 F 
ATOM     73  C   UNL A   1      47.297  35.483  28.827  1.00  0.00     0.060 A 
BRANCH  73  74
ATOM     74  S   UNL A   1      47.785  37.209  29.033  1.00  0.00     0.124 S 
ATOM     75  O   UNL A   1      48.447  37.168  30.336  1.00  0.00    -0.237 OA
ATOM     76  O   UNL A   1      48.668  37.424  27.886  1.00  0.00    -0.237 OA
ATOM     77  O   UNL A   1      46.525  37.930  28.991  1.00  0.00    -0.744 OA
ENDBRANCH  73  74
ENDBRANCH  52  66
BRANCH  53  78
ATOM     78  C   UNL A   1      43.298  23.509  27.080  1.00  0.00     0.058 A 
ATOM     79  C   UNL A   1      42.940  23.121  25.781  1.00  0.00     0.135 A 
ATOM     80  C   UNL A   1      43.216  22.547  28.099  1.00  0.00     0.135 A 
ATOM     81  F   UNL A   1      42.988  24.009  24.778  1.00  0.00    -0.206 F 
ATOM     82  C   UNL A   1      42.522  21.824  25.501  1.00  0.00     0.059 A 
ATOM     83  C   UNL A   1      42.824  21.239  27.840  1.00  0.00     0.059 A 
ATOM     84  F   UNL A   1      43.557  22.872  29.357  1.00  0.00    -0.206 F 
ATOM     85  C   UNL A   1      42.477  20.887  26.536  1.00  0.00     0.060 A 
BRANCH  85  86
ATOM     86  S   UNL A   1      42.019  19.185  26.143  1.00  0.00     0.124 S 
ATOM     87  O   UNL A   1      40.589  19.315  25.887  1.00  0.00    -0.237 OA
ATOM     88  O   UNL A   1      42.853  18.905  24.977  1.00  0.00    -0.237 OA
ATOM     89  O   UNL A   1      42.382  18.452  27.352  1.00  0.00    -0.744 OA
ENDBRANCH  85  86
ENDBRANCH  53  78
BRANCH  65  90
ATOM     90  C   UNL A   1      49.485  26.645  26.309  1.00  0.00     0.058 A 
ATOM     91  C   UNL A   1      49.879  26.871  24.980  1.00  0.00     0.135 A 
ATOM     92  C   UNL A   1      50.401  26.009  27.163  1.00  0.00     0.135 A 
ATOM     93  F   UNL A   1      49.038  27.465  24.120  1.00  0.00    -0.206 F 
ATOM     94  C   UNL A   1      51.129  26.476  24.514  1.00  0.00     0.059 A 
ATOM     95  C   UNL A   1      51.665  25.624  26.724  1.00  0.00     0.059 A 
ATOM     96  F   UNL A   1      50.078  25.773  28.445  1.00  0.00    -0.206 F 
ATOM     97  C   UNL A   1      52.017  25.855  25.394  1.00  0.00     0.060 A 
BRANCH  97  98
ATOM     98  S   UNL A   1      53.654  25.388  24.788  1.00  0.00     0.124 S 
ATOM     99  O   UNL A   1      54.524  26.001  25.786  1.00  0.00    -0.237 OA
ATOM    100  O   UNL A   1      53.592  23.929  24.811  1.00  0.00    -0.237 OA
ATOM    101  O   UNL A   1      53.707  25.985  23.457  1.00  0.00    -0.744 OA
ENDBRANCH  97  98
ENDBRANCH  65  90
ENDBRANCH  39  40
ENDBRANCH  31  34
ENDBRANCH  29  30
ENDBRANCH   1  29
TORSDOF 15
ENDMDL
MODEL 3
REMARK VINA RESULT:     -12.7      0.483      8.077
REMARK SMILES CC1(C)[C@@]2(C(=O)NCCCNC(=O)c3ccc(-c4c5nc(c(-c6c(F)cc(S(=O)(=O)[O-])cc6F)c6ccc([nH]6)c(-c6c(F)cc(S(=O)(=O)[O-])cc6F)c6nc(c(-c7c(F)cc(S(=O)(=O)[O-])cc7F)c7ccc4[nH]7)C=C6)C=C5)cc3)CC[C@]1(C)/C(=N/NC(=O)c1ccc(Cl)cc1)C2
REMARK SMILES IDX 9 1 8 2 7 3 5 4 6 5 4 7 1 8 2 9 3 10 82 11 80 12 96 13 81 14
REMARK SMILES IDX 83 15 84 16 85 17 86 18 87 19 88 21 89 22 90 23 95 24 91 25
REMARK SMILES IDX 94 26 92 27 93 28 10 29 11 30 12 31 13 33 14 34 15 35 79 36
REMARK SMILES IDX 16 37 78 38 17 39 18 40 19 41 72 42 20 43 77 44 71 45 73 46
REMARK SMILES IDX 21 47 76 48 70 49 69 50 22 52 56 53 35 54 55 55 36 56 39 57
REMARK SMILES IDX 54 58 74 59 37 60 38 61 53 63 75 64 40 65 23 66 24 67 33 68
REMARK SMILES IDX 25 69 26 70 32 71 34 72 27 73 28 74 29 75 30 76 31 77 57 78
REMARK SMILES IDX 58 79 67 80 59 81 60 82 66 83 68 84 61 85 62 86 63 87 64 88
REMARK SMILES IDX 65 89 41 90 42 91 51 92 43 93 44 94 50 95 52 96 45 97 46 98
REMARK SMILES IDX 47 99 48 100 49 101
REMARK H PARENT 7 6 86 20 11 32 73 51 39 62
REMARK Flexibility Score: inf
ROOT
ATOM      1  C   UNL A   1      37.996  23.684  26.123  1.00  0.00     0.042 C 
ENDROOT
BRANCH   1   2
ATOM      2  C   UNL A   1      36.836  22.670  26.124  1.00  0.00     0.117 C 
BRANCH   2   3
ATOM      3  N   UNL A   1      35.633  23.012  26.868  1.00  0.00    -0.356 N 
ATOM      4  C   UNL A   1      34.324  22.694  26.624  1.00  0.00     0.227 C 
ATOM      5  O   UNL A   1      33.643  22.432  27.619  1.00  0.00    -0.274 OA
ATOM      6  H   UNL A   1      35.785  23.558  27.673  1.00  0.00     0.163 HD
BRANCH   4   7
ATOM      7  C   UNL A   1      33.680  22.801  25.237  1.00  0.00     0.060 C 
ATOM      8  C   UNL A   1      34.403  20.493  24.249  1.00  0.00     0.013 C 
ATOM      9  C   UNL A   1      33.219  21.440  24.579  1.00  0.00    -0.010 C 
ATOM     10  C   UNL A   1      32.152  20.602  25.314  1.00  0.00     0.013 C 
ATOM     11  C   UNL A   1      32.619  22.171  23.337  1.00  0.00     0.014 C 
ATOM     12  C   UNL A   1      34.519  23.444  24.091  1.00  0.00     0.019 C 
ATOM     13  C   UNL A   1      32.363  23.607  25.330  1.00  0.00     0.071 C 
ATOM     14  C   UNL A   1      33.823  22.967  22.797  1.00  0.00     0.014 C 
ATOM     15  C   UNL A   1      31.901  21.335  22.296  1.00  0.00     0.018 C 
ATOM     16  C   UNL A   1      31.745  23.262  24.013  1.00  0.00     0.046 C 
ATOM     17  N   UNL A   1      30.765  23.779  23.352  1.00  0.00    -0.181 NA
BRANCH  17  18
ATOM     18  N   UNL A   1      29.909  24.797  23.611  1.00  0.00    -0.243 N 
ATOM     19  C   UNL A   1      29.868  26.040  24.197  1.00  0.00     0.271 C 
ATOM     20  H   UNL A   1      29.017  24.569  23.262  1.00  0.00     0.194 HD
ATOM     21  O   UNL A   1      28.788  26.634  24.248  1.00  0.00    -0.267 OA
BRANCH  19  22
ATOM     22  C   UNL A   1      31.002  26.712  24.815  1.00  0.00     0.041 A 
ATOM     23  C   UNL A   1      32.116  27.031  24.030  1.00  0.00     0.015 A 
ATOM     24  C   UNL A   1      31.042  26.893  26.195  1.00  0.00     0.015 A 
ATOM     25  C   UNL A   1      33.191  27.714  24.602  1.00  0.00     0.021 A 
ATOM     26  C   UNL A   1      32.101  27.608  26.754  1.00  0.00     0.021 A 
ATOM     27  C   UNL A   1      33.150  28.054  25.951  1.00  0.00     0.041 A 
ATOM     28  Cl  UNL A   1      34.377  29.054  26.622  1.00  0.00    -0.084 Cl
ENDBRANCH  19  22
ENDBRANCH  17  18
ENDBRANCH   4   7
ENDBRANCH   2   3
ENDBRANCH   1   2
BRANCH   1  29
ATOM     29  C   UNL A   1      39.330  23.284  26.775  1.00  0.00     0.118 C 
BRANCH  29  30
ATOM     30  N   UNL A   1      40.459  23.925  26.120  1.00  0.00    -0.352 N 
ATOM     31  C   UNL A   1      41.001  25.182  26.242  1.00  0.00     0.251 C 
ATOM     32  H   UNL A   1      40.921  23.352  25.467  1.00  0.00     0.163 HD
ATOM     33  O   UNL A   1      41.791  25.548  25.371  1.00  0.00    -0.269 OA
BRANCH  31  34
ATOM     34  C   UNL A   1      40.698  26.113  27.364  1.00  0.00     0.039 A 
ATOM     35  C   UNL A   1      41.521  27.239  27.517  1.00  0.00     0.014 A 
ATOM     36  C   UNL A   1      39.759  25.826  28.360  1.00  0.00     0.014 A 
ATOM     37  C   UNL A   1      41.403  28.070  28.641  1.00  0.00     0.010 A 
ATOM     38  C   UNL A   1      39.625  26.675  29.476  1.00  0.00     0.010 A 
ATOM     39  C   UNL A   1      40.451  27.801  29.636  1.00  0.00    -0.014 A 
BRANCH  39  40
ATOM     40  C   UNL A   1      40.318  28.701  30.823  1.00  0.00     0.031 A 
ATOM     41  C   UNL A   1      39.307  29.819  30.852  1.00  0.00     0.074 A 
ATOM     42  C   UNL A   1      41.125  28.526  31.888  1.00  0.00     0.049 A 
ATOM     43  N   UNL A   1      39.088  30.715  31.784  1.00  0.00    -0.248 NA
ATOM     44  C   UNL A   1      38.432  29.954  29.678  1.00  0.00     0.031 C 
ATOM     45  C   UNL A   1      42.152  27.492  32.002  1.00  0.00     0.029 A 
ATOM     46  N   UNL A   1      41.222  29.222  33.069  1.00  0.00    -0.354 N 
ATOM     47  C   UNL A   1      38.066  31.529  31.308  1.00  0.00     0.074 A 
ATOM     48  C   UNL A   1      37.721  31.030  29.992  1.00  0.00     0.031 C 
ATOM     49  C   UNL A   1      42.779  27.624  33.182  1.00  0.00     0.029 A 
ATOM     50  C   UNL A   1      42.224  28.772  33.896  1.00  0.00     0.049 A 
ATOM     51  H   UNL A   1      40.627  29.973  33.303  1.00  0.00     0.167 HD
ATOM     52  C   UNL A   1      37.465  32.587  31.911  1.00  0.00     0.037 A 
ATOM     53  C   UNL A   1      42.671  29.237  35.081  1.00  0.00     0.037 A 
ATOM     54  C   UNL A   1      37.789  33.075  33.229  1.00  0.00     0.049 A 
ATOM     55  C   UNL A   1      42.016  30.433  35.715  1.00  0.00     0.074 A 
ATOM     56  C   UNL A   1      37.173  34.086  33.948  1.00  0.00     0.029 A 
ATOM     57  N   UNL A   1      38.827  32.605  34.019  1.00  0.00    -0.354 N 
ATOM     58  N   UNL A   1      41.006  31.145  35.279  1.00  0.00    -0.248 NA
ATOM     59  C   UNL A   1      42.562  30.890  37.001  1.00  0.00     0.031 C 
ATOM     60  C   UNL A   1      37.868  34.262  35.150  1.00  0.00     0.029 A 
ATOM     61  C   UNL A   1      38.893  33.333  35.200  1.00  0.00     0.049 A 
ATOM     62  H   UNL A   1      39.429  31.864  33.779  1.00  0.00     0.167 HD
ATOM     63  C   UNL A   1      40.794  32.132  36.235  1.00  0.00     0.074 A 
ATOM     64  C   UNL A   1      41.766  31.913  37.286  1.00  0.00     0.031 C 
ATOM     65  C   UNL A   1      39.876  33.130  36.237  1.00  0.00     0.037 A 
BRANCH  52  66
ATOM     66  C   UNL A   1      36.394  33.313  31.141  1.00  0.00     0.058 A 
ATOM     67  C   UNL A   1      36.694  34.108  30.024  1.00  0.00     0.135 A 
ATOM     68  C   UNL A   1      35.043  33.176  31.502  1.00  0.00     0.135 A 
ATOM     69  F   UNL A   1      37.969  34.275  29.636  1.00  0.00    -0.206 F 
ATOM     70  C   UNL A   1      35.697  34.770  29.313  1.00  0.00     0.059 A 
ATOM     71  C   UNL A   1      34.027  33.811  30.791  1.00  0.00     0.059 A 
ATOM     72  F   UNL A   1      34.698  32.419  32.555  1.00  0.00    -0.206 F 
ATOM     73  C   UNL A   1      34.368  34.622  29.708  1.00  0.00     0.060 A 
BRANCH  73  74
ATOM     74  S   UNL A   1      33.083  35.502  28.793  1.00  0.00     0.124 S 
ATOM     75  O   UNL A   1      32.466  34.411  28.042  1.00  0.00    -0.237 OA
ATOM     76  O   UNL A   1      32.266  36.067  29.867  1.00  0.00    -0.237 OA
ATOM     77  O   UNL A   1      33.826  36.468  28.002  1.00  0.00    -0.744 OA
ENDBRANCH  73  74
ENDBRANCH  52  66
BRANCH  53  78
ATOM     78  C   UNL A   1      43.824  28.567  35.738  1.00  0.00     0.058 A 
ATOM     79  C   UNL A   1      45.140  28.975  35.482  1.00  0.00     0.135 A 
ATOM     80  C   UNL A   1      43.625  27.534  36.668  1.00  0.00     0.135 A 
ATOM     81  F   UNL A   1      45.380  29.948  34.590  1.00  0.00    -0.206 F 
ATOM     82  C   UNL A   1      46.222  28.385  36.128  1.00  0.00     0.059 A 
ATOM     83  C   UNL A   1      44.688  26.945  37.343  1.00  0.00     0.059 A 
ATOM     84  F   UNL A   1      42.381  27.116  36.951  1.00  0.00    -0.206 F 
ATOM     85  C   UNL A   1      45.985  27.377  37.064  1.00  0.00     0.060 A 
BRANCH  85  86
ATOM     86  S   UNL A   1      47.389  26.681  37.962  1.00  0.00     0.124 S 
ATOM     87  O   UNL A   1      48.474  26.875  37.007  1.00  0.00    -0.237 OA
ATOM     88  O   UNL A   1      47.434  27.518  39.158  1.00  0.00    -0.237 OA
ATOM     89  O   UNL A   1      46.988  25.297  38.192  1.00  0.00    -0.744 OA
ENDBRANCH  85  86
ENDBRANCH  53  78
BRANCH  65  90
ATOM     90  C   UNL A   1      39.880  34.078  37.405  1.00  0.00     0.058 A 
ATOM     91  C   UNL A   1      40.542  35.314  37.339  1.00  0.00     0.135 A 
ATOM     92  C   UNL A   1      39.172  33.777  38.580  1.00  0.00     0.135 A 
ATOM     93  F   UNL A   1      41.241  35.647  36.243  1.00  0.00    -0.206 F 
ATOM     94  C   UNL A   1      40.511  36.215  38.399  1.00  0.00     0.059 A 
ATOM     95  C   UNL A   1      39.110  34.672  39.645  1.00  0.00     0.059 A 
ATOM     96  F   UNL A   1      38.516  32.611  38.695  1.00  0.00    -0.206 F 
ATOM     97  C   UNL A   1      39.789  35.887  39.548  1.00  0.00     0.060 A 
BRANCH  97  98
ATOM     98  S   UNL A   1      39.718  37.083  40.900  1.00  0.00     0.124 S 
ATOM     99  O   UNL A   1      41.124  37.189  41.274  1.00  0.00    -0.237 OA
ATOM    100  O   UNL A   1      39.144  38.258  40.249  1.00  0.00    -0.237 OA
ATOM    101  O   UNL A   1      38.854  36.435  41.882  1.00  0.00    -0.744 OA
ENDBRANCH  97  98
ENDBRANCH  65  90
ENDBRANCH  39  40
ENDBRANCH  31  34
ENDBRANCH  29  30
ENDBRANCH   1  29
TORSDOF 15
ENDMDL
