MODEL 1
REMARK VINA RESULT:     -13.5      0.000      0.000
REMARK SMILES Cc1cccc(C(=O)NCCCNC(=O)c2ccc(-c3c4nc(c(-c5c(F)cc(S(=O)(=O)[O-])cc5F)c5ccc([nH]5)c(-c5c(F)cc(S(=O)(=O)[O-])cc5F)c5nc(c(-c6c(F)cc(S(=O)(=O)[O-])cc6F)c6ccc3[nH]6)C=C5)C=C4)cc2)c1NC(=O)Cc1ccccc1
REMARK SMILES IDX 11 1 10 2 9 3 7 4 8 5 6 7 1 8 2 9 3 10 82 11 4 12 5 13 83 14
REMARK SMILES IDX 84 15 85 17 86 18 87 19 88 20 92 21 89 22 91 23 90 24 12 25
REMARK SMILES IDX 13 26 14 27 15 29 16 30 17 31 81 32 18 33 80 34 19 35 20 36
REMARK SMILES IDX 21 37 74 38 22 39 79 40 73 41 75 42 23 43 78 44 72 45 71 46
REMARK SMILES IDX 24 48 58 49 37 50 57 51 38 52 41 53 56 54 76 55 39 56 40 57
REMARK SMILES IDX 55 59 77 60 42 61 25 62 26 63 35 64 27 65 28 66 34 67 36 68
REMARK SMILES IDX 29 69 30 70 31 71 32 72 33 73 59 74 60 75 69 76 61 77 62 78
REMARK SMILES IDX 68 79 70 80 63 81 64 82 65 83 66 84 67 85 43 86 44 87 53 88
REMARK SMILES IDX 45 89 46 90 52 91 54 92 47 93 48 94 49 95 50 96 51 97
REMARK H PARENT 9 6 83 16 13 28 75 47 41 58
REMARK Flexibility Score: inf
ROOT
ATOM      1  C   UNL A   1      33.076  29.351  26.766  1.00  0.00     0.042 C 
ENDROOT
BRANCH   1   2
ATOM      2  C   UNL A   1      31.821  30.012  26.174  1.00  0.00     0.118 C 
BRANCH   2   3
ATOM      3  N   UNL A   1      31.380  29.659  24.817  1.00  0.00    -0.352 N 
ATOM      4  C   UNL A   1      30.842  28.496  24.292  1.00  0.00     0.253 C 
ATOM      5  O   UNL A   1      30.028  28.567  23.373  1.00  0.00    -0.269 OA
ATOM      6  H   UNL A   1      31.486  30.385  24.160  1.00  0.00     0.163 HD
BRANCH   4   7
ATOM      7  C   UNL A   1      31.205  27.143  24.790  1.00  0.00     0.063 A 
ATOM      8  C   UNL A   1      34.406  25.573  25.756  1.00  0.00     0.046 C 
ATOM      9  C   UNL A   1      32.941  25.656  25.452  1.00  0.00    -0.027 A 
ATOM     10  C   UNL A   1      32.028  24.881  26.172  1.00  0.00     0.005 A 
ATOM     11  C   UNL A   1      32.429  26.563  24.521  1.00  0.00     0.056 A 
ATOM     12  C   UNL A   1      30.670  25.182  26.109  1.00  0.00     0.001 A 
ATOM     13  C   UNL A   1      30.273  26.377  25.504  1.00  0.00     0.016 A 
BRANCH  11  14
ATOM     14  N   UNL A   1      33.048  26.586  23.257  1.00  0.00    -0.325 N 
ATOM     15  C   UNL A   1      32.992  25.709  22.206  1.00  0.00     0.228 C 
ATOM     16  H   UNL A   1      33.623  27.370  23.101  1.00  0.00     0.169 HD
ATOM     17  O   UNL A   1      33.667  26.019  21.216  1.00  0.00    -0.274 OA
BRANCH  15  18
ATOM     18  C   UNL A   1      32.246  24.370  22.255  1.00  0.00     0.135 C 
BRANCH  18  19
ATOM     19  C   UNL A   1      33.010  23.275  22.958  1.00  0.00    -0.039 A 
ATOM     20  C   UNL A   1      32.337  22.236  23.612  1.00  0.00     0.004 A 
ATOM     21  C   UNL A   1      34.403  23.295  22.991  1.00  0.00     0.004 A 
ATOM     22  C   UNL A   1      33.042  21.341  24.406  1.00  0.00     0.000 A 
ATOM     23  C   UNL A   1      35.108  22.410  23.780  1.00  0.00     0.000 A 
ATOM     24  C   UNL A   1      34.417  21.467  24.522  1.00  0.00     0.000 A 
ENDBRANCH  18  19
ENDBRANCH  15  18
ENDBRANCH  11  14
ENDBRANCH   4   7
ENDBRANCH   2   3
ENDBRANCH   1   2
BRANCH   1  25
ATOM     25  C   UNL A   1      34.038  30.201  27.579  1.00  0.00     0.118 C 
BRANCH  25  26
ATOM     26  N   UNL A   1      35.236  30.653  26.895  1.00  0.00    -0.352 N 
ATOM     27  C   UNL A   1      36.318  31.006  27.691  1.00  0.00     0.251 C 
ATOM     28  H   UNL A   1      35.278  30.708  25.913  1.00  0.00     0.163 HD
ATOM     29  O   UNL A   1      36.403  32.044  28.347  1.00  0.00    -0.269 OA
BRANCH  27  30
ATOM     30  C   UNL A   1      37.182  29.856  28.016  1.00  0.00     0.039 A 
ATOM     31  C   UNL A   1      37.035  29.094  29.175  1.00  0.00     0.014 A 
ATOM     32  C   UNL A   1      38.298  29.712  27.188  1.00  0.00     0.014 A 
ATOM     33  C   UNL A   1      38.083  28.263  29.580  1.00  0.00     0.010 A 
ATOM     34  C   UNL A   1      39.341  28.919  27.603  1.00  0.00     0.010 A 
ATOM     35  C   UNL A   1      39.255  28.232  28.821  1.00  0.00    -0.014 A 
BRANCH  35  36
ATOM     36  C   UNL A   1      40.489  27.570  29.222  1.00  0.00     0.031 A 
ATOM     37  C   UNL A   1      40.735  26.171  28.804  1.00  0.00     0.074 A 
ATOM     38  C   UNL A   1      41.485  28.323  29.730  1.00  0.00     0.049 A 
ATOM     39  N   UNL A   1      41.755  25.468  29.152  1.00  0.00    -0.248 NA
ATOM     40  C   UNL A   1      39.814  25.442  27.943  1.00  0.00     0.031 C 
ATOM     41  C   UNL A   1      42.912  28.003  29.755  1.00  0.00     0.029 A 
ATOM     42  N   UNL A   1      41.448  29.561  30.341  1.00  0.00    -0.354 N 
ATOM     43  C   UNL A   1      41.797  24.343  28.356  1.00  0.00     0.074 A 
ATOM     44  C   UNL A   1      40.524  24.341  27.674  1.00  0.00     0.031 C 
ATOM     45  C   UNL A   1      43.563  28.908  30.510  1.00  0.00     0.029 A 
ATOM     46  C   UNL A   1      42.545  29.687  31.189  1.00  0.00     0.049 A 
ATOM     47  H   UNL A   1      40.754  30.245  30.200  1.00  0.00     0.167 HD
ATOM     48  C   UNL A   1      42.963  23.631  28.289  1.00  0.00     0.037 A 
ATOM     49  C   UNL A   1      42.387  29.665  32.549  1.00  0.00     0.037 A 
ATOM     50  C   UNL A   1      43.956  24.198  29.216  1.00  0.00     0.049 A 
ATOM     51  C   UNL A   1      43.020  28.418  33.143  1.00  0.00     0.074 A 
ATOM     52  C   UNL A   1      45.040  25.041  29.032  1.00  0.00     0.029 A 
ATOM     53  N   UNL A   1      43.700  24.189  30.589  1.00  0.00    -0.354 N 
ATOM     54  N   UNL A   1      43.139  27.283  32.499  1.00  0.00    -0.248 NA
ATOM     55  C   UNL A   1      43.701  28.397  34.434  1.00  0.00     0.031 C 
ATOM     56  C   UNL A   1      45.365  25.620  30.290  1.00  0.00     0.029 A 
ATOM     57  C   UNL A   1      44.498  25.110  31.247  1.00  0.00     0.049 A 
ATOM     58  H   UNL A   1      43.041  23.607  31.031  1.00  0.00     0.167 HD
ATOM     59  C   UNL A   1      43.979  26.452  33.188  1.00  0.00     0.074 A 
ATOM     60  C   UNL A   1      44.263  27.174  34.419  1.00  0.00     0.031 C 
ATOM     61  C   UNL A   1      44.447  25.263  32.697  1.00  0.00     0.037 A 
BRANCH  48  62
ATOM     62  C   UNL A   1      43.298  22.604  27.210  1.00  0.00     0.058 A 
ATOM     63  C   UNL A   1      42.694  21.323  27.207  1.00  0.00     0.135 A 
ATOM     64  C   UNL A   1      44.229  22.796  26.168  1.00  0.00     0.135 A 
ATOM     65  F   UNL A   1      41.727  21.004  28.077  1.00  0.00    -0.206 F 
ATOM     66  C   UNL A   1      43.048  20.305  26.311  1.00  0.00     0.059 A 
ATOM     67  C   UNL A   1      44.641  21.780  25.296  1.00  0.00     0.059 A 
ATOM     68  F   UNL A   1      44.735  24.002  25.893  1.00  0.00    -0.206 F 
ATOM     69  C   UNL A   1      44.046  20.532  25.374  1.00  0.00     0.060 A 
BRANCH  69  70
ATOM     70  S   UNL A   1      44.517  19.208  24.242  1.00  0.00     0.124 S 
ATOM     71  O   UNL A   1      44.517  19.890  22.952  1.00  0.00    -0.237 OA
ATOM     72  O   UNL A   1      45.825  18.818  24.756  1.00  0.00    -0.237 OA
ATOM     73  O   UNL A   1      43.458  18.217  24.417  1.00  0.00    -0.744 OA
ENDBRANCH  69  70
ENDBRANCH  48  62
BRANCH  49  74
ATOM     74  C   UNL A   1      41.140  30.369  32.978  1.00  0.00     0.058 A 
ATOM     75  C   UNL A   1      40.065  29.541  33.368  1.00  0.00     0.135 A 
ATOM     76  C   UNL A   1      41.168  31.669  33.507  1.00  0.00     0.135 A 
ATOM     77  F   UNL A   1      39.974  28.292  32.883  1.00  0.00    -0.206 F 
ATOM     78  C   UNL A   1      39.189  29.902  34.388  1.00  0.00     0.059 A 
ATOM     79  C   UNL A   1      40.283  32.060  34.520  1.00  0.00     0.059 A 
ATOM     80  F   UNL A   1      42.154  32.515  33.172  1.00  0.00    -0.206 F 
ATOM     81  C   UNL A   1      39.355  31.137  35.009  1.00  0.00     0.060 A 
BRANCH  81  82
ATOM     82  S   UNL A   1      38.478  31.416  36.568  1.00  0.00     0.124 S 
ATOM     83  O   UNL A   1      39.503  32.039  37.395  1.00  0.00    -0.237 OA
ATOM     84  O   UNL A   1      37.384  32.294  36.142  1.00  0.00    -0.237 OA
ATOM     85  O   UNL A   1      38.068  30.078  36.974  1.00  0.00    -0.744 OA
ENDBRANCH  81  82
ENDBRANCH  49  74
BRANCH  61  86
ATOM     86  C   UNL A   1      45.014  24.163  33.558  1.00  0.00     0.058 A 
ATOM     87  C   UNL A   1      46.320  24.204  34.075  1.00  0.00     0.135 A 
ATOM     88  C   UNL A   1      44.188  23.128  34.058  1.00  0.00     0.135 A 
ATOM     89  F   UNL A   1      47.167  25.196  33.764  1.00  0.00    -0.206 F 
ATOM     90  C   UNL A   1      46.795  23.256  34.977  1.00  0.00     0.059 A 
ATOM     91  C   UNL A   1      44.623  22.208  35.007  1.00  0.00     0.059 A 
ATOM     92  F   UNL A   1      42.913  22.992  33.663  1.00  0.00    -0.206 F 
ATOM     93  C   UNL A   1      45.938  22.266  35.444  1.00  0.00     0.060 A 
BRANCH  93  94
ATOM     94  S   UNL A   1      46.528  21.100  36.680  1.00  0.00     0.124 S 
ATOM     95  O   UNL A   1      45.793  21.537  37.862  1.00  0.00    -0.237 OA
ATOM     96  O   UNL A   1      46.122  19.811  36.127  1.00  0.00    -0.237 OA
ATOM     97  O   UNL A   1      47.968  21.337  36.703  1.00  0.00    -0.744 OA
ENDBRANCH  93  94
ENDBRANCH  61  86
ENDBRANCH  35  36
ENDBRANCH  27  30
ENDBRANCH  25  26
ENDBRANCH   1  25
TORSDOF 16
ENDMDL
MODEL 2
REMARK VINA RESULT:     -13.4      2.182      3.280
REMARK SMILES Cc1cccc(C(=O)NCCCNC(=O)c2ccc(-c3c4nc(c(-c5c(F)cc(S(=O)(=O)[O-])cc5F)c5ccc([nH]5)c(-c5c(F)cc(S(=O)(=O)[O-])cc5F)c5nc(c(-c6c(F)cc(S(=O)(=O)[O-])cc6F)c6ccc3[nH]6)C=C5)C=C4)cc2)c1NC(=O)Cc1ccccc1
REMARK SMILES IDX 11 1 10 2 9 3 7 4 8 5 6 7 1 8 2 9 3 10 82 11 4 12 5 13 83 14
REMARK SMILES IDX 84 15 85 17 86 18 87 19 88 20 92 21 89 22 91 23 90 24 12 25
REMARK SMILES IDX 13 26 14 27 15 29 16 30 17 31 81 32 18 33 80 34 19 35 20 36
REMARK SMILES IDX 21 37 74 38 22 39 79 40 73 41 75 42 23 43 78 44 72 45 71 46
REMARK SMILES IDX 24 48 58 49 37 50 57 51 38 52 41 53 56 54 76 55 39 56 40 57
REMARK SMILES IDX 55 59 77 60 42 61 25 62 26 63 35 64 27 65 28 66 34 67 36 68
REMARK SMILES IDX 29 69 30 70 31 71 32 72 33 73 59 74 60 75 69 76 61 77 62 78
REMARK SMILES IDX 68 79 70 80 63 81 64 82 65 83 66 84 67 85 43 86 44 87 53 88
REMARK SMILES IDX 45 89 46 90 52 91 54 92 47 93 48 94 49 95 50 96 51 97
REMARK H PARENT 9 6 83 16 13 28 75 47 41 58
REMARK Flexibility Score: inf
ROOT
ATOM      1  C   UNL A   1      31.841  29.761  25.893  1.00  0.00     0.042 C 
ENDROOT
BRANCH   1   2
ATOM      2  C   UNL A   1      32.483  29.502  24.521  1.00  0.00     0.118 C 
BRANCH   2   3
ATOM      3  N   UNL A   1      31.630  29.321  23.338  1.00  0.00    -0.352 N 
ATOM      4  C   UNL A   1      31.100  28.187  22.743  1.00  0.00     0.253 C 
ATOM      5  O   UNL A   1      30.005  28.252  22.186  1.00  0.00    -0.269 OA
ATOM      6  H   UNL A   1      31.391  30.162  22.883  1.00  0.00     0.163 HD
BRANCH   4   7
ATOM      7  C   UNL A   1      31.798  26.874  22.745  1.00  0.00     0.063 A 
ATOM      8  C   UNL A   1      30.703  23.423  23.477  1.00  0.00     0.046 C 
ATOM      9  C   UNL A   1      31.657  24.536  23.163  1.00  0.00    -0.027 A 
ATOM     10  C   UNL A   1      32.764  24.304  22.343  1.00  0.00     0.005 A 
ATOM     11  C   UNL A   1      31.431  25.847  23.591  1.00  0.00     0.056 A 
ATOM     12  C   UNL A   1      33.461  25.383  21.805  1.00  0.00     0.001 A 
ATOM     13  C   UNL A   1      32.912  26.663  21.921  1.00  0.00     0.016 A 
BRANCH  11  14
ATOM     14  N   UNL A   1      31.129  26.021  24.955  1.00  0.00    -0.325 N 
ATOM     15  C   UNL A   1      31.940  26.180  26.047  1.00  0.00     0.228 C 
ATOM     16  H   UNL A   1      30.166  26.031  25.160  1.00  0.00     0.169 HD
ATOM     17  O   UNL A   1      31.357  26.309  27.131  1.00  0.00    -0.274 OA
BRANCH  15  18
ATOM     18  C   UNL A   1      33.471  26.095  25.990  1.00  0.00     0.135 C 
BRANCH  18  19
ATOM     19  C   UNL A   1      33.995  24.694  25.801  1.00  0.00    -0.039 A 
ATOM     20  C   UNL A   1      35.148  24.454  25.045  1.00  0.00     0.004 A 
ATOM     21  C   UNL A   1      33.321  23.607  26.356  1.00  0.00     0.004 A 
ATOM     22  C   UNL A   1      35.515  23.153  24.726  1.00  0.00     0.000 A 
ATOM     23  C   UNL A   1      33.680  22.313  26.042  1.00  0.00     0.000 A 
ATOM     24  C   UNL A   1      34.747  22.095  25.188  1.00  0.00     0.000 A 
ENDBRANCH  18  19
ENDBRANCH  15  18
ENDBRANCH  11  14
ENDBRANCH   4   7
ENDBRANCH   2   3
ENDBRANCH   1   2
BRANCH   1  25
ATOM     25  C   UNL A   1      32.740  30.100  27.071  1.00  0.00     0.118 C 
BRANCH  25  26
ATOM     26  N   UNL A   1      33.886  30.943  26.785  1.00  0.00    -0.352 N 
ATOM     27  C   UNL A   1      34.590  31.437  27.876  1.00  0.00     0.251 C 
ATOM     28  H   UNL A   1      34.152  31.156  25.862  1.00  0.00     0.163 HD
ATOM     29  O   UNL A   1      34.209  32.349  28.609  1.00  0.00    -0.269 OA
BRANCH  27  30
ATOM     30  C   UNL A   1      35.641  30.511  28.339  1.00  0.00     0.039 A 
ATOM     31  C   UNL A   1      35.643  29.930  29.608  1.00  0.00     0.014 A 
ATOM     32  C   UNL A   1      36.752  30.422  27.497  1.00  0.00     0.014 A 
ATOM     33  C   UNL A   1      36.822  29.358  30.092  1.00  0.00     0.010 A 
ATOM     34  C   UNL A   1      37.920  29.888  27.986  1.00  0.00     0.010 A 
ATOM     35  C   UNL A   1      37.970  29.400  29.299  1.00  0.00    -0.014 A 
BRANCH  35  36
ATOM     36  C   UNL A   1      39.304  29.021  29.745  1.00  0.00     0.031 A 
ATOM     37  C   UNL A   1      39.922  27.780  29.227  1.00  0.00     0.074 A 
ATOM     38  C   UNL A   1      40.044  29.937  30.403  1.00  0.00     0.049 A 
ATOM     39  N   UNL A   1      41.064  27.316  29.598  1.00  0.00    -0.248 NA
ATOM     40  C   UNL A   1      39.272  26.944  28.227  1.00  0.00     0.031 C 
ATOM     41  C   UNL A   1      41.501  29.977  30.524  1.00  0.00     0.029 A 
ATOM     42  N   UNL A   1      39.656  31.054  31.117  1.00  0.00    -0.354 N 
ATOM     43  C   UNL A   1      41.439  26.328  28.712  1.00  0.00     0.074 A 
ATOM     44  C   UNL A   1      40.252  26.088  27.924  1.00  0.00     0.031 C 
ATOM     45  C   UNL A   1      41.853  30.926  31.411  1.00  0.00     0.029 A 
ATOM     46  C   UNL A   1      40.630  31.353  32.065  1.00  0.00     0.049 A 
ATOM     47  H   UNL A   1      38.821  31.557  30.977  1.00  0.00     0.167 HD
ATOM     48  C   UNL A   1      42.749  25.937  28.684  1.00  0.00     0.037 A 
ATOM     49  C   UNL A   1      40.398  31.146  33.399  1.00  0.00     0.037 A 
ATOM     50  C   UNL A   1      43.506  26.626  29.742  1.00  0.00     0.049 A 
ATOM     51  C   UNL A   1      41.289  30.036  33.932  1.00  0.00     0.074 A 
ATOM     52  C   UNL A   1      44.350  27.725  29.729  1.00  0.00     0.029 A 
ATOM     53  N   UNL A   1      43.176  26.406  31.081  1.00  0.00    -0.354 N 
ATOM     54  N   UNL A   1      41.731  29.042  33.203  1.00  0.00    -0.248 NA
ATOM     55  C   UNL A   1      41.871  30.043  35.271  1.00  0.00     0.031 C 
ATOM     56  C   UNL A   1      44.439  28.226  31.057  1.00  0.00     0.029 A 
ATOM     57  C   UNL A   1      43.672  27.418  31.885  1.00  0.00     0.049 A 
ATOM     58  H   UNL A   1      42.659  25.635  31.410  1.00  0.00     0.167 HD
ATOM     59  C   UNL A   1      42.710  28.373  33.886  1.00  0.00     0.074 A 
ATOM     60  C   UNL A   1      42.724  29.005  35.195  1.00  0.00     0.031 C 
ATOM     61  C   UNL A   1      43.493  27.397  33.333  1.00  0.00     0.037 A 
BRANCH  48  62
ATOM     62  C   UNL A   1      43.399  25.147  27.551  1.00  0.00     0.058 A 
ATOM     63  C   UNL A   1      43.327  23.733  27.510  1.00  0.00     0.135 A 
ATOM     64  C   UNL A   1      44.141  25.709  26.491  1.00  0.00     0.135 A 
ATOM     65  F   UNL A   1      42.593  23.044  28.394  1.00  0.00    -0.206 F 
ATOM     66  C   UNL A   1      44.001  22.953  26.559  1.00  0.00     0.059 A 
ATOM     67  C   UNL A   1      44.868  24.952  25.563  1.00  0.00     0.059 A 
ATOM     68  F   UNL A   1      44.140  27.024  26.255  1.00  0.00    -0.206 F 
ATOM     69  C   UNL A   1      44.795  23.570  25.604  1.00  0.00     0.060 A 
BRANCH  69  70
ATOM     70  S   UNL A   1      45.681  22.559  24.401  1.00  0.00     0.124 S 
ATOM     71  O   UNL A   1      44.597  22.042  23.573  1.00  0.00    -0.237 OA
ATOM     72  O   UNL A   1      46.556  23.538  23.765  1.00  0.00    -0.237 OA
ATOM     73  O   UNL A   1      46.359  21.561  25.226  1.00  0.00    -0.744 OA
ENDBRANCH  69  70
ENDBRANCH  48  62
BRANCH  49  74
ATOM     74  C   UNL A   1      38.990  31.472  33.779  1.00  0.00     0.058 A 
ATOM     75  C   UNL A   1      38.707  32.839  33.994  1.00  0.00     0.135 A 
ATOM     76  C   UNL A   1      37.915  30.647  33.412  1.00  0.00     0.135 A 
ATOM     77  F   UNL A   1      39.691  33.675  34.363  1.00  0.00    -0.206 F 
ATOM     78  C   UNL A   1      37.478  33.399  33.654  1.00  0.00     0.059 A 
ATOM     79  C   UNL A   1      36.664  31.188  33.086  1.00  0.00     0.059 A 
ATOM     80  F   UNL A   1      38.107  29.337  33.203  1.00  0.00    -0.206 F 
ATOM     81  C   UNL A   1      36.487  32.574  33.131  1.00  0.00     0.060 A 
BRANCH  81  82
ATOM     82  S   UNL A   1      35.066  33.369  32.339  1.00  0.00     0.124 S 
ATOM     83  O   UNL A   1      34.324  32.230  31.814  1.00  0.00    -0.237 OA
ATOM     84  O   UNL A   1      34.446  34.066  33.469  1.00  0.00    -0.237 OA
ATOM     85  O   UNL A   1      35.675  34.239  31.340  1.00  0.00    -0.744 OA
ENDBRANCH  81  82
ENDBRANCH  49  74
BRANCH  61  86
ATOM     86  C   UNL A   1      44.266  26.383  34.139  1.00  0.00     0.058 A 
ATOM     87  C   UNL A   1      43.650  25.288  34.768  1.00  0.00     0.135 A 
ATOM     88  C   UNL A   1      45.681  26.372  34.133  1.00  0.00     0.135 A 
ATOM     89  F   UNL A   1      42.319  25.125  34.750  1.00  0.00    -0.206 F 
ATOM     90  C   UNL A   1      44.379  24.282  35.397  1.00  0.00     0.059 A 
ATOM     91  C   UNL A   1      46.429  25.345  34.700  1.00  0.00     0.059 A 
ATOM     92  F   UNL A   1      46.391  27.347  33.546  1.00  0.00    -0.206 F 
ATOM     93  C   UNL A   1      45.769  24.314  35.352  1.00  0.00     0.060 A 
BRANCH  93  94
ATOM     94  S   UNL A   1      46.706  22.965  36.084  1.00  0.00     0.124 S 
ATOM     95  O   UNL A   1      47.825  22.854  35.155  1.00  0.00    -0.237 OA
ATOM     96  O   UNL A   1      47.036  23.483  37.409  1.00  0.00    -0.237 OA
ATOM     97  O   UNL A   1      45.758  21.855  36.074  1.00  0.00    -0.744 OA
ENDBRANCH  93  94
ENDBRANCH  61  86
ENDBRANCH  35  36
ENDBRANCH  27  30
ENDBRANCH  25  26
ENDBRANCH   1  25
TORSDOF 16
ENDMDL
MODEL 3
REMARK VINA RESULT:     -13.4      5.506     11.493
REMARK SMILES Cc1cccc(C(=O)NCCCNC(=O)c2ccc(-c3c4nc(c(-c5c(F)cc(S(=O)(=O)[O-])cc5F)c5ccc([nH]5)c(-c5c(F)cc(S(=O)(=O)[O-])cc5F)c5nc(c(-c6c(F)cc(S(=O)(=O)[O-])cc6F)c6ccc3[nH]6)C=C5)C=C4)cc2)c1NC(=O)Cc1ccccc1
REMARK SMILES IDX 11 1 10 2 9 3 7 4 8 5 6 7 1 8 2 9 3 10 82 11 4 12 5 13 83 14
REMARK SMILES IDX 84 15 85 17 86 18 87 19 88 20 92 21 89 22 91 23 90 24 12 25
REMARK SMILES IDX 13 26 14 27 15 29 16 30 17 31 81 32 18 33 80 34 19 35 20 36
REMARK SMILES IDX 21 37 74 38 22 39 79 40 73 41 75 42 23 43 78 44 72 45 71 46
REMARK SMILES IDX 24 48 58 49 37 50 57 51 38 52 41 53 56 54 76 55 39 56 40 57
REMARK SMILES IDX 55 59 77 60 42 61 25 62 26 63 35 64 27 65 28 66 34 67 36 68
REMARK SMILES IDX 29 69 30 70 31 71 32 72 33 73 59 74 60 75 69 76 61 77 62 78
REMARK SMILES IDX 68 79 70 80 63 81 64 82 65 83 66 84 67 85 43 86 44 87 53 88
REMARK SMILES IDX 45 89 46 90 52 91 54 92 47 93 48 94 49 95 50 96 51 97
REMARK H PARENT 9 6 83 16 13 28 75 47 41 58
REMARK Flexibility Score: inf
ROOT
ATOM      1  C   UNL A   1      40.012  21.180  26.515  1.00  0.00     0.042 C 
ENDROOT
BRANCH   1   2
ATOM      2  C   UNL A   1      39.022  21.059  25.346  1.00  0.00     0.118 C 
BRANCH   2   3
ATOM      3  N   UNL A   1      37.987  20.015  25.370  1.00  0.00    -0.352 N 
ATOM      4  C   UNL A   1      36.650  20.029  25.005  1.00  0.00     0.253 C 
ATOM      5  O   UNL A   1      36.139  19.009  24.544  1.00  0.00    -0.269 OA
ATOM      6  H   UNL A   1      38.301  19.146  25.710  1.00  0.00     0.163 HD
BRANCH   4   7
ATOM      7  C   UNL A   1      35.789  21.232  25.142  1.00  0.00     0.063 A 
ATOM      8  C   UNL A   1      33.798  22.619  27.928  1.00  0.00     0.046 C 
ATOM      9  C   UNL A   1      34.326  22.496  26.530  1.00  0.00    -0.027 A 
ATOM     10  C   UNL A   1      34.552  23.639  25.759  1.00  0.00     0.005 A 
ATOM     11  C   UNL A   1      34.696  21.263  25.986  1.00  0.00     0.056 A 
ATOM     12  C   UNL A   1      35.321  23.548  24.602  1.00  0.00     0.001 A 
ATOM     13  C   UNL A   1      36.026  22.368  24.354  1.00  0.00     0.016 A 
BRANCH  11  14
ATOM     14  N   UNL A   1      33.760  20.217  26.098  1.00  0.00    -0.325 N 
ATOM     15  C   UNL A   1      32.845  19.725  25.207  1.00  0.00     0.228 C 
ATOM     16  H   UNL A   1      33.765  19.760  26.970  1.00  0.00     0.169 HD
ATOM     17  O   UNL A   1      32.153  18.783  25.618  1.00  0.00    -0.274 OA
BRANCH  15  18
ATOM     18  C   UNL A   1      32.583  20.341  23.828  1.00  0.00     0.135 C 
BRANCH  18  19
ATOM     19  C   UNL A   1      31.993  21.727  23.884  1.00  0.00    -0.039 A 
ATOM     20  C   UNL A   1      32.195  22.637  22.838  1.00  0.00     0.004 A 
ATOM     21  C   UNL A   1      31.257  22.138  24.994  1.00  0.00     0.004 A 
ATOM     22  C   UNL A   1      31.805  23.962  22.982  1.00  0.00     0.000 A 
ATOM     23  C   UNL A   1      30.869  23.453  25.143  1.00  0.00     0.000 A 
ATOM     24  C   UNL A   1      31.190  24.369  24.156  1.00  0.00     0.000 A 
ENDBRANCH  18  19
ENDBRANCH  15  18
ENDBRANCH  11  14
ENDBRANCH   4   7
ENDBRANCH   2   3
ENDBRANCH   1   2
BRANCH   1  25
ATOM     25  C   UNL A   1      40.485  22.562  26.934  1.00  0.00     0.118 C 
BRANCH  25  26
ATOM     26  N   UNL A   1      39.918  23.685  26.210  1.00  0.00    -0.352 N 
ATOM     27  C   UNL A   1      38.912  24.400  26.847  1.00  0.00     0.251 C 
ATOM     28  H   UNL A   1      40.232  23.929  25.309  1.00  0.00     0.163 HD
ATOM     29  O   UNL A   1      37.752  24.014  26.987  1.00  0.00    -0.269 OA
BRANCH  27  30
ATOM     30  C   UNL A   1      39.439  25.479  27.704  1.00  0.00     0.039 A 
ATOM     31  C   UNL A   1      38.922  25.771  28.967  1.00  0.00     0.014 A 
ATOM     32  C   UNL A   1      40.350  26.331  27.076  1.00  0.00     0.014 A 
ATOM     33  C   UNL A   1      39.227  26.999  29.558  1.00  0.00     0.010 A 
ATOM     34  C   UNL A   1      40.623  27.552  27.644  1.00  0.00     0.010 A 
ATOM     35  C   UNL A   1      40.026  27.908  28.861  1.00  0.00    -0.014 A 
BRANCH  35  36
ATOM     36  C   UNL A   1      40.264  29.287  29.263  1.00  0.00     0.031 A 
ATOM     37  C   UNL A   1      39.166  30.274  29.173  1.00  0.00     0.074 A 
ATOM     38  C   UNL A   1      41.389  29.569  29.952  1.00  0.00     0.049 A 
ATOM     39  N   UNL A   1      39.279  31.529  29.439  1.00  0.00    -0.248 NA
ATOM     40  C   UNL A   1      37.819  29.905  28.757  1.00  0.00     0.031 C 
ATOM     41  C   UNL A   1      41.622  30.706  30.841  1.00  0.00     0.029 A 
ATOM     42  N   UNL A   1      42.591  28.891  30.017  1.00  0.00    -0.354 N 
ATOM     43  C   UNL A   1      38.014  32.068  29.527  1.00  0.00     0.074 A 
ATOM     44  C   UNL A   1      37.147  31.030  29.020  1.00  0.00     0.031 C 
ATOM     45  C   UNL A   1      42.921  30.746  31.191  1.00  0.00     0.029 A 
ATOM     46  C   UNL A   1      43.605  29.786  30.345  1.00  0.00     0.049 A 
ATOM     47  H   UNL A   1      42.710  27.927  29.855  1.00  0.00     0.167 HD
ATOM     48  C   UNL A   1      37.861  33.281  30.141  1.00  0.00     0.037 A 
ATOM     49  C   UNL A   1      44.541  30.159  29.417  1.00  0.00     0.037 A 
ATOM     50  C   UNL A   1      39.176  33.831  30.509  1.00  0.00     0.049 A 
ATOM     51  C   UNL A   1      44.386  31.628  29.060  1.00  0.00     0.074 A 
ATOM     52  C   UNL A   1      39.875  33.873  31.705  1.00  0.00     0.029 A 
ATOM     53  N   UNL A   1      40.100  34.137  29.508  1.00  0.00    -0.354 N 
ATOM     54  N   UNL A   1      43.248  32.275  29.110  1.00  0.00    -0.248 NA
ATOM     55  C   UNL A   1      45.513  32.510  28.773  1.00  0.00     0.031 C 
ATOM     56  C   UNL A   1      41.246  34.101  31.403  1.00  0.00     0.029 A 
ATOM     57  C   UNL A   1      41.380  34.226  30.028  1.00  0.00     0.049 A 
ATOM     58  H   UNL A   1      39.873  34.272  28.560  1.00  0.00     0.167 HD
ATOM     59  C   UNL A   1      43.480  33.618  28.997  1.00  0.00     0.074 A 
ATOM     60  C   UNL A   1      44.907  33.711  28.735  1.00  0.00     0.031 C 
ATOM     61  C   UNL A   1      42.520  34.576  29.187  1.00  0.00     0.037 A 
BRANCH  48  62
ATOM     62  C   UNL A   1      36.533  33.844  30.644  1.00  0.00     0.058 A 
ATOM     63  C   UNL A   1      35.523  34.254  29.740  1.00  0.00     0.135 A 
ATOM     64  C   UNL A   1      36.197  34.043  31.999  1.00  0.00     0.135 A 
ATOM     65  F   UNL A   1      35.646  34.060  28.420  1.00  0.00    -0.206 F 
ATOM     66  C   UNL A   1      34.336  34.882  30.142  1.00  0.00     0.059 A 
ATOM     67  C   UNL A   1      35.046  34.717  32.424  1.00  0.00     0.059 A 
ATOM     68  F   UNL A   1      36.935  33.528  32.987  1.00  0.00    -0.206 F 
ATOM     69  C   UNL A   1      34.117  35.136  31.487  1.00  0.00     0.060 A 
BRANCH  69  70
ATOM     70  S   UNL A   1      32.599  35.969  31.995  1.00  0.00     0.124 S 
ATOM     71  O   UNL A   1      33.082  36.904  33.006  1.00  0.00    -0.237 OA
ATOM     72  O   UNL A   1      32.144  36.565  30.743  1.00  0.00    -0.237 OA
ATOM     73  O   UNL A   1      31.767  34.883  32.506  1.00  0.00    -0.744 OA
ENDBRANCH  69  70
ENDBRANCH  48  62
BRANCH  49  74
ATOM     74  C   UNL A   1      44.930  29.022  28.529  1.00  0.00     0.058 A 
ATOM     75  C   UNL A   1      44.391  29.044  27.223  1.00  0.00     0.135 A 
ATOM     76  C   UNL A   1      46.129  28.316  28.712  1.00  0.00     0.135 A 
ATOM     77  F   UNL A   1      43.236  29.689  26.988  1.00  0.00    -0.206 F 
ATOM     78  C   UNL A   1      45.106  28.580  26.123  1.00  0.00     0.059 A 
ATOM     79  C   UNL A   1      46.855  27.823  27.619  1.00  0.00     0.059 A 
ATOM     80  F   UNL A   1      46.693  28.243  29.926  1.00  0.00    -0.206 F 
ATOM     81  C   UNL A   1      46.372  28.038  26.326  1.00  0.00     0.060 A 
BRANCH  81  82
ATOM     82  S   UNL A   1      47.430  27.812  24.874  1.00  0.00     0.124 S 
ATOM     83  O   UNL A   1      48.715  28.315  25.344  1.00  0.00    -0.237 OA
ATOM     84  O   UNL A   1      47.351  26.363  24.669  1.00  0.00    -0.237 OA
ATOM     85  O   UNL A   1      46.777  28.613  23.847  1.00  0.00    -0.744 OA
ENDBRANCH  81  82
ENDBRANCH  49  74
BRANCH  61  86
ATOM     86  C   UNL A   1      42.633  35.990  28.677  1.00  0.00     0.058 A 
ATOM     87  C   UNL A   1      43.163  37.035  29.454  1.00  0.00     0.135 A 
ATOM     88  C   UNL A   1      42.398  36.297  27.315  1.00  0.00     0.135 A 
ATOM     89  F   UNL A   1      43.530  36.843  30.730  1.00  0.00    -0.206 F 
ATOM     90  C   UNL A   1      43.391  38.307  28.938  1.00  0.00     0.059 A 
ATOM     91  C   UNL A   1      42.677  37.544  26.764  1.00  0.00     0.059 A 
ATOM     92  F   UNL A   1      41.915  35.382  26.461  1.00  0.00    -0.206 F 
ATOM     93  C   UNL A   1      43.152  38.552  27.590  1.00  0.00     0.060 A 
BRANCH  93  94
ATOM     94  S   UNL A   1      43.535  40.170  26.906  1.00  0.00     0.124 S 
ATOM     95  O   UNL A   1      44.724  39.874  26.114  1.00  0.00    -0.237 OA
ATOM     96  O   UNL A   1      42.333  40.490  26.142  1.00  0.00    -0.237 OA
ATOM     97  O   UNL A   1      43.751  40.992  28.093  1.00  0.00    -0.744 OA
ENDBRANCH  93  94
ENDBRANCH  61  86
ENDBRANCH  35  36
ENDBRANCH  27  30
ENDBRANCH  25  26
ENDBRANCH   1  25
TORSDOF 16
ENDMDL
