MODEL 1
REMARK VINA RESULT:     -12.4      0.000      0.000
REMARK SMILES O=C(NCCCNC(=O)c1ccnc(Sc2ccc3nnnn3n2)c1)c1ccc(-c2c3nc(c(-c4c(F)cc(S(=O)(=O)[O-])cc4F)c4ccc([nH]4)c(-c4c(F)cc(S(=O)(=O)[O-])cc4F)c4nc(c(-c5c(F)cc(S(=O)(=O)[O-])cc5F)c5ccc2[nH]5)C=C4)C=C3)cc1
REMARK SMILES IDX 4 1 3 2 1 3 2 4 26 6 27 7 91 8 28 9 90 10 29 11 30 12 31 13
REMARK SMILES IDX 84 14 32 15 89 16 83 17 85 18 33 19 88 20 82 21 81 22 34 24
REMARK SMILES IDX 68 25 47 26 67 27 48 28 51 29 66 30 86 31 49 32 50 33 65 35
REMARK SMILES IDX 87 36 52 37 35 38 36 39 45 40 37 41 38 42 44 43 46 44 39 45
REMARK SMILES IDX 40 46 41 47 42 48 43 49 69 50 70 51 79 52 71 53 72 54 78 55
REMARK SMILES IDX 80 56 73 57 74 58 75 59 76 60 77 61 53 62 54 63 63 64 55 65
REMARK SMILES IDX 56 66 62 67 64 68 57 69 58 70 59 71 60 72 61 73 5 74 6 75
REMARK SMILES IDX 7 76 8 77 9 79 10 80 11 81 25 82 12 83 14 84 13 85 15 86
REMARK SMILES IDX 16 87 17 88 24 89 18 90 23 91 19 92 22 93 20 94 21 95
REMARK H PARENT 3 5 85 23 51 34 7 78
REMARK Flexibility Score: inf
ROOT
ATOM      1  C   UNL A   1      38.193  23.154  25.890  1.00  0.00     0.118 C 
ENDROOT
BRANCH   1   2
ATOM      2  N   UNL A   1      38.909  21.966  26.338  1.00  0.00    -0.352 N 
ATOM      3  O   UNL A   1      40.664  20.810  27.185  1.00  0.00    -0.269 OA
ATOM      4  C   UNL A   1      40.150  21.887  26.932  1.00  0.00     0.251 C 
ATOM      5  H   UNL A   1      38.446  21.109  26.196  1.00  0.00     0.163 HD
BRANCH   4   6
ATOM      6  C   UNL A   1      40.851  23.148  27.227  1.00  0.00     0.039 A 
ATOM      7  C   UNL A   1      40.364  23.986  28.234  1.00  0.00     0.014 A 
ATOM      8  C   UNL A   1      41.921  23.533  26.416  1.00  0.00     0.014 A 
ATOM      9  C   UNL A   1      40.871  25.274  28.348  1.00  0.00     0.010 A 
ATOM     10  C   UNL A   1      42.445  24.815  26.552  1.00  0.00     0.010 A 
ATOM     11  C   UNL A   1      41.897  25.699  27.493  1.00  0.00    -0.014 A 
BRANCH  11  12
ATOM     12  C   UNL A   1      42.362  27.087  27.627  1.00  0.00     0.031 A 
ATOM     13  C   UNL A   1      41.307  28.135  27.578  1.00  0.00     0.074 A 
ATOM     14  C   UNL A   1      43.512  27.376  28.270  1.00  0.00     0.049 A 
ATOM     15  N   UNL A   1      40.570  28.425  28.608  1.00  0.00    -0.248 NA
ATOM     16  C   UNL A   1      40.863  28.752  26.330  1.00  0.00     0.031 C 
ATOM     17  C   UNL A   1      44.109  26.526  29.310  1.00  0.00     0.029 A 
ATOM     18  N   UNL A   1      44.245  28.535  28.318  1.00  0.00    -0.354 N 
ATOM     19  C   UNL A   1      39.537  29.220  28.156  1.00  0.00     0.074 A 
ATOM     20  C   UNL A   1      39.766  29.410  26.739  1.00  0.00     0.031 C 
ATOM     21  C   UNL A   1      44.986  27.267  30.020  1.00  0.00     0.029 A 
ATOM     22  C   UNL A   1      45.140  28.570  29.383  1.00  0.00     0.049 A 
ATOM     23  H   UNL A   1      44.148  29.267  27.666  1.00  0.00     0.167 HD
ATOM     24  C   UNL A   1      38.543  29.666  28.966  1.00  0.00     0.037 A 
ATOM     25  C   UNL A   1      45.570  29.693  30.019  1.00  0.00     0.037 A 
ATOM     26  C   UNL A   1      38.645  29.293  30.344  1.00  0.00     0.049 A 
ATOM     27  C   UNL A   1      44.290  30.175  30.660  1.00  0.00     0.074 A 
ATOM     28  C   UNL A   1      38.184  28.276  31.152  1.00  0.00     0.029 A 
ATOM     29  N   UNL A   1      39.452  30.051  31.161  1.00  0.00    -0.354 N 
ATOM     30  N   UNL A   1      43.769  29.717  31.769  1.00  0.00    -0.248 NA
ATOM     31  C   UNL A   1      43.374  30.972  29.841  1.00  0.00     0.031 C 
ATOM     32  C   UNL A   1      39.086  28.227  32.260  1.00  0.00     0.029 A 
ATOM     33  C   UNL A   1      40.073  29.182  32.023  1.00  0.00     0.049 A 
ATOM     34  H   UNL A   1      39.562  31.029  31.133  1.00  0.00     0.167 HD
ATOM     35  C   UNL A   1      42.395  29.940  31.653  1.00  0.00     0.074 A 
ATOM     36  C   UNL A   1      42.223  30.734  30.453  1.00  0.00     0.031 C 
ATOM     37  C   UNL A   1      41.456  29.323  32.426  1.00  0.00     0.037 A 
BRANCH  24  38
ATOM     38  C   UNL A   1      37.479  30.590  28.538  1.00  0.00     0.058 A 
ATOM     39  C   UNL A   1      37.628  31.955  28.818  1.00  0.00     0.135 A 
ATOM     40  C   UNL A   1      36.247  30.136  28.057  1.00  0.00     0.135 A 
ATOM     41  F   UNL A   1      38.800  32.421  29.285  1.00  0.00    -0.206 F 
ATOM     42  C   UNL A   1      36.570  32.841  28.683  1.00  0.00     0.059 A 
ATOM     43  C   UNL A   1      35.170  31.007  27.909  1.00  0.00     0.059 A 
ATOM     44  F   UNL A   1      36.065  28.836  27.779  1.00  0.00    -0.206 F 
ATOM     45  C   UNL A   1      35.336  32.351  28.254  1.00  0.00     0.060 A 
BRANCH  45  46
ATOM     46  S   UNL A   1      33.942  33.496  28.212  1.00  0.00     0.124 S 
ATOM     47  O   UNL A   1      32.914  32.690  27.563  1.00  0.00    -0.237 OA
ATOM     48  O   UNL A   1      33.735  33.770  29.630  1.00  0.00    -0.237 OA
ATOM     49  O   UNL A   1      34.449  34.618  27.427  1.00  0.00    -0.744 OA
ENDBRANCH  45  46
ENDBRANCH  24  38
BRANCH  25  50
ATOM     50  C   UNL A   1      46.463  30.566  29.186  1.00  0.00     0.058 A 
ATOM     51  C   UNL A   1      47.726  30.927  29.709  1.00  0.00     0.135 A 
ATOM     52  C   UNL A   1      46.166  31.058  27.905  1.00  0.00     0.135 A 
ATOM     53  F   UNL A   1      48.048  30.620  30.977  1.00  0.00    -0.206 F 
ATOM     54  C   UNL A   1      48.689  31.585  28.951  1.00  0.00     0.059 A 
ATOM     55  C   UNL A   1      47.122  31.699  27.116  1.00  0.00     0.059 A 
ATOM     56  F   UNL A   1      44.945  30.908  27.374  1.00  0.00    -0.206 F 
ATOM     57  C   UNL A   1      48.393  31.927  27.636  1.00  0.00     0.060 A 
BRANCH  57  58
ATOM     58  S   UNL A   1      49.710  32.609  26.610  1.00  0.00     0.124 S 
ATOM     59  O   UNL A   1      50.462  33.402  27.575  1.00  0.00    -0.237 OA
ATOM     60  O   UNL A   1      50.370  31.397  26.130  1.00  0.00    -0.237 OA
ATOM     61  O   UNL A   1      48.988  33.366  25.593  1.00  0.00    -0.744 OA
ENDBRANCH  57  58
ENDBRANCH  25  50
BRANCH  37  62
ATOM     62  C   UNL A   1      41.961  28.566  33.607  1.00  0.00     0.058 A 
ATOM     63  C   UNL A   1      41.764  29.074  34.899  1.00  0.00     0.135 A 
ATOM     64  C   UNL A   1      42.552  27.299  33.483  1.00  0.00     0.135 A 
ATOM     65  F   UNL A   1      41.196  30.279  35.073  1.00  0.00    -0.206 F 
ATOM     66  C   UNL A   1      42.096  28.333  36.028  1.00  0.00     0.059 A 
ATOM     67  C   UNL A   1      42.872  26.531  34.599  1.00  0.00     0.059 A 
ATOM     68  F   UNL A   1      42.785  26.766  32.271  1.00  0.00    -0.206 F 
ATOM     69  C   UNL A   1      42.631  27.054  35.869  1.00  0.00     0.060 A 
BRANCH  69  70
ATOM     70  S   UNL A   1      42.923  26.049  37.338  1.00  0.00     0.124 S 
ATOM     71  O   UNL A   1      43.782  24.991  36.816  1.00  0.00    -0.237 OA
ATOM     72  O   UNL A   1      43.566  26.998  38.243  1.00  0.00    -0.237 OA
ATOM     73  O   UNL A   1      41.582  25.629  37.738  1.00  0.00    -0.744 OA
ENDBRANCH  69  70
ENDBRANCH  37  62
ENDBRANCH  11  12
ENDBRANCH   4   6
ENDBRANCH   1   2
BRANCH   1  74
ATOM     74  C   UNL A   1      36.945  22.830  25.070  1.00  0.00     0.042 C 
BRANCH  74  75
ATOM     75  C   UNL A   1      36.600  21.343  25.068  1.00  0.00     0.118 C 
BRANCH  75  76
ATOM     76  N   UNL A   1      35.592  21.020  26.073  1.00  0.00    -0.352 N 
ATOM     77  C   UNL A   1      34.252  21.305  26.104  1.00  0.00     0.251 C 
ATOM     78  H   UNL A   1      35.928  20.519  26.851  1.00  0.00     0.163 HD
ATOM     79  O   UNL A   1      33.640  21.248  27.167  1.00  0.00    -0.269 OA
BRANCH  77  80
ATOM     80  C   UNL A   1      33.524  21.677  24.878  1.00  0.00     0.044 A 
ATOM     81  C   UNL A   1      32.965  20.701  24.061  1.00  0.00     0.034 A 
ATOM     82  C   UNL A   1      33.320  23.034  24.605  1.00  0.00     0.049 A 
ATOM     83  C   UNL A   1      32.265  21.130  22.957  1.00  0.00     0.113 A 
ATOM     84  C   UNL A   1      32.606  23.378  23.470  1.00  0.00     0.103 A 
ATOM     85  N   UNL A   1      32.081  22.432  22.655  1.00  0.00    -0.249 NA
BRANCH  84  86
ATOM     86  S   UNL A   1      32.335  25.034  22.889  1.00  0.00    -0.048 SA
BRANCH  86  87
ATOM     87  C   UNL A   1      32.482  26.049  24.294  1.00  0.00     0.125 A 
ATOM     88  C   UNL A   1      33.688  26.929  24.298  1.00  0.00     0.042 A 
ATOM     89  N   UNL A   1      31.546  26.022  25.185  1.00  0.00    -0.140 NA
ATOM     90  C   UNL A   1      33.833  27.760  25.342  1.00  0.00     0.056 A 
ATOM     91  N   UNL A   1      31.768  26.915  26.178  1.00  0.00    -0.109 N 
ATOM     92  C   UNL A   1      32.835  27.777  26.337  1.00  0.00     0.200 A 
ATOM     93  N   UNL A   1      30.914  27.084  27.200  1.00  0.00    -0.022 NA
ATOM     94  N   UNL A   1      32.654  28.465  27.441  1.00  0.00    -0.107 NA
ATOM     95  N   UNL A   1      31.457  28.028  27.961  1.00  0.00    -0.022 NA
ENDBRANCH  86  87
ENDBRANCH  84  86
ENDBRANCH  77  80
ENDBRANCH  75  76
ENDBRANCH  74  75
ENDBRANCH   1  74
TORSDOF 15
ENDMDL
MODEL 2
REMARK VINA RESULT:     -12.0      1.320      1.774
REMARK SMILES O=C(NCCCNC(=O)c1ccnc(Sc2ccc3nnnn3n2)c1)c1ccc(-c2c3nc(c(-c4c(F)cc(S(=O)(=O)[O-])cc4F)c4ccc([nH]4)c(-c4c(F)cc(S(=O)(=O)[O-])cc4F)c4nc(c(-c5c(F)cc(S(=O)(=O)[O-])cc5F)c5ccc2[nH]5)C=C4)C=C3)cc1
REMARK SMILES IDX 4 1 3 2 1 3 2 4 26 6 27 7 91 8 28 9 90 10 29 11 30 12 31 13
REMARK SMILES IDX 84 14 32 15 89 16 83 17 85 18 33 19 88 20 82 21 81 22 34 24
REMARK SMILES IDX 68 25 47 26 67 27 48 28 51 29 66 30 86 31 49 32 50 33 65 35
REMARK SMILES IDX 87 36 52 37 35 38 36 39 45 40 37 41 38 42 44 43 46 44 39 45
REMARK SMILES IDX 40 46 41 47 42 48 43 49 69 50 70 51 79 52 71 53 72 54 78 55
REMARK SMILES IDX 80 56 73 57 74 58 75 59 76 60 77 61 53 62 54 63 63 64 55 65
REMARK SMILES IDX 56 66 62 67 64 68 57 69 58 70 59 71 60 72 61 73 5 74 6 75
REMARK SMILES IDX 7 76 8 77 9 79 10 80 11 81 25 82 12 83 14 84 13 85 15 86
REMARK SMILES IDX 16 87 17 88 24 89 18 90 23 91 19 92 22 93 20 94 21 95
REMARK H PARENT 3 5 85 23 51 34 7 78
REMARK Flexibility Score: inf
ROOT
ATOM      1  C   UNL A   1      37.995  23.345  25.944  1.00  0.00     0.118 C 
ENDROOT
BRANCH   1   2
ATOM      2  N   UNL A   1      38.709  22.148  26.371  1.00  0.00    -0.352 N 
ATOM      3  O   UNL A   1      40.460  20.973  27.200  1.00  0.00    -0.269 OA
ATOM      4  C   UNL A   1      39.948  22.055  26.966  1.00  0.00     0.251 C 
ATOM      5  H   UNL A   1      38.245  21.293  26.213  1.00  0.00     0.163 HD
BRANCH   4   6
ATOM      6  C   UNL A   1      40.651  23.310  27.286  1.00  0.00     0.039 A 
ATOM      7  C   UNL A   1      40.126  24.162  28.262  1.00  0.00     0.014 A 
ATOM      8  C   UNL A   1      41.763  23.674  26.525  1.00  0.00     0.014 A 
ATOM      9  C   UNL A   1      40.644  25.443  28.391  1.00  0.00     0.010 A 
ATOM     10  C   UNL A   1      42.297  24.951  26.678  1.00  0.00     0.010 A 
ATOM     11  C   UNL A   1      41.715  25.849  27.584  1.00  0.00    -0.014 A 
BRANCH  11  12
ATOM     12  C   UNL A   1      42.192  27.232  27.730  1.00  0.00     0.031 A 
ATOM     13  C   UNL A   1      41.146  28.289  27.683  1.00  0.00     0.074 A 
ATOM     14  C   UNL A   1      43.341  27.506  28.382  1.00  0.00     0.049 A 
ATOM     15  N   UNL A   1      40.406  28.578  28.711  1.00  0.00    -0.248 NA
ATOM     16  C   UNL A   1      40.714  28.919  26.438  1.00  0.00     0.031 C 
ATOM     17  C   UNL A   1      43.925  26.645  29.420  1.00  0.00     0.029 A 
ATOM     18  N   UNL A   1      44.083  28.659  28.443  1.00  0.00    -0.354 N 
ATOM     19  C   UNL A   1      39.382  29.385  28.259  1.00  0.00     0.074 A 
ATOM     20  C   UNL A   1      39.620  29.583  26.845  1.00  0.00     0.031 C 
ATOM     21  C   UNL A   1      44.804  27.373  30.139  1.00  0.00     0.029 A 
ATOM     22  C   UNL A   1      44.972  28.679  29.513  1.00  0.00     0.049 A 
ATOM     23  H   UNL A   1      43.996  29.396  27.795  1.00  0.00     0.167 HD
ATOM     24  C   UNL A   1      38.387  29.834  29.066  1.00  0.00     0.037 A 
ATOM     25  C   UNL A   1      45.408  29.794  30.159  1.00  0.00     0.037 A 
ATOM     26  C   UNL A   1      38.478  29.450  30.442  1.00  0.00     0.049 A 
ATOM     27  C   UNL A   1      44.129  30.282  30.796  1.00  0.00     0.074 A 
ATOM     28  C   UNL A   1      38.004  28.432  31.240  1.00  0.00     0.029 A 
ATOM     29  N   UNL A   1      39.287  30.196  31.270  1.00  0.00    -0.354 N 
ATOM     30  N   UNL A   1      43.598  29.821  31.899  1.00  0.00    -0.248 NA
ATOM     31  C   UNL A   1      43.224  31.093  29.978  1.00  0.00     0.031 C 
ATOM     32  C   UNL A   1      38.900  28.367  32.353  1.00  0.00     0.029 A 
ATOM     33  C   UNL A   1      39.896  29.315  32.129  1.00  0.00     0.049 A 
ATOM     34  H   UNL A   1      39.406  31.173  31.249  1.00  0.00     0.167 HD
ATOM     35  C   UNL A   1      42.226  30.056  31.777  1.00  0.00     0.074 A 
ATOM     36  C   UNL A   1      42.068  30.860  30.582  1.00  0.00     0.031 C 
ATOM     37  C   UNL A   1      41.278  29.441  32.540  1.00  0.00     0.037 A 
BRANCH  24  38
ATOM     38  C   UNL A   1      37.333  30.770  28.640  1.00  0.00     0.058 A 
ATOM     39  C   UNL A   1      37.532  32.141  28.853  1.00  0.00     0.135 A 
ATOM     40  C   UNL A   1      36.071  30.333  28.226  1.00  0.00     0.135 A 
ATOM     41  F   UNL A   1      38.734  32.591  29.253  1.00  0.00    -0.206 F 
ATOM     42  C   UNL A   1      36.495  33.051  28.720  1.00  0.00     0.059 A 
ATOM     43  C   UNL A   1      35.014  31.229  28.082  1.00  0.00     0.059 A 
ATOM     44  F   UNL A   1      35.842  29.028  28.013  1.00  0.00    -0.206 F 
ATOM     45  C   UNL A   1      35.231  32.580  28.360  1.00  0.00     0.060 A 
BRANCH  45  46
ATOM     46  S   UNL A   1      33.870  33.764  28.322  1.00  0.00     0.124 S 
ATOM     47  O   UNL A   1      34.474  34.889  27.614  1.00  0.00    -0.237 OA
ATOM     48  O   UNL A   1      32.849  33.025  27.587  1.00  0.00    -0.237 OA
ATOM     49  O   UNL A   1      33.581  33.994  29.734  1.00  0.00    -0.744 OA
ENDBRANCH  45  46
ENDBRANCH  24  38
BRANCH  25  50
ATOM     50  C   UNL A   1      46.313  30.665  29.337  1.00  0.00     0.058 A 
ATOM     51  C   UNL A   1      47.652  30.830  29.761  1.00  0.00     0.135 A 
ATOM     52  C   UNL A   1      45.956  31.335  28.156  1.00  0.00     0.135 A 
ATOM     53  F   UNL A   1      48.053  30.342  30.947  1.00  0.00    -0.206 F 
ATOM     54  C   UNL A   1      48.609  31.473  28.983  1.00  0.00     0.059 A 
ATOM     55  C   UNL A   1      46.902  31.965  27.346  1.00  0.00     0.059 A 
ATOM     56  F   UNL A   1      44.682  31.374  27.743  1.00  0.00    -0.206 F 
ATOM     57  C   UNL A   1      48.233  31.998  27.752  1.00  0.00     0.060 A 
BRANCH  57  58
ATOM     58  S   UNL A   1      49.518  32.661  26.673  1.00  0.00     0.124 S 
ATOM     59  O   UNL A   1      50.229  31.452  26.276  1.00  0.00    -0.237 OA
ATOM     60  O   UNL A   1      48.726  33.306  25.629  1.00  0.00    -0.237 OA
ATOM     61  O   UNL A   1      50.254  33.571  27.545  1.00  0.00    -0.744 OA
ENDBRANCH  57  58
ENDBRANCH  25  50
BRANCH  37  62
ATOM     62  C   UNL A   1      41.770  28.672  33.719  1.00  0.00     0.058 A 
ATOM     63  C   UNL A   1      41.559  29.167  35.014  1.00  0.00     0.135 A 
ATOM     64  C   UNL A   1      42.361  27.406  33.588  1.00  0.00     0.135 A 
ATOM     65  F   UNL A   1      40.990  30.370  35.195  1.00  0.00    -0.206 F 
ATOM     66  C   UNL A   1      41.878  28.414  36.139  1.00  0.00     0.059 A 
ATOM     67  C   UNL A   1      42.668  26.626  34.699  1.00  0.00     0.059 A 
ATOM     68  F   UNL A   1      42.606  26.885  32.373  1.00  0.00    -0.206 F 
ATOM     69  C   UNL A   1      42.414  27.136  35.971  1.00  0.00     0.060 A 
BRANCH  69  70
ATOM     70  S   UNL A   1      42.691  26.115  37.433  1.00  0.00     0.124 S 
ATOM     71  O   UNL A   1      43.219  24.887  36.851  1.00  0.00    -0.237 OA
ATOM     72  O   UNL A   1      43.644  26.916  38.198  1.00  0.00    -0.237 OA
ATOM     73  O   UNL A   1      41.361  26.006  38.030  1.00  0.00    -0.744 OA
ENDBRANCH  69  70
ENDBRANCH  37  62
ENDBRANCH  11  12
ENDBRANCH   4   6
ENDBRANCH   1   2
BRANCH   1  74
ATOM     74  C   UNL A   1      36.825  23.045  25.009  1.00  0.00     0.042 C 
BRANCH  74  75
ATOM     75  C   UNL A   1      35.706  22.257  25.684  1.00  0.00     0.118 C 
BRANCH  75  76
ATOM     76  N   UNL A   1      34.768  21.707  24.710  1.00  0.00    -0.352 N 
ATOM     77  C   UNL A   1      33.407  21.836  24.623  1.00  0.00     0.251 C 
ATOM     78  H   UNL A   1      35.178  21.156  24.005  1.00  0.00     0.163 HD
ATOM     79  O   UNL A   1      32.760  21.042  23.943  1.00  0.00    -0.269 OA
BRANCH  77  80
ATOM     80  C   UNL A   1      32.697  22.917  25.330  1.00  0.00     0.044 A 
ATOM     81  C   UNL A   1      31.518  22.659  26.020  1.00  0.00     0.034 A 
ATOM     82  C   UNL A   1      33.284  24.186  25.377  1.00  0.00     0.049 A 
ATOM     83  C   UNL A   1      30.937  23.712  26.688  1.00  0.00     0.113 A 
ATOM     84  C   UNL A   1      32.631  25.190  26.071  1.00  0.00     0.103 A 
ATOM     85  N   UNL A   1      31.468  24.951  26.723  1.00  0.00    -0.249 NA
BRANCH  84  86
ATOM     86  S   UNL A   1      33.150  26.886  26.156  1.00  0.00    -0.048 SA
BRANCH  86  87
ATOM     87  C   UNL A   1      32.353  27.683  24.831  1.00  0.00     0.125 A 
ATOM     88  C   UNL A   1      33.277  28.329  23.852  1.00  0.00     0.042 A 
ATOM     89  N   UNL A   1      31.064  27.620  24.748  1.00  0.00    -0.140 NA
ATOM     90  C   UNL A   1      32.717  28.927  22.790  1.00  0.00     0.056 A 
ATOM     91  N   UNL A   1      30.600  28.226  23.630  1.00  0.00    -0.109 N 
ATOM     92  C   UNL A   1      31.316  28.880  22.647  1.00  0.00     0.200 A 
ATOM     93  N   UNL A   1      29.295  28.261  23.318  1.00  0.00    -0.022 NA
ATOM     94  N   UNL A   1      30.472  29.323  21.742  1.00  0.00    -0.107 NA
ATOM     95  N   UNL A   1      29.225  28.927  22.170  1.00  0.00    -0.022 NA
ENDBRANCH  86  87
ENDBRANCH  84  86
ENDBRANCH  77  80
ENDBRANCH  75  76
ENDBRANCH  74  75
ENDBRANCH   1  74
TORSDOF 15
ENDMDL
MODEL 3
REMARK VINA RESULT:     -11.7      2.636      8.709
REMARK SMILES O=C(NCCCNC(=O)c1ccnc(Sc2ccc3nnnn3n2)c1)c1ccc(-c2c3nc(c(-c4c(F)cc(S(=O)(=O)[O-])cc4F)c4ccc([nH]4)c(-c4c(F)cc(S(=O)(=O)[O-])cc4F)c4nc(c(-c5c(F)cc(S(=O)(=O)[O-])cc5F)c5ccc2[nH]5)C=C4)C=C3)cc1
REMARK SMILES IDX 4 1 3 2 1 3 2 4 26 6 27 7 91 8 28 9 90 10 29 11 30 12 31 13
REMARK SMILES IDX 84 14 32 15 89 16 83 17 85 18 33 19 88 20 82 21 81 22 34 24
REMARK SMILES IDX 68 25 47 26 67 27 48 28 51 29 66 30 86 31 49 32 50 33 65 35
REMARK SMILES IDX 87 36 52 37 35 38 36 39 45 40 37 41 38 42 44 43 46 44 39 45
REMARK SMILES IDX 40 46 41 47 42 48 43 49 69 50 70 51 79 52 71 53 72 54 78 55
REMARK SMILES IDX 80 56 73 57 74 58 75 59 76 60 77 61 53 62 54 63 63 64 55 65
REMARK SMILES IDX 56 66 62 67 64 68 57 69 58 70 59 71 60 72 61 73 5 74 6 75
REMARK SMILES IDX 7 76 8 77 9 79 10 80 11 81 25 82 12 83 14 84 13 85 15 86
REMARK SMILES IDX 16 87 17 88 24 89 18 90 23 91 19 92 22 93 20 94 21 95
REMARK H PARENT 3 5 85 23 51 34 7 78
REMARK Flexibility Score: inf
ROOT
ATOM      1  C   UNL A   1      34.172  30.234  28.032  1.00  0.00     0.118 C 
ENDROOT
BRANCH   1   2
ATOM      2  N   UNL A   1      34.148  31.662  27.741  1.00  0.00    -0.352 N 
ATOM      3  O   UNL A   1      34.850  33.812  27.890  1.00  0.00    -0.269 OA
ATOM      4  C   UNL A   1      35.038  32.634  28.145  1.00  0.00     0.251 C 
ATOM      5  H   UNL A   1      33.398  31.973  27.185  1.00  0.00     0.163 HD
BRANCH   4   6
ATOM      6  C   UNL A   1      36.215  32.206  28.922  1.00  0.00     0.039 A 
ATOM      7  C   UNL A   1      37.321  31.671  28.256  1.00  0.00     0.014 A 
ATOM      8  C   UNL A   1      36.152  32.239  30.316  1.00  0.00     0.014 A 
ATOM      9  C   UNL A   1      38.319  31.048  28.992  1.00  0.00     0.010 A 
ATOM     10  C   UNL A   1      37.170  31.638  31.052  1.00  0.00     0.010 A 
ATOM     11  C   UNL A   1      38.235  31.010  30.391  1.00  0.00    -0.014 A 
BRANCH  11  12
ATOM     12  C   UNL A   1      39.296  30.297  31.117  1.00  0.00     0.031 A 
ATOM     13  C   UNL A   1      39.533  28.887  30.704  1.00  0.00     0.074 A 
ATOM     14  C   UNL A   1      40.313  30.966  31.697  1.00  0.00     0.049 A 
ATOM     15  N   UNL A   1      40.233  28.582  29.653  1.00  0.00    -0.248 NA
ATOM     16  C   UNL A   1      38.821  27.758  31.299  1.00  0.00     0.031 C 
ATOM     17  C   UNL A   1      40.784  32.288  31.259  1.00  0.00     0.029 A 
ATOM     18  N   UNL A   1      41.262  30.550  32.597  1.00  0.00    -0.354 N 
ATOM     19  C   UNL A   1      40.029  27.240  29.406  1.00  0.00     0.074 A 
ATOM     20  C   UNL A   1      39.158  26.765  30.460  1.00  0.00     0.031 C 
ATOM     21  C   UNL A   1      42.027  32.485  31.745  1.00  0.00     0.029 A 
ATOM     22  C   UNL A   1      42.364  31.399  32.658  1.00  0.00     0.049 A 
ATOM     23  H   UNL A   1      41.173  29.736  33.143  1.00  0.00     0.167 HD
ATOM     24  C   UNL A   1      40.573  26.595  28.343  1.00  0.00     0.037 A 
ATOM     25  C   UNL A   1      43.632  31.026  32.979  1.00  0.00     0.037 A 
ATOM     26  C   UNL A   1      41.415  27.386  27.497  1.00  0.00     0.049 A 
ATOM     27  C   UNL A   1      43.980  30.133  31.812  1.00  0.00     0.074 A 
ATOM     28  C   UNL A   1      41.274  28.138  26.351  1.00  0.00     0.029 A 
ATOM     29  N   UNL A   1      42.726  27.565  27.874  1.00  0.00    -0.354 N 
ATOM     30  N   UNL A   1      44.371  30.534  30.630  1.00  0.00    -0.248 NA
ATOM     31  C   UNL A   1      43.541  28.736  31.866  1.00  0.00     0.031 C 
ATOM     32  C   UNL A   1      42.361  29.067  26.365  1.00  0.00     0.029 A 
ATOM     33  C   UNL A   1      43.060  28.857  27.552  1.00  0.00     0.049 A 
ATOM     34  H   UNL A   1      43.312  26.895  28.294  1.00  0.00     0.167 HD
ATOM     35  C   UNL A   1      43.973  29.528  29.747  1.00  0.00     0.074 A 
ATOM     36  C   UNL A   1      43.489  28.443  30.575  1.00  0.00     0.031 C 
ATOM     37  C   UNL A   1      43.887  29.693  28.396  1.00  0.00     0.037 A 
BRANCH  24  38
ATOM     38  C   UNL A   1      40.453  25.148  28.101  1.00  0.00     0.058 A 
ATOM     39  C   UNL A   1      41.524  24.319  28.464  1.00  0.00     0.135 A 
ATOM     40  C   UNL A   1      39.412  24.602  27.343  1.00  0.00     0.135 A 
ATOM     41  F   UNL A   1      42.540  24.815  29.191  1.00  0.00    -0.206 F 
ATOM     42  C   UNL A   1      41.594  23.001  28.040  1.00  0.00     0.059 A 
ATOM     43  C   UNL A   1      39.458  23.280  26.907  1.00  0.00     0.059 A 
ATOM     44  F   UNL A   1      38.370  25.365  26.975  1.00  0.00    -0.206 F 
ATOM     45  C   UNL A   1      40.569  22.499  27.237  1.00  0.00     0.060 A 
BRANCH  45  46
ATOM     46  S   UNL A   1      40.748  20.825  26.589  1.00  0.00     0.124 S 
ATOM     47  O   UNL A   1      41.942  20.954  25.759  1.00  0.00    -0.237 OA
ATOM     48  O   UNL A   1      40.905  20.044  27.812  1.00  0.00    -0.237 OA
ATOM     49  O   UNL A   1      39.501  20.606  25.863  1.00  0.00    -0.744 OA
ENDBRANCH  45  46
ENDBRANCH  24  38
BRANCH  25  50
ATOM     50  C   UNL A   1      43.809  30.625  34.415  1.00  0.00     0.058 A 
ATOM     51  C   UNL A   1      44.923  29.825  34.756  1.00  0.00     0.135 A 
ATOM     52  C   UNL A   1      42.965  30.986  35.477  1.00  0.00     0.135 A 
ATOM     53  F   UNL A   1      45.713  29.316  33.795  1.00  0.00    -0.206 F 
ATOM     54  C   UNL A   1      45.268  29.545  36.074  1.00  0.00     0.059 A 
ATOM     55  C   UNL A   1      43.301  30.739  36.809  1.00  0.00     0.059 A 
ATOM     56  F   UNL A   1      41.802  31.612  35.252  1.00  0.00    -0.206 F 
ATOM     57  C   UNL A   1      44.473  30.048  37.099  1.00  0.00     0.060 A 
BRANCH  57  58
ATOM     58  S   UNL A   1      45.033  29.837  38.800  1.00  0.00     0.124 S 
ATOM     59  O   UNL A   1      44.912  28.395  38.979  1.00  0.00    -0.237 OA
ATOM     60  O   UNL A   1      46.396  30.358  38.732  1.00  0.00    -0.237 OA
ATOM     61  O   UNL A   1      44.095  30.651  39.567  1.00  0.00    -0.744 OA
ENDBRANCH  57  58
ENDBRANCH  25  50
BRANCH  37  62
ATOM     62  C   UNL A   1      44.487  30.939  27.838  1.00  0.00     0.058 A 
ATOM     63  C   UNL A   1      45.686  30.873  27.114  1.00  0.00     0.135 A 
ATOM     64  C   UNL A   1      43.841  32.182  27.928  1.00  0.00     0.135 A 
ATOM     65  F   UNL A   1      46.340  29.707  26.991  1.00  0.00    -0.206 F 
ATOM     66  C   UNL A   1      46.202  31.989  26.463  1.00  0.00     0.059 A 
ATOM     67  C   UNL A   1      44.327  33.305  27.267  1.00  0.00     0.059 A 
ATOM     68  F   UNL A   1      42.698  32.312  28.624  1.00  0.00    -0.206 F 
ATOM     69  C   UNL A   1      45.504  33.197  26.528  1.00  0.00     0.060 A 
BRANCH  69  70
ATOM     70  S   UNL A   1      46.107  34.597  25.564  1.00  0.00     0.124 S 
ATOM     71  O   UNL A   1      45.361  34.453  24.319  1.00  0.00    -0.237 OA
ATOM     72  O   UNL A   1      45.733  35.736  26.399  1.00  0.00    -0.237 OA
ATOM     73  O   UNL A   1      47.544  34.352  25.467  1.00  0.00    -0.744 OA
ENDBRANCH  69  70
ENDBRANCH  37  62
ENDBRANCH  11  12
ENDBRANCH   4   6
ENDBRANCH   1   2
BRANCH   1  74
ATOM     74  C   UNL A   1      34.757  29.399  26.894  1.00  0.00     0.042 C 
BRANCH  74  75
ATOM     75  C   UNL A   1      33.692  28.840  25.954  1.00  0.00     0.118 C 
BRANCH  75  76
ATOM     76  N   UNL A   1      32.766  27.953  26.652  1.00  0.00    -0.352 N 
ATOM     77  C   UNL A   1      32.308  26.707  26.311  1.00  0.00     0.251 C 
ATOM     78  H   UNL A   1      32.415  28.306  27.501  1.00  0.00     0.163 HD
ATOM     79  O   UNL A   1      31.294  26.263  26.842  1.00  0.00    -0.269 OA
BRANCH  77  80
ATOM     80  C   UNL A   1      33.015  25.882  25.315  1.00  0.00     0.044 A 
ATOM     81  C   UNL A   1      32.925  26.175  23.959  1.00  0.00     0.034 A 
ATOM     82  C   UNL A   1      33.858  24.861  25.767  1.00  0.00     0.049 A 
ATOM     83  C   UNL A   1      33.647  25.383  23.095  1.00  0.00     0.113 A 
ATOM     84  C   UNL A   1      34.546  24.111  24.829  1.00  0.00     0.103 A 
ATOM     85  N   UNL A   1      34.442  24.374  23.504  1.00  0.00    -0.249 NA
BRANCH  84  86
ATOM     86  S   UNL A   1      35.572  22.707  25.188  1.00  0.00    -0.048 SA
BRANCH  86  87
ATOM     87  C   UNL A   1      34.526  21.323  25.068  1.00  0.00     0.125 A 
ATOM     88  C   UNL A   1      33.070  21.637  25.172  1.00  0.00     0.042 A 
ATOM     89  N   UNL A   1      35.049  20.161  24.847  1.00  0.00    -0.140 NA
ATOM     90  C   UNL A   1      32.214  20.611  25.049  1.00  0.00     0.056 A 
ATOM     91  N   UNL A   1      34.106  19.201  24.709  1.00  0.00    -0.109 N 
ATOM     92  C   UNL A   1      32.733  19.324  24.798  1.00  0.00     0.200 A 
ATOM     93  N   UNL A   1      34.413  17.921  24.446  1.00  0.00    -0.022 NA
ATOM     94  N   UNL A   1      32.194  18.142  24.602  1.00  0.00    -0.107 NA
ATOM     95  N   UNL A   1      33.248  17.284  24.381  1.00  0.00    -0.022 NA
ENDBRANCH  86  87
ENDBRANCH  84  86
ENDBRANCH  77  80
ENDBRANCH  75  76
ENDBRANCH  74  75
ENDBRANCH   1  74
TORSDOF 15
ENDMDL
