MODEL 1
REMARK VINA RESULT:     -10.9      0.000      0.000
REMARK SMILES Cc1cccc(N2C(=O)/C(=C3/C(=O)N([C@@H](C)C(=O)NCCCNC(=O)c4ccc(-c5c6nc(c(-c7c(F)cc(S(=O)(=O)[O-])cc7F)c7ccc([nH]7)c(-c7c(F)cc(S(=O)(=O)[O-])cc7F)c7nc(c(-c8c(F)cc(S(=O)(=O)[O-])cc8F)c8ccc5[nH]8)C=C7)C=C6)cc4)c4ccccc43)SC2=S)c1C
REMARK SMILES IDX 21 1 20 2 19 3 17 4 18 5 15 7 16 8 14 9 7 10 8 11 99 12 9 13
REMARK SMILES IDX 10 14 98 15 100 16 11 17 12 18 97 19 13 20 92 21 96 22 93 23
REMARK SMILES IDX 95 24 94 25 6 26 1 27 2 28 3 29 101 30 4 31 102 32 5 33
REMARK SMILES IDX 22 34 23 35 24 36 25 38 26 39 27 40 91 41 28 42 90 43 29 44
REMARK SMILES IDX 30 45 31 46 84 47 32 48 89 49 83 50 85 51 33 52 88 53 82 54
REMARK SMILES IDX 81 55 34 57 68 58 47 59 67 60 48 61 51 62 66 63 86 64 49 65
REMARK SMILES IDX 50 66 65 68 87 69 52 70 35 71 36 72 45 73 37 74 38 75 44 76
REMARK SMILES IDX 46 77 39 78 40 79 41 80 42 81 43 82 69 83 70 84 79 85 71 86
REMARK SMILES IDX 72 87 78 88 80 89 73 90 74 91 75 92 76 93 77 94 53 95 54 96
REMARK SMILES IDX 63 97 55 98 56 99 62 100 64 101 57 102 58 103 59 104 60 105
REMARK SMILES IDX 61 106
REMARK H PARENT 19 6 23 37 85 56 51 67
REMARK Flexibility Score: inf
ROOT
ATOM      1  C   UNL A   1      45.998  23.544  38.806  1.00  0.00     0.042 C 
ENDROOT
BRANCH   1   2
ATOM      2  C   UNL A   1      45.865  23.407  37.293  1.00  0.00     0.117 C 
BRANCH   2   3
ATOM      3  N   UNL A   1      44.539  23.773  36.842  1.00  0.00    -0.354 N 
ATOM      4  C   UNL A   1      43.908  23.640  35.646  1.00  0.00     0.242 C 
ATOM      5  O   UNL A   1      42.806  24.201  35.572  1.00  0.00    -0.273 OA
ATOM      6  H   UNL A   1      43.988  24.202  37.537  1.00  0.00     0.163 HD
BRANCH   4   7
ATOM      7  C   UNL A   1      44.479  22.872  34.421  1.00  0.00     0.177 C 
ATOM      8  C   UNL A   1      45.356  21.674  34.767  1.00  0.00     0.042 C 
BRANCH   7   9
ATOM      9  N   UNL A   1      44.873  23.711  33.291  1.00  0.00    -0.295 N 
ATOM     10  N   UNL A   1      45.903  24.849  27.799  1.00  0.00    -0.261 N 
ATOM     11  C   UNL A   1      45.475  25.549  28.912  1.00  0.00     0.271 C 
ATOM     12  C   UNL A   1      45.238  23.673  27.530  1.00  0.00     0.152 C 
ATOM     13  O   UNL A   1      45.568  26.754  29.078  1.00  0.00    -0.268 OA
ATOM     14  C   UNL A   1      44.738  24.634  29.829  1.00  0.00     0.094 C 
ATOM     15  S   UNL A   1      44.106  23.348  28.847  1.00  0.00    -0.053 SA
ATOM     16  S   UNL A   1      45.437  22.615  26.252  1.00  0.00    -0.051 S 
ATOM     17  C   UNL A   1      44.785  24.674  31.174  1.00  0.00     0.069 C 
ATOM     18  C   UNL A   1      44.214  23.590  32.055  1.00  0.00     0.261 C 
ATOM     19  C   UNL A   1      45.618  25.513  32.054  1.00  0.00     0.012 A 
ATOM     20  O   UNL A   1      43.367  22.769  31.750  1.00  0.00    -0.269 OA
ATOM     21  C   UNL A   1      45.765  24.804  33.258  1.00  0.00     0.053 A 
ATOM     22  C   UNL A   1      46.221  26.754  31.904  1.00  0.00     0.011 A 
ATOM     23  C   UNL A   1      46.686  25.224  34.203  1.00  0.00     0.027 A 
ATOM     24  C   UNL A   1      47.087  27.220  32.892  1.00  0.00     0.001 A 
ATOM     25  C   UNL A   1      47.352  26.439  34.015  1.00  0.00     0.002 A 
BRANCH  10  26
ATOM     26  C   UNL A   1      46.901  25.418  26.968  1.00  0.00     0.054 A 
ATOM     27  C   UNL A   1      47.256  27.673  23.878  1.00  0.00     0.044 C 
ATOM     28  C   UNL A   1      47.553  26.777  25.053  1.00  0.00    -0.046 A 
ATOM     29  C   UNL A   1      48.895  26.480  25.338  1.00  0.00     0.004 A 
ATOM     30  C   UNL A   1      46.533  26.219  25.857  1.00  0.00    -0.024 A 
ATOM     31  C   UNL A   1      49.239  25.666  26.416  1.00  0.00     0.002 A 
ATOM     32  C   UNL A   1      45.076  26.440  25.533  1.00  0.00     0.047 C 
ATOM     33  C   UNL A   1      48.246  25.144  27.239  1.00  0.00     0.027 A 
ENDBRANCH  10  26
ENDBRANCH   7   9
ENDBRANCH   4   7
ENDBRANCH   2   3
ENDBRANCH   1   2
BRANCH   1  34
ATOM     34  C   UNL A   1      45.838  24.979  39.287  1.00  0.00     0.118 C 
BRANCH  34  35
ATOM     35  N   UNL A   1      47.004  25.788  38.946  1.00  0.00    -0.352 N 
ATOM     36  C   UNL A   1      47.173  26.785  38.012  1.00  0.00     0.251 C 
ATOM     37  H   UNL A   1      47.808  25.586  39.475  1.00  0.00     0.163 HD
ATOM     38  O   UNL A   1      48.317  27.112  37.705  1.00  0.00    -0.269 OA
BRANCH  36  39
ATOM     39  C   UNL A   1      46.017  27.455  37.362  1.00  0.00     0.039 A 
ATOM     40  C   UNL A   1      44.705  27.088  37.650  1.00  0.00     0.014 A 
ATOM     41  C   UNL A   1      46.245  28.531  36.493  1.00  0.00     0.014 A 
ATOM     42  C   UNL A   1      43.648  27.650  36.943  1.00  0.00     0.010 A 
ATOM     43  C   UNL A   1      45.168  29.184  35.875  1.00  0.00     0.010 A 
ATOM     44  C   UNL A   1      43.858  28.722  36.061  1.00  0.00    -0.014 A 
BRANCH  44  45
ATOM     45  C   UNL A   1      42.685  29.344  35.385  1.00  0.00     0.031 A 
ATOM     46  C   UNL A   1      42.032  30.582  35.942  1.00  0.00     0.074 A 
ATOM     47  C   UNL A   1      42.258  28.834  34.211  1.00  0.00     0.049 A 
ATOM     48  N   UNL A   1      41.048  31.290  35.446  1.00  0.00    -0.248 NA
ATOM     49  C   UNL A   1      42.545  31.091  37.223  1.00  0.00     0.031 C 
ATOM     50  C   UNL A   1      42.815  27.646  33.559  1.00  0.00     0.029 A 
ATOM     51  N   UNL A   1      41.300  29.272  33.329  1.00  0.00    -0.354 N 
ATOM     52  C   UNL A   1      40.822  32.322  36.351  1.00  0.00     0.074 A 
ATOM     53  C   UNL A   1      41.737  32.117  37.453  1.00  0.00     0.031 C 
ATOM     54  C   UNL A   1      42.262  27.506  32.346  1.00  0.00     0.029 A 
ATOM     55  C   UNL A   1      41.254  28.544  32.163  1.00  0.00     0.049 A 
ATOM     56  H   UNL A   1      40.704  30.033  33.515  1.00  0.00     0.167 HD
ATOM     57  C   UNL A   1      39.950  33.356  36.263  1.00  0.00     0.037 A 
ATOM     58  C   UNL A   1      40.489  28.690  31.063  1.00  0.00     0.037 A 
ATOM     59  C   UNL A   1      39.041  33.555  35.163  1.00  0.00     0.049 A 
ATOM     60  C   UNL A   1      39.479  29.799  31.019  1.00  0.00     0.074 A 
ATOM     61  C   UNL A   1      38.101  34.557  34.991  1.00  0.00     0.029 A 
ATOM     62  N   UNL A   1      38.959  32.738  34.043  1.00  0.00    -0.354 N 
ATOM     63  N   UNL A   1      39.262  30.747  31.899  1.00  0.00    -0.248 NA
ATOM     64  C   UNL A   1      38.598  29.849  29.846  1.00  0.00     0.031 C 
ATOM     65  C   UNL A   1      37.425  34.324  33.788  1.00  0.00     0.029 A 
ATOM     66  C   UNL A   1      37.975  33.204  33.184  1.00  0.00     0.049 A 
ATOM     67  H   UNL A   1      39.519  31.944  33.882  1.00  0.00     0.167 HD
ATOM     68  C   UNL A   1      38.226  31.515  31.381  1.00  0.00     0.074 A 
ATOM     69  C   UNL A   1      37.870  30.928  30.105  1.00  0.00     0.031 C 
ATOM     70  C   UNL A   1      37.625  32.605  31.918  1.00  0.00     0.037 A 
BRANCH  57  71
ATOM     71  C   UNL A   1      39.934  34.343  37.400  1.00  0.00     0.058 A 
ATOM     72  C   UNL A   1      39.118  34.152  38.528  1.00  0.00     0.135 A 
ATOM     73  C   UNL A   1      40.739  35.494  37.368  1.00  0.00     0.135 A 
ATOM     74  F   UNL A   1      38.317  33.078  38.606  1.00  0.00    -0.206 F 
ATOM     75  C   UNL A   1      39.064  35.087  39.558  1.00  0.00     0.059 A 
ATOM     76  C   UNL A   1      40.724  36.428  38.400  1.00  0.00     0.059 A 
ATOM     77  F   UNL A   1      41.543  35.727  36.319  1.00  0.00    -0.206 F 
ATOM     78  C   UNL A   1      39.865  36.228  39.480  1.00  0.00     0.060 A 
BRANCH  78  79
ATOM     79  S   UNL A   1      39.746  37.455  40.800  1.00  0.00     0.124 S 
ATOM     80  O   UNL A   1      39.003  36.718  41.817  1.00  0.00    -0.237 OA
ATOM     81  O   UNL A   1      41.147  37.722  41.110  1.00  0.00    -0.237 OA
ATOM     82  O   UNL A   1      39.024  38.559  40.175  1.00  0.00    -0.744 OA
ENDBRANCH  78  79
ENDBRANCH  57  71
BRANCH  58  83
ATOM     83  C   UNL A   1      40.681  27.769  29.912  1.00  0.00     0.058 A 
ATOM     84  C   UNL A   1      39.757  26.745  29.653  1.00  0.00     0.135 A 
ATOM     85  C   UNL A   1      41.739  27.938  29.007  1.00  0.00     0.135 A 
ATOM     86  F   UNL A   1      38.734  26.537  30.495  1.00  0.00    -0.206 F 
ATOM     87  C   UNL A   1      39.866  25.934  28.529  1.00  0.00     0.059 A 
ATOM     88  C   UNL A   1      41.856  27.157  27.861  1.00  0.00     0.059 A 
ATOM     89  F   UNL A   1      42.643  28.911  29.204  1.00  0.00    -0.206 F 
ATOM     90  C   UNL A   1      40.912  26.158  27.631  1.00  0.00     0.060 A 
BRANCH  90  91
ATOM     91  S   UNL A   1      40.981  25.166  26.122  1.00  0.00     0.124 S 
ATOM     92  O   UNL A   1      41.937  24.130  26.494  1.00  0.00    -0.237 OA
ATOM     93  O   UNL A   1      39.593  24.735  25.979  1.00  0.00    -0.237 OA
ATOM     94  O   UNL A   1      41.441  26.118  25.115  1.00  0.00    -0.744 OA
ENDBRANCH  90  91
ENDBRANCH  58  83
BRANCH  70  95
ATOM     95  C   UNL A   1      36.523  33.250  31.125  1.00  0.00     0.058 A 
ATOM     96  C   UNL A   1      35.180  33.147  31.520  1.00  0.00     0.135 A 
ATOM     97  C   UNL A   1      36.819  34.040  30.002  1.00  0.00     0.135 A 
ATOM     98  F   UNL A   1      34.843  32.396  32.580  1.00  0.00    -0.206 F 
ATOM     99  C   UNL A   1      34.168  33.799  30.824  1.00  0.00     0.059 A 
ATOM    100  C   UNL A   1      35.825  34.719  29.306  1.00  0.00     0.059 A 
ATOM    101  F   UNL A   1      38.088  34.174  29.588  1.00  0.00    -0.206 F 
ATOM    102  C   UNL A   1      34.501  34.590  29.722  1.00  0.00     0.060 A 
BRANCH 102 103
ATOM    103  S   UNL A   1      33.182  35.477  28.867  1.00  0.00     0.124 S 
ATOM    104  O   UNL A   1      33.939  36.434  28.067  1.00  0.00    -0.237 OA
ATOM    105  O   UNL A   1      32.523  34.409  28.121  1.00  0.00    -0.237 OA
ATOM    106  O   UNL A   1      32.396  36.051  29.955  1.00  0.00    -0.744 OA
ENDBRANCH 102 103
ENDBRANCH  70  95
ENDBRANCH  44  45
ENDBRANCH  36  39
ENDBRANCH  34  35
ENDBRANCH   1  34
TORSDOF 15
ENDMDL
MODEL 2
REMARK VINA RESULT:     -10.9      6.780     14.856
REMARK SMILES Cc1cccc(N2C(=O)/C(=C3/C(=O)N([C@@H](C)C(=O)NCCCNC(=O)c4ccc(-c5c6nc(c(-c7c(F)cc(S(=O)(=O)[O-])cc7F)c7ccc([nH]7)c(-c7c(F)cc(S(=O)(=O)[O-])cc7F)c7nc(c(-c8c(F)cc(S(=O)(=O)[O-])cc8F)c8ccc5[nH]8)C=C7)C=C6)cc4)c4ccccc43)SC2=S)c1C
REMARK SMILES IDX 21 1 20 2 19 3 17 4 18 5 15 7 16 8 14 9 7 10 8 11 99 12 9 13
REMARK SMILES IDX 10 14 98 15 100 16 11 17 12 18 97 19 13 20 92 21 96 22 93 23
REMARK SMILES IDX 95 24 94 25 6 26 1 27 2 28 3 29 101 30 4 31 102 32 5 33
REMARK SMILES IDX 22 34 23 35 24 36 25 38 26 39 27 40 91 41 28 42 90 43 29 44
REMARK SMILES IDX 30 45 31 46 84 47 32 48 89 49 83 50 85 51 33 52 88 53 82 54
REMARK SMILES IDX 81 55 34 57 68 58 47 59 67 60 48 61 51 62 66 63 86 64 49 65
REMARK SMILES IDX 50 66 65 68 87 69 52 70 35 71 36 72 45 73 37 74 38 75 44 76
REMARK SMILES IDX 46 77 39 78 40 79 41 80 42 81 43 82 69 83 70 84 79 85 71 86
REMARK SMILES IDX 72 87 78 88 80 89 73 90 74 91 75 92 76 93 77 94 53 95 54 96
REMARK SMILES IDX 63 97 55 98 56 99 62 100 64 101 57 102 58 103 59 104 60 105
REMARK SMILES IDX 61 106
REMARK H PARENT 19 6 23 37 85 56 51 67
REMARK Flexibility Score: inf
ROOT
ATOM      1  C   UNL A   1      34.253  31.334  28.394  1.00  0.00     0.042 C 
ENDROOT
BRANCH   1   2
ATOM      2  C   UNL A   1      34.150  30.461  27.149  1.00  0.00     0.117 C 
BRANCH   2   3
ATOM      3  N   UNL A   1      32.825  30.522  26.567  1.00  0.00    -0.354 N 
ATOM      4  C   UNL A   1      32.284  29.954  25.457  1.00  0.00     0.242 C 
ATOM      5  O   UNL A   1      31.142  30.341  25.177  1.00  0.00    -0.273 OA
ATOM      6  H   UNL A   1      32.195  31.085  27.073  1.00  0.00     0.163 HD
BRANCH   4   7
ATOM      7  C   UNL A   1      32.999  28.906  24.558  1.00  0.00     0.177 C 
ATOM      8  C   UNL A   1      33.180  29.327  23.103  1.00  0.00     0.042 C 
BRANCH   7   9
ATOM      9  N   UNL A   1      32.655  27.513  24.834  1.00  0.00    -0.295 N 
ATOM     10  N   UNL A   1      33.739  21.965  25.588  1.00  0.00    -0.261 N 
ATOM     11  C   UNL A   1      32.819  22.887  26.054  1.00  0.00     0.271 C 
ATOM     12  C   UNL A   1      35.063  22.334  25.674  1.00  0.00     0.152 C 
ATOM     13  O   UNL A   1      31.711  22.631  26.496  1.00  0.00    -0.268 OA
ATOM     14  C   UNL A   1      33.436  24.244  26.081  1.00  0.00     0.094 C 
ATOM     15  S   UNL A   1      35.150  24.008  26.233  1.00  0.00    -0.053 SA
ATOM     16  S   UNL A   1      36.431  21.461  25.274  1.00  0.00    -0.051 S 
ATOM     17  C   UNL A   1      32.803  25.394  25.786  1.00  0.00     0.069 C 
ATOM     18  C   UNL A   1      33.519  26.709  25.599  1.00  0.00     0.261 C 
ATOM     19  C   UNL A   1      31.436  25.602  25.275  1.00  0.00     0.012 A 
ATOM     20  O   UNL A   1      34.625  27.005  26.014  1.00  0.00    -0.269 OA
ATOM     21  C   UNL A   1      31.453  26.821  24.576  1.00  0.00     0.053 A 
ATOM     22  C   UNL A   1      30.261  24.868  25.357  1.00  0.00     0.011 A 
ATOM     23  C   UNL A   1      30.377  27.181  23.782  1.00  0.00     0.027 A 
ATOM     24  C   UNL A   1      29.146  25.273  24.623  1.00  0.00     0.001 A 
ATOM     25  C   UNL A   1      29.219  26.399  23.806  1.00  0.00     0.002 A 
BRANCH  10  26
ATOM     26  C   UNL A   1      33.284  20.693  25.158  1.00  0.00     0.054 A 
ATOM     27  C   UNL A   1      32.024  18.904  22.001  1.00  0.00     0.044 C 
ATOM     28  C   UNL A   1      32.436  19.214  23.417  1.00  0.00    -0.046 A 
ATOM     29  C   UNL A   1      32.358  18.187  24.371  1.00  0.00     0.004 A 
ATOM     30  C   UNL A   1      32.878  20.497  23.814  1.00  0.00    -0.024 A 
ATOM     31  C   UNL A   1      32.733  18.404  25.695  1.00  0.00     0.002 A 
ATOM     32  C   UNL A   1      32.892  21.652  22.843  1.00  0.00     0.047 C 
ATOM     33  C   UNL A   1      33.208  19.651  26.089  1.00  0.00     0.027 A 
ENDBRANCH  10  26
ENDBRANCH   7   9
ENDBRANCH   4   7
ENDBRANCH   2   3
ENDBRANCH   1   2
BRANCH   1  34
ATOM     34  C   UNL A   1      35.671  31.425  28.939  1.00  0.00     0.118 C 
BRANCH  34  35
ATOM     35  N   UNL A   1      35.706  31.171  30.376  1.00  0.00    -0.352 N 
ATOM     36  C   UNL A   1      36.597  30.459  31.149  1.00  0.00     0.251 C 
ATOM     37  H   UNL A   1      34.966  31.578  30.880  1.00  0.00     0.163 HD
ATOM     38  O   UNL A   1      36.258  30.138  32.286  1.00  0.00    -0.269 OA
BRANCH  36  39
ATOM     39  C   UNL A   1      37.934  30.062  30.639  1.00  0.00     0.039 A 
ATOM     40  C   UNL A   1      38.907  29.530  31.483  1.00  0.00     0.014 A 
ATOM     41  C   UNL A   1      38.204  30.155  29.268  1.00  0.00     0.014 A 
ATOM     42  C   UNL A   1      40.187  29.276  31.005  1.00  0.00     0.010 A 
ATOM     43  C   UNL A   1      39.458  29.777  28.764  1.00  0.00     0.010 A 
ATOM     44  C   UNL A   1      40.479  29.373  29.635  1.00  0.00    -0.014 A 
BRANCH  44  45
ATOM     45  C   UNL A   1      41.844  29.014  29.158  1.00  0.00     0.031 A 
ATOM     46  C   UNL A   1      42.151  27.631  28.646  1.00  0.00     0.074 A 
ATOM     47  C   UNL A   1      42.794  29.971  29.108  1.00  0.00     0.049 A 
ATOM     48  N   UNL A   1      43.265  27.170  28.132  1.00  0.00    -0.248 NA
ATOM     49  C   UNL A   1      41.074  26.634  28.723  1.00  0.00     0.031 C 
ATOM     50  C   UNL A   1      42.618  31.353  29.563  1.00  0.00     0.029 A 
ATOM     51  N   UNL A   1      44.073  29.951  28.609  1.00  0.00    -0.354 N 
ATOM     52  C   UNL A   1      43.024  25.834  27.829  1.00  0.00     0.074 A 
ATOM     53  C   UNL A   1      41.675  25.545  28.265  1.00  0.00     0.031 C 
ATOM     54  C   UNL A   1      43.704  32.068  29.236  1.00  0.00     0.029 A 
ATOM     55  C   UNL A   1      44.687  31.183  28.621  1.00  0.00     0.049 A 
ATOM     56  H   UNL A   1      44.510  29.134  28.276  1.00  0.00     0.167 HD
ATOM     57  C   UNL A   1      43.841  24.938  27.223  1.00  0.00     0.037 A 
ATOM     58  C   UNL A   1      45.903  31.565  28.186  1.00  0.00     0.037 A 
ATOM     59  C   UNL A   1      45.184  25.232  26.790  1.00  0.00     0.049 A 
ATOM     60  C   UNL A   1      46.819  30.539  27.586  1.00  0.00     0.074 A 
ATOM     61  C   UNL A   1      46.101  24.387  26.190  1.00  0.00     0.029 A 
ATOM     62  N   UNL A   1      45.802  26.470  26.908  1.00  0.00    -0.354 N 
ATOM     63  N   UNL A   1      46.582  29.274  27.334  1.00  0.00    -0.248 NA
ATOM     64  C   UNL A   1      48.171  30.984  27.228  1.00  0.00     0.031 C 
ATOM     65  C   UNL A   1      47.286  25.102  25.980  1.00  0.00     0.029 A 
ATOM     66  C   UNL A   1      47.093  26.407  26.406  1.00  0.00     0.049 A 
ATOM     67  H   UNL A   1      45.385  27.275  27.291  1.00  0.00     0.167 HD
ATOM     68  C   UNL A   1      47.752  28.773  26.777  1.00  0.00     0.074 A 
ATOM     69  C   UNL A   1      48.691  29.875  26.716  1.00  0.00     0.031 C 
ATOM     70  C   UNL A   1      48.021  27.512  26.357  1.00  0.00     0.037 A 
BRANCH  57  71
ATOM     71  C   UNL A   1      43.302  23.548  27.007  1.00  0.00     0.058 A 
ATOM     72  C   UNL A   1      43.156  22.643  28.072  1.00  0.00     0.135 A 
ATOM     73  C   UNL A   1      42.925  23.112  25.727  1.00  0.00     0.135 A 
ATOM     74  F   UNL A   1      43.514  23.001  29.315  1.00  0.00    -0.206 F 
ATOM     75  C   UNL A   1      42.704  21.342  27.868  1.00  0.00     0.059 A 
ATOM     76  C   UNL A   1      42.443  21.824  25.504  1.00  0.00     0.059 A 
ATOM     77  F   UNL A   1      43.037  23.935  24.672  1.00  0.00    -0.206 F 
ATOM     78  C   UNL A   1      42.358  20.939  26.577  1.00  0.00     0.060 A 
BRANCH  78  79
ATOM     79  S   UNL A   1      41.822  19.234  26.322  1.00  0.00     0.124 S 
ATOM     80  O   UNL A   1      40.426  19.421  25.938  1.00  0.00    -0.237 OA
ATOM     81  O   UNL A   1      42.714  18.778  25.260  1.00  0.00    -0.237 OA
ATOM     82  O   UNL A   1      42.034  18.611  27.625  1.00  0.00    -0.744 OA
ENDBRANCH  78  79
ENDBRANCH  57  71
BRANCH  58  83
ATOM     83  C   UNL A   1      46.299  32.995  28.287  1.00  0.00     0.058 A 
ATOM     84  C   UNL A   1      45.958  33.904  27.275  1.00  0.00     0.135 A 
ATOM     85  C   UNL A   1      46.954  33.496  29.422  1.00  0.00     0.135 A 
ATOM     86  F   UNL A   1      45.340  33.472  26.165  1.00  0.00    -0.206 F 
ATOM     87  C   UNL A   1      46.234  35.262  27.394  1.00  0.00     0.059 A 
ATOM     88  C   UNL A   1      47.218  34.853  29.576  1.00  0.00     0.059 A 
ATOM     89  F   UNL A   1      47.291  32.668  30.423  1.00  0.00    -0.206 F 
ATOM     90  C   UNL A   1      46.852  35.729  28.556  1.00  0.00     0.060 A 
BRANCH  90  91
ATOM     91  S   UNL A   1      47.111  37.507  28.742  1.00  0.00     0.124 S 
ATOM     92  O   UNL A   1      47.969  37.559  29.920  1.00  0.00    -0.237 OA
ATOM     93  O   UNL A   1      47.745  37.855  27.473  1.00  0.00    -0.237 OA
ATOM     94  O   UNL A   1      45.759  38.027  28.922  1.00  0.00    -0.744 OA
ENDBRANCH  90  91
ENDBRANCH  58  83
BRANCH  70  95
ATOM     95  C   UNL A   1      49.384  27.250  25.782  1.00  0.00     0.058 A 
ATOM     96  C   UNL A   1      49.642  27.398  24.410  1.00  0.00     0.135 A 
ATOM     97  C   UNL A   1      50.461  26.919  26.620  1.00  0.00     0.135 A 
ATOM     98  F   UNL A   1      48.646  27.704  23.564  1.00  0.00    -0.206 F 
ATOM     99  C   UNL A   1      50.920  27.221  23.889  1.00  0.00     0.059 A 
ATOM    100  C   UNL A   1      51.751  26.759  26.124  1.00  0.00     0.059 A 
ATOM    101  F   UNL A   1      50.268  26.771  27.940  1.00  0.00    -0.206 F 
ATOM    102  C   UNL A   1      51.970  26.909  24.755  1.00  0.00     0.060 A 
BRANCH 102 103
ATOM    103  S   UNL A   1      53.631  26.740  24.070  1.00  0.00     0.124 S 
ATOM    104  O   UNL A   1      54.061  25.471  24.649  1.00  0.00    -0.237 OA
ATOM    105  O   UNL A   1      53.375  26.726  22.633  1.00  0.00    -0.237 OA
ATOM    106  O   UNL A   1      54.327  27.923  24.565  1.00  0.00    -0.744 OA
ENDBRANCH 102 103
ENDBRANCH  70  95
ENDBRANCH  44  45
ENDBRANCH  36  39
ENDBRANCH  34  35
ENDBRANCH   1  34
TORSDOF 15
ENDMDL
MODEL 3
REMARK VINA RESULT:     -10.8      3.012      9.405
REMARK SMILES Cc1cccc(N2C(=O)/C(=C3/C(=O)N([C@@H](C)C(=O)NCCCNC(=O)c4ccc(-c5c6nc(c(-c7c(F)cc(S(=O)(=O)[O-])cc7F)c7ccc([nH]7)c(-c7c(F)cc(S(=O)(=O)[O-])cc7F)c7nc(c(-c8c(F)cc(S(=O)(=O)[O-])cc8F)c8ccc5[nH]8)C=C7)C=C6)cc4)c4ccccc43)SC2=S)c1C
REMARK SMILES IDX 21 1 20 2 19 3 17 4 18 5 15 7 16 8 14 9 7 10 8 11 99 12 9 13
REMARK SMILES IDX 10 14 98 15 100 16 11 17 12 18 97 19 13 20 92 21 96 22 93 23
REMARK SMILES IDX 95 24 94 25 6 26 1 27 2 28 3 29 101 30 4 31 102 32 5 33
REMARK SMILES IDX 22 34 23 35 24 36 25 38 26 39 27 40 91 41 28 42 90 43 29 44
REMARK SMILES IDX 30 45 31 46 84 47 32 48 89 49 83 50 85 51 33 52 88 53 82 54
REMARK SMILES IDX 81 55 34 57 68 58 47 59 67 60 48 61 51 62 66 63 86 64 49 65
REMARK SMILES IDX 50 66 65 68 87 69 52 70 35 71 36 72 45 73 37 74 38 75 44 76
REMARK SMILES IDX 46 77 39 78 40 79 41 80 42 81 43 82 69 83 70 84 79 85 71 86
REMARK SMILES IDX 72 87 78 88 80 89 73 90 74 91 75 92 76 93 77 94 53 95 54 96
REMARK SMILES IDX 63 97 55 98 56 99 62 100 64 101 57 102 58 103 59 104 60 105
REMARK SMILES IDX 61 106
REMARK H PARENT 19 6 23 37 85 56 51 67
REMARK Flexibility Score: inf
ROOT
ATOM      1  C   UNL A   1      44.041  25.424  25.167  1.00  0.00     0.042 C 
ENDROOT
BRANCH   1   2
ATOM      2  C   UNL A   1      45.136  26.356  25.675  1.00  0.00     0.117 C 
BRANCH   2   3
ATOM      3  N   UNL A   1      45.750  27.092  24.590  1.00  0.00    -0.354 N 
ATOM      4  C   UNL A   1      46.652  28.109  24.567  1.00  0.00     0.242 C 
ATOM      5  O   UNL A   1      46.854  28.602  23.449  1.00  0.00    -0.273 OA
ATOM      6  H   UNL A   1      45.457  26.800  23.696  1.00  0.00     0.163 HD
BRANCH   4   7
ATOM      7  C   UNL A   1      47.393  28.668  25.815  1.00  0.00     0.177 C 
ATOM      8  C   UNL A   1      48.690  27.949  26.165  1.00  0.00     0.042 C 
BRANCH   7   9
ATOM      9  N   UNL A   1      46.526  29.099  26.910  1.00  0.00    -0.295 N 
ATOM     10  N   UNL A   1      43.742  32.903  30.119  1.00  0.00    -0.261 N 
ATOM     11  C   UNL A   1      43.566  31.588  29.730  1.00  0.00     0.271 C 
ATOM     12  C   UNL A   1      44.005  33.803  29.110  1.00  0.00     0.152 C 
ATOM     13  O   UNL A   1      42.903  30.750  30.321  1.00  0.00    -0.268 OA
ATOM     14  C   UNL A   1      44.182  31.372  28.390  1.00  0.00     0.094 C 
ATOM     15  S   UNL A   1      44.195  32.916  27.594  1.00  0.00    -0.053 SA
ATOM     16  S   UNL A   1      44.207  35.459  29.198  1.00  0.00    -0.051 S 
ATOM     17  C   UNL A   1      44.826  30.256  27.999  1.00  0.00     0.069 C 
ATOM     18  C   UNL A   1      45.633  30.170  26.727  1.00  0.00     0.261 C 
ATOM     19  C   UNL A   1      45.175  29.057  28.782  1.00  0.00     0.012 A 
ATOM     20  O   UNL A   1      45.539  30.890  25.750  1.00  0.00    -0.269 OA
ATOM     21  C   UNL A   1      46.305  28.494  28.165  1.00  0.00     0.053 A 
ATOM     22  C   UNL A   1      44.633  28.459  29.911  1.00  0.00     0.011 A 
ATOM     23  C   UNL A   1      47.013  27.487  28.800  1.00  0.00     0.027 A 
ATOM     24  C   UNL A   1      45.300  27.390  30.509  1.00  0.00     0.001 A 
ATOM     25  C   UNL A   1      46.506  26.936  29.981  1.00  0.00     0.002 A 
BRANCH  10  26
ATOM     26  C   UNL A   1      43.546  33.252  31.479  1.00  0.00     0.054 A 
ATOM     27  C   UNL A   1      45.441  33.354  34.819  1.00  0.00     0.044 C 
ATOM     28  C   UNL A   1      44.371  33.455  33.763  1.00  0.00    -0.046 A 
ATOM     29  C   UNL A   1      43.100  33.914  34.148  1.00  0.00     0.004 A 
ATOM     30  C   UNL A   1      44.597  33.090  32.416  1.00  0.00    -0.024 A 
ATOM     31  C   UNL A   1      42.068  34.040  33.220  1.00  0.00     0.002 A 
ATOM     32  C   UNL A   1      45.919  32.508  31.978  1.00  0.00     0.047 C 
ATOM     33  C   UNL A   1      42.292  33.723  31.884  1.00  0.00     0.027 A 
ENDBRANCH  10  26
ENDBRANCH   7   9
ENDBRANCH   4   7
ENDBRANCH   2   3
ENDBRANCH   1   2
BRANCH   1  34
ATOM     34  C   UNL A   1      42.654  26.046  25.236  1.00  0.00     0.118 C 
BRANCH  34  35
ATOM     35  N   UNL A   1      41.623  25.028  25.411  1.00  0.00    -0.352 N 
ATOM     36  C   UNL A   1      40.836  24.713  26.496  1.00  0.00     0.251 C 
ATOM     37  H   UNL A   1      41.461  24.471  24.617  1.00  0.00     0.163 HD
ATOM     38  O   UNL A   1      40.253  23.631  26.502  1.00  0.00    -0.269 OA
BRANCH  36  39
ATOM     39  C   UNL A   1      40.691  25.633  27.654  1.00  0.00     0.039 A 
ATOM     40  C   UNL A   1      39.585  25.572  28.498  1.00  0.00     0.014 A 
ATOM     41  C   UNL A   1      41.722  26.534  27.950  1.00  0.00     0.014 A 
ATOM     42  C   UNL A   1      39.416  26.519  29.503  1.00  0.00     0.010 A 
ATOM     43  C   UNL A   1      41.609  27.405  29.044  1.00  0.00     0.010 A 
ATOM     44  C   UNL A   1      40.434  27.436  29.808  1.00  0.00    -0.014 A 
BRANCH  44  45
ATOM     45  C   UNL A   1      40.242  28.380  30.945  1.00  0.00     0.031 A 
ATOM     46  C   UNL A   1      41.168  28.367  32.133  1.00  0.00     0.074 A 
ATOM     47  C   UNL A   1      39.271  29.314  30.865  1.00  0.00     0.049 A 
ATOM     48  N   UNL A   1      41.184  29.161  33.174  1.00  0.00    -0.248 NA
ATOM     49  C   UNL A   1      42.208  27.328  32.160  1.00  0.00     0.031 C 
ATOM     50  C   UNL A   1      38.316  29.440  29.761  1.00  0.00     0.029 A 
ATOM     51  N   UNL A   1      38.956  30.364  31.692  1.00  0.00    -0.354 N 
ATOM     52  C   UNL A   1      42.229  28.717  33.979  1.00  0.00     0.074 A 
ATOM     53  C   UNL A   1      42.788  27.551  33.330  1.00  0.00     0.031 C 
ATOM     54  C   UNL A   1      37.591  30.555  29.927  1.00  0.00     0.029 A 
ATOM     55  C   UNL A   1      37.970  31.182  31.189  1.00  0.00     0.049 A 
ATOM     56  H   UNL A   1      39.392  30.516  32.561  1.00  0.00     0.167 HD
ATOM     57  C   UNL A   1      42.693  29.244  35.139  1.00  0.00     0.037 A 
ATOM     58  C   UNL A   1      37.428  32.313  31.681  1.00  0.00     0.037 A 
ATOM     59  C   UNL A   1      42.132  30.406  35.781  1.00  0.00     0.049 A 
ATOM     60  C   UNL A   1      37.908  32.837  33.002  1.00  0.00     0.074 A 
ATOM     61  C   UNL A   1      42.514  31.004  36.969  1.00  0.00     0.029 A 
ATOM     62  N   UNL A   1      41.069  31.151  35.285  1.00  0.00    -0.354 N 
ATOM     63  N   UNL A   1      38.878  32.385  33.762  1.00  0.00    -0.248 NA
ATOM     64  C   UNL A   1      37.211  34.009  33.545  1.00  0.00     0.031 C 
ATOM     65  C   UNL A   1      41.659  32.085  37.212  1.00  0.00     0.029 A 
ATOM     66  C   UNL A   1      40.773  32.192  36.151  1.00  0.00     0.049 A 
ATOM     67  H   UNL A   1      40.597  30.967  34.441  1.00  0.00     0.167 HD
ATOM     68  C   UNL A   1      38.916  33.226  34.867  1.00  0.00     0.074 A 
ATOM     69  C   UNL A   1      37.880  34.221  34.671  1.00  0.00     0.031 C 
ATOM     70  C   UNL A   1      39.734  33.174  35.947  1.00  0.00     0.037 A 
BRANCH  57  71
ATOM     71  C   UNL A   1      43.862  28.553  35.791  1.00  0.00     0.058 A 
ATOM     72  C   UNL A   1      43.677  27.501  36.705  1.00  0.00     0.135 A 
ATOM     73  C   UNL A   1      45.180  28.942  35.505  1.00  0.00     0.135 A 
ATOM     74  F   UNL A   1      42.438  27.098  37.027  1.00  0.00    -0.206 F 
ATOM     75  C   UNL A   1      44.753  26.894  37.346  1.00  0.00     0.059 A 
ATOM     76  C   UNL A   1      46.273  28.328  36.113  1.00  0.00     0.059 A 
ATOM     77  F   UNL A   1      45.419  29.937  34.636  1.00  0.00    -0.206 F 
ATOM     78  C   UNL A   1      46.048  27.321  37.050  1.00  0.00     0.060 A 
BRANCH  78  79
ATOM     79  S   UNL A   1      47.429  26.557  37.928  1.00  0.00     0.124 S 
ATOM     80  O   UNL A   1      47.682  27.537  38.981  1.00  0.00    -0.237 OA
ATOM     81  O   UNL A   1      46.859  25.288  38.370  1.00  0.00    -0.237 OA
ATOM     82  O   UNL A   1      48.467  26.453  36.908  1.00  0.00    -0.744 OA
ENDBRANCH  78  79
ENDBRANCH  57  71
BRANCH  58  83
ATOM     83  C   UNL A   1      36.389  33.028  30.893  1.00  0.00     0.058 A 
ATOM     84  C   UNL A   1      35.044  32.997  31.289  1.00  0.00     0.135 A 
ATOM     85  C   UNL A   1      36.725  33.816  29.782  1.00  0.00     0.135 A 
ATOM     86  F   UNL A   1      34.671  32.249  32.339  1.00  0.00    -0.206 F 
ATOM     87  C   UNL A   1      34.071  33.735  30.623  1.00  0.00     0.059 A 
ATOM     88  C   UNL A   1      35.776  34.584  29.115  1.00  0.00     0.059 A 
ATOM     89  F   UNL A   1      38.000  33.889  29.371  1.00  0.00    -0.206 F 
ATOM     90  C   UNL A   1      34.451  34.538  29.545  1.00  0.00     0.060 A 
BRANCH  90  91
ATOM     91  S   UNL A   1      33.197  35.572  28.756  1.00  0.00     0.124 S 
ATOM     92  O   UNL A   1      34.021  36.525  28.021  1.00  0.00    -0.237 OA
ATOM     93  O   UNL A   1      32.468  34.599  27.947  1.00  0.00    -0.237 OA
ATOM     94  O   UNL A   1      32.453  36.120  29.886  1.00  0.00    -0.744 OA
ENDBRANCH  90  91
ENDBRANCH  58  83
BRANCH  70  95
ATOM     95  C   UNL A   1      39.557  34.228  37.003  1.00  0.00     0.058 A 
ATOM     96  C   UNL A   1      38.777  33.995  38.147  1.00  0.00     0.135 A 
ATOM     97  C   UNL A   1      40.231  35.456  36.906  1.00  0.00     0.135 A 
ATOM     98  F   UNL A   1      38.104  32.843  38.284  1.00  0.00    -0.206 F 
ATOM     99  C   UNL A   1      38.669  34.947  39.156  1.00  0.00     0.059 A 
ATOM    100  C   UNL A   1      40.155  36.412  37.913  1.00  0.00     0.059 A 
ATOM    101  F   UNL A   1      40.993  35.724  35.834  1.00  0.00    -0.206 F 
ATOM    102  C   UNL A   1      39.368  36.150  39.033  1.00  0.00     0.060 A 
BRANCH 102 103
ATOM    103  S   UNL A   1      39.262  37.349  40.378  1.00  0.00     0.124 S 
ATOM    104  O   UNL A   1      38.892  36.497  41.504  1.00  0.00    -0.237 OA
ATOM    105  O   UNL A   1      40.614  37.896  40.416  1.00  0.00    -0.237 OA
ATOM    106  O   UNL A   1      38.229  38.277  39.928  1.00  0.00    -0.744 OA
ENDBRANCH 102 103
ENDBRANCH  70  95
ENDBRANCH  44  45
ENDBRANCH  36  39
ENDBRANCH  34  35
ENDBRANCH   1  34
TORSDOF 15
ENDMDL
