MODEL 1
REMARK VINA RESULT:     -12.2      0.000      0.000
REMARK SMILES COc1ccc(OC)c(Nc2c(-c3ccc(C(=O)NCCCNC(=O)c4ccc(-c5c6nc(c(-c7c(F)cc(S(=O)(=O)[O-])cc7F)c7ccc([nH]7)c(-c7c(F)cc(S(=O)(=O)[O-])cc7F)c7nc(c(-c8c(F)cc(S(=O)(=O)[O-])cc8F)c8ccc5[nH]8)C=C7)C=C6)cc4)cc3)nc3cnccn23)c1
REMARK SMILES IDX 20 1 19 2 17 3 18 4 16 6 13 7 14 8 93 9 15 10 92 11 12 12
REMARK SMILES IDX 11 13 100 14 94 15 95 16 99 17 96 18 98 19 97 20 10 21 9 23
REMARK SMILES IDX 3 24 4 25 101 26 5 27 6 28 2 29 1 30 7 31 8 32 21 33 22 34
REMARK SMILES IDX 23 35 24 36 25 38 26 39 27 40 91 41 28 42 90 43 29 44 30 45
REMARK SMILES IDX 31 46 84 47 32 48 89 49 83 50 85 51 33 52 88 53 82 54 81 55
REMARK SMILES IDX 34 57 68 58 47 59 67 60 48 61 51 62 66 63 86 64 49 65 50 66
REMARK SMILES IDX 65 68 87 69 52 70 35 71 36 72 45 73 37 74 38 75 44 76 46 77
REMARK SMILES IDX 39 78 40 79 41 80 42 81 43 82 69 83 70 84 79 85 71 86 72 87
REMARK SMILES IDX 78 88 80 89 73 90 74 91 75 92 76 93 77 94 53 95 54 96 63 97
REMARK SMILES IDX 55 98 56 99 62 100 64 101 57 102 58 103 59 104 60 105 61 106
REMARK H PARENT 19 5 10 22 23 37 85 56 51 67
REMARK Flexibility Score: inf
ROOT
ATOM      1  C   UNL A   1      31.830  28.048  25.292  1.00  0.00     0.118 C 
ENDROOT
BRANCH   1   2
ATOM      2  N   UNL A   1      31.215  28.252  23.994  1.00  0.00    -0.352 N 
ATOM      3  C   UNL A   1      30.952  27.385  22.964  1.00  0.00     0.251 C 
ATOM      4  O   UNL A   1      30.334  27.824  21.993  1.00  0.00    -0.269 OA
ATOM      5  H   UNL A   1      30.937  29.180  23.821  1.00  0.00     0.163 HD
BRANCH   3   6
ATOM      6  C   UNL A   1      31.339  25.946  22.986  1.00  0.00     0.039 A 
ATOM      7  C   UNL A   1      31.919  23.190  23.091  1.00  0.00     0.004 A 
ATOM      8  C   UNL A   1      30.673  23.662  23.515  1.00  0.00     0.011 A 
ATOM      9  C   UNL A   1      32.862  24.092  22.603  1.00  0.00     0.011 A 
ATOM     10  C   UNL A   1      30.389  25.032  23.468  1.00  0.00     0.014 A 
ATOM     11  C   UNL A   1      32.558  25.452  22.518  1.00  0.00     0.014 A 
BRANCH   7  12
ATOM     12  C   UNL A   1      32.255  21.785  23.082  1.00  0.00     0.114 A 
ATOM     13  C   UNL A   1      32.974  21.123  24.070  1.00  0.00     0.143 A 
ATOM     14  N   UNL A   1      32.832  19.791  23.746  1.00  0.00    -0.283 N 
ATOM     15  N   UNL A   1      31.865  20.930  22.074  1.00  0.00    -0.225 NA
ATOM     16  C   UNL A   1      32.262  19.752  22.495  1.00  0.00     0.157 A 
ATOM     17  C   UNL A   1      33.169  18.611  24.384  1.00  0.00     0.115 A 
ATOM     18  C   UNL A   1      32.169  18.487  21.826  1.00  0.00     0.158 A 
ATOM     19  C   UNL A   1      33.005  17.457  23.709  1.00  0.00     0.129 A 
ATOM     20  N   UNL A   1      32.540  17.375  22.405  1.00  0.00    -0.259 NA
BRANCH  13  21
ATOM     21  N   UNL A   1      33.545  21.576  25.207  1.00  0.00    -0.336 N 
ATOM     22  H   UNL A   1      33.118  21.244  26.030  1.00  0.00     0.168 HD
BRANCH  21  23
ATOM     23  C   UNL A   1      34.651  22.445  25.435  1.00  0.00     0.086 A 
ATOM     24  C   UNL A   1      37.145  22.386  25.481  1.00  0.00     0.121 A 
ATOM     25  C   UNL A   1      37.170  23.731  25.785  1.00  0.00     0.050 A 
ATOM     26  C   UNL A   1      35.909  21.763  25.294  1.00  0.00     0.076 A 
ATOM     27  C   UNL A   1      35.973  24.427  25.890  1.00  0.00     0.052 A 
ATOM     28  C   UNL A   1      34.704  23.821  25.735  1.00  0.00     0.142 A 
BRANCH  24  29
ATOM     29  O   UNL A   1      38.369  21.783  25.464  1.00  0.00    -0.497 OA
ATOM     30  C   UNL A   1      39.285  22.172  26.478  1.00  0.00     0.278 C 
ENDBRANCH  24  29
BRANCH  28  31
ATOM     31  O   UNL A   1      33.798  24.803  25.983  1.00  0.00    -0.495 OA
ATOM     32  C   UNL A   1      32.515  24.647  26.521  1.00  0.00     0.278 C 
ENDBRANCH  28  31
ENDBRANCH  21  23
ENDBRANCH  13  21
ENDBRANCH   7  12
ENDBRANCH   3   6
ENDBRANCH   1   2
BRANCH   1  33
ATOM     33  C   UNL A   1      33.349  28.190  25.213  1.00  0.00     0.042 C 
BRANCH  33  34
ATOM     34  C   UNL A   1      34.000  28.370  26.576  1.00  0.00     0.118 C 
BRANCH  34  35
ATOM     35  N   UNL A   1      33.816  29.723  27.083  1.00  0.00    -0.352 N 
ATOM     36  C   UNL A   1      34.616  30.453  27.929  1.00  0.00     0.251 C 
ATOM     37  H   UNL A   1      33.001  30.181  26.775  1.00  0.00     0.163 HD
ATOM     38  O   UNL A   1      34.180  31.473  28.448  1.00  0.00    -0.269 OA
BRANCH  36  39
ATOM     39  C   UNL A   1      35.993  29.998  28.210  1.00  0.00     0.039 A 
ATOM     40  C   UNL A   1      36.967  30.115  27.214  1.00  0.00     0.014 A 
ATOM     41  C   UNL A   1      36.317  29.443  29.450  1.00  0.00     0.014 A 
ATOM     42  C   UNL A   1      38.280  29.726  27.484  1.00  0.00     0.010 A 
ATOM     43  C   UNL A   1      37.638  29.133  29.744  1.00  0.00     0.010 A 
ATOM     44  C   UNL A   1      38.631  29.261  28.761  1.00  0.00    -0.014 A 
BRANCH  44  45
ATOM     45  C   UNL A   1      40.024  28.884  29.105  1.00  0.00     0.031 A 
ATOM     46  C   UNL A   1      40.956  29.922  29.666  1.00  0.00     0.074 A 
ATOM     47  C   UNL A   1      40.477  27.653  28.803  1.00  0.00     0.049 A 
ATOM     48  N   UNL A   1      42.242  29.847  29.883  1.00  0.00    -0.248 NA
ATOM     49  C   UNL A   1      40.365  31.230  29.993  1.00  0.00     0.031 C 
ATOM     50  C   UNL A   1      39.676  26.580  28.212  1.00  0.00     0.029 A 
ATOM     51  N   UNL A   1      41.731  27.107  28.919  1.00  0.00    -0.354 N 
ATOM     52  C   UNL A   1      42.621  31.105  30.335  1.00  0.00     0.074 A 
ATOM     53  C   UNL A   1      41.437  31.936  30.320  1.00  0.00     0.031 C 
ATOM     54  C   UNL A   1      40.456  25.506  28.015  1.00  0.00     0.029 A 
ATOM     55  C   UNL A   1      41.822  25.830  28.417  1.00  0.00     0.049 A 
ATOM     56  H   UNL A   1      42.491  27.583  29.324  1.00  0.00     0.167 HD
ATOM     57  C   UNL A   1      43.844  31.525  30.740  1.00  0.00     0.037 A 
ATOM     58  C   UNL A   1      42.890  25.021  28.268  1.00  0.00     0.037 A 
ATOM     59  C   UNL A   1      45.008  30.677  30.769  1.00  0.00     0.049 A 
ATOM     60  C   UNL A   1      44.239  25.498  28.729  1.00  0.00     0.074 A 
ATOM     61  C   UNL A   1      46.275  30.975  31.235  1.00  0.00     0.029 A 
ATOM     62  N   UNL A   1      45.049  29.371  30.299  1.00  0.00    -0.354 N 
ATOM     63  N   UNL A   1      44.570  26.665  29.229  1.00  0.00    -0.248 NA
ATOM     64  C   UNL A   1      45.359  24.554  28.614  1.00  0.00     0.031 C 
ATOM     65  C   UNL A   1      47.098  29.872  30.990  1.00  0.00     0.029 A 
ATOM     66  C   UNL A   1      46.328  28.861  30.435  1.00  0.00     0.049 A 
ATOM     67  H   UNL A   1      44.281  28.882  29.925  1.00  0.00     0.167 HD
ATOM     68  C   UNL A   1      45.928  26.587  29.516  1.00  0.00     0.074 A 
ATOM     69  C   UNL A   1      46.358  25.258  29.132  1.00  0.00     0.031 C 
ATOM     70  C   UNL A   1      46.739  27.528  30.058  1.00  0.00     0.037 A 
BRANCH  57  71
ATOM     71  C   UNL A   1      43.987  32.966  31.153  1.00  0.00     0.058 A 
ATOM     72  C   UNL A   1      44.346  33.971  30.240  1.00  0.00     0.135 A 
ATOM     73  C   UNL A   1      43.760  33.347  32.485  1.00  0.00     0.135 A 
ATOM     74  F   UNL A   1      44.584  33.667  28.955  1.00  0.00    -0.206 F 
ATOM     75  C   UNL A   1      44.531  35.290  30.645  1.00  0.00     0.059 A 
ATOM     76  C   UNL A   1      43.903  34.666  32.906  1.00  0.00     0.059 A 
ATOM     77  F   UNL A   1      43.409  32.430  33.401  1.00  0.00    -0.206 F 
ATOM     78  C   UNL A   1      44.313  35.625  31.983  1.00  0.00     0.060 A 
BRANCH  78  79
ATOM     79  S   UNL A   1      44.592  37.332  32.500  1.00  0.00     0.124 S 
ATOM     80  O   UNL A   1      46.050  37.398  32.507  1.00  0.00    -0.237 OA
ATOM     81  O   UNL A   1      43.930  38.090  31.443  1.00  0.00    -0.237 OA
ATOM     82  O   UNL A   1      43.954  37.400  33.811  1.00  0.00    -0.744 OA
ENDBRANCH  78  79
ENDBRANCH  57  71
BRANCH  58  83
ATOM     83  C   UNL A   1      42.702  23.678  27.659  1.00  0.00     0.058 A 
ATOM     84  C   UNL A   1      42.807  23.489  26.274  1.00  0.00     0.135 A 
ATOM     85  C   UNL A   1      42.494  22.542  28.460  1.00  0.00     0.135 A 
ATOM     86  F   UNL A   1      42.999  24.543  25.467  1.00  0.00    -0.206 F 
ATOM     87  C   UNL A   1      42.722  22.223  25.703  1.00  0.00     0.059 A 
ATOM     88  C   UNL A   1      42.429  21.264  27.915  1.00  0.00     0.059 A 
ATOM     89  F   UNL A   1      42.404  22.667  29.793  1.00  0.00    -0.206 F 
ATOM     90  C   UNL A   1      42.545  21.115  26.534  1.00  0.00     0.060 A 
BRANCH  90  91
ATOM     91  S   UNL A   1      42.535  19.468  25.790  1.00  0.00     0.124 S 
ATOM     92  O   UNL A   1      41.154  19.359  25.336  1.00  0.00    -0.237 OA
ATOM     93  O   UNL A   1      43.545  19.601  24.745  1.00  0.00    -0.237 OA
ATOM     94  O   UNL A   1      42.905  18.596  26.902  1.00  0.00    -0.744 OA
ENDBRANCH  90  91
ENDBRANCH  58  83
BRANCH  70  95
ATOM     95  C   UNL A   1      48.173  27.160  30.319  1.00  0.00     0.058 A 
ATOM     96  C   UNL A   1      49.196  27.467  29.409  1.00  0.00     0.135 A 
ATOM     97  C   UNL A   1      48.540  26.600  31.554  1.00  0.00     0.135 A 
ATOM     98  F   UNL A   1      48.899  27.993  28.210  1.00  0.00    -0.206 F 
ATOM     99  C   UNL A   1      50.533  27.237  29.718  1.00  0.00     0.059 A 
ATOM    100  C   UNL A   1      49.871  26.387  31.895  1.00  0.00     0.059 A 
ATOM    101  F   UNL A   1      47.599  26.293  32.462  1.00  0.00    -0.206 F 
ATOM    102  C   UNL A   1      50.862  26.710  30.969  1.00  0.00     0.060 A 
BRANCH 102 103
ATOM    103  S   UNL A   1      52.605  26.503  31.390  1.00  0.00     0.124 S 
ATOM    104  O   UNL A   1      53.215  26.389  30.069  1.00  0.00    -0.237 OA
ATOM    105  O   UNL A   1      52.896  27.732  32.119  1.00  0.00    -0.237 OA
ATOM    106  O   UNL A   1      52.620  25.284  32.194  1.00  0.00    -0.744 OA
ENDBRANCH 102 103
ENDBRANCH  70  95
ENDBRANCH  44  45
ENDBRANCH  36  39
ENDBRANCH  34  35
ENDBRANCH  33  34
ENDBRANCH   1  33
TORSDOF 18
ENDMDL
MODEL 2
REMARK VINA RESULT:     -12.0      2.336      2.941
REMARK SMILES COc1ccc(OC)c(Nc2c(-c3ccc(C(=O)NCCCNC(=O)c4ccc(-c5c6nc(c(-c7c(F)cc(S(=O)(=O)[O-])cc7F)c7ccc([nH]7)c(-c7c(F)cc(S(=O)(=O)[O-])cc7F)c7nc(c(-c8c(F)cc(S(=O)(=O)[O-])cc8F)c8ccc5[nH]8)C=C7)C=C6)cc4)cc3)nc3cnccn23)c1
REMARK SMILES IDX 20 1 19 2 17 3 18 4 16 6 13 7 14 8 93 9 15 10 92 11 12 12
REMARK SMILES IDX 11 13 100 14 94 15 95 16 99 17 96 18 98 19 97 20 10 21 9 23
REMARK SMILES IDX 3 24 4 25 101 26 5 27 6 28 2 29 1 30 7 31 8 32 21 33 22 34
REMARK SMILES IDX 23 35 24 36 25 38 26 39 27 40 91 41 28 42 90 43 29 44 30 45
REMARK SMILES IDX 31 46 84 47 32 48 89 49 83 50 85 51 33 52 88 53 82 54 81 55
REMARK SMILES IDX 34 57 68 58 47 59 67 60 48 61 51 62 66 63 86 64 49 65 50 66
REMARK SMILES IDX 65 68 87 69 52 70 35 71 36 72 45 73 37 74 38 75 44 76 46 77
REMARK SMILES IDX 39 78 40 79 41 80 42 81 43 82 69 83 70 84 79 85 71 86 72 87
REMARK SMILES IDX 78 88 80 89 73 90 74 91 75 92 76 93 77 94 53 95 54 96 63 97
REMARK SMILES IDX 55 98 56 99 62 100 64 101 57 102 58 103 59 104 60 105 61 106
REMARK H PARENT 19 5 10 22 23 37 85 56 51 67
REMARK Flexibility Score: inf
ROOT
ATOM      1  C   UNL A   1      31.901  27.790  25.123  1.00  0.00     0.118 C 
ENDROOT
BRANCH   1   2
ATOM      2  N   UNL A   1      31.396  27.924  23.769  1.00  0.00    -0.352 N 
ATOM      3  C   UNL A   1      31.216  27.005  22.767  1.00  0.00     0.251 C 
ATOM      4  O   UNL A   1      30.682  27.391  21.727  1.00  0.00    -0.269 OA
ATOM      5  H   UNL A   1      31.136  28.842  23.525  1.00  0.00     0.163 HD
BRANCH   3   6
ATOM      6  C   UNL A   1      31.596  25.569  22.896  1.00  0.00     0.039 A 
ATOM      7  C   UNL A   1      32.165  22.826  23.211  1.00  0.00     0.004 A 
ATOM      8  C   UNL A   1      30.932  23.340  23.624  1.00  0.00     0.011 A 
ATOM      9  C   UNL A   1      33.100  23.680  22.629  1.00  0.00     0.011 A 
ATOM     10  C   UNL A   1      30.654  24.703  23.473  1.00  0.00     0.014 A 
ATOM     11  C   UNL A   1      32.802  25.030  22.442  1.00  0.00     0.014 A 
BRANCH   7  12
ATOM     12  C   UNL A   1      32.493  21.423  23.307  1.00  0.00     0.114 A 
ATOM     13  C   UNL A   1      33.239  20.839  24.323  1.00  0.00     0.143 A 
ATOM     14  N   UNL A   1      33.080  19.487  24.115  1.00  0.00    -0.283 N 
ATOM     15  N   UNL A   1      32.066  20.491  22.386  1.00  0.00    -0.225 NA
ATOM     16  C   UNL A   1      32.471  19.349  22.890  1.00  0.00     0.157 A 
ATOM     17  C   UNL A   1      33.431  18.360  24.838  1.00  0.00     0.115 A 
ATOM     18  C   UNL A   1      32.351  18.033  22.331  1.00  0.00     0.158 A 
ATOM     19  C   UNL A   1      33.241  17.156  24.267  1.00  0.00     0.129 A 
ATOM     20  N   UNL A   1      32.734  16.970  22.989  1.00  0.00    -0.259 NA
BRANCH  13  21
ATOM     21  N   UNL A   1      33.848  21.380  25.401  1.00  0.00    -0.336 N 
ATOM     22  H   UNL A   1      33.415  21.162  26.258  1.00  0.00     0.168 HD
BRANCH  21  23
ATOM     23  C   UNL A   1      35.002  22.207  25.526  1.00  0.00     0.086 A 
ATOM     24  C   UNL A   1      37.490  22.017  25.575  1.00  0.00     0.121 A 
ATOM     25  C   UNL A   1      37.590  23.385  25.722  1.00  0.00     0.050 A 
ATOM     26  C   UNL A   1      36.220  21.446  25.462  1.00  0.00     0.076 A 
ATOM     27  C   UNL A   1      36.434  24.153  25.748  1.00  0.00     0.052 A 
ATOM     28  C   UNL A   1      35.132  23.604  25.665  1.00  0.00     0.142 A 
BRANCH  24  29
ATOM     29  O   UNL A   1      38.679  21.349  25.625  1.00  0.00    -0.497 OA
ATOM     30  C   UNL A   1      39.682  21.899  26.467  1.00  0.00     0.278 C 
ENDBRANCH  24  29
BRANCH  28  31
ATOM     31  O   UNL A   1      34.283  24.656  25.801  1.00  0.00    -0.495 OA
ATOM     32  C   UNL A   1      33.031  24.651  26.426  1.00  0.00     0.278 C 
ENDBRANCH  28  31
ENDBRANCH  21  23
ENDBRANCH  13  21
ENDBRANCH   7  12
ENDBRANCH   3   6
ENDBRANCH   1   2
BRANCH   1  33
ATOM     33  C   UNL A   1      33.410  28.025  25.175  1.00  0.00     0.042 C 
BRANCH  33  34
ATOM     34  C   UNL A   1      33.892  28.475  26.547  1.00  0.00     0.118 C 
BRANCH  34  35
ATOM     35  N   UNL A   1      33.805  29.921  26.698  1.00  0.00    -0.352 N 
ATOM     36  C   UNL A   1      34.546  30.761  27.493  1.00  0.00     0.251 C 
ATOM     37  H   UNL A   1      33.115  30.360  26.151  1.00  0.00     0.163 HD
ATOM     38  O   UNL A   1      34.167  31.910  27.683  1.00  0.00    -0.269 OA
BRANCH  36  39
ATOM     39  C   UNL A   1      35.792  30.269  28.117  1.00  0.00     0.039 A 
ATOM     40  C   UNL A   1      37.001  30.410  27.432  1.00  0.00     0.014 A 
ATOM     41  C   UNL A   1      35.760  29.656  29.372  1.00  0.00     0.014 A 
ATOM     42  C   UNL A   1      38.188  29.985  28.030  1.00  0.00     0.010 A 
ATOM     43  C   UNL A   1      36.949  29.308  30.000  1.00  0.00     0.010 A 
ATOM     44  C   UNL A   1      38.174  29.460  29.332  1.00  0.00    -0.014 A 
BRANCH  44  45
ATOM     45  C   UNL A   1      39.418  29.043  30.025  1.00  0.00     0.031 A 
ATOM     46  C   UNL A   1      39.910  29.834  31.205  1.00  0.00     0.074 A 
ATOM     47  C   UNL A   1      40.157  28.036  29.522  1.00  0.00     0.049 A 
ATOM     48  N   UNL A   1      41.044  29.740  31.848  1.00  0.00    -0.248 NA
ATOM     49  C   UNL A   1      39.021  30.897  31.702  1.00  0.00     0.031 C 
ATOM     50  C   UNL A   1      39.801  27.230  28.354  1.00  0.00     0.029 A 
ATOM     51  N   UNL A   1      41.377  27.542  29.910  1.00  0.00    -0.354 N 
ATOM     52  C   UNL A   1      41.021  30.752  32.801  1.00  0.00     0.074 A 
ATOM     53  C   UNL A   1      39.781  31.474  32.621  1.00  0.00     0.031 C 
ATOM     54  C   UNL A   1      40.781  26.344  28.117  1.00  0.00     0.029 A 
ATOM     55  C   UNL A   1      41.856  26.552  29.084  1.00  0.00     0.049 A 
ATOM     56  H   UNL A   1      41.863  27.864  30.703  1.00  0.00     0.167 HD
ATOM     57  C   UNL A   1      41.945  31.042  33.747  1.00  0.00     0.037 A 
ATOM     58  C   UNL A   1      43.038  25.905  29.084  1.00  0.00     0.037 A 
ATOM     59  C   UNL A   1      43.164  30.297  33.925  1.00  0.00     0.049 A 
ATOM     60  C   UNL A   1      44.051  26.233  30.146  1.00  0.00     0.074 A 
ATOM     61  C   UNL A   1      44.131  30.453  34.901  1.00  0.00     0.029 A 
ATOM     62  N   UNL A   1      43.591  29.266  33.099  1.00  0.00    -0.354 N 
ATOM     63  N   UNL A   1      43.984  27.141  31.091  1.00  0.00    -0.248 NA
ATOM     64  C   UNL A   1      45.295  25.452  30.150  1.00  0.00     0.031 C 
ATOM     65  C   UNL A   1      45.172  29.560  34.630  1.00  0.00     0.029 A 
ATOM     66  C   UNL A   1      44.822  28.798  33.524  1.00  0.00     0.049 A 
ATOM     67  H   UNL A   1      43.091  28.919  32.325  1.00  0.00     0.167 HD
ATOM     68  C   UNL A   1      45.161  27.020  31.822  1.00  0.00     0.074 A 
ATOM     69  C   UNL A   1      45.923  25.952  31.207  1.00  0.00     0.031 C 
ATOM     70  C   UNL A   1      45.565  27.724  32.907  1.00  0.00     0.037 A 
BRANCH  57  71
ATOM     71  C   UNL A   1      41.684  32.227  34.638  1.00  0.00     0.058 A 
ATOM     72  C   UNL A   1      42.154  33.513  34.326  1.00  0.00     0.135 A 
ATOM     73  C   UNL A   1      40.950  32.073  35.826  1.00  0.00     0.135 A 
ATOM     74  F   UNL A   1      42.869  33.721  33.209  1.00  0.00    -0.206 F 
ATOM     75  C   UNL A   1      41.955  34.590  35.185  1.00  0.00     0.059 A 
ATOM     76  C   UNL A   1      40.707  33.143  36.683  1.00  0.00     0.059 A 
ATOM     77  F   UNL A   1      40.471  30.868  36.174  1.00  0.00    -0.206 F 
ATOM     78  C   UNL A   1      41.236  34.392  36.365  1.00  0.00     0.060 A 
BRANCH  78  79
ATOM     79  S   UNL A   1      41.018  35.789  37.487  1.00  0.00     0.124 S 
ATOM     80  O   UNL A   1      40.044  36.596  36.758  1.00  0.00    -0.237 OA
ATOM     81  O   UNL A   1      40.522  35.142  38.698  1.00  0.00    -0.237 OA
ATOM     82  O   UNL A   1      42.357  36.360  37.587  1.00  0.00    -0.744 OA
ENDBRANCH  78  79
ENDBRANCH  57  71
BRANCH  58  83
ATOM     83  C   UNL A   1      43.306  24.882  28.039  1.00  0.00     0.058 A 
ATOM     84  C   UNL A   1      43.998  25.210  26.865  1.00  0.00     0.135 A 
ATOM     85  C   UNL A   1      42.943  23.539  28.232  1.00  0.00     0.135 A 
ATOM     86  F   UNL A   1      44.360  26.480  26.632  1.00  0.00    -0.206 F 
ATOM     87  C   UNL A   1      44.331  24.242  25.922  1.00  0.00     0.059 A 
ATOM     88  C   UNL A   1      43.285  22.550  27.316  1.00  0.00     0.059 A 
ATOM     89  F   UNL A   1      42.294  23.171  29.348  1.00  0.00    -0.206 F 
ATOM     90  C   UNL A   1      43.980  22.912  26.164  1.00  0.00     0.060 A 
BRANCH  90  91
ATOM     91  S   UNL A   1      44.505  21.650  24.981  1.00  0.00     0.124 S 
ATOM     92  O   UNL A   1      44.302  22.336  23.710  1.00  0.00    -0.237 OA
ATOM     93  O   UNL A   1      45.893  21.424  25.372  1.00  0.00    -0.237 OA
ATOM     94  O   UNL A   1      43.597  20.539  25.251  1.00  0.00    -0.744 OA
ENDBRANCH  90  91
ENDBRANCH  58  83
BRANCH  70  95
ATOM     95  C   UNL A   1      46.873  27.348  33.546  1.00  0.00     0.058 A 
ATOM     96  C   UNL A   1      46.962  26.337  34.514  1.00  0.00     0.135 A 
ATOM     97  C   UNL A   1      48.069  27.927  33.089  1.00  0.00     0.135 A 
ATOM     98  F   UNL A   1      45.849  25.758  34.992  1.00  0.00    -0.206 F 
ATOM     99  C   UNL A   1      48.193  25.909  35.004  1.00  0.00     0.059 A 
ATOM    100  C   UNL A   1      49.311  27.496  33.544  1.00  0.00     0.059 A 
ATOM    101  F   UNL A   1      48.038  28.895  32.159  1.00  0.00    -0.206 F 
ATOM    102  C   UNL A   1      49.362  26.485  34.502  1.00  0.00     0.060 A 
BRANCH 102 103
ATOM    103  S   UNL A   1      50.953  25.856  35.080  1.00  0.00     0.124 S 
ATOM    104  O   UNL A   1      50.720  25.739  36.515  1.00  0.00    -0.237 OA
ATOM    105  O   UNL A   1      51.072  24.597  34.351  1.00  0.00    -0.237 OA
ATOM    106  O   UNL A   1      51.896  26.896  34.680  1.00  0.00    -0.744 OA
ENDBRANCH 102 103
ENDBRANCH  70  95
ENDBRANCH  44  45
ENDBRANCH  36  39
ENDBRANCH  34  35
ENDBRANCH  33  34
ENDBRANCH   1  33
TORSDOF 18
ENDMDL
MODEL 3
REMARK VINA RESULT:     -11.9      2.702      9.200
REMARK SMILES COc1ccc(OC)c(Nc2c(-c3ccc(C(=O)NCCCNC(=O)c4ccc(-c5c6nc(c(-c7c(F)cc(S(=O)(=O)[O-])cc7F)c7ccc([nH]7)c(-c7c(F)cc(S(=O)(=O)[O-])cc7F)c7nc(c(-c8c(F)cc(S(=O)(=O)[O-])cc8F)c8ccc5[nH]8)C=C7)C=C6)cc4)cc3)nc3cnccn23)c1
REMARK SMILES IDX 20 1 19 2 17 3 18 4 16 6 13 7 14 8 93 9 15 10 92 11 12 12
REMARK SMILES IDX 11 13 100 14 94 15 95 16 99 17 96 18 98 19 97 20 10 21 9 23
REMARK SMILES IDX 3 24 4 25 101 26 5 27 6 28 2 29 1 30 7 31 8 32 21 33 22 34
REMARK SMILES IDX 23 35 24 36 25 38 26 39 27 40 91 41 28 42 90 43 29 44 30 45
REMARK SMILES IDX 31 46 84 47 32 48 89 49 83 50 85 51 33 52 88 53 82 54 81 55
REMARK SMILES IDX 34 57 68 58 47 59 67 60 48 61 51 62 66 63 86 64 49 65 50 66
REMARK SMILES IDX 65 68 87 69 52 70 35 71 36 72 45 73 37 74 38 75 44 76 46 77
REMARK SMILES IDX 39 78 40 79 41 80 42 81 43 82 69 83 70 84 79 85 71 86 72 87
REMARK SMILES IDX 78 88 80 89 73 90 74 91 75 92 76 93 77 94 53 95 54 96 63 97
REMARK SMILES IDX 55 98 56 99 62 100 64 101 57 102 58 103 59 104 60 105 61 106
REMARK H PARENT 19 5 10 22 23 37 85 56 51 67
REMARK Flexibility Score: inf
ROOT
ATOM      1  C   UNL A   1      34.821  22.365  24.772  1.00  0.00     0.118 C 
ENDROOT
BRANCH   1   2
ATOM      2  N   UNL A   1      33.758  21.413  25.031  1.00  0.00    -0.352 N 
ATOM      3  C   UNL A   1      32.392  21.534  24.982  1.00  0.00     0.251 C 
ATOM      4  O   UNL A   1      31.721  20.520  25.173  1.00  0.00    -0.269 OA
ATOM      5  H   UNL A   1      34.073  20.516  25.288  1.00  0.00     0.163 HD
BRANCH   3   6
ATOM      6  C   UNL A   1      31.696  22.815  24.670  1.00  0.00     0.039 A 
ATOM      7  C   UNL A   1      30.386  25.275  24.246  1.00  0.00     0.004 A 
ATOM      8  C   UNL A   1      30.786  24.905  25.534  1.00  0.00     0.011 A 
ATOM      9  C   UNL A   1      30.656  24.424  23.176  1.00  0.00     0.011 A 
ATOM     10  C   UNL A   1      31.431  23.681  25.744  1.00  0.00     0.014 A 
ATOM     11  C   UNL A   1      31.337  23.224  23.384  1.00  0.00     0.014 A 
BRANCH   7  12
ATOM     12  C   UNL A   1      29.751  26.542  23.963  1.00  0.00     0.114 A 
ATOM     13  C   UNL A   1      30.412  27.749  23.777  1.00  0.00     0.143 A 
ATOM     14  N   UNL A   1      29.431  28.594  23.306  1.00  0.00    -0.283 N 
ATOM     15  N   UNL A   1      28.387  26.678  23.822  1.00  0.00    -0.225 NA
ATOM     16  C   UNL A   1      28.237  27.931  23.464  1.00  0.00     0.157 A 
ATOM     17  C   UNL A   1      29.441  29.878  22.793  1.00  0.00     0.115 A 
ATOM     18  C   UNL A   1      27.020  28.652  23.227  1.00  0.00     0.158 A 
ATOM     19  C   UNL A   1      28.258  30.472  22.547  1.00  0.00     0.129 A 
ATOM     20  N   UNL A   1      27.025  29.886  22.796  1.00  0.00    -0.259 NA
BRANCH  13  21
ATOM     21  N   UNL A   1      31.725  28.062  23.838  1.00  0.00    -0.336 N 
ATOM     22  H   UNL A   1      32.156  28.157  22.958  1.00  0.00     0.168 HD
BRANCH  21  23
ATOM     23  C   UNL A   1      32.600  28.279  24.941  1.00  0.00     0.086 A 
ATOM     24  C   UNL A   1      33.106  30.012  26.663  1.00  0.00     0.121 A 
ATOM     25  C   UNL A   1      34.084  29.197  27.195  1.00  0.00     0.050 A 
ATOM     26  C   UNL A   1      32.370  29.551  25.569  1.00  0.00     0.076 A 
ATOM     27  C   UNL A   1      34.305  27.946  26.636  1.00  0.00     0.052 A 
ATOM     28  C   UNL A   1      33.597  27.460  25.510  1.00  0.00     0.142 A 
BRANCH  24  29
ATOM     29  O   UNL A   1      33.013  31.244  27.244  1.00  0.00    -0.497 OA
ATOM     30  C   UNL A   1      34.173  31.724  27.909  1.00  0.00     0.278 C 
ENDBRANCH  24  29
BRANCH  28  31
ATOM     31  O   UNL A   1      34.148  26.251  25.227  1.00  0.00    -0.495 OA
ATOM     32  C   UNL A   1      34.184  25.614  23.982  1.00  0.00     0.278 C 
ENDBRANCH  28  31
ENDBRANCH  21  23
ENDBRANCH  13  21
ENDBRANCH   7  12
ENDBRANCH   3   6
ENDBRANCH   1   2
BRANCH   1  33
ATOM     33  C   UNL A   1      35.330  22.991  26.070  1.00  0.00     0.042 C 
BRANCH  33  34
ATOM     34  C   UNL A   1      36.721  23.592  25.933  1.00  0.00     0.118 C 
BRANCH  34  35
ATOM     35  N   UNL A   1      37.759  22.584  26.101  1.00  0.00    -0.352 N 
ATOM     36  C   UNL A   1      39.097  22.746  26.367  1.00  0.00     0.251 C 
ATOM     37  H   UNL A   1      37.459  21.651  26.012  1.00  0.00     0.163 HD
ATOM     38  O   UNL A   1      39.864  21.803  26.224  1.00  0.00    -0.269 OA
BRANCH  36  39
ATOM     39  C   UNL A   1      39.600  24.061  26.818  1.00  0.00     0.039 A 
ATOM     40  C   UNL A   1      39.591  24.364  28.182  1.00  0.00     0.014 A 
ATOM     41  C   UNL A   1      40.067  24.996  25.891  1.00  0.00     0.014 A 
ATOM     42  C   UNL A   1      40.101  25.587  28.621  1.00  0.00     0.010 A 
ATOM     43  C   UNL A   1      40.648  26.177  26.336  1.00  0.00     0.010 A 
ATOM     44  C   UNL A   1      40.662  26.488  27.704  1.00  0.00    -0.014 A 
BRANCH  44  45
ATOM     45  C   UNL A   1      41.261  27.776  28.134  1.00  0.00     0.031 A 
ATOM     46  C   UNL A   1      42.757  27.921  28.173  1.00  0.00     0.074 A 
ATOM     47  C   UNL A   1      40.467  28.761  28.595  1.00  0.00     0.049 A 
ATOM     48  N   UNL A   1      43.480  28.893  28.663  1.00  0.00    -0.248 NA
ATOM     49  C   UNL A   1      43.542  26.806  27.619  1.00  0.00     0.031 C 
ATOM     50  C   UNL A   1      39.005  28.711  28.648  1.00  0.00     0.029 A 
ATOM     51  N   UNL A   1      40.780  29.980  29.140  1.00  0.00    -0.354 N 
ATOM     52  C   UNL A   1      44.802  28.492  28.511  1.00  0.00     0.074 A 
ATOM     53  C   UNL A   1      44.779  27.171  27.924  1.00  0.00     0.031 C 
ATOM     54  C   UNL A   1      38.547  29.847  29.197  1.00  0.00     0.029 A 
ATOM     55  C   UNL A   1      39.683  30.682  29.581  1.00  0.00     0.049 A 
ATOM     56  H   UNL A   1      41.701  30.321  29.208  1.00  0.00     0.167 HD
ATOM     57  C   UNL A   1      45.932  29.172  28.821  1.00  0.00     0.037 A 
ATOM     58  C   UNL A   1      39.598  31.851  30.247  1.00  0.00     0.037 A 
ATOM     59  C   UNL A   1      45.936  30.497  29.384  1.00  0.00     0.049 A 
ATOM     60  C   UNL A   1      40.861  32.597  30.578  1.00  0.00     0.074 A 
ATOM     61  C   UNL A   1      47.020  31.309  29.662  1.00  0.00     0.029 A 
ATOM     62  N   UNL A   1      44.801  31.197  29.771  1.00  0.00    -0.354 N 
ATOM     63  N   UNL A   1      42.105  32.242  30.357  1.00  0.00    -0.248 NA
ATOM     64  C   UNL A   1      40.716  33.901  31.239  1.00  0.00     0.031 C 
ATOM     65  C   UNL A   1      46.546  32.472  30.273  1.00  0.00     0.029 A 
ATOM     66  C   UNL A   1      45.161  32.418  30.313  1.00  0.00     0.049 A 
ATOM     67  H   UNL A   1      43.877  30.872  29.672  1.00  0.00     0.167 HD
ATOM     68  C   UNL A   1      42.891  33.290  30.824  1.00  0.00     0.074 A 
ATOM     69  C   UNL A   1      41.980  34.292  31.341  1.00  0.00     0.031 C 
ATOM     70  C   UNL A   1      44.241  33.412  30.815  1.00  0.00     0.037 A 
BRANCH  57  71
ATOM     71  C   UNL A   1      47.249  28.482  28.583  1.00  0.00     0.058 A 
ATOM     72  C   UNL A   1      47.943  28.598  27.367  1.00  0.00     0.135 A 
ATOM     73  C   UNL A   1      47.826  27.690  29.589  1.00  0.00     0.135 A 
ATOM     74  F   UNL A   1      47.437  29.334  26.365  1.00  0.00    -0.206 F 
ATOM     75  C   UNL A   1      49.131  27.910  27.138  1.00  0.00     0.059 A 
ATOM     76  C   UNL A   1      49.031  27.021  29.395  1.00  0.00     0.059 A 
ATOM     77  F   UNL A   1      47.210  27.546  30.773  1.00  0.00    -0.206 F 
ATOM     78  C   UNL A   1      49.662  27.118  28.157  1.00  0.00     0.060 A 
BRANCH  78  79
ATOM     79  S   UNL A   1      51.184  26.203  27.833  1.00  0.00     0.124 S 
ATOM     80  O   UNL A   1      50.666  24.862  27.576  1.00  0.00    -0.237 OA
ATOM     81  O   UNL A   1      51.728  26.903  26.674  1.00  0.00    -0.237 OA
ATOM     82  O   UNL A   1      51.945  26.355  29.069  1.00  0.00    -0.744 OA
ENDBRANCH  78  79
ENDBRANCH  57  71
BRANCH  58  83
ATOM     83  C   UNL A   1      38.260  32.372  30.631  1.00  0.00     0.058 A 
ATOM     84  C   UNL A   1      37.723  32.125  31.902  1.00  0.00     0.135 A 
ATOM     85  C   UNL A   1      37.528  33.196  29.760  1.00  0.00     0.135 A 
ATOM     86  F   UNL A   1      38.382  31.339  32.766  1.00  0.00    -0.206 F 
ATOM     87  C   UNL A   1      36.513  32.682  32.302  1.00  0.00     0.059 A 
ATOM     88  C   UNL A   1      36.327  33.784  30.145  1.00  0.00     0.059 A 
ATOM     89  F   UNL A   1      38.007  33.478  28.539  1.00  0.00    -0.206 F 
ATOM     90  C   UNL A   1      35.828  33.521  31.420  1.00  0.00     0.060 A 
BRANCH  90  91
ATOM     91  S   UNL A   1      34.308  34.317  31.987  1.00  0.00     0.124 S 
ATOM     92  O   UNL A   1      34.827  35.520  32.626  1.00  0.00    -0.237 OA
ATOM     93  O   UNL A   1      33.585  34.518  30.735  1.00  0.00    -0.237 OA
ATOM     94  O   UNL A   1      33.725  33.325  32.887  1.00  0.00    -0.744 OA
ENDBRANCH  90  91
ENDBRANCH  58  83
BRANCH  70  95
ATOM     95  C   UNL A   1      44.838  34.690  31.337  1.00  0.00     0.058 A 
ATOM     96  C   UNL A   1      44.996  35.821  30.523  1.00  0.00     0.135 A 
ATOM     97  C   UNL A   1      45.141  34.815  32.703  1.00  0.00     0.135 A 
ATOM     98  F   UNL A   1      44.731  35.752  29.209  1.00  0.00    -0.206 F 
ATOM     99  C   UNL A   1      45.429  37.035  31.048  1.00  0.00     0.059 A 
ATOM    100  C   UNL A   1      45.548  36.026  33.254  1.00  0.00     0.059 A 
ATOM    101  F   UNL A   1      45.000  33.763  33.525  1.00  0.00    -0.206 F 
ATOM    102  C   UNL A   1      45.689  37.131  32.417  1.00  0.00     0.060 A 
BRANCH 102 103
ATOM    103  S   UNL A   1      46.162  38.735  33.097  1.00  0.00     0.124 S 
ATOM    104  O   UNL A   1      47.032  38.342  34.200  1.00  0.00    -0.237 OA
ATOM    105  O   UNL A   1      46.823  39.371  31.963  1.00  0.00    -0.237 OA
ATOM    106  O   UNL A   1      44.886  39.330  33.486  1.00  0.00    -0.744 OA
ENDBRANCH 102 103
ENDBRANCH  70  95
ENDBRANCH  44  45
ENDBRANCH  36  39
ENDBRANCH  34  35
ENDBRANCH  33  34
ENDBRANCH   1  33
TORSDOF 18
ENDMDL
