MODEL 1
REMARK VINA RESULT:     -12.8      0.000      0.000
REMARK SMILES Nc1ccc2[nH]cc(C(=O)NCCCNC(=O)c3ccc(-c4c5nc(c(-c6c(F)cc(S(=O)(=O)[O-])cc6F)c6ccc([nH]6)c(-c6c(F)cc(S(=O)(=O)[O-])cc6F)c6nc(c(-c7c(F)cc(S(=O)(=O)[O-])cc7F)c7ccc4[nH]7)C=C6)C=C5)cc3)c2c1
REMARK SMILES IDX 14 1 13 2 12 3 11 4 9 5 10 6 8 8 2 9 3 10 85 11 4 12 84 13
REMARK SMILES IDX 5 14 6 15 7 16 1 18 15 21 16 22 17 24 18 25 19 26 83 27
REMARK SMILES IDX 20 28 82 29 21 30 22 31 23 32 76 33 24 34 81 35 75 36 77 37
REMARK SMILES IDX 25 38 80 39 74 40 73 41 26 43 60 44 39 45 59 46 40 47 43 48
REMARK SMILES IDX 58 49 78 50 41 51 42 52 57 54 79 55 44 56 27 57 28 58 37 59
REMARK SMILES IDX 29 60 30 61 36 62 38 63 31 64 32 65 33 66 34 67 35 68 61 69
REMARK SMILES IDX 62 70 71 71 63 72 64 73 70 74 72 75 65 76 66 77 67 78 68 79
REMARK SMILES IDX 69 80 45 81 46 82 55 83 47 84 48 85 54 86 56 87 49 88 50 89
REMARK SMILES IDX 51 90 52 91 53 92
REMARK H PARENT 11 7 6 17 1 19 1 20 15 23 77 42 43 53
REMARK Flexibility Score: inf
ROOT
ATOM      1  C   UNL A   1      37.759  22.403  25.744  1.00  0.00     0.118 C 
ENDROOT
BRANCH   1   2
ATOM      2  C   UNL A   1      36.944  21.727  24.636  1.00  0.00     0.042 C 
BRANCH   2   3
ATOM      3  C   UNL A   1      36.216  22.727  23.730  1.00  0.00     0.118 C 
BRANCH   3   4
ATOM      4  N   UNL A   1      35.011  23.236  24.330  1.00  0.00    -0.352 N 
ATOM      5  C   UNL A   1      33.750  22.739  24.493  1.00  0.00     0.253 C 
ATOM      6  O   UNL A   1      33.059  23.422  25.263  1.00  0.00    -0.269 OA
ATOM      7  H   UNL A   1      35.120  24.140  24.704  1.00  0.00     0.163 HD
BRANCH   5   8
ATOM      8  C   UNL A   1      33.172  21.544  23.852  1.00  0.00     0.065 A 
ATOM      9  C   UNL A   1      33.937  17.748  24.411  1.00  0.00     0.032 A 
ATOM     10  C   UNL A   1      33.087  17.296  23.414  1.00  0.00     0.027 A 
ATOM     11  C   UNL A   1      34.035  19.130  24.656  1.00  0.00     0.036 A 
ATOM     12  C   UNL A   1      32.350  18.188  22.641  1.00  0.00     0.029 A 
ATOM     13  C   UNL A   1      33.307  20.093  23.909  1.00  0.00     0.014 A 
ATOM     14  C   UNL A   1      32.469  19.558  22.916  1.00  0.00     0.046 A 
ATOM     15  N   UNL A   1      31.827  20.597  22.302  1.00  0.00    -0.360 N 
ATOM     16  C   UNL A   1      32.223  21.771  22.853  1.00  0.00     0.097 A 
ATOM     17  H   UNL A   1      31.176  20.506  21.569  1.00  0.00     0.166 HD
BRANCH   9  18
ATOM     18  N   UNL A   1      34.576  16.835  25.237  1.00  0.00    -0.399 N 
ATOM     19  H   UNL A   1      34.467  15.869  25.083  1.00  0.00     0.156 HD
ATOM     20  H   UNL A   1      35.140  17.154  25.980  1.00  0.00     0.156 HD
ENDBRANCH   9  18
ENDBRANCH   5   8
ENDBRANCH   3   4
ENDBRANCH   2   3
ENDBRANCH   1   2
BRANCH   1  21
ATOM     21  N   UNL A   1      39.142  21.961  25.782  1.00  0.00    -0.352 N 
ATOM     22  C   UNL A   1      40.326  22.463  26.244  1.00  0.00     0.251 C 
ATOM     23  H   UNL A   1      39.255  21.073  25.370  1.00  0.00     0.163 HD
ATOM     24  O   UNL A   1      41.314  21.750  26.041  1.00  0.00    -0.269 OA
BRANCH  22  25
ATOM     25  C   UNL A   1      40.517  23.769  26.937  1.00  0.00     0.039 A 
ATOM     26  C   UNL A   1      41.520  24.071  27.857  1.00  0.00     0.014 A 
ATOM     27  C   UNL A   1      39.575  24.771  26.626  1.00  0.00     0.014 A 
ATOM     28  C   UNL A   1      41.550  25.320  28.481  1.00  0.00     0.010 A 
ATOM     29  C   UNL A   1      39.609  26.023  27.236  1.00  0.00     0.010 A 
ATOM     30  C   UNL A   1      40.583  26.290  28.191  1.00  0.00    -0.014 A 
BRANCH  30  31
ATOM     31  C   UNL A   1      40.694  27.592  28.853  1.00  0.00     0.031 A 
ATOM     32  C   UNL A   1      41.793  28.472  28.358  1.00  0.00     0.074 A 
ATOM     33  C   UNL A   1      39.831  28.061  29.778  1.00  0.00     0.049 A 
ATOM     34  N   UNL A   1      42.850  28.870  28.988  1.00  0.00    -0.248 NA
ATOM     35  C   UNL A   1      41.748  28.888  26.947  1.00  0.00     0.031 C 
ATOM     36  C   UNL A   1      38.538  27.494  30.174  1.00  0.00     0.029 A 
ATOM     37  N   UNL A   1      39.901  29.212  30.510  1.00  0.00    -0.354 N 
ATOM     38  C   UNL A   1      43.512  29.740  28.123  1.00  0.00     0.074 A 
ATOM     39  C   UNL A   1      42.864  29.609  26.843  1.00  0.00     0.031 C 
ATOM     40  C   UNL A   1      37.861  28.401  30.914  1.00  0.00     0.029 A 
ATOM     41  C   UNL A   1      38.723  29.542  31.170  1.00  0.00     0.049 A 
ATOM     42  H   UNL A   1      40.716  29.761  30.566  1.00  0.00     0.167 HD
ATOM     43  C   UNL A   1      44.420  30.654  28.567  1.00  0.00     0.037 A 
ATOM     44  C   UNL A   1      38.464  30.689  31.843  1.00  0.00     0.037 A 
ATOM     45  C   UNL A   1      44.852  30.368  29.908  1.00  0.00     0.049 A 
ATOM     46  C   UNL A   1      39.765  31.280  32.238  1.00  0.00     0.074 A 
ATOM     47  C   UNL A   1      45.587  29.376  30.524  1.00  0.00     0.029 A 
ATOM     48  N   UNL A   1      44.229  31.070  30.906  1.00  0.00    -0.354 N 
ATOM     49  N   UNL A   1      40.583  30.745  33.101  1.00  0.00    -0.248 NA
ATOM     50  C   UNL A   1      40.325  32.359  31.436  1.00  0.00     0.031 C 
ATOM     51  C   UNL A   1      45.074  29.290  31.851  1.00  0.00     0.029 A 
ATOM     52  C   UNL A   1      44.064  30.244  31.988  1.00  0.00     0.049 A 
ATOM     53  H   UNL A   1      43.944  32.011  30.855  1.00  0.00     0.167 HD
ATOM     54  C   UNL A   1      41.843  31.124  32.673  1.00  0.00     0.074 A 
ATOM     55  C   UNL A   1      41.614  32.235  31.758  1.00  0.00     0.031 C 
ATOM     56  C   UNL A   1      42.925  30.320  32.880  1.00  0.00     0.037 A 
BRANCH  43  57
ATOM     57  C   UNL A   1      44.653  32.012  27.942  1.00  0.00     0.058 A 
ATOM     58  C   UNL A   1      45.869  32.278  27.275  1.00  0.00     0.135 A 
ATOM     59  C   UNL A   1      43.860  33.144  28.231  1.00  0.00     0.135 A 
ATOM     60  F   UNL A   1      46.709  31.279  26.962  1.00  0.00    -0.206 F 
ATOM     61  C   UNL A   1      46.293  33.576  26.978  1.00  0.00     0.059 A 
ATOM     62  C   UNL A   1      44.239  34.441  27.898  1.00  0.00     0.059 A 
ATOM     63  F   UNL A   1      42.729  33.054  28.942  1.00  0.00    -0.206 F 
ATOM     64  C   UNL A   1      45.477  34.652  27.311  1.00  0.00     0.060 A 
BRANCH  64  65
ATOM     65  S   UNL A   1      46.070  36.332  27.036  1.00  0.00     0.124 S 
ATOM     66  O   UNL A   1      44.817  37.066  26.909  1.00  0.00    -0.237 OA
ATOM     67  O   UNL A   1      46.841  36.585  28.248  1.00  0.00    -0.237 OA
ATOM     68  O   UNL A   1      46.859  36.212  25.812  1.00  0.00    -0.744 OA
ENDBRANCH  64  65
ENDBRANCH  43  57
BRANCH  44  69
ATOM     69  C   UNL A   1      37.197  31.464  31.908  1.00  0.00     0.058 A 
ATOM     70  C   UNL A   1      36.697  31.923  33.141  1.00  0.00     0.135 A 
ATOM     71  C   UNL A   1      36.631  32.042  30.754  1.00  0.00     0.135 A 
ATOM     72  F   UNL A   1      37.180  31.429  34.292  1.00  0.00    -0.206 F 
ATOM     73  C   UNL A   1      35.760  32.957  33.228  1.00  0.00     0.059 A 
ATOM     74  C   UNL A   1      35.686  33.065  30.817  1.00  0.00     0.059 A 
ATOM     75  F   UNL A   1      37.055  31.702  29.528  1.00  0.00    -0.206 F 
ATOM     76  C   UNL A   1      35.286  33.545  32.058  1.00  0.00     0.060 A 
BRANCH  76  77
ATOM     77  S   UNL A   1      34.254  35.026  32.170  1.00  0.00     0.124 S 
ATOM     78  O   UNL A   1      34.097  35.392  30.767  1.00  0.00    -0.237 OA
ATOM     79  O   UNL A   1      33.060  34.515  32.835  1.00  0.00    -0.237 OA
ATOM     80  O   UNL A   1      35.065  35.942  32.968  1.00  0.00    -0.744 OA
ENDBRANCH  76  77
ENDBRANCH  44  69
BRANCH  56  81
ATOM     81  C   UNL A   1      42.830  29.283  33.964  1.00  0.00     0.058 A 
ATOM     82  C   UNL A   1      43.096  29.522  35.323  1.00  0.00     0.135 A 
ATOM     83  C   UNL A   1      42.327  28.018  33.619  1.00  0.00     0.135 A 
ATOM     84  F   UNL A   1      43.491  30.731  35.748  1.00  0.00    -0.206 F 
ATOM     85  C   UNL A   1      42.902  28.534  36.290  1.00  0.00     0.059 A 
ATOM     86  C   UNL A   1      42.094  27.031  34.572  1.00  0.00     0.059 A 
ATOM     87  F   UNL A   1      42.005  27.748  32.344  1.00  0.00    -0.206 F 
ATOM     88  C   UNL A   1      42.392  27.294  35.907  1.00  0.00     0.060 A 
BRANCH  88  89
ATOM     89  S   UNL A   1      42.035  26.062  37.177  1.00  0.00     0.124 S 
ATOM     90  O   UNL A   1      42.327  24.809  36.480  1.00  0.00    -0.237 OA
ATOM     91  O   UNL A   1      42.976  26.423  38.239  1.00  0.00    -0.237 OA
ATOM     92  O   UNL A   1      40.634  26.289  37.494  1.00  0.00    -0.744 OA
ENDBRANCH  88  89
ENDBRANCH  56  81
ENDBRANCH  30  31
ENDBRANCH  22  25
ENDBRANCH   1  21
TORSDOF 14
ENDMDL
MODEL 2
REMARK VINA RESULT:     -12.7      3.543      6.116
REMARK SMILES Nc1ccc2[nH]cc(C(=O)NCCCNC(=O)c3ccc(-c4c5nc(c(-c6c(F)cc(S(=O)(=O)[O-])cc6F)c6ccc([nH]6)c(-c6c(F)cc(S(=O)(=O)[O-])cc6F)c6nc(c(-c7c(F)cc(S(=O)(=O)[O-])cc7F)c7ccc4[nH]7)C=C6)C=C5)cc3)c2c1
REMARK SMILES IDX 14 1 13 2 12 3 11 4 9 5 10 6 8 8 2 9 3 10 85 11 4 12 84 13
REMARK SMILES IDX 5 14 6 15 7 16 1 18 15 21 16 22 17 24 18 25 19 26 83 27
REMARK SMILES IDX 20 28 82 29 21 30 22 31 23 32 76 33 24 34 81 35 75 36 77 37
REMARK SMILES IDX 25 38 80 39 74 40 73 41 26 43 60 44 39 45 59 46 40 47 43 48
REMARK SMILES IDX 58 49 78 50 41 51 42 52 57 54 79 55 44 56 27 57 28 58 37 59
REMARK SMILES IDX 29 60 30 61 36 62 38 63 31 64 32 65 33 66 34 67 35 68 61 69
REMARK SMILES IDX 62 70 71 71 63 72 64 73 70 74 72 75 65 76 66 77 67 78 68 79
REMARK SMILES IDX 69 80 45 81 46 82 55 83 47 84 48 85 54 86 56 87 49 88 50 89
REMARK SMILES IDX 51 90 52 91 53 92
REMARK H PARENT 11 7 6 17 1 19 1 20 15 23 77 42 43 53
REMARK Flexibility Score: inf
ROOT
ATOM      1  C   UNL A   1      43.107  22.530  24.970  1.00  0.00     0.118 C 
ENDROOT
BRANCH   1   2
ATOM      2  C   UNL A   1      44.213  21.726  25.664  1.00  0.00     0.042 C 
BRANCH   2   3
ATOM      3  C   UNL A   1      45.206  22.606  26.431  1.00  0.00     0.118 C 
BRANCH   3   4
ATOM      4  N   UNL A   1      44.952  22.616  27.847  1.00  0.00    -0.352 N 
ATOM      5  C   UNL A   1      45.001  23.580  28.812  1.00  0.00     0.253 C 
ATOM      6  O   UNL A   1      44.496  23.214  29.884  1.00  0.00    -0.269 OA
ATOM      7  H   UNL A   1      44.687  21.734  28.196  1.00  0.00     0.163 HD
BRANCH   5   8
ATOM      8  C   UNL A   1      45.587  24.927  28.700  1.00  0.00     0.065 A 
ATOM      9  C   UNL A   1      45.490  27.496  25.749  1.00  0.00     0.032 A 
ATOM     10  C   UNL A   1      46.309  28.430  26.363  1.00  0.00     0.027 A 
ATOM     11  C   UNL A   1      45.170  26.308  26.432  1.00  0.00     0.036 A 
ATOM     12  C   UNL A   1      46.836  28.199  27.630  1.00  0.00     0.029 A 
ATOM     13  C   UNL A   1      45.669  26.012  27.729  1.00  0.00     0.014 A 
ATOM     14  C   UNL A   1      46.493  27.006  28.283  1.00  0.00     0.046 A 
ATOM     15  N   UNL A   1      46.875  26.591  29.528  1.00  0.00    -0.360 N 
ATOM     16  C   UNL A   1      46.338  25.373  29.790  1.00  0.00     0.097 A 
ATOM     17  H   UNL A   1      47.454  27.098  30.141  1.00  0.00     0.166 HD
BRANCH   9  18
ATOM     18  N   UNL A   1      44.891  27.797  24.534  1.00  0.00    -0.399 N 
ATOM     19  H   UNL A   1      45.212  28.560  24.003  1.00  0.00     0.156 HD
ATOM     20  H   UNL A   1      44.143  27.246  24.204  1.00  0.00     0.156 HD
ENDBRANCH   9  18
ENDBRANCH   5   8
ENDBRANCH   3   4
ENDBRANCH   2   3
ENDBRANCH   1   2
BRANCH   1  21
ATOM     21  N   UNL A   1      41.775  22.172  25.424  1.00  0.00    -0.352 N 
ATOM     22  C   UNL A   1      40.832  22.724  26.246  1.00  0.00     0.251 C 
ATOM     23  H   UNL A   1      41.474  21.316  25.043  1.00  0.00     0.163 HD
ATOM     24  O   UNL A   1      39.806  22.052  26.391  1.00  0.00    -0.269 OA
BRANCH  22  25
ATOM     25  C   UNL A   1      40.948  24.021  26.971  1.00  0.00     0.039 A 
ATOM     26  C   UNL A   1      41.730  24.263  28.100  1.00  0.00     0.014 A 
ATOM     27  C   UNL A   1      40.174  25.082  26.457  1.00  0.00     0.014 A 
ATOM     28  C   UNL A   1      41.702  25.513  28.722  1.00  0.00     0.010 A 
ATOM     29  C   UNL A   1      40.153  26.334  27.067  1.00  0.00     0.010 A 
ATOM     30  C   UNL A   1      40.897  26.544  28.222  1.00  0.00    -0.014 A 
BRANCH  30  31
ATOM     31  C   UNL A   1      40.941  27.842  28.899  1.00  0.00     0.031 A 
ATOM     32  C   UNL A   1      42.025  28.764  28.448  1.00  0.00     0.074 A 
ATOM     33  C   UNL A   1      40.033  28.271  29.800  1.00  0.00     0.049 A 
ATOM     34  N   UNL A   1      43.047  29.191  29.116  1.00  0.00    -0.248 NA
ATOM     35  C   UNL A   1      42.011  29.192  27.041  1.00  0.00     0.031 C 
ATOM     36  C   UNL A   1      38.749  27.657  30.149  1.00  0.00     0.029 A 
ATOM     37  N   UNL A   1      40.040  29.416  30.545  1.00  0.00    -0.354 N 
ATOM     38  C   UNL A   1      43.706  30.092  28.281  1.00  0.00     0.074 A 
ATOM     39  C   UNL A   1      43.105  29.952  26.980  1.00  0.00     0.031 C 
ATOM     40  C   UNL A   1      38.017  28.532  30.875  1.00  0.00     0.029 A 
ATOM     41  C   UNL A   1      38.832  29.699  31.169  1.00  0.00     0.049 A 
ATOM     42  H   UNL A   1      40.834  29.992  30.632  1.00  0.00     0.167 HD
ATOM     43  C   UNL A   1      44.568  31.031  28.762  1.00  0.00     0.037 A 
ATOM     44  C   UNL A   1      38.512  30.830  31.844  1.00  0.00     0.037 A 
ATOM     45  C   UNL A   1      44.966  30.746  30.114  1.00  0.00     0.049 A 
ATOM     46  C   UNL A   1      39.778  31.461  32.286  1.00  0.00     0.074 A 
ATOM     47  C   UNL A   1      45.714  29.773  30.744  1.00  0.00     0.029 A 
ATOM     48  N   UNL A   1      44.287  31.416  31.098  1.00  0.00    -0.354 N 
ATOM     49  N   UNL A   1      40.587  30.945  33.170  1.00  0.00    -0.248 NA
ATOM     50  C   UNL A   1      40.326  32.566  31.513  1.00  0.00     0.031 C 
ATOM     51  C   UNL A   1      45.162  29.656  32.053  1.00  0.00     0.029 A 
ATOM     52  C   UNL A   1      44.117  30.574  32.166  1.00  0.00     0.049 A 
ATOM     53  H   UNL A   1      43.972  32.348  31.046  1.00  0.00     0.167 HD
ATOM     54  C   UNL A   1      41.846  31.371  32.787  1.00  0.00     0.074 A 
ATOM     55  C   UNL A   1      41.608  32.482  31.876  1.00  0.00     0.031 C 
ATOM     56  C   UNL A   1      42.948  30.602  33.021  1.00  0.00     0.037 A 
BRANCH  43  57
ATOM     57  C   UNL A   1      44.774  32.403  28.158  1.00  0.00     0.058 A 
ATOM     58  C   UNL A   1      46.031  32.748  27.615  1.00  0.00     0.135 A 
ATOM     59  C   UNL A   1      43.884  33.480  28.362  1.00  0.00     0.135 A 
ATOM     60  F   UNL A   1      46.961  31.806  27.392  1.00  0.00    -0.206 F 
ATOM     61  C   UNL A   1      46.398  34.072  27.357  1.00  0.00     0.059 A 
ATOM     62  C   UNL A   1      44.210  34.800  28.062  1.00  0.00     0.059 A 
ATOM     63  F   UNL A   1      42.696  33.315  28.956  1.00  0.00    -0.206 F 
ATOM     64  C   UNL A   1      45.484  35.092  27.601  1.00  0.00     0.060 A 
BRANCH  64  65
ATOM     65  S   UNL A   1      45.993  36.807  27.379  1.00  0.00     0.124 S 
ATOM     66  O   UNL A   1      46.782  36.721  26.156  1.00  0.00    -0.237 OA
ATOM     67  O   UNL A   1      44.710  37.493  27.267  1.00  0.00    -0.237 OA
ATOM     68  O   UNL A   1      46.744  37.094  28.598  1.00  0.00    -0.744 OA
ENDBRANCH  64  65
ENDBRANCH  43  57
BRANCH  44  69
ATOM     69  C   UNL A   1      37.217  31.561  31.875  1.00  0.00     0.058 A 
ATOM     70  C   UNL A   1      36.653  31.971  33.097  1.00  0.00     0.135 A 
ATOM     71  C   UNL A   1      36.680  32.149  30.713  1.00  0.00     0.135 A 
ATOM     72  F   UNL A   1      37.105  31.463  34.255  1.00  0.00    -0.206 F 
ATOM     73  C   UNL A   1      35.678  32.970  33.171  1.00  0.00     0.059 A 
ATOM     74  C   UNL A   1      35.698  33.138  30.761  1.00  0.00     0.059 A 
ATOM     75  F   UNL A   1      37.165  31.855  29.498  1.00  0.00    -0.206 F 
ATOM     76  C   UNL A   1      35.232  33.572  31.996  1.00  0.00     0.060 A 
BRANCH  76  77
ATOM     77  S   UNL A   1      34.147  35.015  32.102  1.00  0.00     0.124 S 
ATOM     78  O   UNL A   1      34.948  35.938  32.899  1.00  0.00    -0.237 OA
ATOM     79  O   UNL A   1      33.974  35.370  30.697  1.00  0.00    -0.237 OA
ATOM     80  O   UNL A   1      32.953  34.493  32.762  1.00  0.00    -0.744 OA
ENDBRANCH  76  77
ENDBRANCH  44  69
BRANCH  56  81
ATOM     81  C   UNL A   1      42.853  29.551  34.093  1.00  0.00     0.058 A 
ATOM     82  C   UNL A   1      43.028  29.792  35.465  1.00  0.00     0.135 A 
ATOM     83  C   UNL A   1      42.447  28.261  33.712  1.00  0.00     0.135 A 
ATOM     84  F   UNL A   1      43.325  31.018  35.920  1.00  0.00    -0.206 F 
ATOM     85  C   UNL A   1      42.839  28.786  36.414  1.00  0.00     0.059 A 
ATOM     86  C   UNL A   1      42.220  27.253  34.644  1.00  0.00     0.059 A 
ATOM     87  F   UNL A   1      42.214  27.985  32.418  1.00  0.00    -0.206 F 
ATOM     88  C   UNL A   1      42.426  27.522  35.995  1.00  0.00     0.060 A 
BRANCH  88  89
ATOM     89  S   UNL A   1      42.072  26.258  37.235  1.00  0.00     0.124 S 
ATOM     90  O   UNL A   1      43.094  26.526  38.247  1.00  0.00    -0.237 OA
ATOM     91  O   UNL A   1      40.699  26.582  37.630  1.00  0.00    -0.237 OA
ATOM     92  O   UNL A   1      42.223  25.008  36.508  1.00  0.00    -0.744 OA
ENDBRANCH  88  89
ENDBRANCH  56  81
ENDBRANCH  30  31
ENDBRANCH  22  25
ENDBRANCH   1  21
TORSDOF 14
ENDMDL
MODEL 3
REMARK VINA RESULT:     -12.7      4.136     10.203
REMARK SMILES Nc1ccc2[nH]cc(C(=O)NCCCNC(=O)c3ccc(-c4c5nc(c(-c6c(F)cc(S(=O)(=O)[O-])cc6F)c6ccc([nH]6)c(-c6c(F)cc(S(=O)(=O)[O-])cc6F)c6nc(c(-c7c(F)cc(S(=O)(=O)[O-])cc7F)c7ccc4[nH]7)C=C6)C=C5)cc3)c2c1
REMARK SMILES IDX 14 1 13 2 12 3 11 4 9 5 10 6 8 8 2 9 3 10 85 11 4 12 84 13
REMARK SMILES IDX 5 14 6 15 7 16 1 18 15 21 16 22 17 24 18 25 19 26 83 27
REMARK SMILES IDX 20 28 82 29 21 30 22 31 23 32 76 33 24 34 81 35 75 36 77 37
REMARK SMILES IDX 25 38 80 39 74 40 73 41 26 43 60 44 39 45 59 46 40 47 43 48
REMARK SMILES IDX 58 49 78 50 41 51 42 52 57 54 79 55 44 56 27 57 28 58 37 59
REMARK SMILES IDX 29 60 30 61 36 62 38 63 31 64 32 65 33 66 34 67 35 68 61 69
REMARK SMILES IDX 62 70 71 71 63 72 64 73 70 74 72 75 65 76 66 77 67 78 68 79
REMARK SMILES IDX 69 80 45 81 46 82 55 83 47 84 48 85 54 86 56 87 49 88 50 89
REMARK SMILES IDX 51 90 52 91 53 92
REMARK H PARENT 11 7 6 17 1 19 1 20 15 23 77 42 43 53
REMARK Flexibility Score: inf
ROOT
ATOM      1  C   UNL A   1      33.397  30.392  26.693  1.00  0.00     0.118 C 
ENDROOT
BRANCH   1   2
ATOM      2  C   UNL A   1      31.969  29.845  26.812  1.00  0.00     0.042 C 
BRANCH   2   3
ATOM      3  C   UNL A   1      31.918  28.409  27.346  1.00  0.00     0.118 C 
BRANCH   3   4
ATOM      4  N   UNL A   1      32.483  27.460  26.424  1.00  0.00    -0.352 N 
ATOM      5  C   UNL A   1      32.095  26.973  25.209  1.00  0.00     0.253 C 
ATOM      6  O   UNL A   1      32.986  26.320  24.645  1.00  0.00    -0.269 OA
ATOM      7  H   UNL A   1      33.333  27.078  26.739  1.00  0.00     0.163 HD
BRANCH   5   8
ATOM      8  C   UNL A   1      30.780  27.131  24.562  1.00  0.00     0.065 A 
ATOM      9  C   UNL A   1      29.271  30.157  22.593  1.00  0.00     0.032 A 
ATOM     10  C   UNL A   1      28.027  29.578  22.399  1.00  0.00     0.027 A 
ATOM     11  C   UNL A   1      30.265  29.436  23.281  1.00  0.00     0.036 A 
ATOM     12  C   UNL A   1      27.742  28.309  22.892  1.00  0.00     0.029 A 
ATOM     13  C   UNL A   1      30.042  28.135  23.805  1.00  0.00     0.014 A 
ATOM     14  C   UNL A   1      28.757  27.617  23.569  1.00  0.00     0.046 A 
ATOM     15  N   UNL A   1      28.703  26.363  24.110  1.00  0.00    -0.360 N 
ATOM     16  C   UNL A   1      29.892  26.060  24.687  1.00  0.00     0.097 A 
ATOM     17  H   UNL A   1      27.917  25.770  24.085  1.00  0.00     0.166 HD
BRANCH   9  18
ATOM     18  N   UNL A   1      29.565  31.376  21.999  1.00  0.00    -0.399 N 
ATOM     19  H   UNL A   1      29.838  31.411  21.055  1.00  0.00     0.156 HD
ATOM     20  H   UNL A   1      29.501  32.208  22.525  1.00  0.00     0.156 HD
ENDBRANCH   9  18
ENDBRANCH   5   8
ENDBRANCH   3   4
ENDBRANCH   2   3
ENDBRANCH   1   2
BRANCH   1  21
ATOM     21  N   UNL A   1      33.688  31.434  27.661  1.00  0.00    -0.352 N 
ATOM     22  C   UNL A   1      34.728  31.746  28.492  1.00  0.00     0.251 C 
ATOM     23  H   UNL A   1      32.950  32.081  27.738  1.00  0.00     0.163 HD
ATOM     24  O   UNL A   1      34.552  32.740  29.203  1.00  0.00    -0.269 OA
BRANCH  22  25
ATOM     25  C   UNL A   1      36.009  30.994  28.618  1.00  0.00     0.039 A 
ATOM     26  C   UNL A   1      36.164  29.612  28.507  1.00  0.00     0.014 A 
ATOM     27  C   UNL A   1      37.153  31.773  28.888  1.00  0.00     0.014 A 
ATOM     28  C   UNL A   1      37.415  29.026  28.707  1.00  0.00     0.010 A 
ATOM     29  C   UNL A   1      38.406  31.193  29.075  1.00  0.00     0.010 A 
ATOM     30  C   UNL A   1      38.534  29.810  29.014  1.00  0.00    -0.014 A 
BRANCH  30  31
ATOM     31  C   UNL A   1      39.824  29.136  29.176  1.00  0.00     0.031 A 
ATOM     32  C   UNL A   1      40.278  28.949  30.585  1.00  0.00     0.074 A 
ATOM     33  C   UNL A   1      40.547  28.607  28.167  1.00  0.00     0.049 A 
ATOM     34  N   UNL A   1      41.298  29.481  31.178  1.00  0.00    -0.248 NA
ATOM     35  C   UNL A   1      39.433  28.133  31.469  1.00  0.00     0.031 C 
ATOM     36  C   UNL A   1      40.142  28.416  26.771  1.00  0.00     0.029 A 
ATOM     37  N   UNL A   1      41.792  28.046  28.207  1.00  0.00    -0.354 N 
ATOM     38  C   UNL A   1      41.337  28.923  32.455  1.00  0.00     0.074 A 
ATOM     39  C   UNL A   1      40.098  28.208  32.622  1.00  0.00     0.031 C 
ATOM     40  C   UNL A   1      41.033  27.606  26.155  1.00  0.00     0.029 A 
ATOM     41  C   UNL A   1      42.141  27.346  27.059  1.00  0.00     0.049 A 
ATOM     42  H   UNL A   1      42.391  28.129  28.985  1.00  0.00     0.167 HD
ATOM     43  C   UNL A   1      42.469  28.923  33.213  1.00  0.00     0.037 A 
ATOM     44  C   UNL A   1      43.242  26.577  26.880  1.00  0.00     0.037 A 
ATOM     45  C   UNL A   1      43.450  29.844  32.706  1.00  0.00     0.049 A 
ATOM     46  C   UNL A   1      44.265  27.026  27.854  1.00  0.00     0.074 A 
ATOM     47  C   UNL A   1      43.558  31.214  32.589  1.00  0.00     0.029 A 
ATOM     48  N   UNL A   1      44.434  29.305  31.919  1.00  0.00    -0.354 N 
ATOM     49  N   UNL A   1      44.851  28.191  27.820  1.00  0.00    -0.248 NA
ATOM     50  C   UNL A   1      44.444  26.276  29.089  1.00  0.00     0.031 C 
ATOM     51  C   UNL A   1      44.368  31.436  31.437  1.00  0.00     0.029 A 
ATOM     52  C   UNL A   1      44.730  30.193  30.917  1.00  0.00     0.049 A 
ATOM     53  H   UNL A   1      44.858  28.426  32.050  1.00  0.00     0.167 HD
ATOM     54  C   UNL A   1      45.113  28.491  29.145  1.00  0.00     0.074 A 
ATOM     55  C   UNL A   1      44.994  27.223  29.851  1.00  0.00     0.031 C 
ATOM     56  C   UNL A   1      45.120  29.783  29.583  1.00  0.00     0.037 A 
BRANCH  43  57
ATOM     57  C   UNL A   1      42.849  27.837  34.196  1.00  0.00     0.058 A 
ATOM     58  C   UNL A   1      42.917  28.133  35.575  1.00  0.00     0.135 A 
ATOM     59  C   UNL A   1      43.433  26.611  33.808  1.00  0.00     0.135 A 
ATOM     60  F   UNL A   1      42.406  29.278  36.054  1.00  0.00    -0.206 F 
ATOM     61  C   UNL A   1      43.574  27.303  36.488  1.00  0.00     0.059 A 
ATOM     62  C   UNL A   1      44.047  25.746  34.709  1.00  0.00     0.059 A 
ATOM     63  F   UNL A   1      43.527  26.246  32.524  1.00  0.00    -0.206 F 
ATOM     64  C   UNL A   1      44.152  26.120  36.040  1.00  0.00     0.060 A 
BRANCH  64  65
ATOM     65  S   UNL A   1      45.100  25.106  37.190  1.00  0.00     0.124 S 
ATOM     66  O   UNL A   1      44.481  25.456  38.464  1.00  0.00    -0.237 OA
ATOM     67  O   UNL A   1      44.834  23.759  36.699  1.00  0.00    -0.237 OA
ATOM     68  O   UNL A   1      46.469  25.577  37.001  1.00  0.00    -0.744 OA
ENDBRANCH  64  65
ENDBRANCH  43  57
BRANCH  44  69
ATOM     69  C   UNL A   1      43.371  25.293  26.141  1.00  0.00     0.058 A 
ATOM     70  C   UNL A   1      44.443  25.077  25.256  1.00  0.00     0.135 A 
ATOM     71  C   UNL A   1      42.643  24.150  26.526  1.00  0.00     0.135 A 
ATOM     72  F   UNL A   1      45.193  26.109  24.838  1.00  0.00    -0.206 F 
ATOM     73  C   UNL A   1      44.829  23.796  24.850  1.00  0.00     0.059 A 
ATOM     74  C   UNL A   1      43.001  22.864  26.123  1.00  0.00     0.059 A 
ATOM     75  F   UNL A   1      41.622  24.236  27.391  1.00  0.00    -0.206 F 
ATOM     76  C   UNL A   1      44.120  22.692  25.318  1.00  0.00     0.060 A 
BRANCH  76  77
ATOM     77  S   UNL A   1      44.751  21.031  24.981  1.00  0.00     0.124 S 
ATOM     78  O   UNL A   1      46.113  21.116  25.497  1.00  0.00    -0.237 OA
ATOM     79  O   UNL A   1      43.829  20.195  25.744  1.00  0.00    -0.237 OA
ATOM     80  O   UNL A   1      44.638  20.914  23.530  1.00  0.00    -0.744 OA
ENDBRANCH  76  77
ENDBRANCH  44  69
BRANCH  56  81
ATOM     81  C   UNL A   1      45.316  30.868  28.560  1.00  0.00     0.058 A 
ATOM     82  C   UNL A   1      44.281  31.468  27.824  1.00  0.00     0.135 A 
ATOM     83  C   UNL A   1      46.606  31.403  28.410  1.00  0.00     0.135 A 
ATOM     84  F   UNL A   1      43.007  31.077  27.978  1.00  0.00    -0.206 F 
ATOM     85  C   UNL A   1      44.524  32.532  26.954  1.00  0.00     0.059 A 
ATOM     86  C   UNL A   1      46.864  32.486  27.574  1.00  0.00     0.059 A 
ATOM     87  F   UNL A   1      47.627  30.905  29.126  1.00  0.00    -0.206 F 
ATOM     88  C   UNL A   1      45.817  33.040  26.842  1.00  0.00     0.060 A 
BRANCH  88  89
ATOM     89  S   UNL A   1      46.105  34.489  25.804  1.00  0.00     0.124 S 
ATOM     90  O   UNL A   1      45.752  35.587  26.704  1.00  0.00    -0.237 OA
ATOM     91  O   UNL A   1      47.529  34.370  25.486  1.00  0.00    -0.237 OA
ATOM     92  O   UNL A   1      45.206  34.291  24.678  1.00  0.00    -0.744 OA
ENDBRANCH  88  89
ENDBRANCH  56  81
ENDBRANCH  30  31
ENDBRANCH  22  25
ENDBRANCH   1  21
TORSDOF 14
ENDMDL
