MODEL 1
REMARK VINA RESULT:     -12.5      0.000      0.000
REMARK SMILES CC(C)CCc1cc2c(cc1Cl)C=C(C(=O)NCCCNC(=O)c1ccc(-c3c4nc(c(-c5c(F)cc(S(=O)(=O)[O-])cc5F)c5ccc([nH]5)c(-c5c(F)cc(S(=O)(=O)[O-])cc5F)c5nc(c(-c6c(F)cc(S(=O)(=O)[O-])cc6F)c6ccc3[nH]6)C=C5)C=C4)cc1)[C@@H](C(F)(F)F)O2
REMARK SMILES IDX 19 1 18 2 17 3 15 4 16 5 14 7 6 8 7 9 11 10 8 11 10 12 12 13
REMARK SMILES IDX 9 14 95 15 13 16 90 17 5 18 4 19 2 20 1 21 3 22 91 23 92 24
REMARK SMILES IDX 93 25 94 26 20 27 21 28 22 29 23 31 24 32 25 33 89 34 26 35
REMARK SMILES IDX 88 36 27 37 28 38 29 39 82 40 30 41 87 42 81 43 83 44 31 45
REMARK SMILES IDX 86 46 80 47 79 48 32 50 66 51 45 52 65 53 46 54 49 55 64 56
REMARK SMILES IDX 84 57 47 58 48 59 63 61 85 62 50 63 33 64 34 65 43 66 35 67
REMARK SMILES IDX 36 68 42 69 44 70 37 71 38 72 39 73 40 74 41 75 67 76 68 77
REMARK SMILES IDX 77 78 69 79 70 80 76 81 78 82 71 83 72 84 73 85 74 86 75 87
REMARK SMILES IDX 51 88 52 89 61 90 53 91 54 92 60 93 62 94 55 95 56 96 57 97
REMARK SMILES IDX 58 98 59 99
REMARK H PARENT 17 6 21 30 83 49 49 60
REMARK Flexibility Score: inf
ROOT
ATOM      1  C   UNL A   1      39.110  21.897  26.178  1.00  0.00     0.042 C 
ENDROOT
BRANCH   1   2
ATOM      2  C   UNL A   1      37.893  22.269  25.346  1.00  0.00     0.118 C 
BRANCH   2   3
ATOM      3  N   UNL A   1      36.661  21.761  25.930  1.00  0.00    -0.352 N 
ATOM      4  C   UNL A   1      35.346  22.076  25.912  1.00  0.00     0.251 C 
ATOM      5  O   UNL A   1      34.622  21.337  26.587  1.00  0.00    -0.270 OA
ATOM      6  H   UNL A   1      36.831  20.970  26.493  1.00  0.00     0.163 HD
BRANCH   4   7
ATOM      7  C   UNL A   1      34.741  23.203  25.148  1.00  0.00     0.067 C 
ATOM      8  C   UNL A   1      32.613  27.586  23.819  1.00  0.00    -0.026 A 
ATOM      9  C   UNL A   1      33.253  26.546  23.120  1.00  0.00     0.052 A 
ATOM     10  C   UNL A   1      32.553  27.503  25.221  1.00  0.00     0.045 A 
ATOM     11  C   UNL A   1      33.808  25.468  23.803  1.00  0.00     0.128 A 
ATOM     12  C   UNL A   1      33.160  26.440  25.903  1.00  0.00     0.032 A 
ATOM     13  Cl  UNL A   1      31.712  28.667  26.180  1.00  0.00    -0.084 Cl
ATOM     14  C   UNL A   1      33.787  25.417  25.194  1.00  0.00     0.019 A 
ATOM     15  O   UNL A   1      34.387  24.486  23.048  1.00  0.00    -0.475 OA
ATOM     16  C   UNL A   1      34.429  24.297  25.871  1.00  0.00     0.025 C 
ATOM     17  C   UNL A   1      34.432  23.173  23.677  1.00  0.00     0.314 C 
BRANCH   8  18
ATOM     18  C   UNL A   1      32.024  28.724  23.013  1.00  0.00     0.037 C 
BRANCH  18  19
ATOM     19  C   UNL A   1      30.681  28.430  22.328  1.00  0.00     0.008 C 
BRANCH  19  20
ATOM     20  C   UNL A   1      29.436  28.511  23.232  1.00  0.00    -0.017 C 
ATOM     21  C   UNL A   1      28.299  29.294  22.576  1.00  0.00     0.007 C 
ATOM     22  C   UNL A   1      28.964  27.098  23.583  1.00  0.00     0.007 C 
ENDBRANCH  19  20
ENDBRANCH  18  19
ENDBRANCH   8  18
BRANCH  17  23
ATOM     23  C   UNL A   1      33.129  22.405  23.369  1.00  0.00     0.429 C 
ATOM     24  F   UNL A   1      32.814  22.507  22.054  1.00  0.00    -0.167 F 
ATOM     25  F   UNL A   1      33.230  21.081  23.637  1.00  0.00    -0.167 F 
ATOM     26  F   UNL A   1      32.070  22.860  24.076  1.00  0.00    -0.167 F 
ENDBRANCH  17  23
ENDBRANCH   4   7
ENDBRANCH   2   3
ENDBRANCH   1   2
BRANCH   1  27
ATOM     27  C   UNL A   1      39.750  23.105  26.849  1.00  0.00     0.118 C 
BRANCH  27  28
ATOM     28  N   UNL A   1      40.982  23.521  26.180  1.00  0.00    -0.352 N 
ATOM     29  C   UNL A   1      41.668  24.711  26.243  1.00  0.00     0.251 C 
ATOM     30  H   UNL A   1      41.382  22.843  25.591  1.00  0.00     0.163 HD
ATOM     31  O   UNL A   1      42.557  24.944  25.428  1.00  0.00    -0.269 OA
BRANCH  29  32
ATOM     32  C   UNL A   1      41.325  25.709  27.276  1.00  0.00     0.039 A 
ATOM     33  C   UNL A   1      42.007  26.925  27.330  1.00  0.00     0.014 A 
ATOM     34  C   UNL A   1      40.320  25.428  28.206  1.00  0.00     0.014 A 
ATOM     35  C   UNL A   1      41.831  27.762  28.422  1.00  0.00     0.010 A 
ATOM     36  C   UNL A   1      40.068  26.329  29.247  1.00  0.00     0.010 A 
ATOM     37  C   UNL A   1      40.859  27.478  29.395  1.00  0.00    -0.014 A 
BRANCH  37  38
ATOM     38  C   UNL A   1      40.705  28.402  30.549  1.00  0.00     0.031 A 
ATOM     39  C   UNL A   1      41.662  28.349  31.712  1.00  0.00     0.074 A 
ATOM     40  C   UNL A   1      39.741  29.345  30.507  1.00  0.00     0.049 A 
ATOM     41  N   UNL A   1      41.682  29.085  32.793  1.00  0.00    -0.248 NA
ATOM     42  C   UNL A   1      42.733  27.338  31.662  1.00  0.00     0.031 C 
ATOM     43  C   UNL A   1      38.759  29.498  29.428  1.00  0.00     0.029 A 
ATOM     44  N   UNL A   1      39.448  30.371  31.366  1.00  0.00    -0.354 N 
ATOM     45  C   UNL A   1      42.740  28.614  33.561  1.00  0.00     0.074 A 
ATOM     46  C   UNL A   1      43.333  27.513  32.833  1.00  0.00     0.031 C 
ATOM     47  C   UNL A   1      38.015  30.588  29.660  1.00  0.00     0.029 A 
ATOM     48  C   UNL A   1      38.415  31.172  30.935  1.00  0.00     0.049 A 
ATOM     49  H   UNL A   1      39.929  30.522  32.211  1.00  0.00     0.167 HD
ATOM     50  C   UNL A   1      43.183  29.066  34.758  1.00  0.00     0.037 A 
ATOM     51  C   UNL A   1      37.837  32.245  31.509  1.00  0.00     0.037 A 
ATOM     52  C   UNL A   1      42.618  30.193  35.454  1.00  0.00     0.049 A 
ATOM     53  C   UNL A   1      38.344  32.716  32.842  1.00  0.00     0.074 A 
ATOM     54  C   UNL A   1      43.016  30.743  36.661  1.00  0.00     0.029 A 
ATOM     55  N   UNL A   1      41.548  30.950  35.003  1.00  0.00    -0.354 N 
ATOM     56  N   UNL A   1      39.341  32.247  33.554  1.00  0.00    -0.248 NA
ATOM     57  C   UNL A   1      37.641  33.849  33.457  1.00  0.00     0.031 C 
ATOM     58  C   UNL A   1      42.166  31.813  36.955  1.00  0.00     0.029 A 
ATOM     59  C   UNL A   1      41.262  31.953  35.914  1.00  0.00     0.049 A 
ATOM     60  H   UNL A   1      41.063  30.797  34.160  1.00  0.00     0.167 HD
ATOM     61  C   UNL A   1      39.384  33.028  34.701  1.00  0.00     0.074 A 
ATOM     62  C   UNL A   1      38.334  34.017  34.576  1.00  0.00     0.031 C 
ATOM     63  C   UNL A   1      40.213  32.928  35.769  1.00  0.00     0.037 A 
BRANCH  50  64
ATOM     64  C   UNL A   1      44.337  28.357  35.408  1.00  0.00     0.058 A 
ATOM     65  C   UNL A   1      44.136  27.299  36.308  1.00  0.00     0.135 A 
ATOM     66  C   UNL A   1      45.658  28.666  35.042  1.00  0.00     0.135 A 
ATOM     67  F   UNL A   1      42.896  26.976  36.706  1.00  0.00    -0.206 F 
ATOM     68  C   UNL A   1      45.205  26.568  36.817  1.00  0.00     0.059 A 
ATOM     69  C   UNL A   1      46.741  27.936  35.524  1.00  0.00     0.059 A 
ATOM     70  F   UNL A   1      45.903  29.672  34.188  1.00  0.00    -0.206 F 
ATOM     71  C   UNL A   1      46.503  26.887  36.411  1.00  0.00     0.060 A 
BRANCH  71  72
ATOM     72  S   UNL A   1      47.871  25.887  37.037  1.00  0.00     0.124 S 
ATOM     73  O   UNL A   1      48.899  26.137  36.031  1.00  0.00    -0.237 OA
ATOM     74  O   UNL A   1      48.113  26.479  38.348  1.00  0.00    -0.237 OA
ATOM     75  O   UNL A   1      47.325  24.535  37.052  1.00  0.00    -0.744 OA
ENDBRANCH  71  72
ENDBRANCH  50  64
BRANCH  51  76
ATOM     76  C   UNL A   1      36.696  32.921  30.840  1.00  0.00     0.058 A 
ATOM     77  C   UNL A   1      35.377  32.719  31.274  1.00  0.00     0.135 A 
ATOM     78  C   UNL A   1      36.904  33.790  29.759  1.00  0.00     0.135 A 
ATOM     79  F   UNL A   1      35.127  31.893  32.301  1.00  0.00    -0.206 F 
ATOM     80  C   UNL A   1      34.304  33.344  30.648  1.00  0.00     0.059 A 
ATOM     81  C   UNL A   1      35.850  34.448  29.135  1.00  0.00     0.059 A 
ATOM     82  F   UNL A   1      38.149  34.030  29.318  1.00  0.00    -0.206 F 
ATOM     83  C   UNL A   1      34.551  34.207  29.578  1.00  0.00     0.060 A 
BRANCH  83  84
ATOM     84  S   UNL A   1      33.156  35.043  28.794  1.00  0.00     0.124 S 
ATOM     85  O   UNL A   1      32.343  35.402  29.950  1.00  0.00    -0.237 OA
ATOM     86  O   UNL A   1      33.809  36.149  28.101  1.00  0.00    -0.237 OA
ATOM     87  O   UNL A   1      32.596  34.012  27.924  1.00  0.00    -0.744 OA
ENDBRANCH  83  84
ENDBRANCH  51  76
BRANCH  63  88
ATOM     88  C   UNL A   1      40.021  33.915  36.882  1.00  0.00     0.058 A 
ATOM     89  C   UNL A   1      40.707  35.139  36.896  1.00  0.00     0.135 A 
ATOM     90  C   UNL A   1      39.099  33.661  37.910  1.00  0.00     0.135 A 
ATOM     91  F   UNL A   1      41.604  35.421  35.939  1.00  0.00    -0.206 F 
ATOM     92  C   UNL A   1      40.494  36.076  37.900  1.00  0.00     0.059 A 
ATOM     93  C   UNL A   1      38.854  34.594  38.912  1.00  0.00     0.059 A 
ATOM     94  F   UNL A   1      38.413  32.508  37.934  1.00  0.00    -0.206 F 
ATOM     95  C   UNL A   1      39.563  35.796  38.902  1.00  0.00     0.060 A 
BRANCH  95  96
ATOM     96  S   UNL A   1      39.264  37.040  40.174  1.00  0.00     0.124 S 
ATOM     97  O   UNL A   1      38.487  36.283  41.149  1.00  0.00    -0.237 OA
ATOM     98  O   UNL A   1      40.618  37.400  40.585  1.00  0.00    -0.237 OA
ATOM     99  O   UNL A   1      38.533  38.085  39.463  1.00  0.00    -0.744 OA
ENDBRANCH  95  96
ENDBRANCH  63  88
ENDBRANCH  37  38
ENDBRANCH  29  32
ENDBRANCH  27  28
ENDBRANCH   1  27
TORSDOF 17
ENDMDL
MODEL 2
REMARK VINA RESULT:     -12.4      2.775      8.902
REMARK SMILES CC(C)CCc1cc2c(cc1Cl)C=C(C(=O)NCCCNC(=O)c1ccc(-c3c4nc(c(-c5c(F)cc(S(=O)(=O)[O-])cc5F)c5ccc([nH]5)c(-c5c(F)cc(S(=O)(=O)[O-])cc5F)c5nc(c(-c6c(F)cc(S(=O)(=O)[O-])cc6F)c6ccc3[nH]6)C=C5)C=C4)cc1)[C@@H](C(F)(F)F)O2
REMARK SMILES IDX 19 1 18 2 17 3 15 4 16 5 14 7 6 8 7 9 11 10 8 11 10 12 12 13
REMARK SMILES IDX 9 14 95 15 13 16 90 17 5 18 4 19 2 20 1 21 3 22 91 23 92 24
REMARK SMILES IDX 93 25 94 26 20 27 21 28 22 29 23 31 24 32 25 33 89 34 26 35
REMARK SMILES IDX 88 36 27 37 28 38 29 39 82 40 30 41 87 42 81 43 83 44 31 45
REMARK SMILES IDX 86 46 80 47 79 48 32 50 66 51 45 52 65 53 46 54 49 55 64 56
REMARK SMILES IDX 84 57 47 58 48 59 63 61 85 62 50 63 33 64 34 65 43 66 35 67
REMARK SMILES IDX 36 68 42 69 44 70 37 71 38 72 39 73 40 74 41 75 67 76 68 77
REMARK SMILES IDX 77 78 69 79 70 80 76 81 78 82 71 83 72 84 73 85 74 86 75 87
REMARK SMILES IDX 51 88 52 89 61 90 53 91 54 92 60 93 62 94 55 95 56 96 57 97
REMARK SMILES IDX 58 98 59 99
REMARK H PARENT 17 6 21 30 83 49 49 60
REMARK Flexibility Score: inf
ROOT
ATOM      1  C   UNL A   1      31.706  31.993  26.735  1.00  0.00     0.042 C 
ENDROOT
BRANCH   1   2
ATOM      2  C   UNL A   1      31.975  30.528  26.429  1.00  0.00     0.118 C 
BRANCH   2   3
ATOM      3  N   UNL A   1      31.509  30.157  25.101  1.00  0.00    -0.352 N 
ATOM      4  C   UNL A   1      31.347  29.022  24.384  1.00  0.00     0.251 C 
ATOM      5  O   UNL A   1      30.903  29.183  23.242  1.00  0.00    -0.270 OA
ATOM      6  H   UNL A   1      31.235  30.948  24.583  1.00  0.00     0.163 HD
BRANCH   4   7
ATOM      7  C   UNL A   1      31.647  27.645  24.869  1.00  0.00     0.067 C 
ATOM      8  C   UNL A   1      33.964  23.398  26.317  1.00  0.00    -0.026 A 
ATOM      9  C   UNL A   1      32.657  23.904  26.445  1.00  0.00     0.052 A 
ATOM     10  C   UNL A   1      34.933  24.214  25.709  1.00  0.00     0.045 A 
ATOM     11  C   UNL A   1      32.340  25.177  25.982  1.00  0.00     0.128 A 
ATOM     12  C   UNL A   1      34.618  25.514  25.291  1.00  0.00     0.032 A 
ATOM     13  Cl  UNL A   1      36.544  23.667  25.407  1.00  0.00    -0.084 Cl
ATOM     14  C   UNL A   1      33.317  25.998  25.424  1.00  0.00     0.019 A 
ATOM     15  O   UNL A   1      31.042  25.583  26.120  1.00  0.00    -0.475 OA
ATOM     16  C   UNL A   1      32.954  27.345  25.002  1.00  0.00     0.025 C 
ATOM     17  C   UNL A   1      30.611  26.598  25.167  1.00  0.00     0.314 C 
BRANCH   8  18
ATOM     18  C   UNL A   1      34.238  22.003  26.835  1.00  0.00     0.037 C 
BRANCH  18  19
ATOM     19  C   UNL A   1      33.398  20.881  26.206  1.00  0.00     0.008 C 
BRANCH  19  20
ATOM     20  C   UNL A   1      33.791  20.474  24.773  1.00  0.00    -0.017 C 
ATOM     21  C   UNL A   1      33.851  18.957  24.601  1.00  0.00     0.007 C 
ATOM     22  C   UNL A   1      32.793  21.073  23.778  1.00  0.00     0.007 C 
ENDBRANCH  19  20
ENDBRANCH  18  19
ENDBRANCH   8  18
BRANCH  17  23
ATOM     23  C   UNL A   1      30.082  25.916  23.888  1.00  0.00     0.429 C 
ATOM     24  F   UNL A   1      30.027  24.571  24.051  1.00  0.00    -0.167 F 
ATOM     25  F   UNL A   1      28.827  26.316  23.567  1.00  0.00    -0.167 F 
ATOM     26  F   UNL A   1      30.852  26.162  22.804  1.00  0.00    -0.167 F 
ENDBRANCH  17  23
ENDBRANCH   4   7
ENDBRANCH   2   3
ENDBRANCH   1   2
BRANCH   1  27
ATOM     27  C   UNL A   1      32.843  32.644  27.510  1.00  0.00     0.118 C 
BRANCH  27  28
ATOM     28  N   UNL A   1      32.609  34.068  27.743  1.00  0.00    -0.352 N 
ATOM     29  C   UNL A   1      33.133  34.911  28.696  1.00  0.00     0.251 C 
ATOM     30  H   UNL A   1      31.974  34.491  27.122  1.00  0.00     0.163 HD
ATOM     31  O   UNL A   1      32.634  36.020  28.867  1.00  0.00    -0.269 OA
BRANCH  29  32
ATOM     32  C   UNL A   1      34.279  34.474  29.518  1.00  0.00     0.039 A 
ATOM     33  C   UNL A   1      35.575  34.546  29.008  1.00  0.00     0.014 A 
ATOM     34  C   UNL A   1      34.061  33.980  30.807  1.00  0.00     0.014 A 
ATOM     35  C   UNL A   1      36.618  33.940  29.694  1.00  0.00     0.010 A 
ATOM     36  C   UNL A   1      35.135  33.469  31.545  1.00  0.00     0.010 A 
ATOM     37  C   UNL A   1      36.414  33.395  30.972  1.00  0.00    -0.014 A 
BRANCH  37  38
ATOM     38  C   UNL A   1      37.559  32.755  31.672  1.00  0.00     0.031 A 
ATOM     39  C   UNL A   1      37.984  33.223  33.040  1.00  0.00     0.074 A 
ATOM     40  C   UNL A   1      38.166  31.696  31.097  1.00  0.00     0.049 A 
ATOM     41  N   UNL A   1      38.951  32.772  33.797  1.00  0.00    -0.248 NA
ATOM     42  C   UNL A   1      37.234  34.342  33.637  1.00  0.00     0.031 C 
ATOM     43  C   UNL A   1      37.836  31.150  29.777  1.00  0.00     0.029 A 
ATOM     44  N   UNL A   1      39.157  30.869  31.557  1.00  0.00    -0.354 N 
ATOM     45  C   UNL A   1      38.946  33.563  34.940  1.00  0.00     0.074 A 
ATOM     46  C   UNL A   1      37.890  34.537  34.775  1.00  0.00     0.031 C 
ATOM     47  C   UNL A   1      38.565  30.046  29.562  1.00  0.00     0.029 A 
ATOM     48  C   UNL A   1      39.465  29.845  30.691  1.00  0.00     0.049 A 
ATOM     49  H   UNL A   1      39.606  30.994  32.424  1.00  0.00     0.167 HD
ATOM     50  C   UNL A   1      39.743  33.476  36.032  1.00  0.00     0.037 A 
ATOM     51  C   UNL A   1      40.382  28.863  30.783  1.00  0.00     0.037 A 
ATOM     52  C   UNL A   1      40.760  32.473  36.210  1.00  0.00     0.049 A 
ATOM     53  C   UNL A   1      41.257  28.799  32.002  1.00  0.00     0.074 A 
ATOM     54  C   UNL A   1      41.601  32.287  37.295  1.00  0.00     0.029 A 
ATOM     55  N   UNL A   1      41.067  31.480  35.292  1.00  0.00    -0.354 N 
ATOM     56  N   UNL A   1      41.240  29.565  33.066  1.00  0.00    -0.248 NA
ATOM     57  C   UNL A   1      42.285  27.750  32.027  1.00  0.00     0.031 C 
ATOM     58  C   UNL A   1      42.437  31.201  37.019  1.00  0.00     0.029 A 
ATOM     59  C   UNL A   1      42.093  30.688  35.778  1.00  0.00     0.049 A 
ATOM     60  H   UNL A   1      40.621  31.357  34.423  1.00  0.00     0.167 HD
ATOM     61  C   UNL A   1      42.254  29.091  33.888  1.00  0.00     0.074 A 
ATOM     62  C   UNL A   1      42.845  27.955  33.212  1.00  0.00     0.031 C 
ATOM     63  C   UNL A   1      42.666  29.561  35.090  1.00  0.00     0.037 A 
BRANCH  50  64
ATOM     64  C   UNL A   1      39.559  34.482  37.132  1.00  0.00     0.058 A 
ATOM     65  C   UNL A   1      38.773  34.201  38.260  1.00  0.00     0.135 A 
ATOM     66  C   UNL A   1      40.266  35.696  37.110  1.00  0.00     0.135 A 
ATOM     67  F   UNL A   1      38.062  33.064  38.323  1.00  0.00    -0.206 F 
ATOM     68  C   UNL A   1      38.700  35.086  39.331  1.00  0.00     0.059 A 
ATOM     69  C   UNL A   1      40.222  36.587  38.179  1.00  0.00     0.059 A 
ATOM     70  F   UNL A   1      41.028  36.014  36.052  1.00  0.00    -0.206 F 
ATOM     71  C   UNL A   1      39.436  36.272  39.286  1.00  0.00     0.060 A 
BRANCH  71  72
ATOM     72  S   UNL A   1      39.374  37.379  40.712  1.00  0.00     0.124 S 
ATOM     73  O   UNL A   1      38.399  38.371  40.269  1.00  0.00    -0.237 OA
ATOM     74  O   UNL A   1      38.929  36.487  41.777  1.00  0.00    -0.237 OA
ATOM     75  O   UNL A   1      40.746  37.859  40.831  1.00  0.00    -0.744 OA
ENDBRANCH  71  72
ENDBRANCH  50  64
BRANCH  51  76
ATOM     76  C   UNL A   1      40.539  27.886  29.674  1.00  0.00     0.058 A 
ATOM     77  C   UNL A   1      41.548  28.036  28.712  1.00  0.00     0.135 A 
ATOM     78  C   UNL A   1      39.686  26.778  29.562  1.00  0.00     0.135 A 
ATOM     79  F   UNL A   1      42.385  29.083  28.774  1.00  0.00    -0.206 F 
ATOM     80  C   UNL A   1      41.697  27.129  27.668  1.00  0.00     0.059 A 
ATOM     81  C   UNL A   1      39.832  25.842  28.544  1.00  0.00     0.059 A 
ATOM     82  F   UNL A   1      38.715  26.580  30.468  1.00  0.00    -0.206 F 
ATOM     83  C   UNL A   1      40.832  26.035  27.592  1.00  0.00     0.060 A 
BRANCH  83  84
ATOM     84  S   UNL A   1      41.053  24.841  26.255  1.00  0.00     0.124 S 
ATOM     85  O   UNL A   1      42.241  24.123  26.699  1.00  0.00    -0.237 OA
ATOM     86  O   UNL A   1      39.799  24.094  26.299  1.00  0.00    -0.237 OA
ATOM     87  O   UNL A   1      41.227  25.688  25.079  1.00  0.00    -0.744 OA
ENDBRANCH  83  84
ENDBRANCH  51  76
BRANCH  63  88
ATOM     88  C   UNL A   1      43.806  28.847  35.754  1.00  0.00     0.058 A 
ATOM     89  C   UNL A   1      43.587  27.725  36.567  1.00  0.00     0.135 A 
ATOM     90  C   UNL A   1      45.132  29.248  35.524  1.00  0.00     0.135 A 
ATOM     91  F   UNL A   1      42.336  27.309  36.821  1.00  0.00    -0.206 F 
ATOM     92  C   UNL A   1      44.644  27.031  37.142  1.00  0.00     0.059 A 
ATOM     93  C   UNL A   1      46.205  28.555  36.072  1.00  0.00     0.059 A 
ATOM     94  F   UNL A   1      45.391  30.311  34.746  1.00  0.00    -0.206 F 
ATOM     95  C   UNL A   1      45.951  27.452  36.886  1.00  0.00     0.060 A 
BRANCH  95  96
ATOM     96  S   UNL A   1      47.315  26.514  37.604  1.00  0.00     0.124 S 
ATOM     97  O   UNL A   1      46.615  25.368  38.175  1.00  0.00    -0.237 OA
ATOM     98  O   UNL A   1      48.148  26.232  36.440  1.00  0.00    -0.237 OA
ATOM     99  O   UNL A   1      47.894  27.443  38.571  1.00  0.00    -0.744 OA
ENDBRANCH  95  96
ENDBRANCH  63  88
ENDBRANCH  37  38
ENDBRANCH  29  32
ENDBRANCH  27  28
ENDBRANCH   1  27
TORSDOF 17
ENDMDL
MODEL 3
REMARK VINA RESULT:     -12.4      6.573     11.881
REMARK SMILES CC(C)CCc1cc2c(cc1Cl)C=C(C(=O)NCCCNC(=O)c1ccc(-c3c4nc(c(-c5c(F)cc(S(=O)(=O)[O-])cc5F)c5ccc([nH]5)c(-c5c(F)cc(S(=O)(=O)[O-])cc5F)c5nc(c(-c6c(F)cc(S(=O)(=O)[O-])cc6F)c6ccc3[nH]6)C=C5)C=C4)cc1)[C@@H](C(F)(F)F)O2
REMARK SMILES IDX 19 1 18 2 17 3 15 4 16 5 14 7 6 8 7 9 11 10 8 11 10 12 12 13
REMARK SMILES IDX 9 14 95 15 13 16 90 17 5 18 4 19 2 20 1 21 3 22 91 23 92 24
REMARK SMILES IDX 93 25 94 26 20 27 21 28 22 29 23 31 24 32 25 33 89 34 26 35
REMARK SMILES IDX 88 36 27 37 28 38 29 39 82 40 30 41 87 42 81 43 83 44 31 45
REMARK SMILES IDX 86 46 80 47 79 48 32 50 66 51 45 52 65 53 46 54 49 55 64 56
REMARK SMILES IDX 84 57 47 58 48 59 63 61 85 62 50 63 33 64 34 65 43 66 35 67
REMARK SMILES IDX 36 68 42 69 44 70 37 71 38 72 39 73 40 74 41 75 67 76 68 77
REMARK SMILES IDX 77 78 69 79 70 80 76 81 78 82 71 83 72 84 73 85 74 86 75 87
REMARK SMILES IDX 51 88 52 89 61 90 53 91 54 92 60 93 62 94 55 95 56 96 57 97
REMARK SMILES IDX 58 98 59 99
REMARK H PARENT 17 6 21 30 83 49 49 60
REMARK Flexibility Score: inf
ROOT
ATOM      1  C   UNL A   1      33.617  29.755  27.102  1.00  0.00     0.042 C 
ENDROOT
BRANCH   1   2
ATOM      2  C   UNL A   1      33.622  29.705  25.582  1.00  0.00     0.118 C 
BRANCH   2   3
ATOM      3  N   UNL A   1      32.281  29.840  25.031  1.00  0.00    -0.352 N 
ATOM      4  C   UNL A   1      31.336  29.030  24.503  1.00  0.00     0.251 C 
ATOM      5  O   UNL A   1      30.300  29.600  24.146  1.00  0.00    -0.270 OA
ATOM      6  H   UNL A   1      31.980  30.777  25.048  1.00  0.00     0.163 HD
BRANCH   4   7
ATOM      7  C   UNL A   1      31.457  27.553  24.344  1.00  0.00     0.067 C 
ATOM      8  C   UNL A   1      31.879  22.591  25.183  1.00  0.00    -0.026 A 
ATOM      9  C   UNL A   1      31.551  23.380  24.065  1.00  0.00     0.052 A 
ATOM     10  C   UNL A   1      32.101  23.241  26.409  1.00  0.00     0.045 A 
ATOM     11  C   UNL A   1      31.453  24.764  24.176  1.00  0.00     0.128 A 
ATOM     12  C   UNL A   1      31.950  24.630  26.524  1.00  0.00     0.032 A 
ATOM     13  Cl  UNL A   1      32.603  22.391  27.827  1.00  0.00    -0.084 Cl
ATOM     14  C   UNL A   1      31.627  25.396  25.405  1.00  0.00     0.019 A 
ATOM     15  O   UNL A   1      31.158  25.460  23.037  1.00  0.00    -0.475 OA
ATOM     16  C   UNL A   1      31.461  26.841  25.488  1.00  0.00     0.025 C 
ATOM     17  C   UNL A   1      31.611  26.844  23.027  1.00  0.00     0.314 C 
BRANCH   8  18
ATOM     18  C   UNL A   1      31.977  21.094  24.989  1.00  0.00     0.037 C 
BRANCH  18  19
ATOM     19  C   UNL A   1      33.186  20.604  24.179  1.00  0.00     0.008 C 
BRANCH  19  20
ATOM     20  C   UNL A   1      34.255  19.830  24.973  1.00  0.00    -0.017 C 
ATOM     21  C   UNL A   1      34.468  18.418  24.427  1.00  0.00     0.007 C 
ATOM     22  C   UNL A   1      35.575  20.604  24.947  1.00  0.00     0.007 C 
ENDBRANCH  19  20
ENDBRANCH  18  19
ENDBRANCH   8  18
BRANCH  17  23
ATOM     23  C   UNL A   1      33.056  26.913  22.491  1.00  0.00     0.429 C 
ATOM     24  F   UNL A   1      33.237  26.020  21.487  1.00  0.00    -0.167 F 
ATOM     25  F   UNL A   1      33.364  28.131  21.982  1.00  0.00    -0.167 F 
ATOM     26  F   UNL A   1      33.983  26.649  23.440  1.00  0.00    -0.167 F 
ENDBRANCH  17  23
ENDBRANCH   4   7
ENDBRANCH   2   3
ENDBRANCH   1   2
BRANCH   1  27
ATOM     27  C   UNL A   1      35.003  29.543  27.696  1.00  0.00     0.118 C 
BRANCH  27  28
ATOM     28  N   UNL A   1      35.194  30.295  28.935  1.00  0.00    -0.352 N 
ATOM     29  C   UNL A   1      36.284  30.368  29.771  1.00  0.00     0.251 C 
ATOM     30  H   UNL A   1      34.420  30.834  29.217  1.00  0.00     0.163 HD
ATOM     31  O   UNL A   1      36.164  30.875  30.883  1.00  0.00    -0.269 OA
BRANCH  29  32
ATOM     32  C   UNL A   1      37.586  29.822  29.337  1.00  0.00     0.039 A 
ATOM     33  C   UNL A   1      38.458  29.264  30.272  1.00  0.00     0.014 A 
ATOM     34  C   UNL A   1      37.946  29.875  27.988  1.00  0.00     0.014 A 
ATOM     35  C   UNL A   1      39.757  28.951  29.898  1.00  0.00     0.010 A 
ATOM     36  C   UNL A   1      39.222  29.454  27.594  1.00  0.00     0.010 A 
ATOM     37  C   UNL A   1      40.156  29.040  28.555  1.00  0.00    -0.014 A 
BRANCH  37  38
ATOM     38  C   UNL A   1      41.558  28.695  28.198  1.00  0.00     0.031 A 
ATOM     39  C   UNL A   1      42.652  29.728  28.285  1.00  0.00     0.074 A 
ATOM     40  C   UNL A   1      41.853  27.420  27.868  1.00  0.00     0.049 A 
ATOM     41  N   UNL A   1      43.927  29.597  28.023  1.00  0.00    -0.248 NA
ATOM     42  C   UNL A   1      42.270  31.084  28.716  1.00  0.00     0.031 C 
ATOM     43  C   UNL A   1      40.877  26.331  27.756  1.00  0.00     0.029 A 
ATOM     44  N   UNL A   1      43.053  26.814  27.601  1.00  0.00    -0.354 N 
ATOM     45  C   UNL A   1      44.493  30.849  28.228  1.00  0.00     0.074 A 
ATOM     46  C   UNL A   1      43.421  31.738  28.621  1.00  0.00     0.031 C 
ATOM     47  C   UNL A   1      41.523  25.184  27.507  1.00  0.00     0.029 A 
ATOM     48  C   UNL A   1      42.948  25.462  27.368  1.00  0.00     0.049 A 
ATOM     49  H   UNL A   1      43.909  27.299  27.578  1.00  0.00     0.167 HD
ATOM     50  C   UNL A   1      45.790  31.221  28.110  1.00  0.00     0.037 A 
ATOM     51  C   UNL A   1      43.887  24.549  27.056  1.00  0.00     0.037 A 
ATOM     52  C   UNL A   1      46.858  30.319  27.765  1.00  0.00     0.049 A 
ATOM     53  C   UNL A   1      45.315  24.994  26.923  1.00  0.00     0.074 A 
ATOM     54  C   UNL A   1      48.210  30.597  27.648  1.00  0.00     0.029 A 
ATOM     55  N   UNL A   1      46.703  28.968  27.497  1.00  0.00    -0.354 N 
ATOM     56  N   UNL A   1      45.825  26.187  27.113  1.00  0.00    -0.248 NA
ATOM     57  C   UNL A   1      46.293  23.975  26.519  1.00  0.00     0.031 C 
ATOM     58  C   UNL A   1      48.868  29.420  27.278  1.00  0.00     0.029 A 
ATOM     59  C   UNL A   1      47.931  28.401  27.200  1.00  0.00     0.049 A 
ATOM     60  H   UNL A   1      45.847  28.483  27.515  1.00  0.00     0.167 HD
ATOM     61  C   UNL A   1      47.183  26.063  26.851  1.00  0.00     0.074 A 
ATOM     62  C   UNL A   1      47.421  24.674  26.519  1.00  0.00     0.031 C 
ATOM     63  C   UNL A   1      48.146  27.016  26.873  1.00  0.00     0.037 A 
BRANCH  50  64
ATOM     64  C   UNL A   1      46.147  32.659  28.356  1.00  0.00     0.058 A 
ATOM     65  C   UNL A   1      46.586  33.102  29.613  1.00  0.00     0.135 A 
ATOM     66  C   UNL A   1      46.155  33.580  27.295  1.00  0.00     0.135 A 
ATOM     67  F   UNL A   1      46.580  32.268  30.664  1.00  0.00    -0.206 F 
ATOM     68  C   UNL A   1      47.028  34.407  29.807  1.00  0.00     0.059 A 
ATOM     69  C   UNL A   1      46.611  34.885  27.463  1.00  0.00     0.059 A 
ATOM     70  F   UNL A   1      45.740  33.207  26.075  1.00  0.00    -0.206 F 
ATOM     71  C   UNL A   1      47.046  35.289  28.724  1.00  0.00     0.060 A 
BRANCH  71  72
ATOM     72  S   UNL A   1      47.680  36.959  28.985  1.00  0.00     0.124 S 
ATOM     73  O   UNL A   1      48.968  36.893  28.300  1.00  0.00    -0.237 OA
ATOM     74  O   UNL A   1      46.663  37.781  28.339  1.00  0.00    -0.237 OA
ATOM     75  O   UNL A   1      47.748  37.075  30.437  1.00  0.00    -0.744 OA
ENDBRANCH  71  72
ENDBRANCH  50  64
BRANCH  51  76
ATOM     76  C   UNL A   1      43.498  23.135  26.817  1.00  0.00     0.058 A 
ATOM     77  C   UNL A   1      43.457  22.603  25.520  1.00  0.00     0.135 A 
ATOM     78  C   UNL A   1      43.170  22.286  27.885  1.00  0.00     0.135 A 
ATOM     79  F   UNL A   1      43.757  23.378  24.467  1.00  0.00    -0.206 F 
ATOM     80  C   UNL A   1      43.088  21.282  25.289  1.00  0.00     0.059 A 
ATOM     81  C   UNL A   1      42.825  20.954  27.681  1.00  0.00     0.059 A 
ATOM     82  F   UNL A   1      43.212  22.743  29.146  1.00  0.00    -0.206 F 
ATOM     83  C   UNL A   1      42.773  20.466  26.377  1.00  0.00     0.060 A 
BRANCH  83  84
ATOM     84  S   UNL A   1      42.330  18.742  26.072  1.00  0.00     0.124 S 
ATOM     85  O   UNL A   1      43.253  18.388  25.001  1.00  0.00    -0.237 OA
ATOM     86  O   UNL A   1      42.587  18.124  27.369  1.00  0.00    -0.237 OA
ATOM     87  O   UNL A   1      40.922  18.822  25.693  1.00  0.00    -0.744 OA
ENDBRANCH  83  84
ENDBRANCH  51  76
BRANCH  63  88
ATOM     88  C   UNL A   1      49.543  26.590  26.534  1.00  0.00     0.058 A 
ATOM     89  C   UNL A   1      50.381  26.009  27.498  1.00  0.00     0.135 A 
ATOM     90  C   UNL A   1      50.026  26.705  25.221  1.00  0.00     0.135 A 
ATOM     91  F   UNL A   1      49.965  25.885  28.768  1.00  0.00    -0.206 F 
ATOM     92  C   UNL A   1      51.659  25.567  27.174  1.00  0.00     0.059 A 
ATOM     93  C   UNL A   1      51.292  26.250  24.871  1.00  0.00     0.059 A 
ATOM     94  F   UNL A   1      49.258  27.247  24.263  1.00  0.00    -0.206 F 
ATOM     95  C   UNL A   1      52.104  25.689  25.856  1.00  0.00     0.060 A 
BRANCH  95  96
ATOM     96  S   UNL A   1      53.748  25.071  25.442  1.00  0.00     0.124 S 
ATOM     97  O   UNL A   1      54.528  25.517  26.591  1.00  0.00    -0.237 OA
ATOM     98  O   UNL A   1      53.527  23.632  25.346  1.00  0.00    -0.237 OA
ATOM     99  O   UNL A   1      54.053  25.737  24.179  1.00  0.00    -0.744 OA
ENDBRANCH  95  96
ENDBRANCH  63  88
ENDBRANCH  37  38
ENDBRANCH  29  32
ENDBRANCH  27  28
ENDBRANCH   1  27
TORSDOF 17
ENDMDL
