MODEL 1
REMARK VINA RESULT:     -12.9      0.000      0.000
REMARK SMILES CCc1cccc2c3c([nH]c12)[C@](CC)(CC(=O)NCCCNC(=O)c1ccc(-c2c4nc(c(-c5c(F)cc(S(=O)(=O)[O-])cc5F)c5ccc([nH]5)c(-c5c(F)cc(S(=O)(=O)[O-])cc5F)c5nc(c(-c6c(F)cc(S(=O)(=O)[O-])cc6F)c6ccc2[nH]6)C=C5)C=C4)cc1)OCC3
REMARK SMILES IDX 20 1 19 2 18 3 16 4 17 5 15 7 12 8 3 9 4 10 11 11 5 12 7 13
REMARK SMILES IDX 10 14 6 15 8 16 9 17 93 19 92 20 91 21 2 22 1 23 13 24 14 25
REMARK SMILES IDX 21 26 22 27 23 28 24 30 25 31 26 32 90 33 27 34 89 35 28 36
REMARK SMILES IDX 29 37 30 38 83 39 31 40 88 41 82 42 84 43 32 44 87 45 81 46
REMARK SMILES IDX 80 47 33 49 67 50 46 51 66 52 47 53 50 54 65 55 85 56 48 57
REMARK SMILES IDX 49 58 64 60 86 61 51 62 34 63 35 64 44 65 36 66 37 67 43 68
REMARK SMILES IDX 45 69 38 70 39 71 40 72 41 73 42 74 68 75 69 76 78 77 70 78
REMARK SMILES IDX 71 79 77 80 79 81 72 82 73 83 74 84 75 85 76 86 52 87 53 88
REMARK SMILES IDX 62 89 54 90 55 91 61 92 63 93 56 94 57 95 58 96 59 97 60 98
REMARK H PARENT 18 6 10 18 22 29 84 48 50 59
REMARK Flexibility Score: inf
ROOT
ATOM      1  C   UNL A   1      38.898  21.805  26.085  1.00  0.00     0.042 C 
ENDROOT
BRANCH   1   2
ATOM      2  C   UNL A   1      38.065  23.091  25.897  1.00  0.00     0.117 C 
BRANCH   2   3
ATOM      3  N   UNL A   1      37.586  23.336  24.535  1.00  0.00    -0.356 N 
ATOM      4  C   UNL A   1      36.475  22.918  23.853  1.00  0.00     0.223 C 
ATOM      5  O   UNL A   1      36.396  23.222  22.661  1.00  0.00    -0.275 OA
ATOM      6  H   UNL A   1      38.180  23.916  24.006  1.00  0.00     0.163 HD
BRANCH   4   7
ATOM      7  C   UNL A   1      35.350  22.193  24.557  1.00  0.00     0.142 C 
BRANCH   7   8
ATOM      8  C   UNL A   1      33.951  22.848  24.690  1.00  0.00     0.117 C 
ATOM      9  C   UNL A   1      33.693  27.892  25.281  1.00  0.00    -0.024 A 
ATOM     10  C   UNL A   1      33.415  28.931  24.360  1.00  0.00     0.006 A 
ATOM     11  C   UNL A   1      33.788  26.593  24.740  1.00  0.00     0.049 A 
ATOM     12  C   UNL A   1      33.248  28.697  22.998  1.00  0.00     0.001 A 
ATOM     13  C   UNL A   1      33.575  26.341  23.385  1.00  0.00     0.003 A 
ATOM     14  N   UNL A   1      34.025  25.364  25.338  1.00  0.00    -0.356 N 
ATOM     15  C   UNL A   1      33.314  27.401  22.500  1.00  0.00     0.010 A 
ATOM     16  C   UNL A   1      33.557  24.939  23.234  1.00  0.00    -0.014 A 
ATOM     17  C   UNL A   1      33.920  24.343  24.423  1.00  0.00     0.052 A 
ATOM     18  H   UNL A   1      34.238  25.239  26.292  1.00  0.00     0.166 HD
ATOM     19  C   UNL A   1      33.070  24.170  22.086  1.00  0.00     0.066 C 
ATOM     20  C   UNL A   1      33.016  22.688  22.424  1.00  0.00     0.166 C 
ATOM     21  O   UNL A   1      32.962  22.286  23.798  1.00  0.00    -0.368 OA
BRANCH   9  22
ATOM     22  C   UNL A   1      33.760  28.215  26.752  1.00  0.00     0.034 C 
ATOM     23  C   UNL A   1      34.994  29.005  27.149  1.00  0.00     0.009 C 
ENDBRANCH   9  22
BRANCH   8  24
ATOM     24  C   UNL A   1      33.413  22.559  26.131  1.00  0.00     0.039 C 
ATOM     25  C   UNL A   1      34.384  21.841  27.072  1.00  0.00     0.007 C 
ENDBRANCH   8  24
ENDBRANCH   7   8
ENDBRANCH   4   7
ENDBRANCH   2   3
ENDBRANCH   1   2
BRANCH   1  26
ATOM     26  C   UNL A   1      40.326  21.993  26.610  1.00  0.00     0.118 C 
BRANCH  26  27
ATOM     27  N   UNL A   1      41.340  22.209  25.611  1.00  0.00    -0.352 N 
ATOM     28  C   UNL A   1      42.280  23.188  25.445  1.00  0.00     0.251 C 
ATOM     29  H   UNL A   1      41.360  21.518  24.911  1.00  0.00     0.163 HD
ATOM     30  O   UNL A   1      43.126  23.006  24.568  1.00  0.00    -0.269 OA
BRANCH  28  31
ATOM     31  C   UNL A   1      42.262  24.476  26.179  1.00  0.00     0.039 A 
ATOM     32  C   UNL A   1      43.032  24.791  27.302  1.00  0.00     0.014 A 
ATOM     33  C   UNL A   1      41.368  25.435  25.677  1.00  0.00     0.014 A 
ATOM     34  C   UNL A   1      42.797  25.972  27.996  1.00  0.00     0.010 A 
ATOM     35  C   UNL A   1      41.169  26.637  26.338  1.00  0.00     0.010 A 
ATOM     36  C   UNL A   1      41.835  26.875  27.536  1.00  0.00    -0.014 A 
BRANCH  36  37
ATOM     37  C   UNL A   1      41.631  28.116  28.279  1.00  0.00     0.031 A 
ATOM     38  C   UNL A   1      42.747  29.101  28.158  1.00  0.00     0.074 A 
ATOM     39  C   UNL A   1      40.481  28.409  28.923  1.00  0.00     0.049 A 
ATOM     40  N   UNL A   1      43.528  29.543  29.090  1.00  0.00    -0.248 NA
ATOM     41  C   UNL A   1      43.129  29.543  26.807  1.00  0.00     0.031 C 
ATOM     42  C   UNL A   1      39.218  27.665  28.911  1.00  0.00     0.029 A 
ATOM     43  N   UNL A   1      40.172  29.505  29.669  1.00  0.00    -0.354 N 
ATOM     44  C   UNL A   1      44.368  30.476  28.483  1.00  0.00     0.074 A 
ATOM     45  C   UNL A   1      44.184  30.319  27.064  1.00  0.00     0.031 C 
ATOM     46  C   UNL A   1      38.231  28.445  29.409  1.00  0.00     0.029 A 
ATOM     47  C   UNL A   1      38.812  29.677  29.912  1.00  0.00     0.049 A 
ATOM     48  H   UNL A   1      40.856  30.125  30.010  1.00  0.00     0.167 HD
ATOM     49  C   UNL A   1      44.999  31.447  29.203  1.00  0.00     0.037 A 
ATOM     50  C   UNL A   1      38.213  30.775  30.442  1.00  0.00     0.037 A 
ATOM     51  C   UNL A   1      45.021  31.121  30.605  1.00  0.00     0.049 A 
ATOM     52  C   UNL A   1      39.266  31.523  31.178  1.00  0.00     0.074 A 
ATOM     53  C   UNL A   1      45.571  30.101  31.358  1.00  0.00     0.029 A 
ATOM     54  N   UNL A   1      44.099  31.732  31.419  1.00  0.00    -0.354 N 
ATOM     55  N   UNL A   1      39.861  31.072  32.249  1.00  0.00    -0.248 NA
ATOM     56  C   UNL A   1      39.980  32.564  30.455  1.00  0.00     0.031 C 
ATOM     57  C   UNL A   1      44.613  29.846  32.381  1.00  0.00     0.029 A 
ATOM     58  C   UNL A   1      43.572  30.763  32.231  1.00  0.00     0.049 A 
ATOM     59  H   UNL A   1      43.862  32.688  31.417  1.00  0.00     0.167 HD
ATOM     60  C   UNL A   1      41.187  31.457  32.105  1.00  0.00     0.074 A 
ATOM     61  C   UNL A   1      41.184  32.434  31.017  1.00  0.00     0.031 C 
ATOM     62  C   UNL A   1      42.199  30.748  32.685  1.00  0.00     0.037 A 
BRANCH  49  63
ATOM     63  C   UNL A   1      45.276  32.850  28.710  1.00  0.00     0.058 A 
ATOM     64  C   UNL A   1      46.596  33.351  28.760  1.00  0.00     0.135 A 
ATOM     65  C   UNL A   1      44.270  33.816  28.488  1.00  0.00     0.135 A 
ATOM     66  F   UNL A   1      47.636  32.524  28.955  1.00  0.00    -0.206 F 
ATOM     67  C   UNL A   1      46.882  34.715  28.701  1.00  0.00     0.059 A 
ATOM     68  C   UNL A   1      44.539  35.176  28.374  1.00  0.00     0.059 A 
ATOM     69  F   UNL A   1      42.969  33.504  28.467  1.00  0.00    -0.206 F 
ATOM     70  C   UNL A   1      45.842  35.621  28.530  1.00  0.00     0.060 A 
BRANCH  70  71
ATOM     71  S   UNL A   1      46.187  37.388  28.587  1.00  0.00     0.124 S 
ATOM     72  O   UNL A   1      47.649  37.398  28.566  1.00  0.00    -0.237 OA
ATOM     73  O   UNL A   1      45.531  37.859  27.368  1.00  0.00    -0.237 OA
ATOM     74  O   UNL A   1      45.570  37.814  29.831  1.00  0.00    -0.744 OA
ENDBRANCH  70  71
ENDBRANCH  49  63
BRANCH  50  75
ATOM     75  C   UNL A   1      36.917  31.400  30.049  1.00  0.00     0.058 A 
ATOM     76  C   UNL A   1      36.016  31.887  31.016  1.00  0.00     0.135 A 
ATOM     77  C   UNL A   1      36.664  31.798  28.720  1.00  0.00     0.135 A 
ATOM     78  F   UNL A   1      36.184  31.575  32.310  1.00  0.00    -0.206 F 
ATOM     79  C   UNL A   1      34.969  32.761  30.695  1.00  0.00     0.059 A 
ATOM     80  C   UNL A   1      35.622  32.661  28.375  1.00  0.00     0.059 A 
ATOM     81  F   UNL A   1      37.482  31.436  27.721  1.00  0.00    -0.206 F 
ATOM     82  C   UNL A   1      34.795  33.162  29.372  1.00  0.00     0.060 A 
BRANCH  82  83
ATOM     83  S   UNL A   1      33.563  34.428  28.976  1.00  0.00     0.124 S 
ATOM     84  O   UNL A   1      34.385  35.477  28.382  1.00  0.00    -0.237 OA
ATOM     85  O   UNL A   1      32.676  33.718  28.060  1.00  0.00    -0.237 OA
ATOM     86  O   UNL A   1      32.981  34.754  30.276  1.00  0.00    -0.744 OA
ENDBRANCH  82  83
ENDBRANCH  50  75
BRANCH  62  87
ATOM     87  C   UNL A   1      41.857  29.695  33.706  1.00  0.00     0.058 A 
ATOM     88  C   UNL A   1      41.553  28.359  33.391  1.00  0.00     0.135 A 
ATOM     89  C   UNL A   1      42.071  30.004  35.058  1.00  0.00     0.135 A 
ATOM     90  F   UNL A   1      41.421  27.964  32.118  1.00  0.00    -0.206 F 
ATOM     91  C   UNL A   1      41.464  27.375  34.379  1.00  0.00     0.059 A 
ATOM     92  C   UNL A   1      42.016  29.034  36.054  1.00  0.00     0.059 A 
ATOM     93  F   UNL A   1      42.418  31.251  35.415  1.00  0.00    -0.206 F 
ATOM     94  C   UNL A   1      41.713  27.719  35.707  1.00  0.00     0.060 A 
BRANCH  94  95
ATOM     95  S   UNL A   1      41.735  26.420  36.963  1.00  0.00     0.124 S 
ATOM     96  O   UNL A   1      40.470  26.640  37.657  1.00  0.00    -0.237 OA
ATOM     97  O   UNL A   1      41.813  25.203  36.160  1.00  0.00    -0.237 OA
ATOM     98  O   UNL A   1      42.934  26.717  37.743  1.00  0.00    -0.744 OA
ENDBRANCH  94  95
ENDBRANCH  62  87
ENDBRANCH  36  37
ENDBRANCH  28  31
ENDBRANCH  26  27
ENDBRANCH   1  26
TORSDOF 16
ENDMDL
MODEL 2
REMARK VINA RESULT:     -12.5      4.223     11.153
REMARK SMILES CCc1cccc2c3c([nH]c12)[C@](CC)(CC(=O)NCCCNC(=O)c1ccc(-c2c4nc(c(-c5c(F)cc(S(=O)(=O)[O-])cc5F)c5ccc([nH]5)c(-c5c(F)cc(S(=O)(=O)[O-])cc5F)c5nc(c(-c6c(F)cc(S(=O)(=O)[O-])cc6F)c6ccc2[nH]6)C=C5)C=C4)cc1)OCC3
REMARK SMILES IDX 20 1 19 2 18 3 16 4 17 5 15 7 12 8 3 9 4 10 11 11 5 12 7 13
REMARK SMILES IDX 10 14 6 15 8 16 9 17 93 19 92 20 91 21 2 22 1 23 13 24 14 25
REMARK SMILES IDX 21 26 22 27 23 28 24 30 25 31 26 32 90 33 27 34 89 35 28 36
REMARK SMILES IDX 29 37 30 38 83 39 31 40 88 41 82 42 84 43 32 44 87 45 81 46
REMARK SMILES IDX 80 47 33 49 67 50 46 51 66 52 47 53 50 54 65 55 85 56 48 57
REMARK SMILES IDX 49 58 64 60 86 61 51 62 34 63 35 64 44 65 36 66 37 67 43 68
REMARK SMILES IDX 45 69 38 70 39 71 40 72 41 73 42 74 68 75 69 76 78 77 70 78
REMARK SMILES IDX 71 79 77 80 79 81 72 82 73 83 74 84 75 85 76 86 52 87 53 88
REMARK SMILES IDX 62 89 54 90 55 91 61 92 63 93 56 94 57 95 58 96 59 97 60 98
REMARK H PARENT 18 6 10 18 22 29 84 48 50 59
REMARK Flexibility Score: inf
ROOT
ATOM      1  C   UNL A   1      33.785  35.054  29.159  1.00  0.00     0.042 C 
ENDROOT
BRANCH   1   2
ATOM      2  C   UNL A   1      33.626  35.608  30.591  1.00  0.00     0.117 C 
BRANCH   2   3
ATOM      3  N   UNL A   1      33.239  34.626  31.606  1.00  0.00    -0.356 N 
ATOM      4  C   UNL A   1      33.937  34.000  32.604  1.00  0.00     0.223 C 
ATOM      5  O   UNL A   1      33.345  33.134  33.251  1.00  0.00    -0.275 OA
ATOM      6  H   UNL A   1      32.292  34.366  31.563  1.00  0.00     0.163 HD
BRANCH   4   7
ATOM      7  C   UNL A   1      35.347  34.419  32.957  1.00  0.00     0.142 C 
BRANCH   7   8
ATOM      8  C   UNL A   1      36.466  33.359  33.121  1.00  0.00     0.117 C 
ATOM      9  C   UNL A   1      41.099  34.438  31.322  1.00  0.00    -0.024 A 
ATOM     10  C   UNL A   1      42.274  34.887  31.970  1.00  0.00     0.006 A 
ATOM     11  C   UNL A   1      39.945  34.342  32.128  1.00  0.00     0.049 A 
ATOM     12  C   UNL A   1      42.303  35.222  33.321  1.00  0.00     0.001 A 
ATOM     13  C   UNL A   1      39.973  34.628  33.492  1.00  0.00     0.003 A 
ATOM     14  N   UNL A   1      38.653  33.929  31.837  1.00  0.00    -0.356 N 
ATOM     15  C   UNL A   1      41.157  35.084  34.096  1.00  0.00     0.010 A 
ATOM     16  C   UNL A   1      38.718  34.245  34.010  1.00  0.00    -0.014 A 
ATOM     17  C   UNL A   1      37.879  33.896  32.974  1.00  0.00     0.052 A 
ATOM     18  H   UNL A   1      38.333  33.690  30.936  1.00  0.00     0.166 HD
ATOM     19  C   UNL A   1      38.352  34.054  35.416  1.00  0.00     0.066 C 
ATOM     20  C   UNL A   1      36.975  33.418  35.524  1.00  0.00     0.166 C 
ATOM     21  O   UNL A   1      36.449  32.694  34.405  1.00  0.00    -0.368 OA
BRANCH   9  22
ATOM     22  C   UNL A   1      41.176  34.000  29.882  1.00  0.00     0.034 C 
ATOM     23  C   UNL A   1      41.767  35.049  28.955  1.00  0.00     0.009 C 
ENDBRANCH   9  22
BRANCH   8  24
ATOM     24  C   UNL A   1      36.221  32.225  32.071  1.00  0.00     0.039 C 
ATOM     25  C   UNL A   1      36.654  30.820  32.496  1.00  0.00     0.007 C 
ENDBRANCH   8  24
ENDBRANCH   7   8
ENDBRANCH   4   7
ENDBRANCH   2   3
ENDBRANCH   1   2
BRANCH   1  26
ATOM     26  C   UNL A   1      34.717  33.847  28.998  1.00  0.00     0.118 C 
BRANCH  26  27
ATOM     27  N   UNL A   1      34.218  32.772  28.181  1.00  0.00    -0.352 N 
ATOM     28  C   UNL A   1      34.647  31.490  27.979  1.00  0.00     0.251 C 
ATOM     29  H   UNL A   1      33.412  33.006  27.667  1.00  0.00     0.163 HD
ATOM     30  O   UNL A   1      33.903  30.747  27.336  1.00  0.00    -0.269 OA
BRANCH  28  31
ATOM     31  C   UNL A   1      35.982  30.995  28.394  1.00  0.00     0.039 A 
ATOM     32  C   UNL A   1      37.077  31.788  28.746  1.00  0.00     0.014 A 
ATOM     33  C   UNL A   1      36.121  29.598  28.409  1.00  0.00     0.014 A 
ATOM     34  C   UNL A   1      38.321  31.204  28.951  1.00  0.00     0.010 A 
ATOM     35  C   UNL A   1      37.349  29.009  28.665  1.00  0.00     0.010 A 
ATOM     36  C   UNL A   1      38.464  29.816  28.869  1.00  0.00    -0.014 A 
BRANCH  36  37
ATOM     37  C   UNL A   1      39.782  29.235  29.113  1.00  0.00     0.031 A 
ATOM     38  C   UNL A   1      40.134  29.081  30.556  1.00  0.00     0.074 A 
ATOM     39  C   UNL A   1      40.571  28.759  28.126  1.00  0.00     0.049 A 
ATOM     40  N   UNL A   1      41.087  29.658  31.212  1.00  0.00    -0.248 NA
ATOM     41  C   UNL A   1      39.225  28.293  31.404  1.00  0.00     0.031 C 
ATOM     42  C   UNL A   1      40.254  28.602  26.704  1.00  0.00     0.029 A 
ATOM     43  N   UNL A   1      41.821  28.223  28.211  1.00  0.00    -0.354 N 
ATOM     44  C   UNL A   1      41.030  29.150  32.509  1.00  0.00     0.074 A 
ATOM     45  C   UNL A   1      39.780  28.443  32.608  1.00  0.00     0.031 C 
ATOM     46  C   UNL A   1      41.179  27.804  26.121  1.00  0.00     0.029 A 
ATOM     47  C   UNL A   1      42.227  27.518  27.083  1.00  0.00     0.049 A 
ATOM     48  H   UNL A   1      42.390  28.328  29.007  1.00  0.00     0.167 HD
ATOM     49  C   UNL A   1      42.112  29.179  33.339  1.00  0.00     0.037 A 
ATOM     50  C   UNL A   1      43.322  26.720  26.973  1.00  0.00     0.037 A 
ATOM     51  C   UNL A   1      43.094  30.124  32.877  1.00  0.00     0.049 A 
ATOM     52  C   UNL A   1      44.260  27.130  28.051  1.00  0.00     0.074 A 
ATOM     53  C   UNL A   1      43.113  31.492  32.684  1.00  0.00     0.029 A 
ATOM     54  N   UNL A   1      44.182  29.635  32.196  1.00  0.00    -0.354 N 
ATOM     55  N   UNL A   1      44.852  28.293  28.093  1.00  0.00    -0.248 NA
ATOM     56  C   UNL A   1      44.175  26.423  29.319  1.00  0.00     0.031 C 
ATOM     57  C   UNL A   1      43.899  31.685  31.513  1.00  0.00     0.029 A 
ATOM     58  C   UNL A   1      44.365  30.435  31.100  1.00  0.00     0.049 A 
ATOM     59  H   UNL A   1      44.727  28.855  32.449  1.00  0.00     0.167 HD
ATOM     60  C   UNL A   1      44.837  28.649  29.434  1.00  0.00     0.074 A 
ATOM     61  C   UNL A   1      44.472  27.427  30.149  1.00  0.00     0.031 C 
ATOM     62  C   UNL A   1      44.845  29.958  29.821  1.00  0.00     0.037 A 
BRANCH  49  63
ATOM     63  C   UNL A   1      42.453  28.112  34.355  1.00  0.00     0.058 A 
ATOM     64  C   UNL A   1      42.502  28.454  35.725  1.00  0.00     0.135 A 
ATOM     65  C   UNL A   1      43.031  26.867  34.021  1.00  0.00     0.135 A 
ATOM     66  F   UNL A   1      41.974  29.608  36.162  1.00  0.00    -0.206 F 
ATOM     67  C   UNL A   1      43.166  27.670  36.669  1.00  0.00     0.059 A 
ATOM     68  C   UNL A   1      43.652  26.046  34.957  1.00  0.00     0.059 A 
ATOM     69  F   UNL A   1      43.108  26.428  32.760  1.00  0.00    -0.206 F 
ATOM     70  C   UNL A   1      43.758  26.478  36.269  1.00  0.00     0.060 A 
BRANCH  70  71
ATOM     71  S   UNL A   1      44.730  25.530  37.452  1.00  0.00     0.124 S 
ATOM     72  O   UNL A   1      46.074  26.049  37.205  1.00  0.00    -0.237 OA
ATOM     73  O   UNL A   1      44.120  25.922  38.722  1.00  0.00    -0.237 OA
ATOM     74  O   UNL A   1      44.502  24.152  37.051  1.00  0.00    -0.744 OA
ENDBRANCH  70  71
ENDBRANCH  49  63
BRANCH  50  75
ATOM     75  C   UNL A   1      43.445  25.415  26.261  1.00  0.00     0.058 A 
ATOM     76  C   UNL A   1      44.495  25.173  25.352  1.00  0.00     0.135 A 
ATOM     77  C   UNL A   1      42.716  24.280  26.671  1.00  0.00     0.135 A 
ATOM     78  F   UNL A   1      45.255  26.189  24.917  1.00  0.00    -0.206 F 
ATOM     79  C   UNL A   1      44.836  23.883  24.926  1.00  0.00     0.059 A 
ATOM     80  C   UNL A   1      43.032  22.987  26.253  1.00  0.00     0.059 A 
ATOM     81  F   UNL A   1      41.726  24.381  27.570  1.00  0.00    -0.206 F 
ATOM     82  C   UNL A   1      44.113  22.792  25.402  1.00  0.00     0.060 A 
BRANCH  82  83
ATOM     83  S   UNL A   1      44.659  21.113  25.001  1.00  0.00     0.124 S 
ATOM     84  O   UNL A   1      46.030  21.112  25.502  1.00  0.00    -0.237 OA
ATOM     85  O   UNL A   1      43.708  20.294  25.744  1.00  0.00    -0.237 OA
ATOM     86  O   UNL A   1      44.528  21.051  23.547  1.00  0.00    -0.744 OA
ENDBRANCH  82  83
ENDBRANCH  50  75
BRANCH  62  87
ATOM     87  C   UNL A   1      45.140  31.019  28.794  1.00  0.00     0.058 A 
ATOM     88  C   UNL A   1      44.166  31.619  27.976  1.00  0.00     0.135 A 
ATOM     89  C   UNL A   1      46.416  31.602  28.806  1.00  0.00     0.135 A 
ATOM     90  F   UNL A   1      42.901  31.177  27.973  1.00  0.00    -0.206 F 
ATOM     91  C   UNL A   1      44.451  32.747  27.203  1.00  0.00     0.059 A 
ATOM     92  C   UNL A   1      46.714  32.743  28.067  1.00  0.00     0.059 A 
ATOM     93  F   UNL A   1      47.373  31.107  29.609  1.00  0.00    -0.206 F 
ATOM     94  C   UNL A   1      45.725  33.312  27.268  1.00  0.00     0.060 A 
BRANCH  94  95
ATOM     95  S   UNL A   1      46.050  34.850  26.377  1.00  0.00     0.124 S 
ATOM     96  O   UNL A   1      46.202  34.385  25.002  1.00  0.00    -0.237 OA
ATOM     97  O   UNL A   1      44.850  35.636  26.651  1.00  0.00    -0.237 OA
ATOM     98  O   UNL A   1      47.270  35.357  27.002  1.00  0.00    -0.744 OA
ENDBRANCH  94  95
ENDBRANCH  62  87
ENDBRANCH  36  37
ENDBRANCH  28  31
ENDBRANCH  26  27
ENDBRANCH   1  26
TORSDOF 16
ENDMDL
MODEL 3
REMARK VINA RESULT:     -12.3      3.436      6.731
REMARK SMILES CCc1cccc2c3c([nH]c12)[C@](CC)(CC(=O)NCCCNC(=O)c1ccc(-c2c4nc(c(-c5c(F)cc(S(=O)(=O)[O-])cc5F)c5ccc([nH]5)c(-c5c(F)cc(S(=O)(=O)[O-])cc5F)c5nc(c(-c6c(F)cc(S(=O)(=O)[O-])cc6F)c6ccc2[nH]6)C=C5)C=C4)cc1)OCC3
REMARK SMILES IDX 20 1 19 2 18 3 16 4 17 5 15 7 12 8 3 9 4 10 11 11 5 12 7 13
REMARK SMILES IDX 10 14 6 15 8 16 9 17 93 19 92 20 91 21 2 22 1 23 13 24 14 25
REMARK SMILES IDX 21 26 22 27 23 28 24 30 25 31 26 32 90 33 27 34 89 35 28 36
REMARK SMILES IDX 29 37 30 38 83 39 31 40 88 41 82 42 84 43 32 44 87 45 81 46
REMARK SMILES IDX 80 47 33 49 67 50 46 51 66 52 47 53 50 54 65 55 85 56 48 57
REMARK SMILES IDX 49 58 64 60 86 61 51 62 34 63 35 64 44 65 36 66 37 67 43 68
REMARK SMILES IDX 45 69 38 70 39 71 40 72 41 73 42 74 68 75 69 76 78 77 70 78
REMARK SMILES IDX 71 79 77 80 79 81 72 82 73 83 74 84 75 85 76 86 52 87 53 88
REMARK SMILES IDX 62 89 54 90 55 91 61 92 63 93 56 94 57 95 58 96 59 97 60 98
REMARK H PARENT 18 6 10 18 22 29 84 48 50 59
REMARK Flexibility Score: inf
ROOT
ATOM      1  C   UNL A   1      43.072  23.527  24.713  1.00  0.00     0.042 C 
ENDROOT
BRANCH   1   2
ATOM      2  C   UNL A   1      43.344  24.853  25.455  1.00  0.00     0.117 C 
BRANCH   2   3
ATOM      3  N   UNL A   1      44.609  25.511  25.122  1.00  0.00    -0.356 N 
ATOM      4  C   UNL A   1      45.513  26.215  25.872  1.00  0.00     0.223 C 
ATOM      5  O   UNL A   1      46.456  26.739  25.275  1.00  0.00    -0.275 OA
ATOM      6  H   UNL A   1      44.858  25.433  24.174  1.00  0.00     0.163 HD
BRANCH   4   7
ATOM      7  C   UNL A   1      45.410  26.268  27.380  1.00  0.00     0.142 C 
BRANCH   7   8
ATOM      8  C   UNL A   1      46.199  25.266  28.260  1.00  0.00     0.117 C 
ATOM      9  C   UNL A   1      45.570  25.463  33.303  1.00  0.00    -0.024 A 
ATOM     10  C   UNL A   1      44.788  24.674  34.181  1.00  0.00     0.006 A 
ATOM     11  C   UNL A   1      45.420  25.190  31.927  1.00  0.00     0.049 A 
ATOM     12  C   UNL A   1      43.917  23.688  33.726  1.00  0.00     0.001 A 
ATOM     13  C   UNL A   1      44.588  24.173  31.462  1.00  0.00     0.003 A 
ATOM     14  N   UNL A   1      46.030  25.743  30.809  1.00  0.00    -0.356 N 
ATOM     15  C   UNL A   1      43.818  23.420  32.366  1.00  0.00     0.010 A 
ATOM     16  C   UNL A   1      44.827  24.057  30.077  1.00  0.00    -0.014 A 
ATOM     17  C   UNL A   1      45.651  25.082  29.665  1.00  0.00     0.052 A 
ATOM     18  H   UNL A   1      46.652  26.507  30.833  1.00  0.00     0.166 HD
ATOM     19  C   UNL A   1      44.443  22.953  29.193  1.00  0.00     0.066 C 
ATOM     20  C   UNL A   1      45.094  23.115  27.828  1.00  0.00     0.166 C 
ATOM     21  O   UNL A   1      46.263  23.933  27.704  1.00  0.00    -0.368 OA
BRANCH   9  22
ATOM     22  C   UNL A   1      46.562  26.439  33.880  1.00  0.00     0.034 C 
ATOM     23  C   UNL A   1      46.265  26.836  35.316  1.00  0.00     0.009 C 
ENDBRANCH   9  22
BRANCH   8  24
ATOM     24  C   UNL A   1      47.686  25.749  28.334  1.00  0.00     0.039 C 
ATOM     25  C   UNL A   1      48.669  25.020  27.414  1.00  0.00     0.007 C 
ENDBRANCH   8  24
ENDBRANCH   7   8
ENDBRANCH   4   7
ENDBRANCH   2   3
ENDBRANCH   1   2
BRANCH   1  26
ATOM     26  C   UNL A   1      42.821  22.296  25.593  1.00  0.00     0.118 C 
BRANCH  26  27
ATOM     27  N   UNL A   1      41.449  21.878  25.712  1.00  0.00    -0.352 N 
ATOM     28  C   UNL A   1      40.317  22.526  26.121  1.00  0.00     0.251 C 
ATOM     29  H   UNL A   1      41.295  20.942  25.447  1.00  0.00     0.163 HD
ATOM     30  O   UNL A   1      39.246  21.940  25.953  1.00  0.00    -0.269 OA
BRANCH  28  31
ATOM     31  C   UNL A   1      40.329  23.823  26.842  1.00  0.00     0.039 A 
ATOM     32  C   UNL A   1      39.611  24.966  26.482  1.00  0.00     0.014 A 
ATOM     33  C   UNL A   1      41.158  23.867  27.973  1.00  0.00     0.014 A 
ATOM     34  C   UNL A   1      39.840  26.167  27.144  1.00  0.00     0.010 A 
ATOM     35  C   UNL A   1      41.349  25.052  28.668  1.00  0.00     0.010 A 
ATOM     36  C   UNL A   1      40.742  26.217  28.210  1.00  0.00    -0.014 A 
BRANCH  36  37
ATOM     37  C   UNL A   1      40.941  27.491  28.896  1.00  0.00     0.031 A 
ATOM     38  C   UNL A   1      42.038  28.334  28.334  1.00  0.00     0.074 A 
ATOM     39  C   UNL A   1      40.126  27.933  29.878  1.00  0.00     0.049 A 
ATOM     40  N   UNL A   1      43.138  28.702  28.907  1.00  0.00    -0.248 NA
ATOM     41  C   UNL A   1      41.965  28.695  26.909  1.00  0.00     0.031 C 
ATOM     42  C   UNL A   1      38.871  27.345  30.351  1.00  0.00     0.029 A 
ATOM     43  N   UNL A   1      40.213  29.076  30.614  1.00  0.00    -0.354 N 
ATOM     44  C   UNL A   1      43.802  29.514  27.989  1.00  0.00     0.074 A 
ATOM     45  C   UNL A   1      43.117  29.345  26.735  1.00  0.00     0.031 C 
ATOM     46  C   UNL A   1      38.207  28.248  31.110  1.00  0.00     0.029 A 
ATOM     47  C   UNL A   1      39.051  29.414  31.300  1.00  0.00     0.049 A 
ATOM     48  H   UNL A   1      41.033  29.619  30.656  1.00  0.00     0.167 HD
ATOM     49  C   UNL A   1      44.742  30.420  28.383  1.00  0.00     0.037 A 
ATOM     50  C   UNL A   1      38.792  30.588  31.933  1.00  0.00     0.037 A 
ATOM     51  C   UNL A   1      45.221  30.128  29.709  1.00  0.00     0.049 A 
ATOM     52  C   UNL A   1      40.107  31.224  32.210  1.00  0.00     0.074 A 
ATOM     53  C   UNL A   1      45.892  29.069  30.289  1.00  0.00     0.029 A 
ATOM     54  N   UNL A   1      44.711  30.864  30.750  1.00  0.00    -0.354 N 
ATOM     55  N   UNL A   1      40.991  30.731  33.035  1.00  0.00    -0.248 NA
ATOM     56  C   UNL A   1      40.625  32.155  31.219  1.00  0.00     0.031 C 
ATOM     57  C   UNL A   1      45.334  28.953  31.594  1.00  0.00     0.029 A 
ATOM     58  C   UNL A   1      44.406  29.984  31.755  1.00  0.00     0.049 A 
ATOM     59  H   UNL A   1      44.588  31.840  30.769  1.00  0.00     0.167 HD
ATOM     60  C   UNL A   1      42.213  30.953  32.417  1.00  0.00     0.074 A 
ATOM     61  C   UNL A   1      41.929  31.896  31.337  1.00  0.00     0.031 C 
ATOM     62  C   UNL A   1      43.286  30.143  32.656  1.00  0.00     0.037 A 
BRANCH  49  63
ATOM     63  C   UNL A   1      44.971  31.768  27.736  1.00  0.00     0.058 A 
ATOM     64  C   UNL A   1      46.193  32.017  27.073  1.00  0.00     0.135 A 
ATOM     65  C   UNL A   1      44.184  32.910  28.003  1.00  0.00     0.135 A 
ATOM     66  F   UNL A   1      47.019  31.006  26.756  1.00  0.00    -0.206 F 
ATOM     67  C   UNL A   1      46.645  33.307  26.795  1.00  0.00     0.059 A 
ATOM     68  C   UNL A   1      44.594  34.201  27.687  1.00  0.00     0.059 A 
ATOM     69  F   UNL A   1      43.026  32.843  28.670  1.00  0.00    -0.206 F 
ATOM     70  C   UNL A   1      45.846  34.394  27.127  1.00  0.00     0.060 A 
BRANCH  70  71
ATOM     71  S   UNL A   1      46.479  36.064  26.895  1.00  0.00     0.124 S 
ATOM     72  O   UNL A   1      47.380  36.194  28.039  1.00  0.00    -0.237 OA
ATOM     73  O   UNL A   1      47.124  35.959  25.586  1.00  0.00    -0.237 OA
ATOM     74  O   UNL A   1      45.284  36.889  26.935  1.00  0.00    -0.744 OA
ENDBRANCH  70  71
ENDBRANCH  49  63
BRANCH  50  75
ATOM     75  C   UNL A   1      37.511  31.353  31.973  1.00  0.00     0.058 A 
ATOM     76  C   UNL A   1      36.927  31.738  33.196  1.00  0.00     0.135 A 
ATOM     77  C   UNL A   1      36.987  31.974  30.821  1.00  0.00     0.135 A 
ATOM     78  F   UNL A   1      37.370  31.213  34.349  1.00  0.00    -0.206 F 
ATOM     79  C   UNL A   1      35.931  32.720  33.276  1.00  0.00     0.059 A 
ATOM     80  C   UNL A   1      35.989  32.948  30.875  1.00  0.00     0.059 A 
ATOM     81  F   UNL A   1      37.497  31.722  29.606  1.00  0.00    -0.206 F 
ATOM     82  C   UNL A   1      35.485  33.338  32.109  1.00  0.00     0.060 A 
BRANCH  82  83
ATOM     83  S   UNL A   1      34.333  34.730  32.219  1.00  0.00     0.124 S 
ATOM     84  O   UNL A   1      33.209  34.138  32.938  1.00  0.00    -0.237 OA
ATOM     85  O   UNL A   1      35.113  35.718  32.957  1.00  0.00    -0.237 OA
ATOM     86  O   UNL A   1      34.071  35.065  30.821  1.00  0.00    -0.744 OA
ENDBRANCH  82  83
ENDBRANCH  50  75
BRANCH  62  87
ATOM     87  C   UNL A   1      43.218  29.163  33.797  1.00  0.00     0.058 A 
ATOM     88  C   UNL A   1      43.412  29.508  35.147  1.00  0.00     0.135 A 
ATOM     89  C   UNL A   1      42.715  27.881  33.528  1.00  0.00     0.135 A 
ATOM     90  F   UNL A   1      43.806  30.741  35.493  1.00  0.00    -0.206 F 
ATOM     91  C   UNL A   1      43.119  28.616  36.181  1.00  0.00     0.059 A 
ATOM     92  C   UNL A   1      42.388  26.988  34.544  1.00  0.00     0.059 A 
ATOM     93  F   UNL A   1      42.457  27.513  32.262  1.00  0.00    -0.206 F 
ATOM     94  C   UNL A   1      42.592  27.362  35.870  1.00  0.00     0.060 A 
BRANCH  94  95
ATOM     95  S   UNL A   1      42.084  26.265  37.212  1.00  0.00     0.124 S 
ATOM     96  O   UNL A   1      40.749  26.761  37.529  1.00  0.00    -0.237 OA
ATOM     97  O   UNL A   1      42.138  24.947  36.583  1.00  0.00    -0.237 OA
ATOM     98  O   UNL A   1      43.095  26.492  38.243  1.00  0.00    -0.744 OA
ENDBRANCH  94  95
ENDBRANCH  62  87
ENDBRANCH  36  37
ENDBRANCH  28  31
ENDBRANCH  26  27
ENDBRANCH   1  26
TORSDOF 16
ENDMDL
