MODEL 1
REMARK VINA RESULT:     -12.8      0.000      0.000
REMARK SMILES NS(=O)(=O)c1ccc(N2N=C(C(=O)NCCCNC(=O)c3ccc(-c4c5nc(c(-c6c(F)cc(S(=O)(=O)[O-])cc6F)c6ccc([nH]6)c(-c6c(F)cc(S(=O)(=O)[O-])cc6F)c6nc(c(-c7c(F)cc(S(=O)(=O)[O-])cc7F)c7ccc4[nH]7)C=C6)C=C5)cc3)C[C@H]2c2ccco2)cc1
REMARK SMILES IDX 16 1 15 2 14 3 12 4 13 5 11 7 9 8 10 9 88 10 87 11 8 12 5 13
REMARK SMILES IDX 6 14 95 15 7 16 94 17 2 18 3 19 4 20 1 21 89 24 90 25 93 26
REMARK SMILES IDX 91 27 92 28 17 29 18 30 19 31 20 33 21 34 22 35 86 36 23 37
REMARK SMILES IDX 85 38 24 39 25 40 26 41 79 42 27 43 84 44 78 45 80 46 28 47
REMARK SMILES IDX 83 48 77 49 76 50 29 52 63 53 42 54 62 55 43 56 46 57 61 58
REMARK SMILES IDX 81 59 44 60 45 61 60 63 82 64 47 65 30 66 31 67 40 68 32 69
REMARK SMILES IDX 33 70 39 71 41 72 34 73 35 74 36 75 37 76 38 77 64 78 65 79
REMARK SMILES IDX 74 80 66 81 67 82 73 83 75 84 68 85 69 86 70 87 71 88 72 89
REMARK SMILES IDX 48 90 49 91 58 92 50 93 51 94 57 95 59 96 52 97 53 98 54 99
REMARK SMILES IDX 55 100 56 101
REMARK H PARENT 14 6 1 22 1 23 18 32 80 51 46 62
REMARK Flexibility Score: inf
ROOT
ATOM      1  C   UNL A   1      37.966  23.162  25.700  1.00  0.00     0.042 C 
ENDROOT
BRANCH   1   2
ATOM      2  C   UNL A   1      36.519  23.637  25.682  1.00  0.00     0.118 C 
BRANCH   2   3
ATOM      3  N   UNL A   1      35.939  23.527  24.356  1.00  0.00    -0.351 N 
ATOM      4  C   UNL A   1      34.808  24.011  23.751  1.00  0.00     0.267 C 
ATOM      5  O   UNL A   1      34.573  23.628  22.606  1.00  0.00    -0.268 OA
ATOM      6  H   UNL A   1      36.484  22.975  23.750  1.00  0.00     0.163 HD
BRANCH   4   7
ATOM      7  C   UNL A   1      33.869  25.026  24.381  1.00  0.00     0.128 C 
ATOM      8  N   UNL A   1      32.406  26.570  24.464  1.00  0.00    -0.254 N 
ATOM      9  N   UNL A   1      32.972  25.635  23.661  1.00  0.00    -0.171 NA
ATOM     10  C   UNL A   1      32.804  26.478  25.869  1.00  0.00     0.180 C 
ATOM     11  C   UNL A   1      33.918  25.426  25.815  1.00  0.00     0.099 C 
BRANCH   8  12
ATOM     12  C   UNL A   1      31.313  27.299  24.023  1.00  0.00     0.060 A 
ATOM     13  C   UNL A   1      29.131  28.818  23.120  1.00  0.00     0.082 A 
ATOM     14  C   UNL A   1      28.935  27.497  23.535  1.00  0.00     0.024 A 
ATOM     15  C   UNL A   1      30.406  29.381  23.138  1.00  0.00     0.024 A 
ATOM     16  C   UNL A   1      30.029  26.742  23.970  1.00  0.00     0.029 A 
ATOM     17  C   UNL A   1      31.483  28.619  23.586  1.00  0.00     0.029 A 
BRANCH  13  18
ATOM     18  S   UNL A   1      27.732  29.751  22.584  1.00  0.00     0.238 S 
ATOM     19  O   UNL A   1      27.825  29.941  21.157  1.00  0.00    -0.207 OA
ATOM     20  O   UNL A   1      27.517  30.839  23.509  1.00  0.00    -0.207 OA
BRANCH  18  21
ATOM     21  N   UNL A   1      26.421  28.716  22.803  1.00  0.00    -0.225 NA
ATOM     22  H   UNL A   1      26.082  28.795  23.761  1.00  0.00     0.137 HD
ATOM     23  H   UNL A   1      26.711  27.756  22.621  1.00  0.00     0.137 HD
ENDBRANCH  18  21
ENDBRANCH  13  18
ENDBRANCH   8  12
BRANCH  10  24
ATOM     24  C   UNL A   1      33.242  27.747  26.544  1.00  0.00     0.128 A 
ATOM     25  C   UNL A   1      32.570  28.684  27.307  1.00  0.00     0.048 A 
ATOM     26  O   UNL A   1      34.550  28.126  26.417  1.00  0.00    -0.467 OA
ATOM     27  C   UNL A   1      33.515  29.680  27.654  1.00  0.00     0.042 A 
ATOM     28  C   UNL A   1      34.708  29.283  27.101  1.00  0.00     0.195 A 
ENDBRANCH  10  24
ENDBRANCH   4   7
ENDBRANCH   2   3
ENDBRANCH   1   2
BRANCH   1  29
ATOM     29  C   UNL A   1      38.870  24.024  26.573  1.00  0.00     0.118 C 
BRANCH  29  30
ATOM     30  N   UNL A   1      40.235  24.080  26.063  1.00  0.00    -0.352 N 
ATOM     31  C   UNL A   1      41.255  24.953  26.346  1.00  0.00     0.251 C 
ATOM     32  H   UNL A   1      40.460  23.378  25.411  1.00  0.00     0.163 HD
ATOM     33  O   UNL A   1      42.246  24.970  25.620  1.00  0.00    -0.269 OA
BRANCH  31  34
ATOM     34  C   UNL A   1      41.164  25.872  27.500  1.00  0.00     0.039 A 
ATOM     35  C   UNL A   1      42.051  26.950  27.579  1.00  0.00     0.014 A 
ATOM     36  C   UNL A   1      40.239  25.656  28.524  1.00  0.00     0.014 A 
ATOM     37  C   UNL A   1      41.964  27.842  28.650  1.00  0.00     0.010 A 
ATOM     38  C   UNL A   1      40.096  26.593  29.544  1.00  0.00     0.010 A 
ATOM     39  C   UNL A   1      40.962  27.692  29.621  1.00  0.00    -0.014 A 
BRANCH  39  40
ATOM     40  C   UNL A   1      40.805  28.671  30.727  1.00  0.00     0.031 A 
ATOM     41  C   UNL A   1      41.657  28.565  31.963  1.00  0.00     0.074 A 
ATOM     42  C   UNL A   1      39.846  29.616  30.643  1.00  0.00     0.049 A 
ATOM     43  N   UNL A   1      41.619  29.283  33.055  1.00  0.00    -0.248 NA
ATOM     44  C   UNL A   1      42.664  27.489  31.988  1.00  0.00     0.031 C 
ATOM     45  C   UNL A   1      38.916  29.780  29.523  1.00  0.00     0.029 A 
ATOM     46  N   UNL A   1      39.487  30.608  31.518  1.00  0.00    -0.354 N 
ATOM     47  C   UNL A   1      42.579  28.738  33.901  1.00  0.00     0.074 A 
ATOM     48  C   UNL A   1      43.147  27.598  33.218  1.00  0.00     0.031 C 
ATOM     49  C   UNL A   1      38.110  30.826  29.768  1.00  0.00     0.029 A 
ATOM     50  C   UNL A   1      38.440  31.383  31.076  1.00  0.00     0.049 A 
ATOM     51  H   UNL A   1      39.935  30.753  32.383  1.00  0.00     0.167 HD
ATOM     52  C   UNL A   1      42.967  29.164  35.127  1.00  0.00     0.037 A 
ATOM     53  C   UNL A   1      37.815  32.423  31.660  1.00  0.00     0.037 A 
ATOM     54  C   UNL A   1      42.422  30.323  35.786  1.00  0.00     0.049 A 
ATOM     55  C   UNL A   1      38.284  32.896  33.008  1.00  0.00     0.074 A 
ATOM     56  C   UNL A   1      42.796  30.880  36.996  1.00  0.00     0.029 A 
ATOM     57  N   UNL A   1      41.391  31.106  35.289  1.00  0.00    -0.354 N 
ATOM     58  N   UNL A   1      39.240  32.411  33.763  1.00  0.00    -0.248 NA
ATOM     59  C   UNL A   1      37.597  34.062  33.580  1.00  0.00     0.031 C 
ATOM     60  C   UNL A   1      41.967  31.978  37.248  1.00  0.00     0.029 A 
ATOM     61  C   UNL A   1      41.105  32.131  36.174  1.00  0.00     0.049 A 
ATOM     62  H   UNL A   1      40.930  30.953  34.432  1.00  0.00     0.167 HD
ATOM     63  C   UNL A   1      39.285  33.225  34.889  1.00  0.00     0.074 A 
ATOM     64  C   UNL A   1      38.270  34.243  34.708  1.00  0.00     0.031 C 
ATOM     65  C   UNL A   1      40.094  33.139  35.974  1.00  0.00     0.037 A 
BRANCH  52  66
ATOM     66  C   UNL A   1      44.042  28.383  35.831  1.00  0.00     0.058 A 
ATOM     67  C   UNL A   1      43.732  27.330  36.707  1.00  0.00     0.135 A 
ATOM     68  C   UNL A   1      45.399  28.659  35.595  1.00  0.00     0.135 A 
ATOM     69  F   UNL A   1      42.452  27.033  36.981  1.00  0.00    -0.206 F 
ATOM     70  C   UNL A   1      44.727  26.597  37.345  1.00  0.00     0.059 A 
ATOM     71  C   UNL A   1      46.411  27.921  36.202  1.00  0.00     0.059 A 
ATOM     72  F   UNL A   1      45.752  29.654  34.767  1.00  0.00    -0.206 F 
ATOM     73  C   UNL A   1      46.065  26.900  37.086  1.00  0.00     0.060 A 
BRANCH  73  74
ATOM     74  S   UNL A   1      47.344  25.930  37.912  1.00  0.00     0.124 S 
ATOM     75  O   UNL A   1      48.336  26.958  38.216  1.00  0.00    -0.237 OA
ATOM     76  O   UNL A   1      46.628  25.382  39.060  1.00  0.00    -0.237 OA
ATOM     77  O   UNL A   1      47.739  24.956  36.901  1.00  0.00    -0.744 OA
ENDBRANCH  73  74
ENDBRANCH  52  66
BRANCH  53  78
ATOM     78  C   UNL A   1      36.694  33.104  30.958  1.00  0.00     0.058 A 
ATOM     79  C   UNL A   1      35.368  32.926  31.379  1.00  0.00     0.135 A 
ATOM     80  C   UNL A   1      36.926  33.958  29.870  1.00  0.00     0.135 A 
ATOM     81  F   UNL A   1      35.095  32.118  32.414  1.00  0.00    -0.206 F 
ATOM     82  C   UNL A   1      34.308  33.555  30.733  1.00  0.00     0.059 A 
ATOM     83  C   UNL A   1      35.886  34.616  29.223  1.00  0.00     0.059 A 
ATOM     84  F   UNL A   1      38.180  34.178  29.442  1.00  0.00    -0.206 F 
ATOM     85  C   UNL A   1      34.578  34.400  29.655  1.00  0.00     0.060 A 
BRANCH  85  86
ATOM     86  S   UNL A   1      33.202  35.251  28.855  1.00  0.00     0.124 S 
ATOM     87  O   UNL A   1      32.431  35.709  30.005  1.00  0.00    -0.237 OA
ATOM     88  O   UNL A   1      33.885  36.289  28.089  1.00  0.00    -0.237 OA
ATOM     89  O   UNL A   1      32.580  34.201  28.054  1.00  0.00    -0.744 OA
ENDBRANCH  85  86
ENDBRANCH  53  78
BRANCH  65  90
ATOM     90  C   UNL A   1      39.935  34.189  37.036  1.00  0.00     0.058 A 
ATOM     91  C   UNL A   1      40.509  35.463  36.904  1.00  0.00     0.135 A 
ATOM     92  C   UNL A   1      39.160  33.933  38.178  1.00  0.00     0.135 A 
ATOM     93  F   UNL A   1      41.264  35.755  35.833  1.00  0.00    -0.206 F 
ATOM     94  C   UNL A   1      40.341  36.439  37.879  1.00  0.00     0.059 A 
ATOM     95  C   UNL A   1      38.956  34.902  39.154  1.00  0.00     0.059 A 
ATOM     96  F   UNL A   1      38.580  32.734  38.347  1.00  0.00    -0.206 F 
ATOM     97  C   UNL A   1      39.562  36.149  39.001  1.00  0.00     0.060 A 
BRANCH  97  98
ATOM     98  S   UNL A   1      39.326  37.434  40.248  1.00  0.00     0.124 S 
ATOM     99  O   UNL A   1      38.525  38.409  39.516  1.00  0.00    -0.237 OA
ATOM    100  O   UNL A   1      38.633  36.714  41.312  1.00  0.00    -0.237 OA
ATOM    101  O   UNL A   1      40.688  37.852  40.566  1.00  0.00    -0.744 OA
ENDBRANCH  97  98
ENDBRANCH  65  90
ENDBRANCH  39  40
ENDBRANCH  31  34
ENDBRANCH  29  30
ENDBRANCH   1  29
TORSDOF 17
ENDMDL
MODEL 2
REMARK VINA RESULT:     -12.7      5.040     12.037
REMARK SMILES NS(=O)(=O)c1ccc(N2N=C(C(=O)NCCCNC(=O)c3ccc(-c4c5nc(c(-c6c(F)cc(S(=O)(=O)[O-])cc6F)c6ccc([nH]6)c(-c6c(F)cc(S(=O)(=O)[O-])cc6F)c6nc(c(-c7c(F)cc(S(=O)(=O)[O-])cc7F)c7ccc4[nH]7)C=C6)C=C5)cc3)C[C@H]2c2ccco2)cc1
REMARK SMILES IDX 16 1 15 2 14 3 12 4 13 5 11 7 9 8 10 9 88 10 87 11 8 12 5 13
REMARK SMILES IDX 6 14 95 15 7 16 94 17 2 18 3 19 4 20 1 21 89 24 90 25 93 26
REMARK SMILES IDX 91 27 92 28 17 29 18 30 19 31 20 33 21 34 22 35 86 36 23 37
REMARK SMILES IDX 85 38 24 39 25 40 26 41 79 42 27 43 84 44 78 45 80 46 28 47
REMARK SMILES IDX 83 48 77 49 76 50 29 52 63 53 42 54 62 55 43 56 46 57 61 58
REMARK SMILES IDX 81 59 44 60 45 61 60 63 82 64 47 65 30 66 31 67 40 68 32 69
REMARK SMILES IDX 33 70 39 71 41 72 34 73 35 74 36 75 37 76 38 77 64 78 65 79
REMARK SMILES IDX 74 80 66 81 67 82 73 83 75 84 68 85 69 86 70 87 71 88 72 89
REMARK SMILES IDX 48 90 49 91 58 92 50 93 51 94 57 95 59 96 52 97 53 98 54 99
REMARK SMILES IDX 55 100 56 101
REMARK H PARENT 14 6 1 22 1 23 18 32 80 51 46 62
REMARK Flexibility Score: inf
ROOT
ATOM      1  C   UNL A   1      34.146  33.652  28.917  1.00  0.00     0.042 C 
ENDROOT
BRANCH   1   2
ATOM      2  C   UNL A   1      34.946  33.280  30.157  1.00  0.00     0.118 C 
BRANCH   2   3
ATOM      3  N   UNL A   1      34.104  33.222  31.339  1.00  0.00    -0.351 N 
ATOM      4  C   UNL A   1      34.325  33.025  32.676  1.00  0.00     0.267 C 
ATOM      5  O   UNL A   1      33.338  32.940  33.405  1.00  0.00    -0.268 OA
ATOM      6  H   UNL A   1      33.152  33.356  31.129  1.00  0.00     0.163 HD
BRANCH   4   7
ATOM      7  C   UNL A   1      35.702  32.964  33.316  1.00  0.00     0.128 C 
ATOM      8  N   UNL A   1      37.560  32.116  33.917  1.00  0.00    -0.254 N 
ATOM      9  N   UNL A   1      36.488  31.950  33.102  1.00  0.00    -0.171 NA
ATOM     10  C   UNL A   1      37.604  33.412  34.595  1.00  0.00     0.180 C 
ATOM     11  C   UNL A   1      36.236  34.004  34.240  1.00  0.00     0.099 C 
BRANCH   8  12
ATOM     12  C   UNL A   1      38.647  31.261  33.823  1.00  0.00     0.060 A 
ATOM     13  C   UNL A   1      40.815  29.491  33.607  1.00  0.00     0.082 A 
ATOM     14  C   UNL A   1      40.991  30.736  34.219  1.00  0.00     0.024 A 
ATOM     15  C   UNL A   1      39.573  29.129  33.089  1.00  0.00     0.024 A 
ATOM     16  C   UNL A   1      39.910  31.618  34.311  1.00  0.00     0.029 A 
ATOM     17  C   UNL A   1      38.502  30.014  33.200  1.00  0.00     0.029 A 
BRANCH  13  18
ATOM     18  S   UNL A   1      42.194  28.394  33.513  1.00  0.00     0.238 S 
ATOM     19  O   UNL A   1      41.907  27.223  34.304  1.00  0.00    -0.207 OA
ATOM     20  O   UNL A   1      43.410  29.161  33.657  1.00  0.00    -0.207 OA
BRANCH  18  21
ATOM     21  N   UNL A   1      42.200  27.852  31.918  1.00  0.00    -0.225 NA
ATOM     22  H   UNL A   1      43.148  27.900  31.545  1.00  0.00     0.137 HD
ATOM     23  H   UNL A   1      41.582  28.438  31.356  1.00  0.00     0.137 HD
ENDBRANCH  18  21
ENDBRANCH  13  18
ENDBRANCH   8  12
BRANCH  10  24
ATOM     24  C   UNL A   1      37.862  33.404  36.076  1.00  0.00     0.128 A 
ATOM     25  C   UNL A   1      38.755  34.092  36.876  1.00  0.00     0.048 A 
ATOM     26  O   UNL A   1      37.112  32.567  36.856  1.00  0.00    -0.467 OA
ATOM     27  C   UNL A   1      38.538  33.647  38.203  1.00  0.00     0.042 A 
ATOM     28  C   UNL A   1      37.516  32.732  38.137  1.00  0.00     0.195 A 
ENDBRANCH  10  24
ENDBRANCH   4   7
ENDBRANCH   2   3
ENDBRANCH   1   2
BRANCH   1  29
ATOM     29  C   UNL A   1      34.469  32.779  27.710  1.00  0.00     0.118 C 
BRANCH  29  30
ATOM     30  N   UNL A   1      33.777  31.497  27.759  1.00  0.00    -0.352 N 
ATOM     31  C   UNL A   1      34.275  30.220  27.837  1.00  0.00     0.251 C 
ATOM     32  H   UNL A   1      32.795  31.557  27.732  1.00  0.00     0.163 HD
ATOM     33  O   UNL A   1      33.526  29.272  27.616  1.00  0.00    -0.269 OA
BRANCH  31  34
ATOM     34  C   UNL A   1      35.695  29.982  28.170  1.00  0.00     0.039 A 
ATOM     35  C   UNL A   1      36.038  29.664  29.487  1.00  0.00     0.014 A 
ATOM     36  C   UNL A   1      36.695  30.112  27.203  1.00  0.00     0.014 A 
ATOM     37  C   UNL A   1      37.371  29.413  29.816  1.00  0.00     0.010 A 
ATOM     38  C   UNL A   1      38.010  29.777  27.512  1.00  0.00     0.010 A 
ATOM     39  C   UNL A   1      38.364  29.431  28.823  1.00  0.00    -0.014 A 
BRANCH  39  40
ATOM     40  C   UNL A   1      39.776  29.094  29.136  1.00  0.00     0.031 A 
ATOM     41  C   UNL A   1      40.685  30.125  29.750  1.00  0.00     0.074 A 
ATOM     42  C   UNL A   1      40.255  27.879  28.804  1.00  0.00     0.049 A 
ATOM     43  N   UNL A   1      41.959  30.039  30.032  1.00  0.00    -0.248 NA
ATOM     44  C   UNL A   1      40.091  31.438  30.059  1.00  0.00     0.031 C 
ATOM     45  C   UNL A   1      39.489  26.817  28.148  1.00  0.00     0.029 A 
ATOM     46  N   UNL A   1      41.504  27.334  28.962  1.00  0.00    -0.354 N 
ATOM     47  C   UNL A   1      42.323  31.284  30.532  1.00  0.00     0.074 A 
ATOM     48  C   UNL A   1      41.148  32.125  30.468  1.00  0.00     0.031 C 
ATOM     49  C   UNL A   1      40.276  25.742  27.982  1.00  0.00     0.029 A 
ATOM     50  C   UNL A   1      41.611  26.049  28.486  1.00  0.00     0.049 A 
ATOM     51  H   UNL A   1      42.255  27.818  29.378  1.00  0.00     0.167 HD
ATOM     52  C   UNL A   1      43.521  31.683  31.023  1.00  0.00     0.037 A 
ATOM     53  C   UNL A   1      42.666  25.212  28.455  1.00  0.00     0.037 A 
ATOM     54  C   UNL A   1      44.675  30.828  31.118  1.00  0.00     0.049 A 
ATOM     55  C   UNL A   1      43.977  25.668  29.032  1.00  0.00     0.074 A 
ATOM     56  C   UNL A   1      45.914  31.113  31.664  1.00  0.00     0.029 A 
ATOM     57  N   UNL A   1      44.733  29.519  30.661  1.00  0.00    -0.354 N 
ATOM     58  N   UNL A   1      44.284  26.827  29.565  1.00  0.00    -0.248 NA
ATOM     59  C   UNL A   1      45.084  24.701  29.015  1.00  0.00     0.031 C 
ATOM     60  C   UNL A   1      46.732  29.990  31.505  1.00  0.00     0.029 A 
ATOM     61  C   UNL A   1      45.990  28.990  30.898  1.00  0.00     0.049 A 
ATOM     62  H   UNL A   1      43.989  29.039  30.231  1.00  0.00     0.167 HD
ATOM     63  C   UNL A   1      45.611  26.721  29.966  1.00  0.00     0.074 A 
ATOM     64  C   UNL A   1      46.043  25.380  29.628  1.00  0.00     0.031 C 
ATOM     65  C   UNL A   1      46.400  27.650  30.560  1.00  0.00     0.037 A 
BRANCH  52  66
ATOM     66  C   UNL A   1      43.641  33.101  31.507  1.00  0.00     0.058 A 
ATOM     67  C   UNL A   1      43.543  33.424  32.871  1.00  0.00     0.135 A 
ATOM     68  C   UNL A   1      43.901  34.146  30.605  1.00  0.00     0.135 A 
ATOM     69  F   UNL A   1      43.280  32.467  33.774  1.00  0.00    -0.206 F 
ATOM     70  C   UNL A   1      43.670  34.734  33.319  1.00  0.00     0.059 A 
ATOM     71  C   UNL A   1      44.059  35.460  31.035  1.00  0.00     0.059 A 
ATOM     72  F   UNL A   1      44.004  33.894  29.290  1.00  0.00    -0.206 F 
ATOM     73  C   UNL A   1      43.929  35.746  32.394  1.00  0.00     0.060 A 
BRANCH  73  74
ATOM     74  S   UNL A   1      44.104  37.440  32.994  1.00  0.00     0.124 S 
ATOM     75  O   UNL A   1      43.145  37.459  34.094  1.00  0.00    -0.237 OA
ATOM     76  O   UNL A   1      45.511  37.490  33.380  1.00  0.00    -0.237 OA
ATOM     77  O   UNL A   1      43.747  38.250  31.835  1.00  0.00    -0.744 OA
ENDBRANCH  73  74
ENDBRANCH  52  66
BRANCH  53  78
ATOM     78  C   UNL A   1      42.516  23.849  27.880  1.00  0.00     0.058 A 
ATOM     79  C   UNL A   1      42.482  23.654  26.491  1.00  0.00     0.135 A 
ATOM     80  C   UNL A   1      42.424  22.716  28.702  1.00  0.00     0.135 A 
ATOM     81  F   UNL A   1      42.565  24.706  25.664  1.00  0.00    -0.206 F 
ATOM     82  C   UNL A   1      42.341  22.386  25.937  1.00  0.00     0.059 A 
ATOM     83  C   UNL A   1      42.306  21.436  28.171  1.00  0.00     0.059 A 
ATOM     84  F   UNL A   1      42.473  22.848  30.038  1.00  0.00    -0.206 F 
ATOM     85  C   UNL A   1      42.255  21.281  26.787  1.00  0.00     0.060 A 
BRANCH  85  86
ATOM     86  S   UNL A   1      42.124  19.635  26.059  1.00  0.00     0.124 S 
ATOM     87  O   UNL A   1      42.514  18.787  27.179  1.00  0.00    -0.237 OA
ATOM     88  O   UNL A   1      40.717  19.579  25.675  1.00  0.00    -0.237 OA
ATOM     89  O   UNL A   1      43.067  19.685  24.945  1.00  0.00    -0.744 OA
ENDBRANCH  85  86
ENDBRANCH  53  78
BRANCH  65  90
ATOM     90  C   UNL A   1      47.802  27.239  30.911  1.00  0.00     0.058 A 
ATOM     91  C   UNL A   1      48.873  27.446  30.028  1.00  0.00     0.135 A 
ATOM     92  C   UNL A   1      48.084  26.674  32.166  1.00  0.00     0.135 A 
ATOM     93  F   UNL A   1      48.654  27.976  28.814  1.00  0.00    -0.206 F 
ATOM     94  C   UNL A   1      50.171  27.084  30.366  1.00  0.00     0.059 A 
ATOM     95  C   UNL A   1      49.379  26.329  32.535  1.00  0.00     0.059 A 
ATOM     96  F   UNL A   1      47.096  26.466  33.051  1.00  0.00    -0.206 F 
ATOM     97  C   UNL A   1      50.415  26.527  31.623  1.00  0.00     0.060 A 
BRANCH  97  98
ATOM     98  S   UNL A   1      52.111  26.088  32.063  1.00  0.00     0.124 S 
ATOM     99  O   UNL A   1      52.006  24.643  32.229  1.00  0.00    -0.237 OA
ATOM    100  O   UNL A   1      52.864  26.541  30.897  1.00  0.00    -0.237 OA
ATOM    101  O   UNL A   1      52.350  26.846  33.288  1.00  0.00    -0.744 OA
ENDBRANCH  97  98
ENDBRANCH  65  90
ENDBRANCH  39  40
ENDBRANCH  31  34
ENDBRANCH  29  30
ENDBRANCH   1  29
TORSDOF 17
ENDMDL
MODEL 3
REMARK VINA RESULT:     -12.7      5.128     10.736
REMARK SMILES NS(=O)(=O)c1ccc(N2N=C(C(=O)NCCCNC(=O)c3ccc(-c4c5nc(c(-c6c(F)cc(S(=O)(=O)[O-])cc6F)c6ccc([nH]6)c(-c6c(F)cc(S(=O)(=O)[O-])cc6F)c6nc(c(-c7c(F)cc(S(=O)(=O)[O-])cc7F)c7ccc4[nH]7)C=C6)C=C5)cc3)C[C@H]2c2ccco2)cc1
REMARK SMILES IDX 16 1 15 2 14 3 12 4 13 5 11 7 9 8 10 9 88 10 87 11 8 12 5 13
REMARK SMILES IDX 6 14 95 15 7 16 94 17 2 18 3 19 4 20 1 21 89 24 90 25 93 26
REMARK SMILES IDX 91 27 92 28 17 29 18 30 19 31 20 33 21 34 22 35 86 36 23 37
REMARK SMILES IDX 85 38 24 39 25 40 26 41 79 42 27 43 84 44 78 45 80 46 28 47
REMARK SMILES IDX 83 48 77 49 76 50 29 52 63 53 42 54 62 55 43 56 46 57 61 58
REMARK SMILES IDX 81 59 44 60 45 61 60 63 82 64 47 65 30 66 31 67 40 68 32 69
REMARK SMILES IDX 33 70 39 71 41 72 34 73 35 74 36 75 37 76 38 77 64 78 65 79
REMARK SMILES IDX 74 80 66 81 67 82 73 83 75 84 68 85 69 86 70 87 71 88 72 89
REMARK SMILES IDX 48 90 49 91 58 92 50 93 51 94 57 95 59 96 52 97 53 98 54 99
REMARK SMILES IDX 55 100 56 101
REMARK H PARENT 14 6 1 22 1 23 18 32 80 51 46 62
REMARK Flexibility Score: inf
ROOT
ATOM      1  C   UNL A   1      32.518  27.788  26.146  1.00  0.00     0.042 C 
ENDROOT
BRANCH   1   2
ATOM      2  C   UNL A   1      31.655  26.606  26.570  1.00  0.00     0.118 C 
BRANCH   2   3
ATOM      3  N   UNL A   1      30.774  26.177  25.499  1.00  0.00    -0.351 N 
ATOM      4  C   UNL A   1      30.887  25.314  24.441  1.00  0.00     0.267 C 
ATOM      5  O   UNL A   1      29.944  25.264  23.652  1.00  0.00    -0.268 OA
ATOM      6  H   UNL A   1      29.890  26.607  25.543  1.00  0.00     0.163 HD
BRANCH   4   7
ATOM      7  C   UNL A   1      32.066  24.383  24.217  1.00  0.00     0.128 C 
ATOM      8  N   UNL A   1      33.179  22.568  24.254  1.00  0.00    -0.254 N 
ATOM      9  N   UNL A   1      31.936  23.098  24.375  1.00  0.00    -0.171 NA
ATOM     10  C   UNL A   1      34.196  23.518  23.803  1.00  0.00     0.180 C 
ATOM     11  C   UNL A   1      33.434  24.847  23.850  1.00  0.00     0.099 C 
BRANCH   8  12
ATOM     12  C   UNL A   1      33.352  21.193  24.238  1.00  0.00     0.060 A 
ATOM     13  C   UNL A   1      33.752  18.414  24.233  1.00  0.00     0.082 A 
ATOM     14  C   UNL A   1      32.604  18.953  23.645  1.00  0.00     0.024 A 
ATOM     15  C   UNL A   1      34.693  19.247  24.836  1.00  0.00     0.024 A 
ATOM     16  C   UNL A   1      32.404  20.337  23.663  1.00  0.00     0.029 A 
ATOM     17  C   UNL A   1      34.486  20.625  24.835  1.00  0.00     0.029 A 
BRANCH  13  18
ATOM     18  S   UNL A   1      33.982  16.665  24.188  1.00  0.00     0.238 S 
ATOM     19  O   UNL A   1      34.938  16.300  25.205  1.00  0.00    -0.207 OA
ATOM     20  O   UNL A   1      34.103  16.247  22.810  1.00  0.00    -0.207 OA
BRANCH  18  21
ATOM     21  N   UNL A   1      32.515  16.028  24.718  1.00  0.00    -0.225 NA
ATOM     22  H   UNL A   1      32.691  15.214  25.306  1.00  0.00     0.137 HD
ATOM     23  H   UNL A   1      31.953  15.752  23.913  1.00  0.00     0.137 HD
ENDBRANCH  18  21
ENDBRANCH  13  18
ENDBRANCH   8  12
BRANCH  10  24
ATOM     24  C   UNL A   1      35.483  23.565  24.578  1.00  0.00     0.128 A 
ATOM     25  C   UNL A   1      35.784  23.934  25.875  1.00  0.00     0.048 A 
ATOM     26  O   UNL A   1      36.634  23.192  23.938  1.00  0.00    -0.467 OA
ATOM     27  C   UNL A   1      37.184  23.783  26.027  1.00  0.00     0.042 A 
ATOM     28  C   UNL A   1      37.651  23.313  24.824  1.00  0.00     0.195 A 
ENDBRANCH  10  24
ENDBRANCH   4   7
ENDBRANCH   2   3
ENDBRANCH   1   2
BRANCH   1  29
ATOM     29  C   UNL A   1      33.487  28.243  27.230  1.00  0.00     0.118 C 
BRANCH  29  30
ATOM     30  N   UNL A   1      33.421  29.682  27.455  1.00  0.00    -0.352 N 
ATOM     31  C   UNL A   1      34.326  30.533  28.040  1.00  0.00     0.251 C 
ATOM     32  H   UNL A   1      32.596  30.112  27.135  1.00  0.00     0.163 HD
ATOM     33  O   UNL A   1      33.967  31.666  28.350  1.00  0.00    -0.269 OA
BRANCH  31  34
ATOM     34  C   UNL A   1      35.713  30.094  28.306  1.00  0.00     0.039 A 
ATOM     35  C   UNL A   1      36.651  30.152  27.271  1.00  0.00     0.014 A 
ATOM     36  C   UNL A   1      36.084  29.590  29.554  1.00  0.00     0.014 A 
ATOM     37  C   UNL A   1      37.971  29.764  27.510  1.00  0.00     0.010 A 
ATOM     38  C   UNL A   1      37.417  29.287  29.815  1.00  0.00     0.010 A 
ATOM     39  C   UNL A   1      38.373  29.363  28.794  1.00  0.00    -0.014 A 
BRANCH  39  40
ATOM     40  C   UNL A   1      39.788  29.018  29.088  1.00  0.00     0.031 A 
ATOM     41  C   UNL A   1      40.712  30.046  29.682  1.00  0.00     0.074 A 
ATOM     42  C   UNL A   1      40.254  27.797  28.755  1.00  0.00     0.049 A 
ATOM     43  N   UNL A   1      41.990  29.952  29.946  1.00  0.00    -0.248 NA
ATOM     44  C   UNL A   1      40.132  31.364  29.993  1.00  0.00     0.031 C 
ATOM     45  C   UNL A   1      39.470  26.738  28.115  1.00  0.00     0.029 A 
ATOM     46  N   UNL A   1      41.501  27.245  28.897  1.00  0.00    -0.354 N 
ATOM     47  C   UNL A   1      42.370  31.197  30.434  1.00  0.00     0.074 A 
ATOM     48  C   UNL A   1      41.200  32.046  30.383  1.00  0.00     0.031 C 
ATOM     49  C   UNL A   1      40.247  25.656  27.943  1.00  0.00     0.029 A 
ATOM     50  C   UNL A   1      41.592  25.957  28.426  1.00  0.00     0.049 A 
ATOM     51  H   UNL A   1      42.261  27.726  29.299  1.00  0.00     0.167 HD
ATOM     52  C   UNL A   1      43.578  31.590  30.905  1.00  0.00     0.037 A 
ATOM     53  C   UNL A   1      42.640  25.113  28.384  1.00  0.00     0.037 A 
ATOM     54  C   UNL A   1      44.728  30.728  30.987  1.00  0.00     0.049 A 
ATOM     55  C   UNL A   1      43.963  25.562  28.939  1.00  0.00     0.074 A 
ATOM     56  C   UNL A   1      45.977  31.008  31.513  1.00  0.00     0.029 A 
ATOM     57  N   UNL A   1      44.770  29.417  30.536  1.00  0.00    -0.354 N 
ATOM     58  N   UNL A   1      44.286  26.721  29.460  1.00  0.00    -0.248 NA
ATOM     59  C   UNL A   1      45.063  24.588  28.909  1.00  0.00     0.031 C 
ATOM     60  C   UNL A   1      46.784  29.877  31.348  1.00  0.00     0.029 A 
ATOM     61  C   UNL A   1      46.026  28.879  30.757  1.00  0.00     0.049 A 
ATOM     62  H   UNL A   1      44.016  28.939  30.120  1.00  0.00     0.167 HD
ATOM     63  C   UNL A   1      45.618  26.609  29.842  1.00  0.00     0.074 A 
ATOM     64  C   UNL A   1      46.036  25.263  29.505  1.00  0.00     0.031 C 
ATOM     65  C   UNL A   1      46.422  27.535  30.420  1.00  0.00     0.037 A 
BRANCH  52  66
ATOM     66  C   UNL A   1      43.715  33.010  31.380  1.00  0.00     0.058 A 
ATOM     67  C   UNL A   1      44.067  34.048  30.502  1.00  0.00     0.135 A 
ATOM     68  C   UNL A   1      43.449  33.346  32.717  1.00  0.00     0.135 A 
ATOM     69  F   UNL A   1      44.347  33.782  29.217  1.00  0.00    -0.206 F 
ATOM     70  C   UNL A   1      44.178  35.364  30.940  1.00  0.00     0.059 A 
ATOM     71  C   UNL A   1      43.528  34.660  33.170  1.00  0.00     0.059 A 
ATOM     72  F   UNL A   1      43.108  32.393  33.599  1.00  0.00    -0.206 F 
ATOM     73  C   UNL A   1      43.906  35.661  32.276  1.00  0.00     0.060 A 
BRANCH  73  74
ATOM     74  S   UNL A   1      44.042  37.376  32.824  1.00  0.00     0.124 S 
ATOM     75  O   UNL A   1      45.364  37.379  33.441  1.00  0.00    -0.237 OA
ATOM     76  O   UNL A   1      43.926  38.114  31.571  1.00  0.00    -0.237 OA
ATOM     77  O   UNL A   1      42.919  37.529  33.743  1.00  0.00    -0.744 OA
ENDBRANCH  73  74
ENDBRANCH  52  66
BRANCH  53  78
ATOM     78  C   UNL A   1      42.473  23.748  27.818  1.00  0.00     0.058 A 
ATOM     79  C   UNL A   1      42.485  23.537  26.431  1.00  0.00     0.135 A 
ATOM     80  C   UNL A   1      42.316  22.628  28.648  1.00  0.00     0.135 A 
ATOM     81  F   UNL A   1      42.631  24.577  25.596  1.00  0.00    -0.206 F 
ATOM     82  C   UNL A   1      42.329  22.267  25.885  1.00  0.00     0.059 A 
ATOM     83  C   UNL A   1      42.182  21.345  28.127  1.00  0.00     0.059 A 
ATOM     84  F   UNL A   1      42.318  22.774  29.983  1.00  0.00    -0.206 F 
ATOM     85  C   UNL A   1      42.179  21.176  26.743  1.00  0.00     0.060 A 
BRANCH  85  86
ATOM     86  S   UNL A   1      42.027  19.525  26.028  1.00  0.00     0.124 S 
ATOM     87  O   UNL A   1      42.561  18.691  27.099  1.00  0.00    -0.237 OA
ATOM     88  O   UNL A   1      40.590  19.422  25.794  1.00  0.00    -0.237 OA
ATOM     89  O   UNL A   1      42.845  19.607  24.822  1.00  0.00    -0.744 OA
ENDBRANCH  85  86
ENDBRANCH  53  78
BRANCH  65  90
ATOM     90  C   UNL A   1      47.826  27.117  30.752  1.00  0.00     0.058 A 
ATOM     91  C   UNL A   1      48.152  26.551  31.994  1.00  0.00     0.135 A 
ATOM     92  C   UNL A   1      48.849  27.240  29.797  1.00  0.00     0.135 A 
ATOM     93  F   UNL A   1      47.212  26.417  32.942  1.00  0.00    -0.206 F 
ATOM     94  C   UNL A   1      49.449  26.145  32.288  1.00  0.00     0.059 A 
ATOM     95  C   UNL A   1      50.147  26.817  30.060  1.00  0.00     0.059 A 
ATOM     96  F   UNL A   1      48.586  27.765  28.589  1.00  0.00    -0.206 F 
ATOM     97  C   UNL A   1      50.440  26.282  31.313  1.00  0.00     0.060 A 
BRANCH  97  98
ATOM     98  S   UNL A   1      52.114  25.724  31.696  1.00  0.00     0.124 S 
ATOM     99  O   UNL A   1      52.455  26.575  32.831  1.00  0.00    -0.237 OA
ATOM    100  O   UNL A   1      51.911  24.310  32.001  1.00  0.00    -0.237 OA
ATOM    101  O   UNL A   1      52.851  25.993  30.464  1.00  0.00    -0.744 OA
ENDBRANCH  97  98
ENDBRANCH  65  90
ENDBRANCH  39  40
ENDBRANCH  31  34
ENDBRANCH  29  30
ENDBRANCH   1  29
TORSDOF 17
ENDMDL
