MODEL 1
REMARK VINA RESULT:     -13.2      0.000      0.000
REMARK SMILES Cc1cccc(N2CCN(C(=O)[C@@H]3CC=CC[C@@H]3C(=O)NCCCNC(=O)c3ccc(-c4c5nc(c(-c6c(F)cc(S(=O)(=O)[O-])cc6F)c6ccc([nH]6)c(-c6c(F)cc(S(=O)(=O)[O-])cc6F)c6nc(c(-c7c(F)cc(S(=O)(=O)[O-])cc7F)c7ccc4[nH]7)C=C6)C=C5)cc3)CC2)c1C
REMARK SMILES IDX 23 1 22 2 21 3 19 4 20 5 18 7 13 8 14 9 15 10 17 11 16 12
REMARK SMILES IDX 11 13 7 14 8 15 95 16 9 17 94 18 10 19 12 20 6 21 1 22 2 23
REMARK SMILES IDX 3 24 96 25 4 26 97 27 5 28 24 29 25 30 26 31 27 33 28 34
REMARK SMILES IDX 29 35 93 36 30 37 92 38 31 39 32 40 33 41 86 42 34 43 91 44
REMARK SMILES IDX 85 45 87 46 35 47 90 48 84 49 83 50 36 52 70 53 49 54 69 55
REMARK SMILES IDX 50 56 53 57 68 58 88 59 51 60 52 61 67 63 89 64 54 65 37 66
REMARK SMILES IDX 38 67 47 68 39 69 40 70 46 71 48 72 41 73 42 74 43 75 44 76
REMARK SMILES IDX 45 77 71 78 72 79 81 80 73 81 74 82 80 83 82 84 75 85 76 86
REMARK SMILES IDX 77 87 78 88 79 89 55 90 56 91 65 92 57 93 58 94 64 95 66 96
REMARK SMILES IDX 59 97 60 98 61 99 62 100 63 101
REMARK H PARENT 21 6 25 32 87 51 53 62
REMARK Flexibility Score: inf
ROOT
ATOM      1  C   UNL A   1      33.495  29.170  27.570  1.00  0.00     0.042 C 
ENDROOT
BRANCH   1   2
ATOM      2  C   UNL A   1      34.027  28.191  26.540  1.00  0.00     0.117 C 
BRANCH   2   3
ATOM      3  N   UNL A   1      33.861  28.617  25.168  1.00  0.00    -0.356 N 
ATOM      4  C   UNL A   1      32.784  28.827  24.378  1.00  0.00     0.224 C 
ATOM      5  O   UNL A   1      33.043  29.335  23.276  1.00  0.00    -0.275 OA
ATOM      6  H   UNL A   1      34.716  28.793  24.711  1.00  0.00     0.163 HD
BRANCH   4   7
ATOM      7  C   UNL A   1      31.305  28.592  24.742  1.00  0.00     0.095 C 
ATOM      8  C   UNL A   1      30.645  27.222  24.629  1.00  0.00     0.095 C 
ATOM      9  C   UNL A   1      30.372  26.816  23.136  1.00  0.00     0.041 C 
ATOM     10  C   UNL A   1      30.295  27.957  22.155  1.00  0.00    -0.030 C 
ATOM     11  C   UNL A   1      30.457  29.629  23.963  1.00  0.00     0.041 C 
ATOM     12  C   UNL A   1      30.307  29.242  22.528  1.00  0.00    -0.030 C 
BRANCH   8  13
ATOM     13  C   UNL A   1      31.107  26.028  25.506  1.00  0.00     0.226 C 
ATOM     14  N   UNL A   1      33.259  22.573  24.869  1.00  0.00    -0.368 N 
ATOM     15  C   UNL A   1      32.687  23.015  26.156  1.00  0.00     0.138 C 
ATOM     16  C   UNL A   1      33.171  23.549  23.746  1.00  0.00     0.138 C 
ATOM     17  C   UNL A   1      32.799  24.522  26.430  1.00  0.00     0.141 C 
ATOM     18  C   UNL A   1      33.084  25.051  24.124  1.00  0.00     0.141 C 
ATOM     19  N   UNL A   1      32.288  25.323  25.320  1.00  0.00    -0.339 N 
ATOM     20  O   UNL A   1      30.423  25.780  26.511  1.00  0.00    -0.275 OA
BRANCH  14  21
ATOM     21  C   UNL A   1      33.336  21.191  24.524  1.00  0.00     0.040 A 
ATOM     22  C   UNL A   1      35.461  17.916  24.635  1.00  0.00     0.044 C 
ATOM     23  C   UNL A   1      34.355  18.913  24.369  1.00  0.00    -0.046 A 
ATOM     24  C   UNL A   1      33.211  18.413  23.743  1.00  0.00     0.004 A 
ATOM     25  C   UNL A   1      34.436  20.297  24.764  1.00  0.00    -0.025 A 
ATOM     26  C   UNL A   1      32.155  19.256  23.476  1.00  0.00     0.002 A 
ATOM     27  C   UNL A   1      35.746  20.718  25.396  1.00  0.00     0.047 C 
ATOM     28  C   UNL A   1      32.228  20.600  23.854  1.00  0.00     0.026 A 
ENDBRANCH  14  21
ENDBRANCH   8  13
ENDBRANCH   4   7
ENDBRANCH   2   3
ENDBRANCH   1   2
BRANCH   1  29
ATOM     29  C   UNL A   1      33.894  30.595  27.236  1.00  0.00     0.118 C 
BRANCH  29  30
ATOM     30  N   UNL A   1      34.143  31.413  28.421  1.00  0.00    -0.352 N 
ATOM     31  C   UNL A   1      35.168  31.318  29.334  1.00  0.00     0.251 C 
ATOM     32  H   UNL A   1      33.489  32.128  28.588  1.00  0.00     0.163 HD
ATOM     33  O   UNL A   1      35.106  31.942  30.391  1.00  0.00    -0.269 OA
BRANCH  31  34
ATOM     34  C   UNL A   1      36.256  30.344  29.111  1.00  0.00     0.039 A 
ATOM     35  C   UNL A   1      36.942  30.424  27.899  1.00  0.00     0.014 A 
ATOM     36  C   UNL A   1      36.726  29.528  30.140  1.00  0.00     0.014 A 
ATOM     37  C   UNL A   1      38.203  29.854  27.798  1.00  0.00     0.010 A 
ATOM     38  C   UNL A   1      38.034  29.075  30.089  1.00  0.00     0.010 A 
ATOM     39  C   UNL A   1      38.799  29.285  28.936  1.00  0.00    -0.014 A 
BRANCH  39  40
ATOM     40  C   UNL A   1      40.255  29.033  28.948  1.00  0.00     0.031 A 
ATOM     41  C   UNL A   1      40.795  27.698  28.544  1.00  0.00     0.074 A 
ATOM     42  C   UNL A   1      41.066  30.024  29.375  1.00  0.00     0.049 A 
ATOM     43  N   UNL A   1      42.038  27.320  28.429  1.00  0.00    -0.248 NA
ATOM     44  C   UNL A   1      39.812  26.638  28.266  1.00  0.00     0.031 C 
ATOM     45  C   UNL A   1      40.614  31.321  29.898  1.00  0.00     0.029 A 
ATOM     46  N   UNL A   1      42.432  30.117  29.421  1.00  0.00    -0.354 N 
ATOM     47  C   UNL A   1      41.990  25.981  28.066  1.00  0.00     0.074 A 
ATOM     48  C   UNL A   1      40.597  25.593  28.048  1.00  0.00     0.031 C 
ATOM     49  C   UNL A   1      41.680  32.099  30.142  1.00  0.00     0.029 A 
ATOM     50  C   UNL A   1      42.888  31.352  29.821  1.00  0.00     0.049 A 
ATOM     51  H   UNL A   1      43.030  29.370  29.190  1.00  0.00     0.167 HD
ATOM     52  C   UNL A   1      43.019  25.163  27.746  1.00  0.00     0.037 A 
ATOM     53  C   UNL A   1      44.144  31.834  29.889  1.00  0.00     0.037 A 
ATOM     54  C   UNL A   1      44.393  25.586  27.759  1.00  0.00     0.049 A 
ATOM     55  C   UNL A   1      45.263  30.931  29.455  1.00  0.00     0.074 A 
ATOM     56  C   UNL A   1      45.525  24.865  27.427  1.00  0.00     0.029 A 
ATOM     57  N   UNL A   1      44.817  26.858  28.123  1.00  0.00    -0.354 N 
ATOM     58  N   UNL A   1      45.197  29.687  29.036  1.00  0.00    -0.248 NA
ATOM     59  C   UNL A   1      46.619  31.490  29.484  1.00  0.00     0.031 C 
ATOM     60  C   UNL A   1      46.636  25.697  27.614  1.00  0.00     0.029 A 
ATOM     61  C   UNL A   1      46.195  26.945  28.028  1.00  0.00     0.049 A 
ATOM     62  H   UNL A   1      44.224  27.591  28.407  1.00  0.00     0.167 HD
ATOM     63  C   UNL A   1      46.503  29.316  28.743  1.00  0.00     0.074 A 
ATOM     64  C   UNL A   1      47.332  30.477  29.007  1.00  0.00     0.031 C 
ATOM     65  C   UNL A   1      46.978  28.124  28.303  1.00  0.00     0.037 A 
BRANCH  52  66
ATOM     66  C   UNL A   1      42.677  23.753  27.355  1.00  0.00     0.058 A 
ATOM     67  C   UNL A   1      42.509  22.745  28.321  1.00  0.00     0.135 A 
ATOM     68  C   UNL A   1      42.546  23.392  26.006  1.00  0.00     0.135 A 
ATOM     69  F   UNL A   1      42.647  23.030  29.626  1.00  0.00    -0.206 F 
ATOM     70  C   UNL A   1      42.264  21.424  27.961  1.00  0.00     0.059 A 
ATOM     71  C   UNL A   1      42.274  22.080  25.624  1.00  0.00     0.059 A 
ATOM     72  F   UNL A   1      42.703  24.311  25.040  1.00  0.00    -0.206 F 
ATOM     73  C   UNL A   1      42.157  21.099  26.609  1.00  0.00     0.060 A 
BRANCH  73  74
ATOM     74  S   UNL A   1      41.867  19.376  26.155  1.00  0.00     0.124 S 
ATOM     75  O   UNL A   1      40.436  19.390  25.867  1.00  0.00    -0.237 OA
ATOM     76  O   UNL A   1      42.743  19.203  25.001  1.00  0.00    -0.237 OA
ATOM     77  O   UNL A   1      42.259  18.640  27.352  1.00  0.00    -0.744 OA
ENDBRANCH  73  74
ENDBRANCH  52  66
BRANCH  53  78
ATOM     78  C   UNL A   1      44.389  33.237  30.321  1.00  0.00     0.058 A 
ATOM     79  C   UNL A   1      44.426  34.285  29.389  1.00  0.00     0.135 A 
ATOM     80  C   UNL A   1      44.556  33.567  31.675  1.00  0.00     0.135 A 
ATOM     81  F   UNL A   1      44.270  34.025  28.081  1.00  0.00    -0.206 F 
ATOM     82  C   UNL A   1      44.636  35.606  29.779  1.00  0.00     0.059 A 
ATOM     83  C   UNL A   1      44.745  34.883  32.092  1.00  0.00     0.059 A 
ATOM     84  F   UNL A   1      44.505  32.607  32.612  1.00  0.00    -0.206 F 
ATOM     85  C   UNL A   1      44.795  35.895  31.135  1.00  0.00     0.060 A 
BRANCH  85  86
ATOM     86  S   UNL A   1      45.016  37.615  31.639  1.00  0.00     0.124 S 
ATOM     87  O   UNL A   1      44.649  38.328  30.421  1.00  0.00    -0.237 OA
ATOM     88  O   UNL A   1      44.082  37.735  32.754  1.00  0.00    -0.237 OA
ATOM     89  O   UNL A   1      46.428  37.678  32.007  1.00  0.00    -0.744 OA
ENDBRANCH  85  86
ENDBRANCH  53  78
BRANCH  65  90
ATOM     90  C   UNL A   1      48.458  28.033  28.081  1.00  0.00     0.058 A 
ATOM     91  C   UNL A   1      49.330  27.681  29.121  1.00  0.00     0.135 A 
ATOM     92  C   UNL A   1      48.999  28.257  26.807  1.00  0.00     0.135 A 
ATOM     93  F   UNL A   1      48.855  27.464  30.358  1.00  0.00    -0.206 F 
ATOM     94  C   UNL A   1      50.699  27.577  28.910  1.00  0.00     0.059 A 
ATOM     95  C   UNL A   1      50.363  28.136  26.567  1.00  0.00     0.059 A 
ATOM     96  F   UNL A   1      48.200  28.587  25.779  1.00  0.00    -0.206 F 
ATOM     97  C   UNL A   1      51.206  27.807  27.629  1.00  0.00     0.060 A 
BRANCH  97  98
ATOM     98  S   UNL A   1      52.981  27.640  27.358  1.00  0.00     0.124 S 
ATOM     99  O   UNL A   1      53.436  29.013  27.542  1.00  0.00    -0.237 OA
ATOM    100  O   UNL A   1      53.373  26.698  28.403  1.00  0.00    -0.237 OA
ATOM    101  O   UNL A   1      53.068  27.123  25.996  1.00  0.00    -0.744 OA
ENDBRANCH  97  98
ENDBRANCH  65  90
ENDBRANCH  39  40
ENDBRANCH  31  34
ENDBRANCH  29  30
ENDBRANCH   1  29
TORSDOF 15
ENDMDL
MODEL 2
REMARK VINA RESULT:     -13.1      5.374      9.770
REMARK SMILES Cc1cccc(N2CCN(C(=O)[C@@H]3CC=CC[C@@H]3C(=O)NCCCNC(=O)c3ccc(-c4c5nc(c(-c6c(F)cc(S(=O)(=O)[O-])cc6F)c6ccc([nH]6)c(-c6c(F)cc(S(=O)(=O)[O-])cc6F)c6nc(c(-c7c(F)cc(S(=O)(=O)[O-])cc7F)c7ccc4[nH]7)C=C6)C=C5)cc3)CC2)c1C
REMARK SMILES IDX 23 1 22 2 21 3 19 4 20 5 18 7 13 8 14 9 15 10 17 11 16 12
REMARK SMILES IDX 11 13 7 14 8 15 95 16 9 17 94 18 10 19 12 20 6 21 1 22 2 23
REMARK SMILES IDX 3 24 96 25 4 26 97 27 5 28 24 29 25 30 26 31 27 33 28 34
REMARK SMILES IDX 29 35 93 36 30 37 92 38 31 39 32 40 33 41 86 42 34 43 91 44
REMARK SMILES IDX 85 45 87 46 35 47 90 48 84 49 83 50 36 52 70 53 49 54 69 55
REMARK SMILES IDX 50 56 53 57 68 58 88 59 51 60 52 61 67 63 89 64 54 65 37 66
REMARK SMILES IDX 38 67 47 68 39 69 40 70 46 71 48 72 41 73 42 74 43 75 44 76
REMARK SMILES IDX 45 77 71 78 72 79 81 80 73 81 74 82 80 83 82 84 75 85 76 86
REMARK SMILES IDX 77 87 78 88 79 89 55 90 56 91 65 92 57 93 58 94 64 95 66 96
REMARK SMILES IDX 59 97 60 98 61 99 62 100 63 101
REMARK H PARENT 21 6 25 32 87 51 53 62
REMARK Flexibility Score: inf
ROOT
ATOM      1  C   UNL A   1      34.370  29.793  27.559  1.00  0.00     0.042 C 
ENDROOT
BRANCH   1   2
ATOM      2  C   UNL A   1      33.299  29.740  26.484  1.00  0.00     0.117 C 
BRANCH   2   3
ATOM      3  N   UNL A   1      33.794  29.417  25.163  1.00  0.00    -0.356 N 
ATOM      4  C   UNL A   1      33.468  28.477  24.248  1.00  0.00     0.224 C 
ATOM      5  O   UNL A   1      34.035  28.606  23.152  1.00  0.00    -0.275 OA
ATOM      6  H   UNL A   1      34.523  30.009  24.867  1.00  0.00     0.163 HD
BRANCH   4   7
ATOM      7  C   UNL A   1      32.424  27.354  24.401  1.00  0.00     0.095 C 
ATOM      8  C   UNL A   1      32.186  26.307  23.317  1.00  0.00     0.095 C 
ATOM      9  C   UNL A   1      31.415  26.898  22.082  1.00  0.00     0.041 C 
ATOM     10  C   UNL A   1      30.608  28.141  22.352  1.00  0.00    -0.030 C 
ATOM     11  C   UNL A   1      31.073  28.015  24.772  1.00  0.00     0.041 C 
ATOM     12  C   UNL A   1      30.427  28.642  23.579  1.00  0.00    -0.030 C 
BRANCH   8  13
ATOM     13  C   UNL A   1      33.292  25.297  22.913  1.00  0.00     0.226 C 
ATOM     14  N   UNL A   1      36.036  22.979  24.930  1.00  0.00    -0.368 N 
ATOM     15  C   UNL A   1      35.855  23.035  23.465  1.00  0.00     0.138 C 
ATOM     16  C   UNL A   1      35.027  23.718  25.741  1.00  0.00     0.138 C 
ATOM     17  C   UNL A   1      34.395  23.115  22.997  1.00  0.00     0.141 C 
ATOM     18  C   UNL A   1      33.630  23.931  25.101  1.00  0.00     0.141 C 
ATOM     19  N   UNL A   1      33.662  24.189  23.663  1.00  0.00    -0.339 N 
ATOM     20  O   UNL A   1      33.782  25.435  21.781  1.00  0.00    -0.275 OA
BRANCH  14  21
ATOM     21  C   UNL A   1      37.323  22.785  25.513  1.00  0.00     0.040 A 
ATOM     22  C   UNL A   1      40.293  20.320  26.114  1.00  0.00     0.044 C 
ATOM     23  C   UNL A   1      39.405  21.545  26.129  1.00  0.00    -0.046 A 
ATOM     24  C   UNL A   1      39.928  22.678  26.756  1.00  0.00     0.004 A 
ATOM     25  C   UNL A   1      38.106  21.579  25.505  1.00  0.00    -0.025 A 
ATOM     26  C   UNL A   1      39.185  23.836  26.803  1.00  0.00     0.002 A 
ATOM     27  C   UNL A   1      37.642  20.272  24.897  1.00  0.00     0.047 C 
ATOM     28  C   UNL A   1      37.924  23.876  26.203  1.00  0.00     0.026 A 
ENDBRANCH  14  21
ENDBRANCH   8  13
ENDBRANCH   4   7
ENDBRANCH   2   3
ENDBRANCH   1   2
BRANCH   1  29
ATOM     29  C   UNL A   1      35.011  31.165  27.633  1.00  0.00     0.118 C 
BRANCH  29  30
ATOM     30  N   UNL A   1      34.037  32.254  27.619  1.00  0.00    -0.352 N 
ATOM     31  C   UNL A   1      33.906  33.306  28.496  1.00  0.00     0.251 C 
ATOM     32  H   UNL A   1      33.386  32.233  26.881  1.00  0.00     0.163 HD
ATOM     33  O   UNL A   1      32.898  34.009  28.465  1.00  0.00    -0.269 OA
BRANCH  31  34
ATOM     34  C   UNL A   1      34.899  33.483  29.575  1.00  0.00     0.039 A 
ATOM     35  C   UNL A   1      34.735  32.708  30.723  1.00  0.00     0.014 A 
ATOM     36  C   UNL A   1      36.067  34.219  29.377  1.00  0.00     0.014 A 
ATOM     37  C   UNL A   1      35.822  32.506  31.563  1.00  0.00     0.010 A 
ATOM     38  C   UNL A   1      37.186  33.914  30.134  1.00  0.00     0.010 A 
ATOM     39  C   UNL A   1      37.081  33.012  31.199  1.00  0.00    -0.014 A 
BRANCH  39  40
ATOM     40  C   UNL A   1      38.295  32.489  31.859  1.00  0.00     0.031 A 
ATOM     41  C   UNL A   1      38.660  32.939  33.238  1.00  0.00     0.074 A 
ATOM     42  C   UNL A   1      39.077  31.636  31.164  1.00  0.00     0.049 A 
ATOM     43  N   UNL A   1      39.644  32.538  33.995  1.00  0.00    -0.248 NA
ATOM     44  C   UNL A   1      37.833  34.002  33.833  1.00  0.00     0.031 C 
ATOM     45  C   UNL A   1      38.857  31.234  29.767  1.00  0.00     0.029 A 
ATOM     46  N   UNL A   1      40.197  30.936  31.528  1.00  0.00    -0.354 N 
ATOM     47  C   UNL A   1      39.558  33.298  35.154  1.00  0.00     0.074 A 
ATOM     48  C   UNL A   1      38.468  34.231  34.972  1.00  0.00     0.031 C 
ATOM     49  C   UNL A   1      39.765  30.308  29.422  1.00  0.00     0.029 A 
ATOM     50  C   UNL A   1      40.647  30.071  30.556  1.00  0.00     0.049 A 
ATOM     51  H   UNL A   1      40.637  31.042  32.402  1.00  0.00     0.167 HD
ATOM     52  C   UNL A   1      40.304  33.197  36.278  1.00  0.00     0.037 A 
ATOM     53  C   UNL A   1      41.643  29.166  30.594  1.00  0.00     0.037 A 
ATOM     54  C   UNL A   1      41.371  32.246  36.431  1.00  0.00     0.049 A 
ATOM     55  C   UNL A   1      42.407  29.019  31.879  1.00  0.00     0.074 A 
ATOM     56  C   UNL A   1      42.182  32.022  37.528  1.00  0.00     0.029 A 
ATOM     57  N   UNL A   1      41.770  31.352  35.445  1.00  0.00    -0.354 N 
ATOM     58  N   UNL A   1      42.262  29.691  32.999  1.00  0.00    -0.248 NA
ATOM     59  C   UNL A   1      43.452  27.991  31.920  1.00  0.00     0.031 C 
ATOM     60  C   UNL A   1      43.087  31.007  37.195  1.00  0.00     0.029 A 
ATOM     61  C   UNL A   1      42.818  30.574  35.904  1.00  0.00     0.049 A 
ATOM     62  H   UNL A   1      41.366  31.281  34.550  1.00  0.00     0.167 HD
ATOM     63  C   UNL A   1      43.194  29.161  33.882  1.00  0.00     0.074 A 
ATOM     64  C   UNL A   1      43.876  28.096  33.173  1.00  0.00     0.031 C 
ATOM     65  C   UNL A   1      43.468  29.524  35.160  1.00  0.00     0.037 A 
BRANCH  52  66
ATOM     66  C   UNL A   1      39.972  34.133  37.406  1.00  0.00     0.058 A 
ATOM     67  C   UNL A   1      40.577  35.397  37.512  1.00  0.00     0.135 A 
ATOM     68  C   UNL A   1      39.067  33.757  38.410  1.00  0.00     0.135 A 
ATOM     69  F   UNL A   1      41.470  35.798  36.591  1.00  0.00    -0.206 F 
ATOM     70  C   UNL A   1      40.329  36.237  38.592  1.00  0.00     0.059 A 
ATOM     71  C   UNL A   1      38.783  34.594  39.487  1.00  0.00     0.059 A 
ATOM     72  F   UNL A   1      38.464  32.559  38.365  1.00  0.00    -0.206 F 
ATOM     73  C   UNL A   1      39.436  35.822  39.580  1.00  0.00     0.060 A 
BRANCH  73  74
ATOM     74  S   UNL A   1      39.144  36.910  40.991  1.00  0.00     0.124 S 
ATOM     75  O   UNL A   1      38.385  37.992  40.370  1.00  0.00    -0.237 OA
ATOM     76  O   UNL A   1      38.392  36.052  41.900  1.00  0.00    -0.237 OA
ATOM     77  O   UNL A   1      40.490  37.261  41.433  1.00  0.00    -0.744 OA
ENDBRANCH  73  74
ENDBRANCH  52  66
BRANCH  53  78
ATOM     78  C   UNL A   1      41.921  28.303  29.413  1.00  0.00     0.058 A 
ATOM     79  C   UNL A   1      41.107  27.201  29.114  1.00  0.00     0.135 A 
ATOM     80  C   UNL A   1      42.983  28.582  28.537  1.00  0.00     0.135 A 
ATOM     81  F   UNL A   1      40.077  26.891  29.917  1.00  0.00    -0.206 F 
ATOM     82  C   UNL A   1      41.343  26.395  28.002  1.00  0.00     0.059 A 
ATOM     83  C   UNL A   1      43.226  27.805  27.407  1.00  0.00     0.059 A 
ATOM     84  F   UNL A   1      43.779  29.639  28.761  1.00  0.00    -0.206 F 
ATOM     85  C   UNL A   1      42.407  26.706  27.154  1.00  0.00     0.060 A 
BRANCH  85  86
ATOM     86  S   UNL A   1      42.676  25.688  25.686  1.00  0.00     0.124 S 
ATOM     87  O   UNL A   1      41.445  25.916  24.940  1.00  0.00    -0.237 OA
ATOM     88  O   UNL A   1      43.885  26.276  25.118  1.00  0.00    -0.237 OA
ATOM     89  O   UNL A   1      42.842  24.345  26.236  1.00  0.00    -0.744 OA
ENDBRANCH  85  86
ENDBRANCH  53  78
BRANCH  65  90
ATOM     90  C   UNL A   1      44.547  28.753  35.859  1.00  0.00     0.058 A 
ATOM     91  C   UNL A   1      45.891  29.143  35.776  1.00  0.00     0.135 A 
ATOM     92  C   UNL A   1      44.226  27.642  36.653  1.00  0.00     0.135 A 
ATOM     93  F   UNL A   1      46.245  30.196  35.022  1.00  0.00    -0.206 F 
ATOM     94  C   UNL A   1      46.889  28.441  36.439  1.00  0.00     0.059 A 
ATOM     95  C   UNL A   1      45.204  26.938  37.344  1.00  0.00     0.059 A 
ATOM     96  F   UNL A   1      42.950  27.240  36.769  1.00  0.00    -0.206 F 
ATOM     97  C   UNL A   1      46.535  27.339  37.221  1.00  0.00     0.060 A 
BRANCH  97  98
ATOM     98  S   UNL A   1      47.833  26.451  38.105  1.00  0.00     0.124 S 
ATOM     99  O   UNL A   1      47.058  25.470  38.854  1.00  0.00    -0.237 OA
ATOM    100  O   UNL A   1      48.647  25.918  37.016  1.00  0.00    -0.237 OA
ATOM    101  O   UNL A   1      48.472  27.493  38.902  1.00  0.00    -0.744 OA
ENDBRANCH  97  98
ENDBRANCH  65  90
ENDBRANCH  39  40
ENDBRANCH  31  34
ENDBRANCH  29  30
ENDBRANCH   1  29
TORSDOF 15
ENDMDL
MODEL 3
REMARK VINA RESULT:     -13.0      2.801      8.288
REMARK SMILES Cc1cccc(N2CCN(C(=O)[C@@H]3CC=CC[C@@H]3C(=O)NCCCNC(=O)c3ccc(-c4c5nc(c(-c6c(F)cc(S(=O)(=O)[O-])cc6F)c6ccc([nH]6)c(-c6c(F)cc(S(=O)(=O)[O-])cc6F)c6nc(c(-c7c(F)cc(S(=O)(=O)[O-])cc7F)c7ccc4[nH]7)C=C6)C=C5)cc3)CC2)c1C
REMARK SMILES IDX 23 1 22 2 21 3 19 4 20 5 18 7 13 8 14 9 15 10 17 11 16 12
REMARK SMILES IDX 11 13 7 14 8 15 95 16 9 17 94 18 10 19 12 20 6 21 1 22 2 23
REMARK SMILES IDX 3 24 96 25 4 26 97 27 5 28 24 29 25 30 26 31 27 33 28 34
REMARK SMILES IDX 29 35 93 36 30 37 92 38 31 39 32 40 33 41 86 42 34 43 91 44
REMARK SMILES IDX 85 45 87 46 35 47 90 48 84 49 83 50 36 52 70 53 49 54 69 55
REMARK SMILES IDX 50 56 53 57 68 58 88 59 51 60 52 61 67 63 89 64 54 65 37 66
REMARK SMILES IDX 38 67 47 68 39 69 40 70 46 71 48 72 41 73 42 74 43 75 44 76
REMARK SMILES IDX 45 77 71 78 72 79 81 80 73 81 74 82 80 83 82 84 75 85 76 86
REMARK SMILES IDX 77 87 78 88 79 89 55 90 56 91 65 92 57 93 58 94 64 95 66 96
REMARK SMILES IDX 59 97 60 98 61 99 62 100 63 101
REMARK H PARENT 21 6 25 32 87 51 53 62
REMARK Flexibility Score: inf
ROOT
ATOM      1  C   UNL A   1      38.103  23.516  25.936  1.00  0.00     0.042 C 
ENDROOT
BRANCH   1   2
ATOM      2  C   UNL A   1      37.126  22.403  25.604  1.00  0.00     0.117 C 
BRANCH   2   3
ATOM      3  N   UNL A   1      36.047  22.252  26.556  1.00  0.00    -0.356 N 
ATOM      4  C   UNL A   1      34.703  22.378  26.473  1.00  0.00     0.224 C 
ATOM      5  O   UNL A   1      34.089  22.025  27.491  1.00  0.00    -0.275 OA
ATOM      6  H   UNL A   1      36.358  22.002  27.456  1.00  0.00     0.163 HD
BRANCH   4   7
ATOM      7  C   UNL A   1      33.886  22.814  25.242  1.00  0.00     0.095 C 
ATOM      8  C   UNL A   1      32.401  23.153  25.326  1.00  0.00     0.095 C 
ATOM      9  C   UNL A   1      31.510  21.871  25.502  1.00  0.00     0.041 C 
ATOM     10  C   UNL A   1      32.133  20.577  25.046  1.00  0.00    -0.030 C 
ATOM     11  C   UNL A   1      34.101  21.753  24.134  1.00  0.00     0.041 C 
ATOM     12  C   UNL A   1      33.302  20.518  24.399  1.00  0.00    -0.030 C 
BRANCH   8  13
ATOM     13  C   UNL A   1      31.894  24.361  26.158  1.00  0.00     0.226 C 
ATOM     14  N   UNL A   1      32.822  28.367  26.391  1.00  0.00    -0.368 N 
ATOM     15  C   UNL A   1      31.788  27.668  27.179  1.00  0.00     0.138 C 
ATOM     16  C   UNL A   1      33.473  27.569  25.313  1.00  0.00     0.138 C 
ATOM     17  C   UNL A   1      30.983  26.618  26.400  1.00  0.00     0.141 C 
ATOM     18  C   UNL A   1      32.657  26.391  24.720  1.00  0.00     0.141 C 
ATOM     19  N   UNL A   1      31.845  25.670  25.700  1.00  0.00    -0.339 N 
ATOM     20  O   UNL A   1      31.385  24.101  27.259  1.00  0.00    -0.275 OA
BRANCH  14  21
ATOM     21  C   UNL A   1      33.571  29.450  26.941  1.00  0.00     0.040 A 
ATOM     22  C   UNL A   1      33.575  33.210  27.997  1.00  0.00     0.044 C 
ATOM     23  C   UNL A   1      34.002  31.785  27.724  1.00  0.00    -0.046 A 
ATOM     24  C   UNL A   1      35.301  31.445  28.110  1.00  0.00     0.004 A 
ATOM     25  C   UNL A   1      33.125  30.802  27.137  1.00  0.00    -0.025 A 
ATOM     26  C   UNL A   1      35.761  30.164  27.906  1.00  0.00     0.002 A 
ATOM     27  C   UNL A   1      31.759  31.311  26.728  1.00  0.00     0.047 C 
ATOM     28  C   UNL A   1      34.918  29.207  27.334  1.00  0.00     0.026 A 
ENDBRANCH  14  21
ENDBRANCH   8  13
ENDBRANCH   4   7
ENDBRANCH   2   3
ENDBRANCH   1   2
BRANCH   1  29
ATOM     29  C   UNL A   1      39.201  23.030  26.862  1.00  0.00     0.118 C 
BRANCH  29  30
ATOM     30  N   UNL A   1      39.537  21.622  26.662  1.00  0.00    -0.352 N 
ATOM     31  C   UNL A   1      40.778  21.041  26.535  1.00  0.00     0.251 C 
ATOM     32  H   UNL A   1      38.772  21.005  26.611  1.00  0.00     0.163 HD
ATOM     33  O   UNL A   1      40.874  19.877  26.153  1.00  0.00    -0.269 OA
BRANCH  31  34
ATOM     34  C   UNL A   1      41.991  21.868  26.702  1.00  0.00     0.039 A 
ATOM     35  C   UNL A   1      42.345  22.699  25.639  1.00  0.00     0.014 A 
ATOM     36  C   UNL A   1      42.628  21.986  27.937  1.00  0.00     0.014 A 
ATOM     37  C   UNL A   1      43.183  23.779  25.876  1.00  0.00     0.010 A 
ATOM     38  C   UNL A   1      43.354  23.135  28.208  1.00  0.00     0.010 A 
ATOM     39  C   UNL A   1      43.588  24.066  27.190  1.00  0.00    -0.014 A 
BRANCH  39  40
ATOM     40  C   UNL A   1      44.141  25.398  27.508  1.00  0.00     0.031 A 
ATOM     41  C   UNL A   1      45.545  25.745  27.128  1.00  0.00     0.074 A 
ATOM     42  C   UNL A   1      43.358  26.264  28.186  1.00  0.00     0.049 A 
ATOM     43  N   UNL A   1      46.172  26.882  27.265  1.00  0.00    -0.248 NA
ATOM     44  C   UNL A   1      46.365  24.668  26.550  1.00  0.00     0.031 C 
ATOM     45  C   UNL A   1      42.013  25.965  28.699  1.00  0.00     0.029 A 
ATOM     46  N   UNL A   1      43.556  27.571  28.545  1.00  0.00    -0.354 N 
ATOM     47  C   UNL A   1      47.458  26.658  26.791  1.00  0.00     0.074 A 
ATOM     48  C   UNL A   1      47.543  25.261  26.429  1.00  0.00     0.031 C 
ATOM     49  C   UNL A   1      41.485  27.074  29.239  1.00  0.00     0.029 A 
ATOM     50  C   UNL A   1      42.458  28.153  29.138  1.00  0.00     0.049 A 
ATOM     51  H   UNL A   1      44.404  28.048  28.394  1.00  0.00     0.167 HD
ATOM     52  C   UNL A   1      48.463  27.552  26.645  1.00  0.00     0.037 A 
ATOM     53  C   UNL A   1      42.254  29.426  29.526  1.00  0.00     0.037 A 
ATOM     54  C   UNL A   1      48.339  28.940  27.002  1.00  0.00     0.049 A 
ATOM     55  C   UNL A   1      43.357  30.417  29.282  1.00  0.00     0.074 A 
ATOM     56  C   UNL A   1      49.270  29.954  26.875  1.00  0.00     0.029 A 
ATOM     57  N   UNL A   1      47.197  29.507  27.554  1.00  0.00    -0.354 N 
ATOM     58  N   UNL A   1      44.544  30.209  28.759  1.00  0.00    -0.248 NA
ATOM     59  C   UNL A   1      43.097  31.810  29.661  1.00  0.00     0.031 C 
ATOM     60  C   UNL A   1      48.698  31.131  27.374  1.00  0.00     0.029 A 
ATOM     61  C   UNL A   1      47.399  30.858  27.779  1.00  0.00     0.049 A 
ATOM     62  H   UNL A   1      46.366  29.020  27.757  1.00  0.00     0.167 HD
ATOM     63  C   UNL A   1      45.172  31.447  28.737  1.00  0.00     0.074 A 
ATOM     64  C   UNL A   1      44.221  32.402  29.275  1.00  0.00     0.031 C 
ATOM     65  C   UNL A   1      46.421  31.770  28.319  1.00  0.00     0.037 A 
BRANCH  52  66
ATOM     66  C   UNL A   1      49.756  27.043  26.073  1.00  0.00     0.058 A 
ATOM     67  C   UNL A   1      50.731  26.442  26.888  1.00  0.00     0.135 A 
ATOM     68  C   UNL A   1      50.042  27.179  24.707  1.00  0.00     0.135 A 
ATOM     69  F   UNL A   1      50.520  26.308  28.207  1.00  0.00    -0.206 F 
ATOM     70  C   UNL A   1      51.959  26.034  26.376  1.00  0.00     0.059 A 
ATOM     71  C   UNL A   1      51.253  26.754  24.168  1.00  0.00     0.059 A 
ATOM     72  F   UNL A   1      49.150  27.751  23.882  1.00  0.00    -0.206 F 
ATOM     73  C   UNL A   1      52.214  26.203  25.016  1.00  0.00     0.060 A 
BRANCH  73  74
ATOM     74  S   UNL A   1      53.822  25.695  24.370  1.00  0.00     0.124 S 
ATOM     75  O   UNL A   1      53.600  25.795  22.930  1.00  0.00    -0.237 OA
ATOM     76  O   UNL A   1      54.720  26.693  24.942  1.00  0.00    -0.237 OA
ATOM     77  O   UNL A   1      53.983  24.341  24.888  1.00  0.00    -0.744 OA
ENDBRANCH  73  74
ENDBRANCH  52  66
BRANCH  53  78
ATOM     78  C   UNL A   1      40.950  29.834  30.115  1.00  0.00     0.058 A 
ATOM     79  C   UNL A   1      39.814  30.006  29.310  1.00  0.00     0.135 A 
ATOM     80  C   UNL A   1      40.799  30.023  31.498  1.00  0.00     0.135 A 
ATOM     81  F   UNL A   1      39.901  29.834  27.982  1.00  0.00    -0.206 F 
ATOM     82  C   UNL A   1      38.581  30.369  29.849  1.00  0.00     0.059 A 
ATOM     83  C   UNL A   1      39.572  30.364  32.063  1.00  0.00     0.059 A 
ATOM     84  F   UNL A   1      41.847  29.847  32.319  1.00  0.00    -0.206 F 
ATOM     85  C   UNL A   1      38.471  30.546  31.229  1.00  0.00     0.060 A 
BRANCH  85  86
ATOM     86  S   UNL A   1      36.858  30.966  31.926  1.00  0.00     0.124 S 
ATOM     87  O   UNL A   1      36.042  29.847  31.474  1.00  0.00    -0.237 OA
ATOM     88  O   UNL A   1      37.142  31.012  33.358  1.00  0.00    -0.237 OA
ATOM     89  O   UNL A   1      36.556  32.257  31.315  1.00  0.00    -0.744 OA
ENDBRANCH  85  86
ENDBRANCH  53  78
BRANCH  65  90
ATOM     90  C   UNL A   1      46.814  33.212  28.428  1.00  0.00     0.058 A 
ATOM     91  C   UNL A   1      47.438  33.712  29.580  1.00  0.00     0.135 A 
ATOM     92  C   UNL A   1      46.603  34.089  27.354  1.00  0.00     0.135 A 
ATOM     93  F   UNL A   1      47.653  32.909  30.635  1.00  0.00    -0.206 F 
ATOM     94  C   UNL A   1      47.820  35.044  29.674  1.00  0.00     0.059 A 
ATOM     95  C   UNL A   1      46.997  35.420  27.416  1.00  0.00     0.059 A 
ATOM     96  F   UNL A   1      46.017  33.651  26.228  1.00  0.00    -0.206 F 
ATOM     97  C   UNL A   1      47.595  35.891  28.586  1.00  0.00     0.060 A 
BRANCH  97  98
ATOM     98  S   UNL A   1      48.122  37.611  28.705  1.00  0.00     0.124 S 
ATOM     99  O   UNL A   1      49.510  37.522  28.267  1.00  0.00    -0.237 OA
ATOM    100  O   UNL A   1      47.209  38.285  27.785  1.00  0.00    -0.237 OA
ATOM    101  O   UNL A   1      47.924  37.929  30.116  1.00  0.00    -0.744 OA
ENDBRANCH  97  98
ENDBRANCH  65  90
ENDBRANCH  39  40
ENDBRANCH  31  34
ENDBRANCH  29  30
ENDBRANCH   1  29
TORSDOF 15
ENDMDL
