MODEL 1
REMARK VINA RESULT:     -11.1      0.000      0.000
REMARK SMILES C[C@@H]1C[C@@H]1C(=O)NCCC(=O)N[C@@](C)(C(=O)NCCCNC(=O)c1ccc(-c2c3nc(c(-c4c(F)cc(S(=O)(=O)[O-])cc4F)c4ccc([nH]4)c(-c4c(F)cc(S(=O)(=O)[O-])cc4F)c4nc(c(-c5c(F)cc(S(=O)(=O)[O-])cc5F)c5ccc2[nH]5)C=C4)C=C3)cc1)C(F)(F)F
REMARK SMILES IDX 18 1 17 2 15 3 16 4 13 6 14 7 12 8 10 9 11 10 9 12 8 13 7 14
REMARK SMILES IDX 5 15 6 16 4 18 1 19 2 20 3 21 90 22 91 23 92 24 93 25 19 26
REMARK SMILES IDX 20 27 21 28 22 29 23 31 24 32 25 33 89 34 26 35 88 36 27 37
REMARK SMILES IDX 28 38 29 39 82 40 30 41 87 42 81 43 83 44 31 45 86 46 80 47
REMARK SMILES IDX 79 48 32 50 66 51 45 52 65 53 46 54 49 55 64 56 84 57 47 58
REMARK SMILES IDX 48 59 63 61 85 62 50 63 33 64 34 65 43 66 35 67 36 68 42 69
REMARK SMILES IDX 44 70 37 71 38 72 39 73 40 74 41 75 67 76 68 77 77 78 69 79
REMARK SMILES IDX 70 80 76 81 78 82 71 83 72 84 73 85 74 86 75 87 51 88 52 89
REMARK SMILES IDX 61 90 53 91 54 92 60 93 62 94 55 95 56 96 57 97 58 98 59 99
REMARK H PARENT 17 5 12 11 7 17 21 30 83 49 49 60
REMARK Flexibility Score: inf
ROOT
ATOM      1  C   UNL A   1      33.600  28.871  27.495  1.00  0.00     0.117 C 
ENDROOT
BRANCH   1   2
ATOM      2  N   UNL A   1      32.600  29.638  26.771  1.00  0.00    -0.354 N 
ATOM      3  C   UNL A   1      31.900  29.438  25.624  1.00  0.00     0.254 C 
ATOM      4  O   UNL A   1      31.228  30.409  25.269  1.00  0.00    -0.272 OA
ATOM      5  H   UNL A   1      32.382  30.492  27.210  1.00  0.00     0.163 HD
BRANCH   3   6
ATOM      6  C   UNL A   1      31.862  28.071  24.901  1.00  0.00     0.212 C 
ATOM      7  C   UNL A   1      30.557  28.034  24.081  1.00  0.00     0.056 C 
BRANCH   6   8
ATOM      8  N   UNL A   1      31.837  26.977  25.937  1.00  0.00    -0.335 N 
ATOM      9  C   UNL A   1      31.739  25.621  25.874  1.00  0.00     0.222 C 
ATOM     10  O   UNL A   1      31.322  25.050  26.885  1.00  0.00    -0.275 OA
ATOM     11  H   UNL A   1      31.907  27.315  26.859  1.00  0.00     0.164 HD
BRANCH   9  12
ATOM     12  C   UNL A   1      32.185  24.801  24.683  1.00  0.00     0.121 C 
BRANCH  12  13
ATOM     13  C   UNL A   1      33.404  23.913  24.913  1.00  0.00     0.125 C 
BRANCH  13  14
ATOM     14  N   UNL A   1      34.299  23.764  23.777  1.00  0.00    -0.355 N 
ATOM     15  C   UNL A   1      35.440  23.029  23.597  1.00  0.00     0.223 C 
ATOM     16  O   UNL A   1      36.046  23.137  22.530  1.00  0.00    -0.275 OA
ATOM     17  H   UNL A   1      34.036  24.292  22.989  1.00  0.00     0.163 HD
BRANCH  15  18
ATOM     18  C   UNL A   1      35.916  22.096  24.654  1.00  0.00     0.081 C 
ATOM     19  C   UNL A   1      37.652  23.766  25.818  1.00  0.00     0.008 C 
ATOM     20  C   UNL A   1      36.973  22.441  25.699  1.00  0.00    -0.001 C 
ATOM     21  C   UNL A   1      37.324  21.547  24.543  1.00  0.00     0.018 C 
ENDBRANCH  15  18
ENDBRANCH  13  14
ENDBRANCH  12  13
ENDBRANCH   9  12
ENDBRANCH   6   8
BRANCH   6  22
ATOM     22  C   UNL A   1      33.097  28.112  23.976  1.00  0.00     0.420 C 
ATOM     23  F   UNL A   1      34.139  27.415  24.485  1.00  0.00    -0.168 F 
ATOM     24  F   UNL A   1      32.828  27.560  22.771  1.00  0.00    -0.168 F 
ATOM     25  F   UNL A   1      33.517  29.367  23.697  1.00  0.00    -0.168 F 
ENDBRANCH   6  22
ENDBRANCH   3   6
ENDBRANCH   1   2
BRANCH   1  26
ATOM     26  C   UNL A   1      34.997  29.234  27.003  1.00  0.00     0.042 C 
BRANCH  26  27
ATOM     27  C   UNL A   1      35.622  30.419  27.736  1.00  0.00     0.118 C 
BRANCH  27  28
ATOM     28  N   UNL A   1      35.410  30.377  29.176  1.00  0.00    -0.352 N 
ATOM     29  C   UNL A   1      36.306  30.068  30.173  1.00  0.00     0.251 C 
ATOM     30  H   UNL A   1      34.498  30.599  29.478  1.00  0.00     0.163 HD
ATOM     31  O   UNL A   1      35.927  29.931  31.323  1.00  0.00    -0.269 OA
BRANCH  29  32
ATOM     32  C   UNL A   1      37.727  29.876  29.814  1.00  0.00     0.039 A 
ATOM     33  C   UNL A   1      38.633  29.523  30.815  1.00  0.00     0.014 A 
ATOM     34  C   UNL A   1      38.141  29.991  28.486  1.00  0.00     0.014 A 
ATOM     35  C   UNL A   1      39.949  29.216  30.467  1.00  0.00     0.010 A 
ATOM     36  C   UNL A   1      39.426  29.600  28.132  1.00  0.00     0.010 A 
ATOM     37  C   UNL A   1      40.344  29.212  29.119  1.00  0.00    -0.014 A 
BRANCH  37  38
ATOM     38  C   UNL A   1      41.717  28.812  28.719  1.00  0.00     0.031 A 
ATOM     39  C   UNL A   1      42.814  29.841  28.677  1.00  0.00     0.074 A 
ATOM     40  C   UNL A   1      41.956  27.544  28.331  1.00  0.00     0.049 A 
ATOM     41  N   UNL A   1      44.054  29.707  28.287  1.00  0.00    -0.248 NA
ATOM     42  C   UNL A   1      42.461  31.207  29.096  1.00  0.00     0.031 C 
ATOM     43  C   UNL A   1      40.958  26.472  28.273  1.00  0.00     0.029 A 
ATOM     44  N   UNL A   1      43.110  26.941  27.901  1.00  0.00    -0.354 N 
ATOM     45  C   UNL A   1      44.623  30.971  28.398  1.00  0.00     0.074 A 
ATOM     46  C   UNL A   1      43.577  31.870  28.833  1.00  0.00     0.031 C 
ATOM     47  C   UNL A   1      41.549  25.340  27.860  1.00  0.00     0.029 A 
ATOM     48  C   UNL A   1      42.957  25.612  27.587  1.00  0.00     0.049 A 
ATOM     49  H   UNL A   1      43.969  27.417  27.825  1.00  0.00     0.167 HD
ATOM     50  C   UNL A   1      45.907  31.342  28.184  1.00  0.00     0.037 A 
ATOM     51  C   UNL A   1      43.850  24.714  27.125  1.00  0.00     0.037 A 
ATOM     52  C   UNL A   1      46.949  30.434  27.783  1.00  0.00     0.049 A 
ATOM     53  C   UNL A   1      45.274  25.148  26.908  1.00  0.00     0.074 A 
ATOM     54  C   UNL A   1      48.295  30.696  27.600  1.00  0.00     0.029 A 
ATOM     55  N   UNL A   1      46.761  29.088  27.503  1.00  0.00    -0.354 N 
ATOM     56  N   UNL A   1      45.810  26.332  27.082  1.00  0.00    -0.248 NA
ATOM     57  C   UNL A   1      46.216  24.123  26.438  1.00  0.00     0.031 C 
ATOM     58  C   UNL A   1      48.913  29.517  27.170  1.00  0.00     0.029 A 
ATOM     59  C   UNL A   1      47.963  28.509  27.133  1.00  0.00     0.049 A 
ATOM     60  H   UNL A   1      45.900  28.614  27.560  1.00  0.00     0.167 HD
ATOM     61  C   UNL A   1      47.158  26.189  26.770  1.00  0.00     0.074 A 
ATOM     62  C   UNL A   1      47.356  24.800  26.409  1.00  0.00     0.031 C 
ATOM     63  C   UNL A   1      48.142  27.122  26.783  1.00  0.00     0.037 A 
BRANCH  50  64
ATOM     64  C   UNL A   1      46.257  32.791  28.389  1.00  0.00     0.058 A 
ATOM     65  C   UNL A   1      46.680  33.277  29.638  1.00  0.00     0.135 A 
ATOM     66  C   UNL A   1      46.195  33.700  27.321  1.00  0.00     0.135 A 
ATOM     67  F   UNL A   1      46.740  32.456  30.698  1.00  0.00    -0.206 F 
ATOM     68  C   UNL A   1      46.998  34.618  29.828  1.00  0.00     0.059 A 
ATOM     69  C   UNL A   1      46.538  35.040  27.481  1.00  0.00     0.059 A 
ATOM     70  F   UNL A   1      45.796  33.291  26.106  1.00  0.00    -0.206 F 
ATOM     71  C   UNL A   1      46.924  35.492  28.742  1.00  0.00     0.060 A 
BRANCH  71  72
ATOM     72  S   UNL A   1      47.346  37.227  29.004  1.00  0.00     0.124 S 
ATOM     73  O   UNL A   1      48.640  37.113  29.672  1.00  0.00    -0.237 OA
ATOM     74  O   UNL A   1      47.382  37.749  27.642  1.00  0.00    -0.237 OA
ATOM     75  O   UNL A   1      46.254  37.722  29.834  1.00  0.00    -0.744 OA
ENDBRANCH  71  72
ENDBRANCH  50  64
BRANCH  51  76
ATOM     76  C   UNL A   1      43.429  23.310  26.867  1.00  0.00     0.058 A 
ATOM     77  C   UNL A   1      43.300  22.827  25.556  1.00  0.00     0.135 A 
ATOM     78  C   UNL A   1      43.164  22.422  27.920  1.00  0.00     0.135 A 
ATOM     79  F   UNL A   1      43.538  23.638  24.515  1.00  0.00    -0.206 F 
ATOM     80  C   UNL A   1      42.904  21.518  25.297  1.00  0.00     0.059 A 
ATOM     81  C   UNL A   1      42.792  21.101  27.687  1.00  0.00     0.059 A 
ATOM     82  F   UNL A   1      43.292  22.830  29.192  1.00  0.00    -0.206 F 
ATOM     83  C   UNL A   1      42.655  20.661  26.371  1.00  0.00     0.060 A 
BRANCH  83  84
ATOM     84  S   UNL A   1      42.190  18.951  26.024  1.00  0.00     0.124 S 
ATOM     85  O   UNL A   1      40.751  19.073  25.825  1.00  0.00    -0.237 OA
ATOM     86  O   UNL A   1      42.979  18.654  24.832  1.00  0.00    -0.237 OA
ATOM     87  O   UNL A   1      42.603  18.240  27.231  1.00  0.00    -0.744 OA
ENDBRANCH  83  84
ENDBRANCH  51  76
BRANCH  63  88
ATOM     88  C   UNL A   1      49.531  26.667  26.430  1.00  0.00     0.058 A 
ATOM     89  C   UNL A   1      50.350  26.005  27.357  1.00  0.00     0.135 A 
ATOM     90  C   UNL A   1      50.027  26.849  25.128  1.00  0.00     0.135 A 
ATOM     91  F   UNL A   1      49.925  25.812  28.616  1.00  0.00    -0.206 F 
ATOM     92  C   UNL A   1      51.623  25.561  27.015  1.00  0.00     0.059 A 
ATOM     93  C   UNL A   1      51.284  26.387  24.756  1.00  0.00     0.059 A 
ATOM     94  F   UNL A   1      49.278  27.466  24.200  1.00  0.00    -0.206 F 
ATOM     95  C   UNL A   1      52.080  25.755  25.709  1.00  0.00     0.060 A 
BRANCH  95  96
ATOM     96  S   UNL A   1      53.719  25.143  25.267  1.00  0.00     0.124 S 
ATOM     97  O   UNL A   1      54.553  25.779  26.283  1.00  0.00    -0.237 OA
ATOM     98  O   UNL A   1      53.559  23.698  25.393  1.00  0.00    -0.237 OA
ATOM     99  O   UNL A   1      53.908  25.630  23.904  1.00  0.00    -0.744 OA
ENDBRANCH  95  96
ENDBRANCH  63  88
ENDBRANCH  37  38
ENDBRANCH  29  32
ENDBRANCH  27  28
ENDBRANCH  26  27
ENDBRANCH   1  26
TORSDOF 19
ENDMDL
MODEL 2
REMARK VINA RESULT:     -11.0      4.237      6.885
REMARK SMILES C[C@@H]1C[C@@H]1C(=O)NCCC(=O)N[C@@](C)(C(=O)NCCCNC(=O)c1ccc(-c2c3nc(c(-c4c(F)cc(S(=O)(=O)[O-])cc4F)c4ccc([nH]4)c(-c4c(F)cc(S(=O)(=O)[O-])cc4F)c4nc(c(-c5c(F)cc(S(=O)(=O)[O-])cc5F)c5ccc2[nH]5)C=C4)C=C3)cc1)C(F)(F)F
REMARK SMILES IDX 18 1 17 2 15 3 16 4 13 6 14 7 12 8 10 9 11 10 9 12 8 13 7 14
REMARK SMILES IDX 5 15 6 16 4 18 1 19 2 20 3 21 90 22 91 23 92 24 93 25 19 26
REMARK SMILES IDX 20 27 21 28 22 29 23 31 24 32 25 33 89 34 26 35 88 36 27 37
REMARK SMILES IDX 28 38 29 39 82 40 30 41 87 42 81 43 83 44 31 45 86 46 80 47
REMARK SMILES IDX 79 48 32 50 66 51 45 52 65 53 46 54 49 55 64 56 84 57 47 58
REMARK SMILES IDX 48 59 63 61 85 62 50 63 33 64 34 65 43 66 35 67 36 68 42 69
REMARK SMILES IDX 44 70 37 71 38 72 39 73 40 74 41 75 67 76 68 77 77 78 69 79
REMARK SMILES IDX 70 80 76 81 78 82 71 83 72 84 73 85 74 86 75 87 51 88 52 89
REMARK SMILES IDX 61 90 53 91 54 92 60 93 62 94 55 95 56 96 57 97 58 98 59 99
REMARK H PARENT 17 5 12 11 7 17 21 30 83 49 49 60
REMARK Flexibility Score: inf
ROOT
ATOM      1  C   UNL A   1      35.904  33.792  31.383  1.00  0.00     0.117 C 
ENDROOT
BRANCH   1   2
ATOM      2  N   UNL A   1      35.675  33.806  32.818  1.00  0.00    -0.354 N 
ATOM      3  C   UNL A   1      36.303  33.243  33.883  1.00  0.00     0.254 C 
ATOM      4  O   UNL A   1      35.707  33.389  34.953  1.00  0.00    -0.272 OA
ATOM      5  H   UNL A   1      34.891  34.343  33.074  1.00  0.00     0.163 HD
BRANCH   3   6
ATOM      6  C   UNL A   1      37.698  32.585  33.772  1.00  0.00     0.212 C 
ATOM      7  C   UNL A   1      37.631  31.586  32.598  1.00  0.00     0.056 C 
BRANCH   6   8
ATOM      8  N   UNL A   1      37.985  31.840  35.050  1.00  0.00    -0.335 N 
ATOM      9  C   UNL A   1      38.881  30.877  35.400  1.00  0.00     0.222 C 
ATOM     10  O   UNL A   1      38.590  30.180  36.375  1.00  0.00    -0.275 OA
ATOM     11  H   UNL A   1      37.398  32.107  35.793  1.00  0.00     0.164 HD
BRANCH   9  12
ATOM     12  C   UNL A   1      40.217  30.685  34.715  1.00  0.00     0.121 C 
BRANCH  12  13
ATOM     13  C   UNL A   1      41.265  29.919  35.518  1.00  0.00     0.125 C 
BRANCH  13  14
ATOM     14  N   UNL A   1      41.111  28.475  35.540  1.00  0.00    -0.355 N 
ATOM     15  C   UNL A   1      41.516  27.494  34.674  1.00  0.00     0.223 C 
ATOM     16  O   UNL A   1      41.193  26.330  34.912  1.00  0.00    -0.275 OA
ATOM     17  H   UNL A   1      40.623  28.137  36.326  1.00  0.00     0.163 HD
BRANCH  15  18
ATOM     18  C   UNL A   1      42.356  27.827  33.491  1.00  0.00     0.081 C 
ATOM     19  C   UNL A   1      43.994  25.718  33.636  1.00  0.00     0.008 C 
ATOM     20  C   UNL A   1      43.536  26.993  33.006  1.00  0.00    -0.001 C 
ATOM     21  C   UNL A   1      43.779  28.287  33.731  1.00  0.00     0.018 C 
ENDBRANCH  15  18
ENDBRANCH  13  14
ENDBRANCH  12  13
ENDBRANCH   9  12
ENDBRANCH   6   8
BRANCH   6  22
ATOM     22  C   UNL A   1      38.635  33.766  33.441  1.00  0.00     0.420 C 
ATOM     23  F   UNL A   1      39.788  33.717  34.148  1.00  0.00    -0.168 F 
ATOM     24  F   UNL A   1      38.991  33.762  32.137  1.00  0.00    -0.168 F 
ATOM     25  F   UNL A   1      38.063  34.976  33.640  1.00  0.00    -0.168 F 
ENDBRANCH   6  22
ENDBRANCH   3   6
ENDBRANCH   1   2
BRANCH   1  26
ATOM     26  C   UNL A   1      34.862  32.916  30.694  1.00  0.00     0.042 C 
BRANCH  26  27
ATOM     27  C   UNL A   1      35.095  32.743  29.195  1.00  0.00     0.118 C 
BRANCH  27  28
ATOM     28  N   UNL A   1      34.210  31.757  28.590  1.00  0.00    -0.352 N 
ATOM     29  C   UNL A   1      34.513  30.505  28.105  1.00  0.00     0.251 C 
ATOM     30  H   UNL A   1      33.265  32.024  28.515  1.00  0.00     0.163 HD
ATOM     31  O   UNL A   1      33.681  29.864  27.489  1.00  0.00    -0.269 OA
BRANCH  29  32
ATOM     32  C   UNL A   1      35.876  29.972  28.320  1.00  0.00     0.039 A 
ATOM     33  C   UNL A   1      36.823  30.117  27.306  1.00  0.00     0.014 A 
ATOM     34  C   UNL A   1      36.219  29.385  29.540  1.00  0.00     0.014 A 
ATOM     35  C   UNL A   1      38.143  29.733  27.546  1.00  0.00     0.010 A 
ATOM     36  C   UNL A   1      37.549  29.086  29.805  1.00  0.00     0.010 A 
ATOM     37  C   UNL A   1      38.524  29.253  28.810  1.00  0.00    -0.014 A 
BRANCH  37  38
ATOM     38  C   UNL A   1      39.938  28.912  29.112  1.00  0.00     0.031 A 
ATOM     39  C   UNL A   1      40.834  29.937  29.751  1.00  0.00     0.074 A 
ATOM     40  C   UNL A   1      40.427  27.711  28.747  1.00  0.00     0.049 A 
ATOM     41  N   UNL A   1      42.109  29.860  30.027  1.00  0.00    -0.248 NA
ATOM     42  C   UNL A   1      40.224  31.232  30.096  1.00  0.00     0.031 C 
ATOM     43  C   UNL A   1      39.669  26.657  28.066  1.00  0.00     0.029 A 
ATOM     44  N   UNL A   1      41.681  27.174  28.889  1.00  0.00    -0.354 N 
ATOM     45  C   UNL A   1      42.456  31.096  30.560  1.00  0.00     0.074 A 
ATOM     46  C   UNL A   1      41.272  31.925  30.513  1.00  0.00     0.031 C 
ATOM     47  C   UNL A   1      40.466  25.593  27.875  1.00  0.00     0.029 A 
ATOM     48  C   UNL A   1      41.799  25.901  28.383  1.00  0.00     0.049 A 
ATOM     49  H   UNL A   1      42.427  27.656  29.314  1.00  0.00     0.167 HD
ATOM     50  C   UNL A   1      43.646  31.494  31.068  1.00  0.00     0.037 A 
ATOM     51  C   UNL A   1      42.864  25.077  28.330  1.00  0.00     0.037 A 
ATOM     52  C   UNL A   1      44.810  30.651  31.141  1.00  0.00     0.049 A 
ATOM     53  C   UNL A   1      44.172  25.537  28.914  1.00  0.00     0.074 A 
ATOM     54  C   UNL A   1      46.045  30.936  31.695  1.00  0.00     0.029 A 
ATOM     55  N   UNL A   1      44.882  29.357  30.645  1.00  0.00    -0.354 N 
ATOM     56  N   UNL A   1      44.464  26.686  29.476  1.00  0.00    -0.248 NA
ATOM     57  C   UNL A   1      45.292  24.588  28.864  1.00  0.00     0.031 C 
ATOM     58  C   UNL A   1      46.877  29.829  31.497  1.00  0.00     0.029 A 
ATOM     59  C   UNL A   1      46.146  28.835  30.865  1.00  0.00     0.049 A 
ATOM     60  H   UNL A   1      44.143  28.879  30.204  1.00  0.00     0.167 HD
ATOM     61  C   UNL A   1      45.794  26.588  29.871  1.00  0.00     0.074 A 
ATOM     62  C   UNL A   1      46.244  25.263  29.494  1.00  0.00     0.031 C 
ATOM     63  C   UNL A   1      46.572  27.510  30.490  1.00  0.00     0.037 A 
BRANCH  50  64
ATOM     64  C   UNL A   1      43.744  32.900  31.594  1.00  0.00     0.058 A 
ATOM     65  C   UNL A   1      43.381  33.220  32.913  1.00  0.00     0.135 A 
ATOM     66  C   UNL A   1      44.229  33.936  30.781  1.00  0.00     0.135 A 
ATOM     67  F   UNL A   1      42.893  32.273  33.730  1.00  0.00    -0.206 F 
ATOM     68  C   UNL A   1      43.467  34.522  33.397  1.00  0.00     0.059 A 
ATOM     69  C   UNL A   1      44.352  35.240  31.253  1.00  0.00     0.059 A 
ATOM     70  F   UNL A   1      44.588  33.688  29.511  1.00  0.00    -0.206 F 
ATOM     71  C   UNL A   1      43.954  35.525  32.558  1.00  0.00     0.060 A 
BRANCH  71  72
ATOM     72  S   UNL A   1      44.065  37.207  33.203  1.00  0.00     0.124 S 
ATOM     73  O   UNL A   1      43.674  37.992  32.035  1.00  0.00    -0.237 OA
ATOM     74  O   UNL A   1      43.104  37.185  34.301  1.00  0.00    -0.237 OA
ATOM     75  O   UNL A   1      45.464  37.328  33.601  1.00  0.00    -0.744 OA
ENDBRANCH  71  72
ENDBRANCH  50  64
BRANCH  51  76
ATOM     76  C   UNL A   1      42.728  23.722  27.728  1.00  0.00     0.058 A 
ATOM     77  C   UNL A   1      42.888  23.528  26.349  1.00  0.00     0.135 A 
ATOM     78  C   UNL A   1      42.453  22.596  28.520  1.00  0.00     0.135 A 
ATOM     79  F   UNL A   1      43.149  24.573  25.549  1.00  0.00    -0.206 F 
ATOM     80  C   UNL A   1      42.762  22.269  25.770  1.00  0.00     0.059 A 
ATOM     81  C   UNL A   1      42.346  21.323  27.967  1.00  0.00     0.059 A 
ATOM     82  F   UNL A   1      42.310  22.726  29.847  1.00  0.00    -0.206 F 
ATOM     83  C   UNL A   1      42.493  21.171  26.589  1.00  0.00     0.060 A 
BRANCH  83  84
ATOM     84  S   UNL A   1      42.380  19.534  25.835  1.00  0.00     0.124 S 
ATOM     85  O   UNL A   1      42.767  18.672  26.945  1.00  0.00    -0.237 OA
ATOM     86  O   UNL A   1      40.976  19.476  25.439  1.00  0.00    -0.237 OA
ATOM     87  O   UNL A   1      43.331  19.608  24.730  1.00  0.00    -0.744 OA
ENDBRANCH  83  84
ENDBRANCH  51  76
BRANCH  63  88
ATOM     88  C   UNL A   1      47.980  27.109  30.833  1.00  0.00     0.058 A 
ATOM     89  C   UNL A   1      49.065  27.446  30.010  1.00  0.00     0.135 A 
ATOM     90  C   UNL A   1      48.251  26.425  32.030  1.00  0.00     0.135 A 
ATOM     91  F   UNL A   1      48.859  28.094  28.853  1.00  0.00    -0.206 F 
ATOM     92  C   UNL A   1      50.369  27.098  30.349  1.00  0.00     0.059 A 
ATOM     93  C   UNL A   1      49.548  26.093  32.402  1.00  0.00     0.059 A 
ATOM     94  F   UNL A   1      47.249  26.089  32.858  1.00  0.00    -0.206 F 
ATOM     95  C   UNL A   1      50.600  26.422  31.550  1.00  0.00     0.060 A 
BRANCH  95  96
ATOM     96  S   UNL A   1      52.299  26.007  31.994  1.00  0.00     0.124 S 
ATOM     97  O   UNL A   1      52.948  25.992  30.687  1.00  0.00    -0.237 OA
ATOM     98  O   UNL A   1      52.671  27.110  32.875  1.00  0.00    -0.237 OA
ATOM     99  O   UNL A   1      52.171  24.707  32.647  1.00  0.00    -0.744 OA
ENDBRANCH  95  96
ENDBRANCH  63  88
ENDBRANCH  37  38
ENDBRANCH  29  32
ENDBRANCH  27  28
ENDBRANCH  26  27
ENDBRANCH   1  26
TORSDOF 19
ENDMDL
MODEL 3
REMARK VINA RESULT:     -10.9      3.039      3.909
REMARK SMILES C[C@@H]1C[C@@H]1C(=O)NCCC(=O)N[C@@](C)(C(=O)NCCCNC(=O)c1ccc(-c2c3nc(c(-c4c(F)cc(S(=O)(=O)[O-])cc4F)c4ccc([nH]4)c(-c4c(F)cc(S(=O)(=O)[O-])cc4F)c4nc(c(-c5c(F)cc(S(=O)(=O)[O-])cc5F)c5ccc2[nH]5)C=C4)C=C3)cc1)C(F)(F)F
REMARK SMILES IDX 18 1 17 2 15 3 16 4 13 6 14 7 12 8 10 9 11 10 9 12 8 13 7 14
REMARK SMILES IDX 5 15 6 16 4 18 1 19 2 20 3 21 90 22 91 23 92 24 93 25 19 26
REMARK SMILES IDX 20 27 21 28 22 29 23 31 24 32 25 33 89 34 26 35 88 36 27 37
REMARK SMILES IDX 28 38 29 39 82 40 30 41 87 42 81 43 83 44 31 45 86 46 80 47
REMARK SMILES IDX 79 48 32 50 66 51 45 52 65 53 46 54 49 55 64 56 84 57 47 58
REMARK SMILES IDX 48 59 63 61 85 62 50 63 33 64 34 65 43 66 35 67 36 68 42 69
REMARK SMILES IDX 44 70 37 71 38 72 39 73 40 74 41 75 67 76 68 77 77 78 69 79
REMARK SMILES IDX 70 80 76 81 78 82 71 83 72 84 73 85 74 86 75 87 51 88 52 89
REMARK SMILES IDX 61 90 53 91 54 92 60 93 62 94 55 95 56 96 57 97 58 98 59 99
REMARK H PARENT 17 5 12 11 7 17 21 30 83 49 49 60
REMARK Flexibility Score: inf
ROOT
ATOM      1  C   UNL A   1      32.586  27.790  25.118  1.00  0.00     0.117 C 
ENDROOT
BRANCH   1   2
ATOM      2  N   UNL A   1      31.335  27.480  24.445  1.00  0.00    -0.354 N 
ATOM      3  C   UNL A   1      30.860  26.394  23.781  1.00  0.00     0.254 C 
ATOM      4  O   UNL A   1      29.774  26.578  23.227  1.00  0.00    -0.272 OA
ATOM      5  H   UNL A   1      30.690  28.223  24.478  1.00  0.00     0.163 HD
BRANCH   3   6
ATOM      6  C   UNL A   1      31.568  25.019  23.824  1.00  0.00     0.212 C 
ATOM      7  C   UNL A   1      30.558  23.979  23.297  1.00  0.00     0.056 C 
BRANCH   6   8
ATOM      8  N   UNL A   1      31.919  24.699  25.254  1.00  0.00    -0.335 N 
ATOM      9  C   UNL A   1      32.333  23.573  25.894  1.00  0.00     0.222 C 
ATOM     10  O   UNL A   1      32.128  23.520  27.110  1.00  0.00    -0.275 OA
ATOM     11  H   UNL A   1      31.831  25.474  25.856  1.00  0.00     0.164 HD
BRANCH   9  12
ATOM     12  C   UNL A   1      33.087  22.450  25.215  1.00  0.00     0.121 C 
BRANCH  12  13
ATOM     13  C   UNL A   1      33.490  21.286  26.117  1.00  0.00     0.125 C 
BRANCH  13  14
ATOM     14  N   UNL A   1      34.513  20.402  25.585  1.00  0.00    -0.355 N 
ATOM     15  C   UNL A   1      34.445  19.303  24.769  1.00  0.00     0.223 C 
ATOM     16  O   UNL A   1      35.485  18.693  24.518  1.00  0.00    -0.275 OA
ATOM     17  H   UNL A   1      35.428  20.636  25.864  1.00  0.00     0.163 HD
BRANCH  15  18
ATOM     18  C   UNL A   1      33.148  18.879  24.176  1.00  0.00     0.081 C 
ATOM     19  C   UNL A   1      32.762  16.726  25.714  1.00  0.00     0.008 C 
ATOM     20  C   UNL A   1      32.357  17.652  24.615  1.00  0.00    -0.001 C 
ATOM     21  C   UNL A   1      33.127  17.626  23.324  1.00  0.00     0.018 C 
ENDBRANCH  15  18
ENDBRANCH  13  14
ENDBRANCH  12  13
ENDBRANCH   9  12
ENDBRANCH   6   8
BRANCH   6  22
ATOM     22  C   UNL A   1      32.751  25.186  22.847  1.00  0.00     0.420 C 
ATOM     23  F   UNL A   1      32.954  24.078  22.097  1.00  0.00    -0.168 F 
ATOM     24  F   UNL A   1      32.532  26.196  21.976  1.00  0.00    -0.168 F 
ATOM     25  F   UNL A   1      33.913  25.505  23.462  1.00  0.00    -0.168 F 
ENDBRANCH   6  22
ENDBRANCH   3   6
ENDBRANCH   1   2
BRANCH   1  26
ATOM     26  C   UNL A   1      32.355  27.917  26.620  1.00  0.00     0.042 C 
BRANCH  26  27
ATOM     27  C   UNL A   1      33.565  28.444  27.388  1.00  0.00     0.118 C 
BRANCH  27  28
ATOM     28  N   UNL A   1      33.502  29.877  27.640  1.00  0.00    -0.352 N 
ATOM     29  C   UNL A   1      34.473  30.709  28.150  1.00  0.00     0.251 C 
ATOM     30  H   UNL A   1      32.646  30.311  27.417  1.00  0.00     0.163 HD
ATOM     31  O   UNL A   1      34.207  31.862  28.442  1.00  0.00    -0.269 OA
BRANCH  29  32
ATOM     32  C   UNL A   1      35.831  30.165  28.364  1.00  0.00     0.039 A 
ATOM     33  C   UNL A   1      36.736  30.176  27.302  1.00  0.00     0.014 A 
ATOM     34  C   UNL A   1      36.214  29.702  29.625  1.00  0.00     0.014 A 
ATOM     35  C   UNL A   1      38.056  29.783  27.528  1.00  0.00     0.010 A 
ATOM     36  C   UNL A   1      37.548  29.397  29.866  1.00  0.00     0.010 A 
ATOM     37  C   UNL A   1      38.481  29.430  28.819  1.00  0.00    -0.014 A 
BRANCH  37  38
ATOM     38  C   UNL A   1      39.899  29.085  29.097  1.00  0.00     0.031 A 
ATOM     39  C   UNL A   1      40.819  30.120  29.684  1.00  0.00     0.074 A 
ATOM     40  C   UNL A   1      40.368  27.869  28.757  1.00  0.00     0.049 A 
ATOM     41  N   UNL A   1      42.100  30.039  29.931  1.00  0.00    -0.248 NA
ATOM     42  C   UNL A   1      40.229  31.430  30.004  1.00  0.00     0.031 C 
ATOM     43  C   UNL A   1      39.585  26.802  28.126  1.00  0.00     0.029 A 
ATOM     44  N   UNL A   1      41.621  27.324  28.885  1.00  0.00    -0.354 N 
ATOM     45  C   UNL A   1      42.471  31.287  30.418  1.00  0.00     0.074 A 
ATOM     46  C   UNL A   1      41.293  32.125  30.375  1.00  0.00     0.031 C 
ATOM     47  C   UNL A   1      40.368  25.726  27.948  1.00  0.00     0.029 A 
ATOM     48  C   UNL A   1      41.716  26.036  28.415  1.00  0.00     0.049 A 
ATOM     49  H   UNL A   1      42.382  27.812  29.277  1.00  0.00     0.167 HD
ATOM     50  C   UNL A   1      43.676  31.688  30.886  1.00  0.00     0.037 A 
ATOM     51  C   UNL A   1      42.771  25.200  28.361  1.00  0.00     0.037 A 
ATOM     52  C   UNL A   1      44.834  30.837  30.957  1.00  0.00     0.049 A 
ATOM     53  C   UNL A   1      44.097  25.665  28.899  1.00  0.00     0.074 A 
ATOM     54  C   UNL A   1      46.085  31.126  31.471  1.00  0.00     0.029 A 
ATOM     55  N   UNL A   1      44.882  29.528  30.498  1.00  0.00    -0.354 N 
ATOM     56  N   UNL A   1      44.413  26.827  29.419  1.00  0.00    -0.248 NA
ATOM     57  C   UNL A   1      45.208  24.704  28.851  1.00  0.00     0.031 C 
ATOM     58  C   UNL A   1      46.902  30.006  31.287  1.00  0.00     0.029 A 
ATOM     59  C   UNL A   1      46.147  29.001  30.703  1.00  0.00     0.049 A 
ATOM     60  H   UNL A   1      44.129  29.044  30.089  1.00  0.00     0.167 HD
ATOM     61  C   UNL A   1      45.752  26.728  29.785  1.00  0.00     0.074 A 
ATOM     62  C   UNL A   1      46.180  25.388  29.438  1.00  0.00     0.031 C 
ATOM     63  C   UNL A   1      46.552  27.661  30.358  1.00  0.00     0.037 A 
BRANCH  50  64
ATOM     64  C   UNL A   1      43.799  33.109  31.367  1.00  0.00     0.058 A 
ATOM     65  C   UNL A   1      44.284  34.129  30.532  1.00  0.00     0.135 A 
ATOM     66  C   UNL A   1      43.403  33.461  32.666  1.00  0.00     0.135 A 
ATOM     67  F   UNL A   1      44.695  33.846  29.286  1.00  0.00    -0.206 F 
ATOM     68  C   UNL A   1      44.402  35.441  30.979  1.00  0.00     0.059 A 
ATOM     69  C   UNL A   1      43.483  34.773  33.125  1.00  0.00     0.059 A 
ATOM     70  F   UNL A   1      42.933  32.526  33.508  1.00  0.00    -0.206 F 
ATOM     71  C   UNL A   1      43.998  35.753  32.278  1.00  0.00     0.060 A 
BRANCH  71  72
ATOM     72  S   UNL A   1      44.151  37.461  32.840  1.00  0.00     0.124 S 
ATOM     73  O   UNL A   1      43.827  38.198  31.621  1.00  0.00    -0.237 OA
ATOM     74  O   UNL A   1      43.156  37.531  33.905  1.00  0.00    -0.237 OA
ATOM     75  O   UNL A   1      45.540  37.553  33.277  1.00  0.00    -0.744 OA
ENDBRANCH  71  72
ENDBRANCH  50  64
BRANCH  51  76
ATOM     76  C   UNL A   1      42.609  23.830  27.803  1.00  0.00     0.058 A 
ATOM     77  C   UNL A   1      42.611  23.611  26.418  1.00  0.00     0.135 A 
ATOM     78  C   UNL A   1      42.465  22.713  28.642  1.00  0.00     0.135 A 
ATOM     79  F   UNL A   1      42.742  24.647  25.575  1.00  0.00    -0.206 F 
ATOM     80  C   UNL A   1      42.458  22.337  25.880  1.00  0.00     0.059 A 
ATOM     81  C   UNL A   1      42.336  21.426  28.128  1.00  0.00     0.059 A 
ATOM     82  F   UNL A   1      42.476  22.867  29.974  1.00  0.00    -0.206 F 
ATOM     83  C   UNL A   1      42.324  21.249  26.745  1.00  0.00     0.060 A 
BRANCH  83  84
ATOM     84  S   UNL A   1      42.175  19.594  26.038  1.00  0.00     0.124 S 
ATOM     85  O   UNL A   1      40.753  19.538  25.722  1.00  0.00    -0.237 OA
ATOM     86  O   UNL A   1      43.082  19.665  24.897  1.00  0.00    -0.237 OA
ATOM     87  O   UNL A   1      42.615  18.725  27.126  1.00  0.00    -0.744 OA
ENDBRANCH  83  84
ENDBRANCH  51  76
BRANCH  63  88
ATOM     88  C   UNL A   1      47.965  27.257  30.679  1.00  0.00     0.058 A 
ATOM     89  C   UNL A   1      48.298  26.643  31.895  1.00  0.00     0.135 A 
ATOM     90  C   UNL A   1      48.986  27.441  29.733  1.00  0.00     0.135 A 
ATOM     91  F   UNL A   1      47.359  26.451  32.835  1.00  0.00    -0.206 F 
ATOM     92  C   UNL A   1      49.602  26.245  32.173  1.00  0.00     0.059 A 
ATOM     93  C   UNL A   1      50.290  27.024  29.978  1.00  0.00     0.059 A 
ATOM     94  F   UNL A   1      48.717  28.013  28.549  1.00  0.00    -0.206 F 
ATOM     95  C   UNL A   1      50.591  26.439  31.205  1.00  0.00     0.060 A 
BRANCH  95  96
ATOM     96  S   UNL A   1      52.271  25.886  31.565  1.00  0.00     0.124 S 
ATOM     97  O   UNL A   1      52.041  24.515  32.008  1.00  0.00    -0.237 OA
ATOM     98  O   UNL A   1      52.933  26.033  30.272  1.00  0.00    -0.237 OA
ATOM     99  O   UNL A   1      52.720  26.814  32.600  1.00  0.00    -0.744 OA
ENDBRANCH  95  96
ENDBRANCH  63  88
ENDBRANCH  37  38
ENDBRANCH  29  32
ENDBRANCH  27  28
ENDBRANCH  26  27
ENDBRANCH   1  26
TORSDOF 19
ENDMDL
