MODEL 1
REMARK VINA RESULT:     -12.4      0.000      0.000
REMARK SMILES CC1(C)CCC[C@@H]1Nc1nc2c(cc1C(=O)NCCCNC(=O)c1ccc(-c3c4nc(c(-c5c(F)cc(S(=O)(=O)[O-])cc5F)c5ccc([nH]5)c(-c5c(F)cc(S(=O)(=O)[O-])cc5F)c5nc(c(-c6c(F)cc(S(=O)(=O)[O-])cc6F)c6ccc3[nH]6)C=C5)C=C4)cc1)CCC2
REMARK SMILES IDX 19 1 18 2 17 3 15 4 16 5 14 7 9 8 10 9 11 10 13 11 12 12
REMARK SMILES IDX 92 13 90 14 91 15 8 16 7 18 1 19 2 20 3 21 4 22 5 23 6 24
REMARK SMILES IDX 20 25 21 26 22 27 23 29 24 30 25 31 89 32 26 33 88 34 27 35
REMARK SMILES IDX 28 36 29 37 82 38 30 39 87 40 81 41 83 42 31 43 86 44 80 45
REMARK SMILES IDX 79 46 32 48 66 49 45 50 65 51 46 52 49 53 64 54 84 55 47 56
REMARK SMILES IDX 48 57 63 59 85 60 50 61 33 62 34 63 43 64 35 65 36 66 42 67
REMARK SMILES IDX 44 68 37 69 38 70 39 71 40 72 41 73 67 74 68 75 77 76 69 77
REMARK SMILES IDX 70 78 76 79 78 80 71 81 72 82 73 83 74 84 75 85 51 86 52 87
REMARK SMILES IDX 61 88 53 89 54 90 60 91 62 92 55 93 56 94 57 95 58 96 59 97
REMARK H PARENT 17 6 8 17 21 28 83 47 49 58
REMARK Flexibility Score: inf
ROOT
ATOM      1  C   UNL A   1      32.832  27.179  26.547  1.00  0.00     0.042 C 
ENDROOT
BRANCH   1   2
ATOM      2  C   UNL A   1      33.045  25.824  25.886  1.00  0.00     0.118 C 
BRANCH   2   3
ATOM      3  N   UNL A   1      32.225  24.740  26.371  1.00  0.00    -0.352 N 
ATOM      4  C   UNL A   1      32.618  23.501  26.814  1.00  0.00     0.255 C 
ATOM      5  O   UNL A   1      31.785  22.837  27.438  1.00  0.00    -0.269 OA
ATOM      6  H   UNL A   1      31.256  24.913  26.390  1.00  0.00     0.163 HD
BRANCH   4   7
ATOM      7  C   UNL A   1      33.907  22.855  26.451  1.00  0.00     0.082 A 
ATOM      8  C   UNL A   1      34.198  21.493  26.255  1.00  0.00     0.139 A 
ATOM      9  N   UNL A   1      35.469  21.063  26.010  1.00  0.00    -0.235 NA
ATOM     10  C   UNL A   1      36.437  21.985  25.912  1.00  0.00     0.046 A 
ATOM     11  C   UNL A   1      34.964  23.790  26.313  1.00  0.00     0.023 A 
ATOM     12  C   UNL A   1      36.236  23.341  26.042  1.00  0.00    -0.025 A 
ATOM     13  C   UNL A   1      37.868  21.678  25.580  1.00  0.00     0.057 C 
ATOM     14  C   UNL A   1      37.495  24.105  25.806  1.00  0.00     0.038 C 
ATOM     15  C   UNL A   1      38.552  23.000  25.962  1.00  0.00     0.011 C 
BRANCH   8  16
ATOM     16  N   UNL A   1      33.357  20.410  26.268  1.00  0.00    -0.366 N 
ATOM     17  H   UNL A   1      33.326  19.878  27.096  1.00  0.00     0.162 HD
BRANCH  16  18
ATOM     18  C   UNL A   1      32.510  19.974  25.174  1.00  0.00     0.086 C 
ATOM     19  C   UNL A   1      32.460  17.408  25.550  1.00  0.00     0.013 C 
ATOM     20  C   UNL A   1      32.917  18.558  24.654  1.00  0.00    -0.015 C 
ATOM     21  C   UNL A   1      34.429  18.377  24.413  1.00  0.00     0.013 C 
ATOM     22  C   UNL A   1      32.154  18.526  23.321  1.00  0.00     0.008 C 
ATOM     23  C   UNL A   1      32.312  19.931  22.743  1.00  0.00     0.003 C 
ATOM     24  C   UNL A   1      32.647  20.849  23.924  1.00  0.00     0.025 C 
ENDBRANCH  16  18
ENDBRANCH   8  16
ENDBRANCH   4   7
ENDBRANCH   2   3
ENDBRANCH   1   2
BRANCH   1  25
ATOM     25  C   UNL A   1      33.982  28.173  26.380  1.00  0.00     0.118 C 
BRANCH  25  26
ATOM     26  N   UNL A   1      33.775  29.481  26.993  1.00  0.00    -0.352 N 
ATOM     27  C   UNL A   1      34.581  30.277  27.775  1.00  0.00     0.251 C 
ATOM     28  H   UNL A   1      32.888  29.869  26.813  1.00  0.00     0.163 HD
ATOM     29  O   UNL A   1      34.126  31.321  28.241  1.00  0.00    -0.269 OA
BRANCH  27  30
ATOM     30  C   UNL A   1      35.963  29.878  28.109  1.00  0.00     0.039 A 
ATOM     31  C   UNL A   1      36.245  29.365  29.383  1.00  0.00     0.014 A 
ATOM     32  C   UNL A   1      36.996  30.063  27.194  1.00  0.00     0.014 A 
ATOM     33  C   UNL A   1      37.550  28.979  29.710  1.00  0.00     0.010 A 
ATOM     34  C   UNL A   1      38.269  29.592  27.482  1.00  0.00     0.010 A 
ATOM     35  C   UNL A   1      38.567  29.067  28.749  1.00  0.00    -0.014 A 
BRANCH  35  36
ATOM     36  C   UNL A   1      39.979  28.713  29.036  1.00  0.00     0.031 A 
ATOM     37  C   UNL A   1      40.889  29.773  29.601  1.00  0.00     0.074 A 
ATOM     38  C   UNL A   1      40.466  27.508  28.684  1.00  0.00     0.049 A 
ATOM     39  N   UNL A   1      42.188  29.770  29.724  1.00  0.00    -0.248 NA
ATOM     40  C   UNL A   1      40.246  31.024  30.041  1.00  0.00     0.031 C 
ATOM     41  C   UNL A   1      39.688  26.414  28.101  1.00  0.00     0.029 A 
ATOM     42  N   UNL A   1      41.745  27.012  28.741  1.00  0.00    -0.354 N 
ATOM     43  C   UNL A   1      42.520  31.025  30.222  1.00  0.00     0.074 A 
ATOM     44  C   UNL A   1      41.294  31.783  30.317  1.00  0.00     0.031 C 
ATOM     45  C   UNL A   1      40.503  25.372  27.866  1.00  0.00     0.029 A 
ATOM     46  C   UNL A   1      41.865  25.737  28.243  1.00  0.00     0.049 A 
ATOM     47  H   UNL A   1      42.504  27.523  29.105  1.00  0.00     0.167 HD
ATOM     48  C   UNL A   1      43.733  31.491  30.600  1.00  0.00     0.037 A 
ATOM     49  C   UNL A   1      42.957  24.960  28.097  1.00  0.00     0.037 A 
ATOM     50  C   UNL A   1      44.937  30.706  30.554  1.00  0.00     0.049 A 
ATOM     51  C   UNL A   1      44.299  25.499  28.515  1.00  0.00     0.074 A 
ATOM     52  C   UNL A   1      46.207  31.052  30.976  1.00  0.00     0.029 A 
ATOM     53  N   UNL A   1      45.012  29.409  30.065  1.00  0.00    -0.354 N 
ATOM     54  N   UNL A   1      44.592  26.673  29.023  1.00  0.00    -0.248 NA
ATOM     55  C   UNL A   1      45.460  24.615  28.335  1.00  0.00     0.031 C 
ATOM     56  C   UNL A   1      47.058  29.975  30.714  1.00  0.00     0.029 A 
ATOM     57  C   UNL A   1      46.312  28.945  30.161  1.00  0.00     0.049 A 
ATOM     58  H   UNL A   1      44.253  28.895  29.704  1.00  0.00     0.167 HD
ATOM     59  C   UNL A   1      45.965  26.662  29.242  1.00  0.00     0.074 A 
ATOM     60  C   UNL A   1      46.444  25.361  28.821  1.00  0.00     0.031 C 
ATOM     61  C   UNL A   1      46.760  27.640  29.742  1.00  0.00     0.037 A 
BRANCH  48  62
ATOM     62  C   UNL A   1      43.807  32.897  31.124  1.00  0.00     0.058 A 
ATOM     63  C   UNL A   1      44.086  33.981  30.274  1.00  0.00     0.135 A 
ATOM     64  C   UNL A   1      43.578  33.174  32.482  1.00  0.00     0.135 A 
ATOM     65  F   UNL A   1      44.328  33.771  28.971  1.00  0.00    -0.206 F 
ATOM     66  C   UNL A   1      44.169  35.281  30.756  1.00  0.00     0.059 A 
ATOM     67  C   UNL A   1      43.628  34.474  32.981  1.00  0.00     0.059 A 
ATOM     68  F   UNL A   1      43.311  32.177  33.340  1.00  0.00    -0.206 F 
ATOM     69  C   UNL A   1      43.938  35.519  32.112  1.00  0.00     0.060 A 
BRANCH  69  70
ATOM     70  S   UNL A   1      44.047  37.216  32.715  1.00  0.00     0.124 S 
ATOM     71  O   UNL A   1      43.782  37.976  31.496  1.00  0.00    -0.237 OA
ATOM     72  O   UNL A   1      42.995  37.255  33.725  1.00  0.00    -0.237 OA
ATOM     73  O   UNL A   1      45.410  37.309  33.228  1.00  0.00    -0.744 OA
ENDBRANCH  69  70
ENDBRANCH  48  62
BRANCH  49  74
ATOM     74  C   UNL A   1      42.818  23.577  27.565  1.00  0.00     0.058 A 
ATOM     75  C   UNL A   1      42.522  22.512  28.428  1.00  0.00     0.135 A 
ATOM     76  C   UNL A   1      42.943  23.293  26.197  1.00  0.00     0.135 A 
ATOM     77  F   UNL A   1      42.402  22.732  29.747  1.00  0.00    -0.206 F 
ATOM     78  C   UNL A   1      42.359  21.214  27.958  1.00  0.00     0.059 A 
ATOM     79  C   UNL A   1      42.763  22.005  25.698  1.00  0.00     0.059 A 
ATOM     80  F   UNL A   1      43.212  24.278  25.326  1.00  0.00    -0.206 F 
ATOM     81  C   UNL A   1      42.476  20.970  26.589  1.00  0.00     0.060 A 
BRANCH  81  82
ATOM     82  S   UNL A   1      42.200  19.289  25.987  1.00  0.00     0.124 S 
ATOM     83  O   UNL A   1      42.660  18.492  27.118  1.00  0.00    -0.237 OA
ATOM     84  O   UNL A   1      40.760  19.286  25.746  1.00  0.00    -0.237 OA
ATOM     85  O   UNL A   1      43.029  19.221  24.787  1.00  0.00    -0.744 OA
ENDBRANCH  81  82
ENDBRANCH  49  74
BRANCH  61  86
ATOM     86  C   UNL A   1      48.228  27.353  29.871  1.00  0.00     0.058 A 
ATOM     87  C   UNL A   1      49.133  27.741  28.873  1.00  0.00     0.135 A 
ATOM     88  C   UNL A   1      48.744  26.795  31.051  1.00  0.00     0.135 A 
ATOM     89  F   UNL A   1      48.687  28.270  27.723  1.00  0.00    -0.206 F 
ATOM     90  C   UNL A   1      50.505  27.591  29.044  1.00  0.00     0.059 A 
ATOM     91  C   UNL A   1      50.113  26.658  31.253  1.00  0.00     0.059 A 
ATOM     92  F   UNL A   1      47.917  26.417  32.039  1.00  0.00    -0.206 F 
ATOM     93  C   UNL A   1      50.986  27.061  30.243  1.00  0.00     0.060 A 
BRANCH  93  94
ATOM     94  S   UNL A   1      52.772  26.956  30.481  1.00  0.00     0.124 S 
ATOM     95  O   UNL A   1      52.878  25.854  31.433  1.00  0.00    -0.237 OA
ATOM     96  O   UNL A   1      53.249  26.675  29.131  1.00  0.00    -0.237 OA
ATOM     97  O   UNL A   1      53.125  28.273  31.003  1.00  0.00    -0.744 OA
ENDBRANCH  93  94
ENDBRANCH  61  86
ENDBRANCH  35  36
ENDBRANCH  27  30
ENDBRANCH  25  26
ENDBRANCH   1  25
TORSDOF 15
ENDMDL
MODEL 2
REMARK VINA RESULT:     -12.2      2.197      4.052
REMARK SMILES CC1(C)CCC[C@@H]1Nc1nc2c(cc1C(=O)NCCCNC(=O)c1ccc(-c3c4nc(c(-c5c(F)cc(S(=O)(=O)[O-])cc5F)c5ccc([nH]5)c(-c5c(F)cc(S(=O)(=O)[O-])cc5F)c5nc(c(-c6c(F)cc(S(=O)(=O)[O-])cc6F)c6ccc3[nH]6)C=C5)C=C4)cc1)CCC2
REMARK SMILES IDX 19 1 18 2 17 3 15 4 16 5 14 7 9 8 10 9 11 10 13 11 12 12
REMARK SMILES IDX 92 13 90 14 91 15 8 16 7 18 1 19 2 20 3 21 4 22 5 23 6 24
REMARK SMILES IDX 20 25 21 26 22 27 23 29 24 30 25 31 89 32 26 33 88 34 27 35
REMARK SMILES IDX 28 36 29 37 82 38 30 39 87 40 81 41 83 42 31 43 86 44 80 45
REMARK SMILES IDX 79 46 32 48 66 49 45 50 65 51 46 52 49 53 64 54 84 55 47 56
REMARK SMILES IDX 48 57 63 59 85 60 50 61 33 62 34 63 43 64 35 65 36 66 42 67
REMARK SMILES IDX 44 68 37 69 38 70 39 71 40 72 41 73 67 74 68 75 77 76 69 77
REMARK SMILES IDX 70 78 76 79 78 80 71 81 72 82 73 83 74 84 75 85 51 86 52 87
REMARK SMILES IDX 61 88 53 89 54 90 60 91 62 92 55 93 56 94 57 95 58 96 59 97
REMARK H PARENT 17 6 8 17 21 28 83 47 49 58
REMARK Flexibility Score: inf
ROOT
ATOM      1  C   UNL A   1      34.068  28.094  25.901  1.00  0.00     0.042 C 
ENDROOT
BRANCH   1   2
ATOM      2  C   UNL A   1      33.549  29.075  24.859  1.00  0.00     0.118 C 
BRANCH   2   3
ATOM      3  N   UNL A   1      34.049  28.905  23.516  1.00  0.00    -0.352 N 
ATOM      4  C   UNL A   1      33.622  28.030  22.547  1.00  0.00     0.255 C 
ATOM      5  O   UNL A   1      34.000  28.243  21.391  1.00  0.00    -0.269 OA
ATOM      6  H   UNL A   1      34.794  29.496  23.260  1.00  0.00     0.163 HD
BRANCH   4   7
ATOM      7  C   UNL A   1      32.879  26.773  22.826  1.00  0.00     0.082 A 
ATOM      8  C   UNL A   1      31.597  26.598  23.374  1.00  0.00     0.139 A 
ATOM      9  N   UNL A   1      31.100  25.357  23.646  1.00  0.00    -0.235 NA
ATOM     10  C   UNL A   1      31.854  24.294  23.329  1.00  0.00     0.046 A 
ATOM     11  C   UNL A   1      33.625  25.615  22.488  1.00  0.00     0.023 A 
ATOM     12  C   UNL A   1      33.099  24.369  22.746  1.00  0.00    -0.025 A 
ATOM     13  C   UNL A   1      31.421  22.867  23.503  1.00  0.00     0.057 C 
ATOM     14  C   UNL A   1      33.647  23.014  22.450  1.00  0.00     0.038 C 
ATOM     15  C   UNL A   1      32.759  22.130  23.341  1.00  0.00     0.011 C 
BRANCH   8  16
ATOM     16  N   UNL A   1      30.661  27.537  23.724  1.00  0.00    -0.366 N 
ATOM     17  H   UNL A   1      30.779  27.985  24.593  1.00  0.00     0.162 HD
BRANCH  16  18
ATOM     18  C   UNL A   1      29.510  27.931  22.933  1.00  0.00     0.086 C 
ATOM     19  C   UNL A   1      30.450  29.969  21.633  1.00  0.00     0.013 C 
ATOM     20  C   UNL A   1      29.470  29.474  22.696  1.00  0.00    -0.015 C 
ATOM     21  C   UNL A   1      29.703  30.321  23.963  1.00  0.00     0.013 C 
ATOM     22  C   UNL A   1      28.025  29.637  22.199  1.00  0.00     0.008 C 
ATOM     23  C   UNL A   1      27.199  28.699  23.077  1.00  0.00     0.003 C 
ATOM     24  C   UNL A   1      28.176  27.658  23.636  1.00  0.00     0.025 C 
ENDBRANCH  16  18
ENDBRANCH   8  16
ENDBRANCH   4   7
ENDBRANCH   2   3
ENDBRANCH   1   2
BRANCH   1  25
ATOM     25  C   UNL A   1      33.611  28.365  27.334  1.00  0.00     0.118 C 
BRANCH  25  26
ATOM     26  N   UNL A   1      33.533  29.773  27.712  1.00  0.00    -0.352 N 
ATOM     27  C   UNL A   1      34.460  30.645  28.237  1.00  0.00     0.251 C 
ATOM     28  H   UNL A   1      32.648  30.177  27.561  1.00  0.00     0.163 HD
ATOM     29  O   UNL A   1      34.108  31.782  28.546  1.00  0.00    -0.269 OA
BRANCH  27  30
ATOM     30  C   UNL A   1      35.854  30.227  28.484  1.00  0.00     0.039 A 
ATOM     31  C   UNL A   1      36.211  29.725  29.743  1.00  0.00     0.014 A 
ATOM     32  C   UNL A   1      36.828  30.385  27.502  1.00  0.00     0.014 A 
ATOM     33  C   UNL A   1      37.529  29.321  29.989  1.00  0.00     0.010 A 
ATOM     34  C   UNL A   1      38.109  29.897  27.712  1.00  0.00     0.010 A 
ATOM     35  C   UNL A   1      38.482  29.381  28.963  1.00  0.00    -0.014 A 
BRANCH  35  36
ATOM     36  C   UNL A   1      39.903  29.007  29.160  1.00  0.00     0.031 A 
ATOM     37  C   UNL A   1      40.866  30.059  29.648  1.00  0.00     0.074 A 
ATOM     38  C   UNL A   1      40.347  27.789  28.796  1.00  0.00     0.049 A 
ATOM     39  N   UNL A   1      42.171  30.036  29.684  1.00  0.00    -0.248 NA
ATOM     40  C   UNL A   1      40.274  31.327  30.110  1.00  0.00     0.031 C 
ATOM     41  C   UNL A   1      39.514  26.700  28.283  1.00  0.00     0.029 A 
ATOM     42  N   UNL A   1      41.618  27.272  28.776  1.00  0.00    -0.354 N 
ATOM     43  C   UNL A   1      42.555  31.292  30.140  1.00  0.00     0.074 A 
ATOM     44  C   UNL A   1      41.350  32.073  30.304  1.00  0.00     0.031 C 
ATOM     45  C   UNL A   1      40.295  25.641  28.012  1.00  0.00     0.029 A 
ATOM     46  C   UNL A   1      41.685  25.988  28.291  1.00  0.00     0.049 A 
ATOM     47  H   UNL A   1      42.408  27.775  29.081  1.00  0.00     0.167 HD
ATOM     48  C   UNL A   1      43.798  31.743  30.430  1.00  0.00     0.037 A 
ATOM     49  C   UNL A   1      42.752  25.190  28.085  1.00  0.00     0.037 A 
ATOM     50  C   UNL A   1      44.983  30.937  30.316  1.00  0.00     0.049 A 
ATOM     51  C   UNL A   1      44.127  25.712  28.405  1.00  0.00     0.074 A 
ATOM     52  C   UNL A   1      46.283  31.267  30.648  1.00  0.00     0.029 A 
ATOM     53  N   UNL A   1      45.005  29.632  29.843  1.00  0.00    -0.354 N 
ATOM     54  N   UNL A   1      44.472  26.888  28.875  1.00  0.00    -0.248 NA
ATOM     55  C   UNL A   1      45.259  24.806  28.162  1.00  0.00     0.031 C 
ATOM     56  C   UNL A   1      47.098  30.171  30.346  1.00  0.00     0.029 A 
ATOM     57  C   UNL A   1      46.300  29.147  29.860  1.00  0.00     0.049 A 
ATOM     58  H   UNL A   1      44.215  29.126  29.541  1.00  0.00     0.167 HD
ATOM     59  C   UNL A   1      45.857  26.857  29.002  1.00  0.00     0.074 A 
ATOM     60  C   UNL A   1      46.285  25.542  28.570  1.00  0.00     0.031 C 
ATOM     61  C   UNL A   1      46.698  27.828  29.432  1.00  0.00     0.037 A 
BRANCH  48  62
ATOM     62  C   UNL A   1      43.929  33.155  30.926  1.00  0.00     0.058 A 
ATOM     63  C   UNL A   1      43.798  33.466  32.290  1.00  0.00     0.135 A 
ATOM     64  C   UNL A   1      44.207  34.208  30.040  1.00  0.00     0.135 A 
ATOM     65  F   UNL A   1      43.516  32.500  33.178  1.00  0.00    -0.206 F 
ATOM     66  C   UNL A   1      43.904  34.771  32.752  1.00  0.00     0.059 A 
ATOM     67  C   UNL A   1      44.347  35.520  30.486  1.00  0.00     0.059 A 
ATOM     68  F   UNL A   1      44.339  33.969  28.725  1.00  0.00    -0.206 F 
ATOM     69  C   UNL A   1      44.179  35.793  31.842  1.00  0.00     0.060 A 
BRANCH  69  70
ATOM     70  S   UNL A   1      44.317  37.481  32.465  1.00  0.00     0.124 S 
ATOM     71  O   UNL A   1      43.384  37.454  33.589  1.00  0.00    -0.237 OA
ATOM     72  O   UNL A   1      45.730  37.568  32.819  1.00  0.00    -0.237 OA
ATOM     73  O   UNL A   1      43.906  38.300  31.329  1.00  0.00    -0.744 OA
ENDBRANCH  69  70
ENDBRANCH  48  62
BRANCH  49  74
ATOM     74  C   UNL A   1      42.555  23.802  27.586  1.00  0.00     0.058 A 
ATOM     75  C   UNL A   1      42.426  22.736  28.487  1.00  0.00     0.135 A 
ATOM     76  C   UNL A   1      42.460  23.514  26.215  1.00  0.00     0.135 A 
ATOM     77  F   UNL A   1      42.519  22.960  29.807  1.00  0.00    -0.206 F 
ATOM     78  C   UNL A   1      42.215  21.433  28.052  1.00  0.00     0.059 A 
ATOM     79  C   UNL A   1      42.227  22.220  25.755  1.00  0.00     0.059 A 
ATOM     80  F   UNL A   1      42.563  24.500  25.311  1.00  0.00    -0.206 F 
ATOM     81  C   UNL A   1      42.110  21.185  26.683  1.00  0.00     0.060 A 
BRANCH  81  82
ATOM     82  S   UNL A   1      41.774  19.496  26.136  1.00  0.00     0.124 S 
ATOM     83  O   UNL A   1      42.685  19.365  25.005  1.00  0.00    -0.237 OA
ATOM     84  O   UNL A   1      42.116  18.720  27.325  1.00  0.00    -0.237 OA
ATOM     85  O   UNL A   1      40.353  19.526  25.803  1.00  0.00    -0.744 OA
ENDBRANCH  81  82
ENDBRANCH  49  74
BRANCH  61  86
ATOM     86  C   UNL A   1      48.167  27.518  29.469  1.00  0.00     0.058 A 
ATOM     87  C   UNL A   1      48.977  27.713  28.341  1.00  0.00     0.135 A 
ATOM     88  C   UNL A   1      48.786  27.139  30.670  1.00  0.00     0.135 A 
ATOM     89  F   UNL A   1      48.430  28.068  27.168  1.00  0.00    -0.206 F 
ATOM     90  C   UNL A   1      50.356  27.548  28.405  1.00  0.00     0.059 A 
ATOM     91  C   UNL A   1      50.165  26.991  30.763  1.00  0.00     0.059 A 
ATOM     92  F   UNL A   1      48.052  26.949  31.779  1.00  0.00    -0.206 F 
ATOM     93  C   UNL A   1      50.943  27.200  29.624  1.00  0.00     0.060 A 
BRANCH  93  94
ATOM     94  S   UNL A   1      52.741  27.076  29.708  1.00  0.00     0.124 S 
ATOM     95  O   UNL A   1      52.922  26.172  30.840  1.00  0.00    -0.237 OA
ATOM     96  O   UNL A   1      53.076  26.527  28.398  1.00  0.00    -0.237 OA
ATOM     97  O   UNL A   1      53.169  28.454  29.931  1.00  0.00    -0.744 OA
ENDBRANCH  93  94
ENDBRANCH  61  86
ENDBRANCH  35  36
ENDBRANCH  27  30
ENDBRANCH  25  26
ENDBRANCH   1  25
TORSDOF 15
ENDMDL
MODEL 3
REMARK VINA RESULT:     -12.0      2.145      3.798
REMARK SMILES CC1(C)CCC[C@@H]1Nc1nc2c(cc1C(=O)NCCCNC(=O)c1ccc(-c3c4nc(c(-c5c(F)cc(S(=O)(=O)[O-])cc5F)c5ccc([nH]5)c(-c5c(F)cc(S(=O)(=O)[O-])cc5F)c5nc(c(-c6c(F)cc(S(=O)(=O)[O-])cc6F)c6ccc3[nH]6)C=C5)C=C4)cc1)CCC2
REMARK SMILES IDX 19 1 18 2 17 3 15 4 16 5 14 7 9 8 10 9 11 10 13 11 12 12
REMARK SMILES IDX 92 13 90 14 91 15 8 16 7 18 1 19 2 20 3 21 4 22 5 23 6 24
REMARK SMILES IDX 20 25 21 26 22 27 23 29 24 30 25 31 89 32 26 33 88 34 27 35
REMARK SMILES IDX 28 36 29 37 82 38 30 39 87 40 81 41 83 42 31 43 86 44 80 45
REMARK SMILES IDX 79 46 32 48 66 49 45 50 65 51 46 52 49 53 64 54 84 55 47 56
REMARK SMILES IDX 48 57 63 59 85 60 50 61 33 62 34 63 43 64 35 65 36 66 42 67
REMARK SMILES IDX 44 68 37 69 38 70 39 71 40 72 41 73 67 74 68 75 77 76 69 77
REMARK SMILES IDX 70 78 76 79 78 80 71 81 72 82 73 83 74 84 75 85 51 86 52 87
REMARK SMILES IDX 61 88 53 89 54 90 60 91 62 92 55 93 56 94 57 95 58 96 59 97
REMARK H PARENT 17 6 8 17 21 28 83 47 49 58
REMARK Flexibility Score: inf
ROOT
ATOM      1  C   UNL A   1      33.980  27.769  26.163  1.00  0.00     0.042 C 
ENDROOT
BRANCH   1   2
ATOM      2  C   UNL A   1      34.140  28.845  25.098  1.00  0.00     0.118 C 
BRANCH   2   3
ATOM      3  N   UNL A   1      34.366  28.382  23.751  1.00  0.00    -0.352 N 
ATOM      4  C   UNL A   1      33.469  28.291  22.714  1.00  0.00     0.255 C 
ATOM      5  O   UNL A   1      33.934  28.133  21.581  1.00  0.00    -0.269 OA
ATOM      6  H   UNL A   1      35.286  28.095  23.546  1.00  0.00     0.163 HD
BRANCH   4   7
ATOM      7  C   UNL A   1      31.996  28.208  22.890  1.00  0.00     0.082 A 
ATOM      8  C   UNL A   1      31.216  27.153  23.396  1.00  0.00     0.139 A 
ATOM      9  N   UNL A   1      29.853  27.214  23.405  1.00  0.00    -0.235 NA
ATOM     10  C   UNL A   1      29.270  28.336  22.960  1.00  0.00     0.046 A 
ATOM     11  C   UNL A   1      31.330  29.382  22.455  1.00  0.00     0.023 A 
ATOM     12  C   UNL A   1      29.955  29.437  22.494  1.00  0.00    -0.025 A 
ATOM     13  C   UNL A   1      27.789  28.583  22.970  1.00  0.00     0.057 C 
ATOM     14  C   UNL A   1      29.027  30.550  22.144  1.00  0.00     0.038 C 
ATOM     15  C   UNL A   1      27.686  29.805  22.044  1.00  0.00     0.011 C 
BRANCH   8  16
ATOM     16  N   UNL A   1      31.610  25.954  23.930  1.00  0.00    -0.366 N 
ATOM     17  H   UNL A   1      31.863  25.949  24.882  1.00  0.00     0.162 HD
BRANCH  16  18
ATOM     18  C   UNL A   1      31.691  24.689  23.222  1.00  0.00     0.086 C 
ATOM     19  C   UNL A   1      31.011  23.013  25.081  1.00  0.00     0.013 C 
ATOM     20  C   UNL A   1      32.124  23.523  24.167  1.00  0.00    -0.015 C 
ATOM     21  C   UNL A   1      33.340  23.842  25.060  1.00  0.00     0.013 C 
ATOM     22  C   UNL A   1      32.489  22.451  23.128  1.00  0.00     0.008 C 
ATOM     23  C   UNL A   1      33.210  23.210  22.016  1.00  0.00     0.003 C 
ATOM     24  C   UNL A   1      32.777  24.675  22.142  1.00  0.00     0.025 C 
ENDBRANCH  16  18
ENDBRANCH   8  16
ENDBRANCH   4   7
ENDBRANCH   2   3
ENDBRANCH   1   2
BRANCH   1  25
ATOM     25  C   UNL A   1      33.442  28.260  27.508  1.00  0.00     0.118 C 
BRANCH  25  26
ATOM     26  N   UNL A   1      33.406  29.709  27.678  1.00  0.00    -0.352 N 
ATOM     27  C   UNL A   1      34.364  30.621  28.060  1.00  0.00     0.251 C 
ATOM     28  H   UNL A   1      32.530  30.111  27.481  1.00  0.00     0.163 HD
ATOM     29  O   UNL A   1      34.046  31.801  28.206  1.00  0.00    -0.269 OA
BRANCH  27  30
ATOM     30  C   UNL A   1      35.751  30.205  28.349  1.00  0.00     0.039 A 
ATOM     31  C   UNL A   1      36.065  29.677  29.609  1.00  0.00     0.014 A 
ATOM     32  C   UNL A   1      36.758  30.389  27.406  1.00  0.00     0.014 A 
ATOM     33  C   UNL A   1      37.375  29.275  29.894  1.00  0.00     0.010 A 
ATOM     34  C   UNL A   1      38.034  29.903  27.652  1.00  0.00     0.010 A 
ATOM     35  C   UNL A   1      38.364  29.362  28.904  1.00  0.00    -0.014 A 
BRANCH  35  36
ATOM     36  C   UNL A   1      39.780  28.991  29.146  1.00  0.00     0.031 A 
ATOM     37  C   UNL A   1      40.722  30.043  29.671  1.00  0.00     0.074 A 
ATOM     38  C   UNL A   1      40.238  27.777  28.788  1.00  0.00     0.049 A 
ATOM     39  N   UNL A   1      42.025  30.024  29.749  1.00  0.00    -0.248 NA
ATOM     40  C   UNL A   1      40.112  31.306  30.121  1.00  0.00     0.031 C 
ATOM     41  C   UNL A   1      39.426  26.689  28.242  1.00  0.00     0.029 A 
ATOM     42  N   UNL A   1      41.511  27.264  28.806  1.00  0.00    -0.354 N 
ATOM     43  C   UNL A   1      42.391  31.277  30.225  1.00  0.00     0.074 A 
ATOM     44  C   UNL A   1      41.179  32.053  30.355  1.00  0.00     0.031 C 
ATOM     45  C   UNL A   1      40.219  25.634  27.989  1.00  0.00     0.029 A 
ATOM     46  C   UNL A   1      41.598  25.983  28.315  1.00  0.00     0.049 A 
ATOM     47  H   UNL A   1      42.290  27.767  29.140  1.00  0.00     0.167 HD
ATOM     48  C   UNL A   1      43.622  31.730  30.557  1.00  0.00     0.037 A 
ATOM     49  C   UNL A   1      42.673  25.189  28.139  1.00  0.00     0.037 A 
ATOM     50  C   UNL A   1      44.813  30.928  30.477  1.00  0.00     0.049 A 
ATOM     51  C   UNL A   1      44.036  25.714  28.506  1.00  0.00     0.074 A 
ATOM     52  C   UNL A   1      46.101  31.260  30.853  1.00  0.00     0.029 A 
ATOM     53  N   UNL A   1      44.854  29.626  29.997  1.00  0.00    -0.354 N 
ATOM     54  N   UNL A   1      44.361  26.888  28.994  1.00  0.00    -0.248 NA
ATOM     55  C   UNL A   1      45.177  24.813  28.294  1.00  0.00     0.031 C 
ATOM     56  C   UNL A   1      46.928  30.169  30.571  1.00  0.00     0.029 A 
ATOM     57  C   UNL A   1      46.150  29.145  30.053  1.00  0.00     0.049 A 
ATOM     58  H   UNL A   1      44.077  29.120  29.666  1.00  0.00     0.167 HD
ATOM     59  C   UNL A   1      45.741  26.859  29.166  1.00  0.00     0.074 A 
ATOM     60  C   UNL A   1      46.187  25.548  28.740  1.00  0.00     0.031 C 
ATOM     61  C   UNL A   1      46.565  27.831  29.630  1.00  0.00     0.037 A 
BRANCH  48  62
ATOM     62  C   UNL A   1      43.733  33.139  31.066  1.00  0.00     0.058 A 
ATOM     63  C   UNL A   1      43.577  33.438  32.431  1.00  0.00     0.135 A 
ATOM     64  C   UNL A   1      44.016  34.202  30.193  1.00  0.00     0.135 A 
ATOM     65  F   UNL A   1      43.289  32.463  33.307  1.00  0.00    -0.206 F 
ATOM     66  C   UNL A   1      43.665  34.741  32.905  1.00  0.00     0.059 A 
ATOM     67  C   UNL A   1      44.137  35.511  30.652  1.00  0.00     0.059 A 
ATOM     68  F   UNL A   1      44.171  33.974  28.879  1.00  0.00    -0.206 F 
ATOM     69  C   UNL A   1      43.945  35.773  32.007  1.00  0.00     0.060 A 
BRANCH  69  70
ATOM     70  S   UNL A   1      44.058  37.457  32.646  1.00  0.00     0.124 S 
ATOM     71  O   UNL A   1      43.769  38.242  31.449  1.00  0.00    -0.237 OA
ATOM     72  O   UNL A   1      43.023  37.470  33.675  1.00  0.00    -0.237 OA
ATOM     73  O   UNL A   1      45.429  37.544  33.137  1.00  0.00    -0.744 OA
ENDBRANCH  69  70
ENDBRANCH  48  62
BRANCH  49  74
ATOM     74  C   UNL A   1      42.497  23.804  27.624  1.00  0.00     0.058 A 
ATOM     75  C   UNL A   1      42.402  22.724  28.514  1.00  0.00     0.135 A 
ATOM     76  C   UNL A   1      42.388  23.531  26.252  1.00  0.00     0.135 A 
ATOM     77  F   UNL A   1      42.510  22.934  29.835  1.00  0.00    -0.206 F 
ATOM     78  C   UNL A   1      42.211  21.423  28.065  1.00  0.00     0.059 A 
ATOM     79  C   UNL A   1      42.174  22.239  25.779  1.00  0.00     0.059 A 
ATOM     80  F   UNL A   1      42.458  24.531  25.359  1.00  0.00    -0.206 F 
ATOM     81  C   UNL A   1      42.091  21.190  26.694  1.00  0.00     0.060 A 
BRANCH  81  82
ATOM     82  S   UNL A   1      41.781  19.502  26.131  1.00  0.00     0.124 S 
ATOM     83  O   UNL A   1      42.186  18.723  27.296  1.00  0.00    -0.237 OA
ATOM     84  O   UNL A   1      40.348  19.535  25.851  1.00  0.00    -0.237 OA
ATOM     85  O   UNL A   1      42.639  19.375  24.957  1.00  0.00    -0.744 OA
ENDBRANCH  81  82
ENDBRANCH  49  74
BRANCH  61  86
ATOM     86  C   UNL A   1      48.033  27.524  29.711  1.00  0.00     0.058 A 
ATOM     87  C   UNL A   1      48.903  27.854  28.662  1.00  0.00     0.135 A 
ATOM     88  C   UNL A   1      48.589  27.008  30.892  1.00  0.00     0.135 A 
ATOM     89  F   UNL A   1      48.417  28.343  27.509  1.00  0.00    -0.206 F 
ATOM     90  C   UNL A   1      50.278  27.689  28.783  1.00  0.00     0.059 A 
ATOM     91  C   UNL A   1      49.963  26.856  31.045  1.00  0.00     0.059 A 
ATOM     92  F   UNL A   1      47.798  26.686  31.929  1.00  0.00    -0.206 F 
ATOM     93  C   UNL A   1      50.800  27.202  29.983  1.00  0.00     0.060 A 
BRANCH  93  94
ATOM     94  S   UNL A   1      52.592  27.076  30.153  1.00  0.00     0.124 S 
ATOM     95  O   UNL A   1      52.999  26.795  28.779  1.00  0.00    -0.237 OA
ATOM     96  O   UNL A   1      52.948  28.396  30.663  1.00  0.00    -0.237 OA
ATOM     97  O   UNL A   1      52.769  25.977  31.097  1.00  0.00    -0.744 OA
ENDBRANCH  93  94
ENDBRANCH  61  86
ENDBRANCH  35  36
ENDBRANCH  27  30
ENDBRANCH  25  26
ENDBRANCH   1  25
TORSDOF 15
ENDMDL
