MODEL 1
REMARK VINA RESULT:     -13.7      0.000      0.000
REMARK SMILES Cc1c(CC(=O)NCCCNC(=O)c2ccc(-c3c4nc(c(-c5c(F)cc(S(=O)(=O)[O-])cc5F)c5ccc([nH]5)c(-c5c(F)cc(S(=O)(=O)[O-])cc5F)c5nc(c(-c6c(F)cc(S(=O)(=O)[O-])cc6F)c6ccc3[nH]6)C=C5)C=C4)cc2)c2cc(O)ccc2n1C(=O)c1ccc(Cl)cc1
REMARK SMILES IDX 9 1 8 2 7 3 5 4 6 5 4 7 3 8 1 9 2 10 87 11 80 12 86 13 81 14
REMARK SMILES IDX 85 15 82 16 84 17 88 18 89 19 90 20 91 21 96 22 92 23 95 24
REMARK SMILES IDX 93 25 94 26 83 27 10 29 11 30 12 31 13 33 14 34 15 35 79 36
REMARK SMILES IDX 16 37 78 38 17 39 18 40 19 41 72 42 20 43 77 44 71 45 73 46
REMARK SMILES IDX 21 47 76 48 70 49 69 50 22 52 56 53 35 54 55 55 36 56 39 57
REMARK SMILES IDX 54 58 74 59 37 60 38 61 53 63 75 64 40 65 23 66 24 67 33 68
REMARK SMILES IDX 25 69 26 70 32 71 34 72 27 73 28 74 29 75 30 76 31 77 57 78
REMARK SMILES IDX 58 79 67 80 59 81 60 82 66 83 68 84 61 85 62 86 63 87 64 88
REMARK SMILES IDX 65 89 41 90 42 91 51 92 43 93 44 94 50 95 52 96 45 97 46 98
REMARK SMILES IDX 47 99 48 100 49 101
REMARK H PARENT 7 6 83 28 11 32 73 51 39 62
REMARK Flexibility Score: inf
ROOT
ATOM      1  C   UNL A   1      37.155  21.756  24.269  1.00  0.00     0.042 C 
ENDROOT
BRANCH   1   2
ATOM      2  C   UNL A   1      35.876  22.546  23.980  1.00  0.00     0.117 C 
BRANCH   2   3
ATOM      3  N   UNL A   1      35.083  22.789  25.174  1.00  0.00    -0.356 N 
ATOM      4  C   UNL A   1      34.419  23.918  25.558  1.00  0.00     0.224 C 
ATOM      5  O   UNL A   1      33.777  23.884  26.612  1.00  0.00    -0.275 OA
ATOM      6  H   UNL A   1      35.016  22.029  25.796  1.00  0.00     0.163 HD
BRANCH   4   7
ATOM      7  C   UNL A   1      34.426  25.155  24.676  1.00  0.00     0.138 C 
BRANCH   7   8
ATOM      8  C   UNL A   1      33.193  25.998  24.824  1.00  0.00    -0.009 A 
ATOM      9  C   UNL A   1      31.546  24.702  23.282  1.00  0.00     0.065 C 
ATOM     10  C   UNL A   1      31.961  25.799  24.217  1.00  0.00     0.028 A 
ATOM     11  N   UNL A   1      31.101  26.851  24.570  1.00  0.00    -0.280 N 
ATOM     12  C   UNL A   1      33.070  27.148  25.656  1.00  0.00     0.008 A 
ATOM     13  C   UNL A   1      31.758  27.623  25.544  1.00  0.00     0.057 A 
ATOM     14  C   UNL A   1      33.977  27.810  26.516  1.00  0.00     0.056 A 
ATOM     15  C   UNL A   1      31.334  28.705  26.347  1.00  0.00     0.031 A 
ATOM     16  C   UNL A   1      33.561  28.923  27.237  1.00  0.00     0.116 A 
ATOM     17  C   UNL A   1      32.254  29.364  27.167  1.00  0.00     0.048 A 
BRANCH  11  18
ATOM     18  C   UNL A   1      29.803  27.071  24.024  1.00  0.00     0.262 C 
ATOM     19  O   UNL A   1      28.907  26.274  24.310  1.00  0.00    -0.268 OA
BRANCH  18  20
ATOM     20  C   UNL A   1      29.411  28.185  23.150  1.00  0.00     0.040 A 
ATOM     21  C   UNL A   1      30.362  28.894  22.409  1.00  0.00     0.015 A 
ATOM     22  C   UNL A   1      28.056  28.530  23.090  1.00  0.00     0.015 A 
ATOM     23  C   UNL A   1      29.964  30.024  21.690  1.00  0.00     0.021 A 
ATOM     24  C   UNL A   1      27.662  29.653  22.364  1.00  0.00     0.021 A 
ATOM     25  C   UNL A   1      28.621  30.410  21.688  1.00  0.00     0.041 A 
ATOM     26  Cl  UNL A   1      28.149  31.849  20.873  1.00  0.00    -0.084 Cl
ENDBRANCH  18  20
ENDBRANCH  11  18
BRANCH  16  27
ATOM     27  O   UNL A   1      34.479  29.553  28.025  1.00  0.00    -0.508 OA
ATOM     28  H   UNL A   1      34.934  30.307  27.704  1.00  0.00     0.293 HD
ENDBRANCH  16  27
ENDBRANCH   7   8
ENDBRANCH   4   7
ENDBRANCH   2   3
ENDBRANCH   1   2
BRANCH   1  29
ATOM     29  C   UNL A   1      37.827  22.139  25.588  1.00  0.00     0.118 C 
BRANCH  29  30
ATOM     30  N   UNL A   1      39.266  21.962  25.584  1.00  0.00    -0.352 N 
ATOM     31  C   UNL A   1      40.332  22.571  26.179  1.00  0.00     0.251 C 
ATOM     32  H   UNL A   1      39.543  21.215  25.006  1.00  0.00     0.163 HD
ATOM     33  O   UNL A   1      41.425  22.033  25.976  1.00  0.00    -0.269 OA
BRANCH  31  34
ATOM     34  C   UNL A   1      40.291  23.822  26.984  1.00  0.00     0.039 A 
ATOM     35  C   UNL A   1      39.292  24.796  26.937  1.00  0.00     0.014 A 
ATOM     36  C   UNL A   1      41.408  24.047  27.815  1.00  0.00     0.014 A 
ATOM     37  C   UNL A   1      39.455  26.000  27.622  1.00  0.00     0.010 A 
ATOM     38  C   UNL A   1      41.567  25.242  28.510  1.00  0.00     0.010 A 
ATOM     39  C   UNL A   1      40.614  26.242  28.368  1.00  0.00    -0.014 A 
BRANCH  39  40
ATOM     40  C   UNL A   1      40.760  27.544  29.018  1.00  0.00     0.031 A 
ATOM     41  C   UNL A   1      41.847  28.411  28.474  1.00  0.00     0.074 A 
ATOM     42  C   UNL A   1      39.932  27.994  29.983  1.00  0.00     0.049 A 
ATOM     43  N   UNL A   1      42.928  28.806  29.063  1.00  0.00    -0.248 NA
ATOM     44  C   UNL A   1      41.770  28.791  27.055  1.00  0.00     0.031 C 
ATOM     45  C   UNL A   1      38.666  27.418  30.448  1.00  0.00     0.029 A 
ATOM     46  N   UNL A   1      40.026  29.140  30.716  1.00  0.00    -0.354 N 
ATOM     47  C   UNL A   1      43.584  29.641  28.158  1.00  0.00     0.074 A 
ATOM     48  C   UNL A   1      42.899  29.486  26.901  1.00  0.00     0.031 C 
ATOM     49  C   UNL A   1      38.012  28.326  31.210  1.00  0.00     0.029 A 
ATOM     50  C   UNL A   1      38.872  29.479  31.412  1.00  0.00     0.049 A 
ATOM     51  H   UNL A   1      40.846  29.685  30.748  1.00  0.00     0.167 HD
ATOM     52  C   UNL A   1      44.537  30.534  28.552  1.00  0.00     0.037 A 
ATOM     53  C   UNL A   1      38.629  30.648  32.060  1.00  0.00     0.037 A 
ATOM     54  C   UNL A   1      45.041  30.224  29.864  1.00  0.00     0.049 A 
ATOM     55  C   UNL A   1      39.951  31.264  32.353  1.00  0.00     0.074 A 
ATOM     56  C   UNL A   1      45.722  29.156  30.415  1.00  0.00     0.029 A 
ATOM     57  N   UNL A   1      44.563  30.945  30.930  1.00  0.00    -0.354 N 
ATOM     58  N   UNL A   1      40.827  30.755  33.176  1.00  0.00    -0.248 NA
ATOM     59  C   UNL A   1      40.481  32.211  31.386  1.00  0.00     0.031 C 
ATOM     60  C   UNL A   1      45.188  29.019  31.730  1.00  0.00     0.029 A 
ATOM     61  C   UNL A   1      44.256  30.042  31.916  1.00  0.00     0.049 A 
ATOM     62  H   UNL A   1      44.460  31.923  30.977  1.00  0.00     0.167 HD
ATOM     63  C   UNL A   1      42.057  30.984  32.576  1.00  0.00     0.074 A 
ATOM     64  C   UNL A   1      41.784  31.951  31.514  1.00  0.00     0.031 C 
ATOM     65  C   UNL A   1      43.131  30.175  32.813  1.00  0.00     0.037 A 
BRANCH  52  66
ATOM     66  C   UNL A   1      44.798  31.865  27.887  1.00  0.00     0.058 A 
ATOM     67  C   UNL A   1      45.996  32.066  27.166  1.00  0.00     0.135 A 
ATOM     68  C   UNL A   1      44.056  33.034  28.167  1.00  0.00     0.135 A 
ATOM     69  F   UNL A   1      46.783  31.026  26.845  1.00  0.00    -0.206 F 
ATOM     70  C   UNL A   1      46.458  33.336  26.820  1.00  0.00     0.059 A 
ATOM     71  C   UNL A   1      44.473  34.305  27.787  1.00  0.00     0.059 A 
ATOM     72  F   UNL A   1      42.942  33.008  28.908  1.00  0.00    -0.206 F 
ATOM     73  C   UNL A   1      45.696  34.452  27.154  1.00  0.00     0.060 A 
BRANCH  73  74
ATOM     74  S   UNL A   1      46.352  36.098  26.824  1.00  0.00     0.124 S 
ATOM     75  O   UNL A   1      45.137  36.903  26.829  1.00  0.00    -0.237 OA
ATOM     76  O   UNL A   1      47.255  36.296  27.954  1.00  0.00    -0.237 OA
ATOM     77  O   UNL A   1      47.004  35.946  25.527  1.00  0.00    -0.744 OA
ENDBRANCH  73  74
ENDBRANCH  52  66
BRANCH  53  78
ATOM     78  C   UNL A   1      37.364  31.435  32.068  1.00  0.00     0.058 A 
ATOM     79  C   UNL A   1      36.819  31.932  33.268  1.00  0.00     0.135 A 
ATOM     80  C   UNL A   1      36.826  31.969  30.879  1.00  0.00     0.135 A 
ATOM     81  F   UNL A   1      37.284  31.497  34.450  1.00  0.00    -0.206 F 
ATOM     82  C   UNL A   1      35.842  32.935  33.288  1.00  0.00     0.059 A 
ATOM     83  C   UNL A   1      35.846  32.961  30.875  1.00  0.00     0.059 A 
ATOM     84  F   UNL A   1      37.306  31.610  29.680  1.00  0.00    -0.206 F 
ATOM     85  C   UNL A   1      35.379  33.462  32.083  1.00  0.00     0.060 A 
BRANCH  85  86
ATOM     86  S   UNL A   1      34.252  34.878  32.102  1.00  0.00     0.124 S 
ATOM     87  O   UNL A   1      34.140  35.196  30.683  1.00  0.00    -0.237 OA
ATOM     88  O   UNL A   1      33.060  34.312  32.724  1.00  0.00    -0.237 OA
ATOM     89  O   UNL A   1      34.962  35.866  32.909  1.00  0.00    -0.744 OA
ENDBRANCH  85  86
ENDBRANCH  53  78
BRANCH  65  90
ATOM     90  C   UNL A   1      43.050  29.180  33.944  1.00  0.00     0.058 A 
ATOM     91  C   UNL A   1      43.317  29.487  35.291  1.00  0.00     0.135 A 
ATOM     92  C   UNL A   1      42.511  27.914  33.673  1.00  0.00     0.135 A 
ATOM     93  F   UNL A   1      43.737  30.707  35.650  1.00  0.00    -0.206 F 
ATOM     94  C   UNL A   1      43.086  28.563  36.315  1.00  0.00     0.059 A 
ATOM     95  C   UNL A   1      42.246  26.989  34.680  1.00  0.00     0.059 A 
ATOM     96  F   UNL A   1      42.177  27.581  32.414  1.00  0.00    -0.206 F 
ATOM     97  C   UNL A   1      42.546  27.317  35.999  1.00  0.00     0.060 A 
BRANCH  97  98
ATOM     98  S   UNL A   1      42.175  26.152  37.330  1.00  0.00     0.124 S 
ATOM     99  O   UNL A   1      43.206  26.468  38.313  1.00  0.00    -0.237 OA
ATOM    100  O   UNL A   1      40.812  26.517  37.700  1.00  0.00    -0.237 OA
ATOM    101  O   UNL A   1      42.307  24.846  36.688  1.00  0.00    -0.744 OA
ENDBRANCH  97  98
ENDBRANCH  65  90
ENDBRANCH  39  40
ENDBRANCH  31  34
ENDBRANCH  29  30
ENDBRANCH   1  29
TORSDOF 17
ENDMDL
MODEL 2
REMARK VINA RESULT:     -13.4      2.722      4.389
REMARK SMILES Cc1c(CC(=O)NCCCNC(=O)c2ccc(-c3c4nc(c(-c5c(F)cc(S(=O)(=O)[O-])cc5F)c5ccc([nH]5)c(-c5c(F)cc(S(=O)(=O)[O-])cc5F)c5nc(c(-c6c(F)cc(S(=O)(=O)[O-])cc6F)c6ccc3[nH]6)C=C5)C=C4)cc2)c2cc(O)ccc2n1C(=O)c1ccc(Cl)cc1
REMARK SMILES IDX 9 1 8 2 7 3 5 4 6 5 4 7 3 8 1 9 2 10 87 11 80 12 86 13 81 14
REMARK SMILES IDX 85 15 82 16 84 17 88 18 89 19 90 20 91 21 96 22 92 23 95 24
REMARK SMILES IDX 93 25 94 26 83 27 10 29 11 30 12 31 13 33 14 34 15 35 79 36
REMARK SMILES IDX 16 37 78 38 17 39 18 40 19 41 72 42 20 43 77 44 71 45 73 46
REMARK SMILES IDX 21 47 76 48 70 49 69 50 22 52 56 53 35 54 55 55 36 56 39 57
REMARK SMILES IDX 54 58 74 59 37 60 38 61 53 63 75 64 40 65 23 66 24 67 33 68
REMARK SMILES IDX 25 69 26 70 32 71 34 72 27 73 28 74 29 75 30 76 31 77 57 78
REMARK SMILES IDX 58 79 67 80 59 81 60 82 66 83 68 84 61 85 62 86 63 87 64 88
REMARK SMILES IDX 65 89 41 90 42 91 51 92 43 93 44 94 50 95 52 96 45 97 46 98
REMARK SMILES IDX 47 99 48 100 49 101
REMARK H PARENT 7 6 83 28 11 32 73 51 39 62
REMARK Flexibility Score: inf
ROOT
ATOM      1  C   UNL A   1      41.430  20.355  27.051  1.00  0.00     0.042 C 
ENDROOT
BRANCH   1   2
ATOM      2  C   UNL A   1      40.193  20.432  26.152  1.00  0.00     0.117 C 
BRANCH   2   3
ATOM      3  N   UNL A   1      39.413  21.639  26.370  1.00  0.00    -0.356 N 
ATOM      4  C   UNL A   1      38.207  21.998  25.842  1.00  0.00     0.224 C 
ATOM      5  O   UNL A   1      37.713  23.072  26.199  1.00  0.00    -0.275 OA
ATOM      6  H   UNL A   1      39.814  22.292  26.988  1.00  0.00     0.163 HD
BRANCH   4   7
ATOM      7  C   UNL A   1      37.472  21.069  24.891  1.00  0.00     0.138 C 
BRANCH   7   8
ATOM      8  C   UNL A   1      36.154  21.614  24.424  1.00  0.00    -0.009 A 
ATOM      9  C   UNL A   1      36.961  23.553  22.887  1.00  0.00     0.065 C 
ATOM     10  C   UNL A   1      35.943  22.684  23.567  1.00  0.00     0.028 A 
ATOM     11  N   UNL A   1      34.563  22.905  23.440  1.00  0.00    -0.280 N 
ATOM     12  C   UNL A   1      34.875  21.088  24.763  1.00  0.00     0.008 A 
ATOM     13  C   UNL A   1      33.906  21.849  24.096  1.00  0.00     0.057 A 
ATOM     14  C   UNL A   1      34.468  20.005  25.574  1.00  0.00     0.056 A 
ATOM     15  C   UNL A   1      32.545  21.478  24.178  1.00  0.00     0.031 A 
ATOM     16  C   UNL A   1      33.116  19.706  25.706  1.00  0.00     0.116 A 
ATOM     17  C   UNL A   1      32.161  20.423  25.011  1.00  0.00     0.048 A 
BRANCH  11  18
ATOM     18  C   UNL A   1      33.964  24.007  22.763  1.00  0.00     0.262 C 
ATOM     19  O   UNL A   1      33.511  23.821  21.632  1.00  0.00    -0.268 OA
BRANCH  18  20
ATOM     20  C   UNL A   1      33.814  25.368  23.295  1.00  0.00     0.040 A 
ATOM     21  C   UNL A   1      33.974  25.636  24.659  1.00  0.00     0.015 A 
ATOM     22  C   UNL A   1      33.488  26.393  22.399  1.00  0.00     0.015 A 
ATOM     23  C   UNL A   1      33.698  26.918  25.140  1.00  0.00     0.021 A 
ATOM     24  C   UNL A   1      33.223  27.673  22.883  1.00  0.00     0.021 A 
ATOM     25  C   UNL A   1      33.304  27.924  24.254  1.00  0.00     0.041 A 
ATOM     26  Cl  UNL A   1      32.884  29.478  24.861  1.00  0.00    -0.084 Cl
ENDBRANCH  18  20
ENDBRANCH  11  18
BRANCH  16  27
ATOM     27  O   UNL A   1      32.767  18.676  26.529  1.00  0.00    -0.508 OA
ATOM     28  H   UNL A   1      32.931  18.736  27.450  1.00  0.00     0.293 HD
ENDBRANCH  16  27
ENDBRANCH   7   8
ENDBRANCH   4   7
ENDBRANCH   2   3
ENDBRANCH   1   2
BRANCH   1  29
ATOM     29  C   UNL A   1      42.372  19.203  26.701  1.00  0.00     0.118 C 
BRANCH  29  30
ATOM     30  N   UNL A   1      43.230  19.475  25.564  1.00  0.00    -0.352 N 
ATOM     31  C   UNL A   1      43.953  20.540  25.112  1.00  0.00     0.251 C 
ATOM     32  H   UNL A   1      43.309  18.696  24.968  1.00  0.00     0.163 HD
ATOM     33  O   UNL A   1      44.646  20.320  24.114  1.00  0.00    -0.269 OA
BRANCH  31  34
ATOM     34  C   UNL A   1      43.933  21.917  25.678  1.00  0.00     0.039 A 
ATOM     35  C   UNL A   1      44.602  22.342  26.826  1.00  0.00     0.014 A 
ATOM     36  C   UNL A   1      43.104  22.838  25.005  1.00  0.00     0.014 A 
ATOM     37  C   UNL A   1      44.369  23.618  27.340  1.00  0.00     0.010 A 
ATOM     38  C   UNL A   1      42.878  24.115  25.508  1.00  0.00     0.010 A 
ATOM     39  C   UNL A   1      43.470  24.485  26.709  1.00  0.00    -0.014 A 
BRANCH  39  40
ATOM     40  C   UNL A   1      43.218  25.788  27.324  1.00  0.00     0.031 A 
ATOM     41  C   UNL A   1      44.239  26.837  27.036  1.00  0.00     0.074 A 
ATOM     42  C   UNL A   1      42.107  26.077  28.033  1.00  0.00     0.049 A 
ATOM     43  N   UNL A   1      45.051  27.415  27.862  1.00  0.00    -0.248 NA
ATOM     44  C   UNL A   1      44.460  27.207  25.629  1.00  0.00     0.031 C 
ATOM     45  C   UNL A   1      40.884  25.284  28.189  1.00  0.00     0.029 A 
ATOM     46  N   UNL A   1      41.813  27.218  28.721  1.00  0.00    -0.354 N 
ATOM     47  C   UNL A   1      45.759  28.359  27.118  1.00  0.00     0.074 A 
ATOM     48  C   UNL A   1      45.452  28.092  25.736  1.00  0.00     0.031 C 
ATOM     49  C   UNL A   1      39.912  26.055  28.727  1.00  0.00     0.029 A 
ATOM     50  C   UNL A   1      40.479  27.342  29.092  1.00  0.00     0.049 A 
ATOM     51  H   UNL A   1      42.490  27.899  28.936  1.00  0.00     0.167 HD
ATOM     52  C   UNL A   1      46.412  29.404  27.702  1.00  0.00     0.037 A 
ATOM     53  C   UNL A   1      39.882  28.445  29.614  1.00  0.00     0.037 A 
ATOM     54  C   UNL A   1      46.614  29.180  29.110  1.00  0.00     0.049 A 
ATOM     55  C   UNL A   1      40.958  29.283  30.204  1.00  0.00     0.074 A 
ATOM     56  C   UNL A   1      47.307  28.246  29.855  1.00  0.00     0.029 A 
ATOM     57  N   UNL A   1      45.763  29.798  29.993  1.00  0.00    -0.354 N 
ATOM     58  N   UNL A   1      41.672  28.933  31.239  1.00  0.00    -0.248 NA
ATOM     59  C   UNL A   1      41.543  30.316  29.364  1.00  0.00     0.031 C 
ATOM     60  C   UNL A   1      46.490  28.008  30.998  1.00  0.00     0.029 A 
ATOM     61  C   UNL A   1      45.379  28.848  30.905  1.00  0.00     0.049 A 
ATOM     62  H   UNL A   1      45.483  30.742  29.975  1.00  0.00     0.167 HD
ATOM     63  C   UNL A   1      42.955  29.381  30.957  1.00  0.00     0.074 A 
ATOM     64  C   UNL A   1      42.796  30.290  29.824  1.00  0.00     0.031 C 
ATOM     65  C   UNL A   1      44.057  28.774  31.487  1.00  0.00     0.037 A 
BRANCH  52  66
ATOM     66  C   UNL A   1      46.598  30.765  27.073  1.00  0.00     0.058 A 
ATOM     67  C   UNL A   1      47.891  31.325  26.984  1.00  0.00     0.135 A 
ATOM     68  C   UNL A   1      45.532  31.655  26.814  1.00  0.00     0.135 A 
ATOM     69  F   UNL A   1      48.980  30.572  27.211  1.00  0.00    -0.206 F 
ATOM     70  C   UNL A   1      48.105  32.682  26.735  1.00  0.00     0.059 A 
ATOM     71  C   UNL A   1      45.725  33.000  26.514  1.00  0.00     0.059 A 
ATOM     72  F   UNL A   1      44.252  31.286  26.937  1.00  0.00    -0.206 F 
ATOM     73  C   UNL A   1      47.010  33.515  26.521  1.00  0.00     0.060 A 
BRANCH  73  74
ATOM     74  S   UNL A   1      47.276  35.287  26.329  1.00  0.00     0.124 S 
ATOM     75  O   UNL A   1      45.992  35.718  25.789  1.00  0.00    -0.237 OA
ATOM     76  O   UNL A   1      47.564  35.699  27.699  1.00  0.00    -0.237 OA
ATOM     77  O   UNL A   1      48.406  35.359  25.407  1.00  0.00    -0.744 OA
ENDBRANCH  73  74
ENDBRANCH  52  66
BRANCH  53  78
ATOM     78  C   UNL A   1      38.539  28.995  29.274  1.00  0.00     0.058 A 
ATOM     79  C   UNL A   1      37.600  29.304  30.277  1.00  0.00     0.135 A 
ATOM     80  C   UNL A   1      38.260  29.507  27.990  1.00  0.00     0.135 A 
ATOM     81  F   UNL A   1      37.793  28.877  31.535  1.00  0.00    -0.206 F 
ATOM     82  C   UNL A   1      36.484  30.116  30.034  1.00  0.00     0.059 A 
ATOM     83  C   UNL A   1      37.151  30.309  27.723  1.00  0.00     0.059 A 
ATOM     84  F   UNL A   1      39.111  29.321  26.971  1.00  0.00    -0.206 F 
ATOM     85  C   UNL A   1      36.282  30.635  28.756  1.00  0.00     0.060 A 
BRANCH  85  86
ATOM     86  S   UNL A   1      34.948  31.825  28.477  1.00  0.00     0.124 S 
ATOM     87  O   UNL A   1      34.625  32.242  29.837  1.00  0.00    -0.237 OA
ATOM     88  O   UNL A   1      35.602  32.827  27.641  1.00  0.00    -0.237 OA
ATOM     89  O   UNL A   1      33.921  31.033  27.807  1.00  0.00    -0.744 OA
ENDBRANCH  85  86
ENDBRANCH  53  78
BRANCH  65  90
ATOM     90  C   UNL A   1      43.866  27.773  32.599  1.00  0.00     0.058 A 
ATOM     91  C   UNL A   1      43.598  28.116  33.937  1.00  0.00     0.135 A 
ATOM     92  C   UNL A   1      43.778  26.416  32.258  1.00  0.00     0.135 A 
ATOM     93  F   UNL A   1      43.562  29.398  34.326  1.00  0.00    -0.206 F 
ATOM     94  C   UNL A   1      43.288  27.148  34.896  1.00  0.00     0.059 A 
ATOM     95  C   UNL A   1      43.442  25.437  33.191  1.00  0.00     0.059 A 
ATOM     96  F   UNL A   1      43.963  26.029  30.984  1.00  0.00    -0.206 F 
ATOM     97  C   UNL A   1      43.207  25.809  34.512  1.00  0.00     0.060 A 
BRANCH  97  98
ATOM     98  S   UNL A   1      42.730  24.567  35.733  1.00  0.00     0.124 S 
ATOM     99  O   UNL A   1      41.274  24.641  35.697  1.00  0.00    -0.237 OA
ATOM    100  O   UNL A   1      43.316  23.346  35.189  1.00  0.00    -0.237 OA
ATOM    101  O   UNL A   1      43.348  25.045  36.968  1.00  0.00    -0.744 OA
ENDBRANCH  97  98
ENDBRANCH  65  90
ENDBRANCH  39  40
ENDBRANCH  31  34
ENDBRANCH  29  30
ENDBRANCH   1  29
TORSDOF 17
ENDMDL
MODEL 3
REMARK VINA RESULT:     -13.4      3.539      9.799
REMARK SMILES Cc1c(CC(=O)NCCCNC(=O)c2ccc(-c3c4nc(c(-c5c(F)cc(S(=O)(=O)[O-])cc5F)c5ccc([nH]5)c(-c5c(F)cc(S(=O)(=O)[O-])cc5F)c5nc(c(-c6c(F)cc(S(=O)(=O)[O-])cc6F)c6ccc3[nH]6)C=C5)C=C4)cc2)c2cc(O)ccc2n1C(=O)c1ccc(Cl)cc1
REMARK SMILES IDX 9 1 8 2 7 3 5 4 6 5 4 7 3 8 1 9 2 10 87 11 80 12 86 13 81 14
REMARK SMILES IDX 85 15 82 16 84 17 88 18 89 19 90 20 91 21 96 22 92 23 95 24
REMARK SMILES IDX 93 25 94 26 83 27 10 29 11 30 12 31 13 33 14 34 15 35 79 36
REMARK SMILES IDX 16 37 78 38 17 39 18 40 19 41 72 42 20 43 77 44 71 45 73 46
REMARK SMILES IDX 21 47 76 48 70 49 69 50 22 52 56 53 35 54 55 55 36 56 39 57
REMARK SMILES IDX 54 58 74 59 37 60 38 61 53 63 75 64 40 65 23 66 24 67 33 68
REMARK SMILES IDX 25 69 26 70 32 71 34 72 27 73 28 74 29 75 30 76 31 77 57 78
REMARK SMILES IDX 58 79 67 80 59 81 60 82 66 83 68 84 61 85 62 86 63 87 64 88
REMARK SMILES IDX 65 89 41 90 42 91 51 92 43 93 44 94 50 95 52 96 45 97 46 98
REMARK SMILES IDX 47 99 48 100 49 101
REMARK H PARENT 7 6 83 28 11 32 73 51 39 62
REMARK Flexibility Score: inf
ROOT
ATOM      1  C   UNL A   1      32.807  29.059  27.288  1.00  0.00     0.042 C 
ENDROOT
BRANCH   1   2
ATOM      2  C   UNL A   1      31.854  28.506  26.225  1.00  0.00     0.117 C 
BRANCH   2   3
ATOM      3  N   UNL A   1      32.540  28.117  25.003  1.00  0.00    -0.356 N 
ATOM      4  C   UNL A   1      33.125  26.927  24.680  1.00  0.00     0.224 C 
ATOM      5  O   UNL A   1      33.627  26.813  23.558  1.00  0.00    -0.275 OA
ATOM      6  H   UNL A   1      32.590  28.813  24.309  1.00  0.00     0.163 HD
BRANCH   4   7
ATOM      7  C   UNL A   1      33.098  25.763  25.655  1.00  0.00     0.138 C 
BRANCH   7   8
ATOM      8  C   UNL A   1      33.408  24.441  25.016  1.00  0.00    -0.009 A 
ATOM      9  C   UNL A   1      31.069  23.821  24.057  1.00  0.00     0.065 C 
ATOM     10  C   UNL A   1      32.529  23.611  24.335  1.00  0.00     0.028 A 
ATOM     11  N   UNL A   1      33.206  22.443  23.950  1.00  0.00    -0.280 N 
ATOM     12  C   UNL A   1      34.690  23.823  24.969  1.00  0.00     0.008 A 
ATOM     13  C   UNL A   1      34.567  22.627  24.252  1.00  0.00     0.057 A 
ATOM     14  C   UNL A   1      35.956  24.205  25.469  1.00  0.00     0.056 A 
ATOM     15  C   UNL A   1      35.717  21.858  23.968  1.00  0.00     0.031 A 
ATOM     16  C   UNL A   1      37.063  23.393  25.248  1.00  0.00     0.116 A 
ATOM     17  C   UNL A   1      36.954  22.237  24.498  1.00  0.00     0.048 A 
BRANCH  11  18
ATOM     18  C   UNL A   1      32.598  21.294  23.364  1.00  0.00     0.262 C 
ATOM     19  O   UNL A   1      32.024  21.427  22.282  1.00  0.00    -0.268 OA
BRANCH  18  20
ATOM     20  C   UNL A   1      32.602  19.935  23.922  1.00  0.00     0.040 A 
ATOM     21  C   UNL A   1      32.637  19.719  25.304  1.00  0.00     0.015 A 
ATOM     22  C   UNL A   1      32.586  18.857  23.030  1.00  0.00     0.015 A 
ATOM     23  C   UNL A   1      32.768  18.415  25.788  1.00  0.00     0.021 A 
ATOM     24  C   UNL A   1      32.707  17.557  23.519  1.00  0.00     0.021 A 
ATOM     25  C   UNL A   1      32.823  17.343  24.893  1.00  0.00     0.041 A 
ATOM     26  Cl  UNL A   1      33.069  15.748  25.488  1.00  0.00    -0.084 Cl
ENDBRANCH  18  20
ENDBRANCH  11  18
BRANCH  16  27
ATOM     27  O   UNL A   1      38.257  23.781  25.780  1.00  0.00    -0.508 OA
ATOM     28  H   UNL A   1      38.843  24.312  25.278  1.00  0.00     0.293 HD
ENDBRANCH  16  27
ENDBRANCH   7   8
ENDBRANCH   4   7
ENDBRANCH   2   3
ENDBRANCH   1   2
BRANCH   1  29
ATOM     29  C   UNL A   1      33.459  30.385  26.897  1.00  0.00     0.118 C 
BRANCH  29  30
ATOM     30  N   UNL A   1      33.743  31.251  28.024  1.00  0.00    -0.352 N 
ATOM     31  C   UNL A   1      34.841  31.560  28.773  1.00  0.00     0.251 C 
ATOM     32  H   UNL A   1      32.943  31.738  28.325  1.00  0.00     0.163 HD
ATOM     33  O   UNL A   1      34.671  32.449  29.614  1.00  0.00    -0.269 OA
BRANCH  31  34
ATOM     34  C   UNL A   1      36.171  30.895  28.696  1.00  0.00     0.039 A 
ATOM     35  C   UNL A   1      36.405  29.568  28.338  1.00  0.00     0.014 A 
ATOM     36  C   UNL A   1      37.269  31.687  29.088  1.00  0.00     0.014 A 
ATOM     37  C   UNL A   1      37.683  29.023  28.464  1.00  0.00     0.010 A 
ATOM     38  C   UNL A   1      38.548  31.151  29.203  1.00  0.00     0.010 A 
ATOM     39  C   UNL A   1      38.743  29.801  28.943  1.00  0.00    -0.014 A 
BRANCH  39  40
ATOM     40  C   UNL A   1      40.048  29.163  29.112  1.00  0.00     0.031 A 
ATOM     41  C   UNL A   1      40.508  29.015  30.524  1.00  0.00     0.074 A 
ATOM     42  C   UNL A   1      40.770  28.657  28.091  1.00  0.00     0.049 A 
ATOM     43  N   UNL A   1      41.518  29.580  31.103  1.00  0.00    -0.248 NA
ATOM     44  C   UNL A   1      39.668  28.222  31.435  1.00  0.00     0.031 C 
ATOM     45  C   UNL A   1      40.370  28.460  26.694  1.00  0.00     0.029 A 
ATOM     46  N   UNL A   1      42.026  28.128  28.120  1.00  0.00    -0.354 N 
ATOM     47  C   UNL A   1      41.558  29.073  32.402  1.00  0.00     0.074 A 
ATOM     48  C   UNL A   1      40.325  28.354  32.589  1.00  0.00     0.031 C 
ATOM     49  C   UNL A   1      41.271  27.660  26.076  1.00  0.00     0.029 A 
ATOM     50  C   UNL A   1      42.381  27.415  26.981  1.00  0.00     0.049 A 
ATOM     51  H   UNL A   1      42.633  28.242  28.887  1.00  0.00     0.167 HD
ATOM     52  C   UNL A   1      42.682  29.137  33.172  1.00  0.00     0.037 A 
ATOM     53  C   UNL A   1      43.484  26.638  26.821  1.00  0.00     0.037 A 
ATOM     54  C   UNL A   1      43.619  30.102  32.660  1.00  0.00     0.049 A 
ATOM     55  C   UNL A   1      44.483  27.091  27.825  1.00  0.00     0.074 A 
ATOM     56  C   UNL A   1      43.597  31.469  32.468  1.00  0.00     0.029 A 
ATOM     57  N   UNL A   1      44.687  29.643  31.929  1.00  0.00    -0.354 N 
ATOM     58  N   UNL A   1      45.057  28.263  27.806  1.00  0.00    -0.248 NA
ATOM     59  C   UNL A   1      44.506  26.406  29.108  1.00  0.00     0.031 C 
ATOM     60  C   UNL A   1      44.315  31.681  31.254  1.00  0.00     0.029 A 
ATOM     61  C   UNL A   1      44.775  30.438  30.814  1.00  0.00     0.049 A 
ATOM     62  H   UNL A   1      45.277  28.890  32.160  1.00  0.00     0.167 HD
ATOM     63  C   UNL A   1      45.138  28.643  29.138  1.00  0.00     0.074 A 
ATOM     64  C   UNL A   1      44.851  27.427  29.896  1.00  0.00     0.031 C 
ATOM     65  C   UNL A   1      45.163  29.957  29.507  1.00  0.00     0.037 A 
BRANCH  52  66
ATOM     66  C   UNL A   1      43.074  28.112  34.211  1.00  0.00     0.058 A 
ATOM     67  C   UNL A   1      43.259  28.510  35.553  1.00  0.00     0.135 A 
ATOM     68  C   UNL A   1      43.547  26.820  33.890  1.00  0.00     0.135 A 
ATOM     69  F   UNL A   1      42.848  29.718  35.971  1.00  0.00    -0.206 F 
ATOM     70  C   UNL A   1      43.933  27.718  36.483  1.00  0.00     0.059 A 
ATOM     71  C   UNL A   1      44.177  25.993  34.815  1.00  0.00     0.059 A 
ATOM     72  F   UNL A   1      43.510  26.339  32.642  1.00  0.00    -0.206 F 
ATOM     73  C   UNL A   1      44.406  26.467  36.096  1.00  0.00     0.060 A 
BRANCH  73  74
ATOM     74  S   UNL A   1      45.389  25.498  37.256  1.00  0.00     0.124 S 
ATOM     75  O   UNL A   1      46.669  25.424  36.563  1.00  0.00    -0.237 OA
ATOM     76  O   UNL A   1      45.356  26.335  38.452  1.00  0.00    -0.237 OA
ATOM     77  O   UNL A   1      44.650  24.243  37.355  1.00  0.00    -0.744 OA
ENDBRANCH  73  74
ENDBRANCH  52  66
BRANCH  53  78
ATOM     78  C   UNL A   1      43.567  25.304  26.160  1.00  0.00     0.058 A 
ATOM     79  C   UNL A   1      44.564  25.020  25.208  1.00  0.00     0.135 A 
ATOM     80  C   UNL A   1      42.861  24.193  26.664  1.00  0.00     0.135 A 
ATOM     81  F   UNL A   1      45.302  26.014  24.688  1.00  0.00    -0.206 F 
ATOM     82  C   UNL A   1      44.879  23.712  24.821  1.00  0.00     0.059 A 
ATOM     83  C   UNL A   1      43.151  22.882  26.287  1.00  0.00     0.059 A 
ATOM     84  F   UNL A   1      41.926  24.338  27.615  1.00  0.00    -0.206 F 
ATOM     85  C   UNL A   1      44.181  22.645  25.386  1.00  0.00     0.060 A 
BRANCH  85  86
ATOM     86  S   UNL A   1      44.701  20.949  25.029  1.00  0.00     0.124 S 
ATOM     87  O   UNL A   1      44.605  20.903  23.574  1.00  0.00    -0.237 OA
ATOM     88  O   UNL A   1      46.051  20.920  25.580  1.00  0.00    -0.237 OA
ATOM     89  O   UNL A   1      43.721  20.136  25.744  1.00  0.00    -0.744 OA
ENDBRANCH  85  86
ENDBRANCH  53  78
BRANCH  65  90
ATOM     90  C   UNL A   1      45.373  31.003  28.440  1.00  0.00     0.058 A 
ATOM     91  C   UNL A   1      44.356  31.498  27.603  1.00  0.00     0.135 A 
ATOM     92  C   UNL A   1      46.616  31.651  28.385  1.00  0.00     0.135 A 
ATOM     93  F   UNL A   1      43.112  31.004  27.664  1.00  0.00    -0.206 F 
ATOM     94  C   UNL A   1      44.577  32.568  26.732  1.00  0.00     0.059 A 
ATOM     95  C   UNL A   1      46.850  32.738  27.546  1.00  0.00     0.059 A 
ATOM     96  F   UNL A   1      47.611  31.266  29.203  1.00  0.00    -0.206 F 
ATOM     97  C   UNL A   1      45.828  33.186  26.714  1.00  0.00     0.060 A 
BRANCH  97  98
ATOM     98  S   UNL A   1      46.091  34.618  25.645  1.00  0.00     0.124 S 
ATOM     99  O   UNL A   1      45.206  34.331  24.520  1.00  0.00    -0.237 OA
ATOM    100  O   UNL A   1      45.690  35.730  26.500  1.00  0.00    -0.237 OA
ATOM    101  O   UNL A   1      47.519  34.561  25.342  1.00  0.00    -0.744 OA
ENDBRANCH  97  98
ENDBRANCH  65  90
ENDBRANCH  39  40
ENDBRANCH  31  34
ENDBRANCH  29  30
ENDBRANCH   1  29
TORSDOF 17
ENDMDL
