MODEL 1
REMARK VINA RESULT:     -12.4      0.000      0.000
REMARK SMILES C[C@H]1[C@H](C(=O)NCCCNC(=O)c2ccc(-c3c4nc(c(-c5c(F)cc(S(=O)(=O)[O-])cc5F)c5ccc([nH]5)c(-c5c(F)cc(S(=O)(=O)[O-])cc5F)c5nc(c(-c6c(F)cc(S(=O)(=O)[O-])cc6F)c6ccc3[nH]6)C=C5)C=C4)cc2)CC[N@@H+]1CC(=O)N1CCCC1
REMARK SMILES IDX 8 1 7 2 6 3 4 4 5 5 3 7 1 8 2 9 81 10 79 11 80 12 82 14
REMARK SMILES IDX 83 15 84 16 85 17 86 18 89 19 87 20 88 21 9 22 10 23 11 24
REMARK SMILES IDX 12 26 13 27 14 28 78 29 15 30 77 31 16 32 17 33 18 34 71 35
REMARK SMILES IDX 19 36 76 37 70 38 72 39 20 40 75 41 69 42 68 43 21 45 55 46
REMARK SMILES IDX 34 47 54 48 35 49 38 50 53 51 73 52 36 53 37 54 52 56 74 57
REMARK SMILES IDX 39 58 22 59 23 60 32 61 24 62 25 63 31 64 33 65 26 66 27 67
REMARK SMILES IDX 28 68 29 69 30 70 56 71 57 72 66 73 58 74 59 75 65 76 67 77
REMARK SMILES IDX 60 78 61 79 62 80 63 81 64 82 40 83 41 84 50 85 42 86 43 87
REMARK SMILES IDX 49 88 51 89 44 90 45 91 46 92 47 93 48 94
REMARK H PARENT 6 6 81 13 10 25 72 44 38 55
REMARK Flexibility Score: inf
ROOT
ATOM      1  C   UNL A   1      39.494  22.266  26.459  1.00  0.00     0.042 C 
ENDROOT
BRANCH   1   2
ATOM      2  C   UNL A   1      38.247  23.036  25.918  1.00  0.00     0.117 C 
BRANCH   2   3
ATOM      3  N   UNL A   1      37.708  22.749  24.585  1.00  0.00    -0.356 N 
ATOM      4  C   UNL A   1      36.641  23.138  23.833  1.00  0.00     0.229 C 
ATOM      5  O   UNL A   1      36.804  22.938  22.614  1.00  0.00    -0.275 OA
ATOM      6  H   UNL A   1      38.268  22.098  24.103  1.00  0.00     0.163 HD
BRANCH   4   7
ATOM      7  C   UNL A   1      35.256  23.692  24.241  1.00  0.00     0.142 C 
ATOM      8  C   UNL A   1      32.925  22.963  23.325  1.00  0.00     0.076 C 
ATOM      9  C   UNL A   1      34.153  22.616  24.174  1.00  0.00     0.194 C 
ATOM     10  N   UNL A   1      33.637  22.425  25.539  1.00  0.00    -0.324 N 
ATOM     11  C   UNL A   1      35.031  24.400  25.553  1.00  0.00     0.081 C 
ATOM     12  C   UNL A   1      34.222  23.441  26.417  1.00  0.00     0.263 C 
ATOM     13  H   UNL A   1      32.626  22.564  25.534  1.00  0.00     0.348 HD
BRANCH  10  14
ATOM     14  C   UNL A   1      33.778  21.032  26.031  1.00  0.00     0.364 C 
BRANCH  14  15
ATOM     15  C   UNL A   1      32.831  20.085  25.276  1.00  0.00     0.277 C 
ATOM     16  O   UNL A   1      31.658  20.366  25.192  1.00  0.00    -0.268 OA
ATOM     17  N   UNL A   1      33.332  18.863  24.861  1.00  0.00    -0.338 N 
ATOM     18  C   UNL A   1      34.703  18.504  24.573  1.00  0.00     0.119 C 
ATOM     19  C   UNL A   1      32.470  17.719  24.699  1.00  0.00     0.119 C 
ATOM     20  C   UNL A   1      34.628  17.110  23.941  1.00  0.00     0.023 C 
ATOM     21  C   UNL A   1      33.149  16.859  23.668  1.00  0.00     0.023 C 
ENDBRANCH  14  15
ENDBRANCH  10  14
ENDBRANCH   4   7
ENDBRANCH   2   3
ENDBRANCH   1   2
BRANCH   1  22
ATOM     22  C   UNL A   1      40.675  22.996  27.125  1.00  0.00     0.118 C 
BRANCH  22  23
ATOM     23  N   UNL A   1      41.395  23.855  26.191  1.00  0.00    -0.352 N 
ATOM     24  C   UNL A   1      41.520  25.222  26.101  1.00  0.00     0.251 C 
ATOM     25  H   UNL A   1      41.885  23.363  25.493  1.00  0.00     0.163 HD
ATOM     26  O   UNL A   1      42.015  25.685  25.072  1.00  0.00    -0.269 OA
BRANCH  24  27
ATOM     27  C   UNL A   1      41.098  26.169  27.172  1.00  0.00     0.039 A 
ATOM     28  C   UNL A   1      41.914  27.282  27.421  1.00  0.00     0.014 A 
ATOM     29  C   UNL A   1      40.038  25.906  28.044  1.00  0.00     0.014 A 
ATOM     30  C   UNL A   1      41.670  28.124  28.516  1.00  0.00     0.010 A 
ATOM     31  C   UNL A   1      39.773  26.772  29.124  1.00  0.00     0.010 A 
ATOM     32  C   UNL A   1      40.597  27.881  29.388  1.00  0.00    -0.014 A 
BRANCH  32  33
ATOM     33  C   UNL A   1      40.389  28.765  30.578  1.00  0.00     0.031 A 
ATOM     34  C   UNL A   1      41.249  28.622  31.812  1.00  0.00     0.074 A 
ATOM     35  C   UNL A   1      39.448  29.733  30.548  1.00  0.00     0.049 A 
ATOM     36  N   UNL A   1      41.269  29.353  32.901  1.00  0.00    -0.248 NA
ATOM     37  C   UNL A   1      42.199  27.500  31.833  1.00  0.00     0.031 C 
ATOM     38  C   UNL A   1      38.517  29.964  29.442  1.00  0.00     0.029 A 
ATOM     39  N   UNL A   1      39.123  30.708  31.462  1.00  0.00    -0.354 N 
ATOM     40  C   UNL A   1      42.234  28.786  33.730  1.00  0.00     0.074 A 
ATOM     41  C   UNL A   1      42.732  27.614  33.043  1.00  0.00     0.031 C 
ATOM     42  C   UNL A   1      37.745  31.025  29.731  1.00  0.00     0.029 A 
ATOM     43  C   UNL A   1      38.110  31.543  31.048  1.00  0.00     0.049 A 
ATOM     44  H   UNL A   1      39.572  30.800  32.334  1.00  0.00     0.167 HD
ATOM     45  C   UNL A   1      42.684  29.212  34.937  1.00  0.00     0.037 A 
ATOM     46  C   UNL A   1      37.543  32.611  31.648  1.00  0.00     0.037 A 
ATOM     47  C   UNL A   1      42.197  30.384  35.621  1.00  0.00     0.049 A 
ATOM     48  C   UNL A   1      38.064  33.073  32.984  1.00  0.00     0.074 A 
ATOM     49  C   UNL A   1      42.619  30.917  36.828  1.00  0.00     0.029 A 
ATOM     50  N   UNL A   1      41.176  31.204  35.162  1.00  0.00    -0.354 N 
ATOM     51  N   UNL A   1      39.024  32.562  33.717  1.00  0.00    -0.248 NA
ATOM     52  C   UNL A   1      37.436  34.268  33.567  1.00  0.00     0.031 C 
ATOM     53  C   UNL A   1      41.826  32.034  37.118  1.00  0.00     0.029 A 
ATOM     54  C   UNL A   1      40.941  32.226  36.070  1.00  0.00     0.049 A 
ATOM     55  H   UNL A   1      40.688  31.078  34.316  1.00  0.00     0.167 HD
ATOM     56  C   UNL A   1      39.127  33.380  34.837  1.00  0.00     0.074 A 
ATOM     57  C   UNL A   1      38.148  34.434  34.675  1.00  0.00     0.031 C 
ATOM     58  C   UNL A   1      39.958  33.268  35.904  1.00  0.00     0.037 A 
BRANCH  45  59
ATOM     59  C   UNL A   1      43.772  28.404  35.599  1.00  0.00     0.058 A 
ATOM     60  C   UNL A   1      43.475  27.373  36.506  1.00  0.00     0.135 A 
ATOM     61  C   UNL A   1      45.126  28.640  35.305  1.00  0.00     0.135 A 
ATOM     62  F   UNL A   1      42.200  27.105  36.831  1.00  0.00    -0.206 F 
ATOM     63  C   UNL A   1      44.478  26.634  37.128  1.00  0.00     0.059 A 
ATOM     64  C   UNL A   1      46.146  27.894  35.893  1.00  0.00     0.059 A 
ATOM     65  F   UNL A   1      45.472  29.606  34.440  1.00  0.00    -0.206 F 
ATOM     66  C   UNL A   1      45.811  26.905  36.818  1.00  0.00     0.060 A 
BRANCH  66  67
ATOM     67  S   UNL A   1      47.100  25.949  37.645  1.00  0.00     0.124 S 
ATOM     68  O   UNL A   1      48.305  26.648  37.210  1.00  0.00    -0.237 OA
ATOM     69  O   UNL A   1      46.751  26.104  39.054  1.00  0.00    -0.237 OA
ATOM     70  O   UNL A   1      46.927  24.604  37.104  1.00  0.00    -0.744 OA
ENDBRANCH  66  67
ENDBRANCH  45  59
BRANCH  46  71
ATOM     71  C   UNL A   1      36.429  33.335  30.974  1.00  0.00     0.058 A 
ATOM     72  C   UNL A   1      35.106  33.225  31.428  1.00  0.00     0.135 A 
ATOM     73  C   UNL A   1      36.670  34.164  29.867  1.00  0.00     0.135 A 
ATOM     74  F   UNL A   1      34.819  32.436  32.475  1.00  0.00    -0.206 F 
ATOM     75  C   UNL A   1      34.061  33.903  30.806  1.00  0.00     0.059 A 
ATOM     76  C   UNL A   1      35.647  34.872  29.244  1.00  0.00     0.059 A 
ATOM     77  F   UNL A   1      37.920  34.312  29.397  1.00  0.00    -0.206 F 
ATOM     78  C   UNL A   1      34.344  34.730  29.716  1.00  0.00     0.060 A 
BRANCH  78  79
ATOM     79  S   UNL A   1      32.992  35.655  28.954  1.00  0.00     0.124 S 
ATOM     80  O   UNL A   1      32.354  34.628  28.140  1.00  0.00    -0.237 OA
ATOM     81  O   UNL A   1      32.237  36.108  30.117  1.00  0.00    -0.237 OA
ATOM     82  O   UNL A   1      33.682  36.709  28.215  1.00  0.00    -0.744 OA
ENDBRANCH  78  79
ENDBRANCH  46  71
BRANCH  58  83
ATOM     83  C   UNL A   1      39.857  34.322  36.975  1.00  0.00     0.058 A 
ATOM     84  C   UNL A   1      40.578  35.524  36.898  1.00  0.00     0.135 A 
ATOM     85  C   UNL A   1      39.004  34.142  38.077  1.00  0.00     0.135 A 
ATOM     86  F   UNL A   1      41.410  35.747  35.868  1.00  0.00    -0.206 F 
ATOM     87  C   UNL A   1      40.484  36.496  37.889  1.00  0.00     0.059 A 
ATOM     88  C   UNL A   1      38.872  35.112  39.066  1.00  0.00     0.059 A 
ATOM     89  F   UNL A   1      38.282  33.017  38.196  1.00  0.00    -0.206 F 
ATOM     90  C   UNL A   1      39.629  36.279  38.973  1.00  0.00     0.060 A 
BRANCH  90  91
ATOM     91  S   UNL A   1      39.505  37.552  40.247  1.00  0.00     0.124 S 
ATOM     92  O   UNL A   1      38.543  38.472  39.648  1.00  0.00    -0.237 OA
ATOM     93  O   UNL A   1      39.025  36.797  41.400  1.00  0.00    -0.237 OA
ATOM     94  O   UNL A   1      40.870  38.056  40.359  1.00  0.00    -0.744 OA
ENDBRANCH  90  91
ENDBRANCH  58  83
ENDBRANCH  32  33
ENDBRANCH  24  27
ENDBRANCH  22  23
ENDBRANCH   1  22
TORSDOF 15
ENDMDL
MODEL 2
REMARK VINA RESULT:     -12.0      5.253     10.012
REMARK SMILES C[C@H]1[C@H](C(=O)NCCCNC(=O)c2ccc(-c3c4nc(c(-c5c(F)cc(S(=O)(=O)[O-])cc5F)c5ccc([nH]5)c(-c5c(F)cc(S(=O)(=O)[O-])cc5F)c5nc(c(-c6c(F)cc(S(=O)(=O)[O-])cc6F)c6ccc3[nH]6)C=C5)C=C4)cc2)CC[N@@H+]1CC(=O)N1CCCC1
REMARK SMILES IDX 8 1 7 2 6 3 4 4 5 5 3 7 1 8 2 9 81 10 79 11 80 12 82 14
REMARK SMILES IDX 83 15 84 16 85 17 86 18 89 19 87 20 88 21 9 22 10 23 11 24
REMARK SMILES IDX 12 26 13 27 14 28 78 29 15 30 77 31 16 32 17 33 18 34 71 35
REMARK SMILES IDX 19 36 76 37 70 38 72 39 20 40 75 41 69 42 68 43 21 45 55 46
REMARK SMILES IDX 34 47 54 48 35 49 38 50 53 51 73 52 36 53 37 54 52 56 74 57
REMARK SMILES IDX 39 58 22 59 23 60 32 61 24 62 25 63 31 64 33 65 26 66 27 67
REMARK SMILES IDX 28 68 29 69 30 70 56 71 57 72 66 73 58 74 59 75 65 76 67 77
REMARK SMILES IDX 60 78 61 79 62 80 63 81 64 82 40 83 41 84 50 85 42 86 43 87
REMARK SMILES IDX 49 88 51 89 44 90 45 91 46 92 47 93 48 94
REMARK H PARENT 6 6 81 13 10 25 72 44 38 55
REMARK Flexibility Score: inf
ROOT
ATOM      1  C   UNL A   1      34.195  28.121  25.891  1.00  0.00     0.042 C 
ENDROOT
BRANCH   1   2
ATOM      2  C   UNL A   1      33.503  28.368  24.512  1.00  0.00     0.117 C 
BRANCH   2   3
ATOM      3  N   UNL A   1      33.743  27.467  23.380  1.00  0.00    -0.356 N 
ATOM      4  C   UNL A   1      32.997  26.699  22.538  1.00  0.00     0.229 C 
ATOM      5  O   UNL A   1      33.591  26.418  21.479  1.00  0.00    -0.275 OA
ATOM      6  H   UNL A   1      34.703  27.398  23.173  1.00  0.00     0.163 HD
BRANCH   4   7
ATOM      7  C   UNL A   1      31.600  26.060  22.712  1.00  0.00     0.142 C 
ATOM      8  C   UNL A   1      31.056  23.570  23.267  1.00  0.00     0.076 C 
ATOM      9  C   UNL A   1      31.606  24.917  23.749  1.00  0.00     0.194 C 
ATOM     10  N   UNL A   1      30.725  25.320  24.856  1.00  0.00    -0.324 N 
ATOM     11  C   UNL A   1      30.379  26.880  23.042  1.00  0.00     0.081 C 
ATOM     12  C   UNL A   1      30.033  26.559  24.490  1.00  0.00     0.263 C 
ATOM     13  H   UNL A   1      30.017  24.599  24.997  1.00  0.00     0.348 HD
BRANCH  10  14
ATOM     14  C   UNL A   1      31.416  25.367  26.169  1.00  0.00     0.364 C 
BRANCH  14  15
ATOM     15  C   UNL A   1      31.511  23.964  26.790  1.00  0.00     0.277 C 
ATOM     16  O   UNL A   1      30.525  23.469  27.283  1.00  0.00    -0.268 OA
ATOM     17  N   UNL A   1      32.765  23.389  26.903  1.00  0.00    -0.338 N 
ATOM     18  C   UNL A   1      33.948  23.646  26.111  1.00  0.00     0.119 C 
ATOM     19  C   UNL A   1      33.053  22.423  27.934  1.00  0.00     0.119 C 
ATOM     20  C   UNL A   1      34.952  22.568  26.529  1.00  0.00     0.023 C 
ATOM     21  C   UNL A   1      34.165  21.576  27.378  1.00  0.00     0.023 C 
ENDBRANCH  14  15
ENDBRANCH  10  14
ENDBRANCH   4   7
ENDBRANCH   2   3
ENDBRANCH   1   2
BRANCH   1  22
ATOM     22  C   UNL A   1      33.470  28.388  27.223  1.00  0.00     0.118 C 
BRANCH  22  23
ATOM     23  N   UNL A   1      33.579  29.780  27.646  1.00  0.00    -0.352 N 
ATOM     24  C   UNL A   1      34.598  30.487  28.244  1.00  0.00     0.251 C 
ATOM     25  H   UNL A   1      32.772  30.315  27.471  1.00  0.00     0.163 HD
ATOM     26  O   UNL A   1      34.332  31.604  28.690  1.00  0.00    -0.269 OA
BRANCH  24  27
ATOM     27  C   UNL A   1      35.995  29.986  28.374  1.00  0.00     0.039 A 
ATOM     28  C   UNL A   1      36.427  29.572  29.642  1.00  0.00     0.014 A 
ATOM     29  C   UNL A   1      36.933  30.075  27.341  1.00  0.00     0.014 A 
ATOM     30  C   UNL A   1      37.771  29.244  29.874  1.00  0.00     0.010 A 
ATOM     31  C   UNL A   1      38.277  29.712  27.567  1.00  0.00     0.010 A 
ATOM     32  C   UNL A   1      38.719  29.312  28.840  1.00  0.00    -0.014 A 
BRANCH  32  33
ATOM     33  C   UNL A   1      40.156  29.005  29.126  1.00  0.00     0.031 A 
ATOM     34  C   UNL A   1      40.750  27.662  28.771  1.00  0.00     0.074 A 
ATOM     35  C   UNL A   1      40.954  29.946  29.675  1.00  0.00     0.049 A 
ATOM     36  N   UNL A   1      41.992  27.250  28.867  1.00  0.00    -0.248 NA
ATOM     37  C   UNL A   1      39.824  26.641  28.257  1.00  0.00     0.031 C 
ATOM     38  C   UNL A   1      40.512  31.272  30.108  1.00  0.00     0.029 A 
ATOM     39  N   UNL A   1      42.300  29.939  29.957  1.00  0.00    -0.354 N 
ATOM     40  C   UNL A   1      41.997  25.931  28.420  1.00  0.00     0.074 A 
ATOM     41  C   UNL A   1      40.624  25.593  28.112  1.00  0.00     0.031 C 
ATOM     42  C   UNL A   1      41.569  31.958  30.575  1.00  0.00     0.029 A 
ATOM     43  C   UNL A   1      42.763  31.119  30.493  1.00  0.00     0.049 A 
ATOM     44  H   UNL A   1      42.881  29.161  29.791  1.00  0.00     0.167 HD
ATOM     45  C   UNL A   1      43.046  25.086  28.256  1.00  0.00     0.037 A 
ATOM     46  C   UNL A   1      44.004  31.494  30.868  1.00  0.00     0.037 A 
ATOM     47  C   UNL A   1      44.417  25.422  28.553  1.00  0.00     0.049 A 
ATOM     48  C   UNL A   1      45.157  30.544  30.669  1.00  0.00     0.074 A 
ATOM     49  C   UNL A   1      45.552  24.647  28.381  1.00  0.00     0.029 A 
ATOM     50  N   UNL A   1      44.840  26.630  29.088  1.00  0.00    -0.354 N 
ATOM     51  N   UNL A   1      45.148  29.327  30.180  1.00  0.00    -0.248 NA
ATOM     52  C   UNL A   1      46.491  31.026  31.055  1.00  0.00     0.031 C 
ATOM     53  C   UNL A   1      46.655  25.370  28.851  1.00  0.00     0.029 A 
ATOM     54  C   UNL A   1      46.215  26.615  29.271  1.00  0.00     0.049 A 
ATOM     55  H   UNL A   1      44.250  27.388  29.307  1.00  0.00     0.167 HD
ATOM     56  C   UNL A   1      46.473  28.904  30.184  1.00  0.00     0.074 A 
ATOM     57  C   UNL A   1      47.260  30.004  30.702  1.00  0.00     0.031 C 
ATOM     58  C   UNL A   1      46.990  27.712  29.794  1.00  0.00     0.037 A 
BRANCH  45  59
ATOM     59  C   UNL A   1      42.753  23.707  27.719  1.00  0.00     0.058 A 
ATOM     60  C   UNL A   1      42.562  22.610  28.575  1.00  0.00     0.135 A 
ATOM     61  C   UNL A   1      42.632  23.482  26.337  1.00  0.00     0.135 A 
ATOM     62  F   UNL A   1      42.671  22.763  29.905  1.00  0.00    -0.206 F 
ATOM     63  C   UNL A   1      42.304  21.334  28.081  1.00  0.00     0.059 A 
ATOM     64  C   UNL A   1      42.346  22.219  25.822  1.00  0.00     0.059 A 
ATOM     65  F   UNL A   1      42.796  24.493  25.470  1.00  0.00    -0.206 F 
ATOM     66  C   UNL A   1      42.202  21.148  26.702  1.00  0.00     0.060 A 
BRANCH  66  67
ATOM     67  S   UNL A   1      41.882  19.484  26.078  1.00  0.00     0.124 S 
ATOM     68  O   UNL A   1      40.440  19.529  25.858  1.00  0.00    -0.237 OA
ATOM     69  O   UNL A   1      42.705  19.438  24.873  1.00  0.00    -0.237 OA
ATOM     70  O   UNL A   1      42.322  18.620  27.169  1.00  0.00    -0.744 OA
ENDBRANCH  66  67
ENDBRANCH  45  59
BRANCH  46  71
ATOM     71  C   UNL A   1      44.225  32.847  31.450  1.00  0.00     0.058 A 
ATOM     72  C   UNL A   1      44.466  33.963  30.634  1.00  0.00     0.135 A 
ATOM     73  C   UNL A   1      44.186  33.054  32.838  1.00  0.00     0.135 A 
ATOM     74  F   UNL A   1      44.526  33.819  29.301  1.00  0.00    -0.206 F 
ATOM     75  C   UNL A   1      44.668  35.232  31.170  1.00  0.00     0.059 A 
ATOM     76  C   UNL A   1      44.359  34.316  33.397  1.00  0.00     0.059 A 
ATOM     77  F   UNL A   1      43.950  32.022  33.665  1.00  0.00    -0.206 F 
ATOM     78  C   UNL A   1      44.606  35.399  32.555  1.00  0.00     0.060 A 
BRANCH  78  79
ATOM     79  S   UNL A   1      44.806  37.059  33.240  1.00  0.00     0.124 S 
ATOM     80  O   UNL A   1      46.072  37.472  32.646  1.00  0.00    -0.237 OA
ATOM     81  O   UNL A   1      43.616  37.741  32.744  1.00  0.00    -0.237 OA
ATOM     82  O   UNL A   1      44.831  36.826  34.681  1.00  0.00    -0.744 OA
ENDBRANCH  78  79
ENDBRANCH  46  71
BRANCH  58  83
ATOM     83  C   UNL A   1      48.483  27.538  29.898  1.00  0.00     0.058 A 
ATOM     84  C   UNL A   1      49.343  27.904  28.850  1.00  0.00     0.135 A 
ATOM     85  C   UNL A   1      49.064  27.027  31.071  1.00  0.00     0.135 A 
ATOM     86  F   UNL A   1      48.841  28.393  27.705  1.00  0.00    -0.206 F 
ATOM     87  C   UNL A   1      50.721  27.741  28.947  1.00  0.00     0.059 A 
ATOM     88  C   UNL A   1      50.442  26.882  31.201  1.00  0.00     0.059 A 
ATOM     89  F   UNL A   1      48.291  26.673  32.109  1.00  0.00    -0.206 F 
ATOM     90  C   UNL A   1      51.262  27.225  30.127  1.00  0.00     0.060 A 
BRANCH  90  91
ATOM     91  S   UNL A   1      53.053  27.030  30.247  1.00  0.00     0.124 S 
ATOM     92  O   UNL A   1      53.488  28.414  30.406  1.00  0.00    -0.237 OA
ATOM     93  O   UNL A   1      53.198  26.181  31.425  1.00  0.00    -0.237 OA
ATOM     94  O   UNL A   1      53.412  26.400  28.980  1.00  0.00    -0.744 OA
ENDBRANCH  90  91
ENDBRANCH  58  83
ENDBRANCH  32  33
ENDBRANCH  24  27
ENDBRANCH  22  23
ENDBRANCH   1  22
TORSDOF 15
ENDMDL
MODEL 3
REMARK VINA RESULT:     -11.9      1.215      2.414
REMARK SMILES C[C@H]1[C@H](C(=O)NCCCNC(=O)c2ccc(-c3c4nc(c(-c5c(F)cc(S(=O)(=O)[O-])cc5F)c5ccc([nH]5)c(-c5c(F)cc(S(=O)(=O)[O-])cc5F)c5nc(c(-c6c(F)cc(S(=O)(=O)[O-])cc6F)c6ccc3[nH]6)C=C5)C=C4)cc2)CC[N@@H+]1CC(=O)N1CCCC1
REMARK SMILES IDX 8 1 7 2 6 3 4 4 5 5 3 7 1 8 2 9 81 10 79 11 80 12 82 14
REMARK SMILES IDX 83 15 84 16 85 17 86 18 89 19 87 20 88 21 9 22 10 23 11 24
REMARK SMILES IDX 12 26 13 27 14 28 78 29 15 30 77 31 16 32 17 33 18 34 71 35
REMARK SMILES IDX 19 36 76 37 70 38 72 39 20 40 75 41 69 42 68 43 21 45 55 46
REMARK SMILES IDX 34 47 54 48 35 49 38 50 53 51 73 52 36 53 37 54 52 56 74 57
REMARK SMILES IDX 39 58 22 59 23 60 32 61 24 62 25 63 31 64 33 65 26 66 27 67
REMARK SMILES IDX 28 68 29 69 30 70 56 71 57 72 66 73 58 74 59 75 65 76 67 77
REMARK SMILES IDX 60 78 61 79 62 80 63 81 64 82 40 83 41 84 50 85 42 86 43 87
REMARK SMILES IDX 49 88 51 89 44 90 45 91 46 92 47 93 48 94
REMARK H PARENT 6 6 81 13 10 25 72 44 38 55
REMARK Flexibility Score: inf
ROOT
ATOM      1  C   UNL A   1      40.906  21.657  27.592  1.00  0.00     0.042 C 
ENDROOT
BRANCH   1   2
ATOM      2  C   UNL A   1      39.965  21.756  26.348  1.00  0.00     0.117 C 
BRANCH   2   3
ATOM      3  N   UNL A   1      39.011  22.861  26.216  1.00  0.00    -0.356 N 
ATOM      4  C   UNL A   1      37.758  23.046  25.713  1.00  0.00     0.229 C 
ATOM      5  O   UNL A   1      37.188  24.052  26.178  1.00  0.00    -0.275 OA
ATOM      6  H   UNL A   1      39.372  23.696  26.593  1.00  0.00     0.163 HD
BRANCH   4   7
ATOM      7  C   UNL A   1      36.978  22.280  24.620  1.00  0.00     0.142 C 
ATOM      8  C   UNL A   1      35.365  20.256  24.948  1.00  0.00     0.076 C 
ATOM      9  C   UNL A   1      35.619  21.757  25.130  1.00  0.00     0.194 C 
ATOM     10  N   UNL A   1      34.566  22.424  24.349  1.00  0.00    -0.324 N 
ATOM     11  C   UNL A   1      36.681  22.888  23.273  1.00  0.00     0.081 C 
ATOM     12  C   UNL A   1      35.188  23.191  23.266  1.00  0.00     0.263 C 
ATOM     13  H   UNL A   1      33.969  21.715  23.923  1.00  0.00     0.348 HD
BRANCH  10  14
ATOM     14  C   UNL A   1      33.617  23.200  25.184  1.00  0.00     0.364 C 
BRANCH  14  15
ATOM     15  C   UNL A   1      32.251  23.327  24.490  1.00  0.00     0.277 C 
ATOM     16  O   UNL A   1      31.822  22.391  23.856  1.00  0.00    -0.268 OA
ATOM     17  N   UNL A   1      31.639  24.569  24.484  1.00  0.00    -0.338 N 
ATOM     18  C   UNL A   1      31.806  25.658  25.420  1.00  0.00     0.119 C 
ATOM     19  C   UNL A   1      30.728  24.947  23.432  1.00  0.00     0.119 C 
ATOM     20  C   UNL A   1      30.720  26.674  25.052  1.00  0.00     0.023 C 
ATOM     21  C   UNL A   1      29.810  25.963  24.057  1.00  0.00     0.023 C 
ENDBRANCH  14  15
ENDBRANCH  10  14
ENDBRANCH   4   7
ENDBRANCH   2   3
ENDBRANCH   1   2
BRANCH   1  22
ATOM     22  C   UNL A   1      41.995  22.709  27.873  1.00  0.00     0.118 C 
BRANCH  22  23
ATOM     23  N   UNL A   1      42.285  23.535  26.707  1.00  0.00    -0.352 N 
ATOM     24  C   UNL A   1      42.035  24.859  26.427  1.00  0.00     0.251 C 
ATOM     25  H   UNL A   1      42.746  23.055  25.982  1.00  0.00     0.163 HD
ATOM     26  O   UNL A   1      42.196  25.239  25.266  1.00  0.00    -0.269 OA
BRANCH  24  27
ATOM     27  C   UNL A   1      41.590  25.856  27.442  1.00  0.00     0.039 A 
ATOM     28  C   UNL A   1      42.487  26.874  27.798  1.00  0.00     0.014 A 
ATOM     29  C   UNL A   1      40.407  25.718  28.173  1.00  0.00     0.014 A 
ATOM     30  C   UNL A   1      42.202  27.746  28.859  1.00  0.00     0.010 A 
ATOM     31  C   UNL A   1      40.107  26.617  29.218  1.00  0.00     0.010 A 
ATOM     32  C   UNL A   1      41.008  27.630  29.588  1.00  0.00    -0.014 A 
BRANCH  32  33
ATOM     33  C   UNL A   1      40.753  28.542  30.748  1.00  0.00     0.031 A 
ATOM     34  C   UNL A   1      41.585  28.451  32.006  1.00  0.00     0.074 A 
ATOM     35  C   UNL A   1      39.792  29.488  30.669  1.00  0.00     0.049 A 
ATOM     36  N   UNL A   1      41.562  29.211  33.075  1.00  0.00    -0.248 NA
ATOM     37  C   UNL A   1      42.558  27.351  32.081  1.00  0.00     0.031 C 
ATOM     38  C   UNL A   1      38.884  29.668  29.535  1.00  0.00     0.029 A 
ATOM     39  N   UNL A   1      39.424  30.479  31.547  1.00  0.00    -0.354 N 
ATOM     40  C   UNL A   1      42.518  28.688  33.941  1.00  0.00     0.074 A 
ATOM     41  C   UNL A   1      43.058  27.509  33.299  1.00  0.00     0.031 C 
ATOM     42  C   UNL A   1      38.083  30.719  29.776  1.00  0.00     0.029 A 
ATOM     43  C   UNL A   1      38.404  31.280  31.087  1.00  0.00     0.049 A 
ATOM     44  H   UNL A   1      39.850  30.604  32.427  1.00  0.00     0.167 HD
ATOM     45  C   UNL A   1      42.930  29.156  35.147  1.00  0.00     0.037 A 
ATOM     46  C   UNL A   1      37.800  32.351  31.644  1.00  0.00     0.037 A 
ATOM     47  C   UNL A   1      42.401  30.335  35.786  1.00  0.00     0.049 A 
ATOM     48  C   UNL A   1      38.278  32.861  32.979  1.00  0.00     0.074 A 
ATOM     49  C   UNL A   1      42.782  30.910  36.988  1.00  0.00     0.029 A 
ATOM     50  N   UNL A   1      41.374  31.120  35.281  1.00  0.00    -0.354 N 
ATOM     51  N   UNL A   1      39.231  32.390  33.748  1.00  0.00    -0.248 NA
ATOM     52  C   UNL A   1      37.611  34.057  33.513  1.00  0.00     0.031 C 
ATOM     53  C   UNL A   1      41.959  32.016  37.229  1.00  0.00     0.029 A 
ATOM     54  C   UNL A   1      41.096  32.161  36.154  1.00  0.00     0.049 A 
ATOM     55  H   UNL A   1      40.910  30.960  34.427  1.00  0.00     0.167 HD
ATOM     56  C   UNL A   1      39.289  33.241  34.847  1.00  0.00     0.074 A 
ATOM     57  C   UNL A   1      38.291  34.268  34.632  1.00  0.00     0.031 C 
ATOM     58  C   UNL A   1      40.095  33.176  35.936  1.00  0.00     0.037 A 
BRANCH  45  59
ATOM     59  C   UNL A   1      44.019  28.390  35.857  1.00  0.00     0.058 A 
ATOM     60  C   UNL A   1      43.723  27.332  36.733  1.00  0.00     0.135 A 
ATOM     61  C   UNL A   1      45.373  28.695  35.640  1.00  0.00     0.135 A 
ATOM     62  F   UNL A   1      42.446  26.999  36.984  1.00  0.00    -0.206 F 
ATOM     63  C   UNL A   1      44.726  26.633  37.399  1.00  0.00     0.059 A 
ATOM     64  C   UNL A   1      46.394  27.989  36.274  1.00  0.00     0.059 A 
ATOM     65  F   UNL A   1      45.719  29.690  34.809  1.00  0.00    -0.206 F 
ATOM     66  C   UNL A   1      46.059  26.971  37.166  1.00  0.00     0.060 A 
BRANCH  66  67
ATOM     67  S   UNL A   1      47.346  26.064  38.049  1.00  0.00     0.124 S 
ATOM     68  O   UNL A   1      47.773  25.104  37.036  1.00  0.00    -0.237 OA
ATOM     69  O   UNL A   1      48.307  27.116  38.369  1.00  0.00    -0.237 OA
ATOM     70  O   UNL A   1      46.639  25.496  39.193  1.00  0.00    -0.744 OA
ENDBRANCH  66  67
ENDBRANCH  45  59
BRANCH  46  71
ATOM     71  C   UNL A   1      36.688  33.032  30.924  1.00  0.00     0.058 A 
ATOM     72  C   UNL A   1      35.355  32.895  31.341  1.00  0.00     0.135 A 
ATOM     73  C   UNL A   1      36.939  33.846  29.807  1.00  0.00     0.135 A 
ATOM     74  F   UNL A   1      35.058  32.118  32.394  1.00  0.00    -0.206 F 
ATOM     75  C   UNL A   1      34.311  33.533  30.675  1.00  0.00     0.059 A 
ATOM     76  C   UNL A   1      35.917  34.515  29.141  1.00  0.00     0.059 A 
ATOM     77  F   UNL A   1      38.198  34.019  29.372  1.00  0.00    -0.206 F 
ATOM     78  C   UNL A   1      34.604  34.346  29.578  1.00  0.00     0.060 A 
BRANCH  78  79
ATOM     79  S   UNL A   1      33.252  35.220  28.759  1.00  0.00     0.124 S 
ATOM     80  O   UNL A   1      33.976  36.209  27.969  1.00  0.00    -0.237 OA
ATOM     81  O   UNL A   1      32.606  34.150  28.007  1.00  0.00    -0.237 OA
ATOM     82  O   UNL A   1      32.472  35.751  29.874  1.00  0.00    -0.744 OA
ENDBRANCH  78  79
ENDBRANCH  46  71
BRANCH  58  83
ATOM     83  C   UNL A   1      39.945  34.256  36.975  1.00  0.00     0.058 A 
ATOM     84  C   UNL A   1      40.595  35.495  36.851  1.00  0.00     0.135 A 
ATOM     85  C   UNL A   1      39.117  34.062  38.093  1.00  0.00     0.135 A 
ATOM     86  F   UNL A   1      41.402  35.732  35.804  1.00  0.00    -0.206 F 
ATOM     87  C   UNL A   1      40.456  36.490  37.813  1.00  0.00     0.059 A 
ATOM     88  C   UNL A   1      38.940  35.055  39.053  1.00  0.00     0.059 A 
ATOM     89  F   UNL A   1      38.461  32.903  38.256  1.00  0.00    -0.206 F 
ATOM     90  C   UNL A   1      39.627  36.259  38.913  1.00  0.00     0.060 A 
BRANCH  90  91
ATOM     91  S   UNL A   1      39.444  37.564  40.148  1.00  0.00     0.124 S 
ATOM     92  O   UNL A   1      40.788  38.129  40.179  1.00  0.00    -0.237 OA
ATOM     93  O   UNL A   1      38.413  38.412  39.558  1.00  0.00    -0.237 OA
ATOM     94  O   UNL A   1      39.039  36.840  41.350  1.00  0.00    -0.744 OA
ENDBRANCH  90  91
ENDBRANCH  58  83
ENDBRANCH  32  33
ENDBRANCH  24  27
ENDBRANCH  22  23
ENDBRANCH   1  22
TORSDOF 15
ENDMDL
