MODEL 1
REMARK VINA RESULT:     -12.0      0.000      0.000
REMARK SMILES C[NH+](C)Cc1ccccc1[C@H]1[NH2+][C@@H](C(=O)NCCCNC(=O)c2ccc(-c3c4nc(c(-c5c(F)cc(S(=O)(=O)[O-])cc5F)c5ccc([nH]5)c(-c5c(F)cc(S(=O)(=O)[O-])cc5F)c5nc(c(-c6c(F)cc(S(=O)(=O)[O-])cc6F)c6ccc3[nH]6)C=C5)C=C4)cc2)C(C)(C)S1
REMARK SMILES IDX 18 1 17 2 16 3 14 4 15 5 13 7 11 8 12 9 92 10 89 13 90 14
REMARK SMILES IDX 91 15 10 16 5 17 6 18 7 19 9 20 8 21 4 22 2 23 1 24 3 25
REMARK SMILES IDX 19 27 20 28 21 29 22 31 23 32 24 33 88 34 25 35 87 36 26 37
REMARK SMILES IDX 27 38 28 39 81 40 29 41 86 42 80 43 82 44 30 45 85 46 79 47
REMARK SMILES IDX 78 48 31 50 65 51 44 52 64 53 45 54 48 55 63 56 83 57 46 58
REMARK SMILES IDX 47 59 62 61 84 62 49 63 32 64 33 65 42 66 34 67 35 68 41 69
REMARK SMILES IDX 43 70 36 71 37 72 38 73 39 74 40 75 66 76 67 77 76 78 68 79
REMARK SMILES IDX 69 80 75 81 77 82 70 83 71 84 72 85 73 86 74 87 50 88 51 89
REMARK SMILES IDX 60 90 52 91 53 92 59 93 61 94 54 95 55 96 56 97 57 98 58 99
REMARK H PARENT 16 6 12 11 12 12 2 26 20 30 82 49 48 60
REMARK Flexibility Score: inf
ROOT
ATOM      1  C   UNL A   1      37.580  22.986  25.804  1.00  0.00     0.042 C 
ENDROOT
BRANCH   1   2
ATOM      2  C   UNL A   1      36.406  23.491  24.973  1.00  0.00     0.118 C 
BRANCH   2   3
ATOM      3  N   UNL A   1      35.177  23.612  25.744  1.00  0.00    -0.351 N 
ATOM      4  C   UNL A   1      33.963  24.187  25.549  1.00  0.00     0.279 C 
ATOM      5  O   UNL A   1      33.162  24.047  26.486  1.00  0.00    -0.268 OA
ATOM      6  H   UNL A   1      35.242  23.169  26.620  1.00  0.00     0.163 HD
BRANCH   4   7
ATOM      7  C   UNL A   1      33.539  25.041  24.339  1.00  0.00     0.289 C 
ATOM      8  C   UNL A   1      32.409  26.895  23.415  1.00  0.00     0.275 C 
ATOM      9  N   UNL A   1      32.822  26.295  24.690  1.00  0.00    -0.320 N 
ATOM     10  S   UNL A   1      32.077  25.592  22.214  1.00  0.00    -0.081 SA
ATOM     11  H   UNL A   1      32.005  26.086  25.264  1.00  0.00     0.348 HD
ATOM     12  H   UNL A   1      33.416  26.927  25.225  1.00  0.00     0.348 HD
ATOM     13  C   UNL A   1      32.796  24.250  23.238  1.00  0.00     0.077 C 
ATOM     14  C   UNL A   1      31.665  23.340  23.713  1.00  0.00     0.030 C 
ATOM     15  C   UNL A   1      33.759  23.425  22.377  1.00  0.00     0.030 C 
BRANCH   8  16
ATOM     16  C   UNL A   1      31.318  27.958  23.546  1.00  0.00     0.029 A 
ATOM     17  C   UNL A   1      31.378  29.172  24.290  1.00  0.00     0.016 A 
ATOM     18  C   UNL A   1      30.301  30.083  24.177  1.00  0.00     0.010 A 
ATOM     19  C   UNL A   1      29.162  29.801  23.428  1.00  0.00     0.001 A 
ATOM     20  C   UNL A   1      30.139  27.702  22.797  1.00  0.00     0.011 A 
ATOM     21  C   UNL A   1      29.076  28.602  22.745  1.00  0.00     0.001 A 
BRANCH  17  22
ATOM     22  C   UNL A   1      32.554  29.627  25.143  1.00  0.00     0.299 C 
BRANCH  22  23
ATOM     23  N   UNL A   1      32.372  29.837  26.584  1.00  0.00    -0.336 N 
ATOM     24  C   UNL A   1      31.882  28.692  27.333  1.00  0.00     0.332 C 
ATOM     25  C   UNL A   1      33.503  30.464  27.250  1.00  0.00     0.332 C 
ATOM     26  H   UNL A   1      31.608  30.513  26.596  1.00  0.00     0.347 HD
ENDBRANCH  22  23
ENDBRANCH  17  22
ENDBRANCH   8  16
ENDBRANCH   4   7
ENDBRANCH   2   3
ENDBRANCH   1   2
BRANCH   1  27
ATOM     27  C   UNL A   1      38.408  24.092  26.438  1.00  0.00     0.118 C 
BRANCH  27  28
ATOM     28  N   UNL A   1      39.822  23.962  26.126  1.00  0.00    -0.352 N 
ATOM     29  C   UNL A   1      40.889  24.736  26.516  1.00  0.00     0.251 C 
ATOM     30  H   UNL A   1      40.051  23.202  25.543  1.00  0.00     0.163 HD
ATOM     31  O   UNL A   1      41.965  24.602  25.938  1.00  0.00    -0.269 OA
BRANCH  29  32
ATOM     32  C   UNL A   1      40.754  25.730  27.608  1.00  0.00     0.039 A 
ATOM     33  C   UNL A   1      41.705  26.749  27.716  1.00  0.00     0.014 A 
ATOM     34  C   UNL A   1      39.735  25.633  28.559  1.00  0.00     0.014 A 
ATOM     35  C   UNL A   1      41.603  27.693  28.744  1.00  0.00     0.010 A 
ATOM     36  C   UNL A   1      39.582  26.626  29.524  1.00  0.00     0.010 A 
ATOM     37  C   UNL A   1      40.526  27.655  29.643  1.00  0.00    -0.014 A 
BRANCH  37  38
ATOM     38  C   UNL A   1      40.395  28.650  30.739  1.00  0.00     0.031 A 
ATOM     39  C   UNL A   1      41.260  28.532  31.969  1.00  0.00     0.074 A 
ATOM     40  C   UNL A   1      39.470  29.627  30.657  1.00  0.00     0.049 A 
ATOM     41  N   UNL A   1      41.247  29.250  33.062  1.00  0.00    -0.248 NA
ATOM     42  C   UNL A   1      42.252  27.445  31.982  1.00  0.00     0.031 C 
ATOM     43  C   UNL A   1      38.541  29.822  29.541  1.00  0.00     0.029 A 
ATOM     44  N   UNL A   1      39.153  30.636  31.532  1.00  0.00    -0.354 N 
ATOM     45  C   UNL A   1      42.211  28.693  33.895  1.00  0.00     0.074 A 
ATOM     46  C   UNL A   1      42.750  27.542  33.205  1.00  0.00     0.031 C 
ATOM     47  C   UNL A   1      37.778  30.900  29.789  1.00  0.00     0.029 A 
ATOM     48  C   UNL A   1      38.137  31.451  31.091  1.00  0.00     0.049 A 
ATOM     49  H   UNL A   1      39.611  30.764  32.394  1.00  0.00     0.167 HD
ATOM     50  C   UNL A   1      42.632  29.116  35.111  1.00  0.00     0.037 A 
ATOM     51  C   UNL A   1      37.559  32.520  31.673  1.00  0.00     0.037 A 
ATOM     52  C   UNL A   1      42.120  30.283  35.779  1.00  0.00     0.049 A 
ATOM     53  C   UNL A   1      38.051  32.979  33.019  1.00  0.00     0.074 A 
ATOM     54  C   UNL A   1      42.510  30.822  36.994  1.00  0.00     0.029 A 
ATOM     55  N   UNL A   1      41.113  31.099  35.286  1.00  0.00    -0.354 N 
ATOM     56  N   UNL A   1      38.995  32.464  33.771  1.00  0.00    -0.248 NA
ATOM     57  C   UNL A   1      37.404  34.167  33.594  1.00  0.00     0.031 C 
ATOM     58  C   UNL A   1      41.719  31.948  37.246  1.00  0.00     0.029 A 
ATOM     59  C   UNL A   1      40.863  32.131  36.172  1.00  0.00     0.049 A 
ATOM     60  H   UNL A   1      40.644  30.963  34.430  1.00  0.00     0.167 HD
ATOM     61  C   UNL A   1      39.075  33.282  34.893  1.00  0.00     0.074 A 
ATOM     62  C   UNL A   1      38.091  34.331  34.717  1.00  0.00     0.031 C 
ATOM     63  C   UNL A   1      39.889  33.176  35.972  1.00  0.00     0.037 A 
BRANCH  50  64
ATOM     64  C   UNL A   1      43.713  28.319  35.788  1.00  0.00     0.058 A 
ATOM     65  C   UNL A   1      45.073  28.589  35.563  1.00  0.00     0.135 A 
ATOM     66  C   UNL A   1      43.391  27.293  36.691  1.00  0.00     0.135 A 
ATOM     67  F   UNL A   1      45.437  29.549  34.697  1.00  0.00    -0.206 F 
ATOM     68  C   UNL A   1      46.074  27.848  36.180  1.00  0.00     0.059 A 
ATOM     69  C   UNL A   1      44.378  26.556  37.342  1.00  0.00     0.059 A 
ATOM     70  F   UNL A   1      42.108  26.992  36.944  1.00  0.00    -0.206 F 
ATOM     71  C   UNL A   1      45.717  26.831  37.067  1.00  0.00     0.060 A 
BRANCH  71  72
ATOM     72  S   UNL A   1      47.028  25.878  37.861  1.00  0.00     0.124 S 
ATOM     73  O   UNL A   1      46.340  25.367  39.042  1.00  0.00    -0.237 OA
ATOM     74  O   UNL A   1      47.358  24.888  36.841  1.00  0.00    -0.237 OA
ATOM     75  O   UNL A   1      48.063  26.874  38.120  1.00  0.00    -0.744 OA
ENDBRANCH  71  72
ENDBRANCH  50  64
BRANCH  51  76
ATOM     76  C   UNL A   1      36.469  33.251  30.974  1.00  0.00     0.058 A 
ATOM     77  C   UNL A   1      36.747  34.071  29.870  1.00  0.00     0.135 A 
ATOM     78  C   UNL A   1      35.134  33.145  31.391  1.00  0.00     0.135 A 
ATOM     79  F   UNL A   1      38.009  34.208  29.437  1.00  0.00    -0.206 F 
ATOM     80  C   UNL A   1      35.743  34.778  29.216  1.00  0.00     0.059 A 
ATOM     81  C   UNL A   1      34.109  33.824  30.738  1.00  0.00     0.059 A 
ATOM     82  F   UNL A   1      34.813  32.359  32.431  1.00  0.00    -0.206 F 
ATOM     83  C   UNL A   1      34.425  34.649  29.660  1.00  0.00     0.060 A 
BRANCH  83  84
ATOM     84  S   UNL A   1      33.123  35.541  28.783  1.00  0.00     0.124 S 
ATOM     85  O   UNL A   1      32.502  34.469  28.013  1.00  0.00    -0.237 OA
ATOM     86  O   UNL A   1      32.326  36.084  29.880  1.00  0.00    -0.237 OA
ATOM     87  O   UNL A   1      33.862  36.532  28.006  1.00  0.00    -0.744 OA
ENDBRANCH  83  84
ENDBRANCH  51  76
BRANCH  63  88
ATOM     88  C   UNL A   1      39.781  34.239  37.027  1.00  0.00     0.058 A 
ATOM     89  C   UNL A   1      40.440  35.471  36.900  1.00  0.00     0.135 A 
ATOM     90  C   UNL A   1      38.967  34.040  38.154  1.00  0.00     0.135 A 
ATOM     91  F   UNL A   1      41.234  35.707  35.844  1.00  0.00    -0.206 F 
ATOM     92  C   UNL A   1      40.312  36.465  37.866  1.00  0.00     0.059 A 
ATOM     93  C   UNL A   1      38.806  35.028  39.120  1.00  0.00     0.059 A 
ATOM     94  F   UNL A   1      38.308  32.882  38.315  1.00  0.00    -0.206 F 
ATOM     95  C   UNL A   1      39.492  36.233  38.973  1.00  0.00     0.060 A 
BRANCH  95  96
ATOM     96  S   UNL A   1      39.304  37.542  40.201  1.00  0.00     0.124 S 
ATOM     97  O   UNL A   1      38.903  36.781  41.381  1.00  0.00    -0.237 OA
ATOM     98  O   UNL A   1      40.641  38.125  40.248  1.00  0.00    -0.237 OA
ATOM     99  O   UNL A   1      38.273  38.401  39.627  1.00  0.00    -0.744 OA
ENDBRANCH  95  96
ENDBRANCH  63  88
ENDBRANCH  37  38
ENDBRANCH  29  32
ENDBRANCH  27  28
ENDBRANCH   1  27
TORSDOF 16
ENDMDL
MODEL 2
REMARK VINA RESULT:     -12.0      6.507     12.191
REMARK SMILES C[NH+](C)Cc1ccccc1[C@H]1[NH2+][C@@H](C(=O)NCCCNC(=O)c2ccc(-c3c4nc(c(-c5c(F)cc(S(=O)(=O)[O-])cc5F)c5ccc([nH]5)c(-c5c(F)cc(S(=O)(=O)[O-])cc5F)c5nc(c(-c6c(F)cc(S(=O)(=O)[O-])cc6F)c6ccc3[nH]6)C=C5)C=C4)cc2)C(C)(C)S1
REMARK SMILES IDX 18 1 17 2 16 3 14 4 15 5 13 7 11 8 12 9 92 10 89 13 90 14
REMARK SMILES IDX 91 15 10 16 5 17 6 18 7 19 9 20 8 21 4 22 2 23 1 24 3 25
REMARK SMILES IDX 19 27 20 28 21 29 22 31 23 32 24 33 88 34 25 35 87 36 26 37
REMARK SMILES IDX 27 38 28 39 81 40 29 41 86 42 80 43 82 44 30 45 85 46 79 47
REMARK SMILES IDX 78 48 31 50 65 51 44 52 64 53 45 54 48 55 63 56 83 57 46 58
REMARK SMILES IDX 47 59 62 61 84 62 49 63 32 64 33 65 42 66 34 67 35 68 41 69
REMARK SMILES IDX 43 70 36 71 37 72 38 73 39 74 40 75 66 76 67 77 76 78 68 79
REMARK SMILES IDX 69 80 75 81 77 82 70 83 71 84 72 85 73 86 74 87 50 88 51 89
REMARK SMILES IDX 60 90 52 91 53 92 59 93 61 94 54 95 55 96 56 97 57 98 58 99
REMARK H PARENT 16 6 12 11 12 12 2 26 20 30 82 49 48 60
REMARK Flexibility Score: inf
ROOT
ATOM      1  C   UNL A   1      34.800  29.670  27.547  1.00  0.00     0.042 C 
ENDROOT
BRANCH   1   2
ATOM      2  C   UNL A   1      33.662  29.921  26.565  1.00  0.00     0.118 C 
BRANCH   2   3
ATOM      3  N   UNL A   1      33.859  29.252  25.287  1.00  0.00    -0.351 N 
ATOM      4  C   UNL A   1      33.776  27.973  24.839  1.00  0.00     0.279 C 
ATOM      5  O   UNL A   1      34.021  27.825  23.632  1.00  0.00    -0.268 OA
ATOM      6  H   UNL A   1      34.114  29.880  24.574  1.00  0.00     0.163 HD
BRANCH   4   7
ATOM      7  C   UNL A   1      33.493  26.722  25.692  1.00  0.00     0.289 C 
ATOM      8  C   UNL A   1      33.708  24.407  26.096  1.00  0.00     0.275 C 
ATOM      9  N   UNL A   1      34.194  25.493  25.236  1.00  0.00    -0.320 N 
ATOM     10  S   UNL A   1      32.001  24.733  26.574  1.00  0.00    -0.081 SA
ATOM     11  H   UNL A   1      33.970  25.299  24.260  1.00  0.00     0.348 HD
ATOM     12  H   UNL A   1      35.207  25.596  25.300  1.00  0.00     0.348 HD
ATOM     13  C   UNL A   1      31.992  26.458  25.947  1.00  0.00     0.077 C 
ATOM     14  C   UNL A   1      31.081  26.526  24.723  1.00  0.00     0.030 C 
ATOM     15  C   UNL A   1      31.424  27.381  27.031  1.00  0.00     0.030 C 
BRANCH   8  16
ATOM     16  C   UNL A   1      33.978  23.005  25.548  1.00  0.00     0.029 A 
ATOM     17  C   UNL A   1      35.226  22.471  25.114  1.00  0.00     0.016 A 
ATOM     18  C   UNL A   1      35.284  21.102  24.759  1.00  0.00     0.010 A 
ATOM     19  C   UNL A   1      34.156  20.286  24.750  1.00  0.00     0.001 A 
ATOM     20  C   UNL A   1      32.849  22.145  25.522  1.00  0.00     0.011 A 
ATOM     21  C   UNL A   1      32.933  20.812  25.121  1.00  0.00     0.001 A 
BRANCH  17  22
ATOM     22  C   UNL A   1      36.546  23.229  25.077  1.00  0.00     0.299 C 
BRANCH  22  23
ATOM     23  N   UNL A   1      37.551  22.995  26.121  1.00  0.00    -0.336 N 
ATOM     24  C   UNL A   1      38.506  21.934  25.853  1.00  0.00     0.332 C 
ATOM     25  C   UNL A   1      38.213  24.198  26.602  1.00  0.00     0.332 C 
ATOM     26  H   UNL A   1      36.972  22.648  26.886  1.00  0.00     0.347 HD
ENDBRANCH  22  23
ENDBRANCH  17  22
ENDBRANCH   8  16
ENDBRANCH   4   7
ENDBRANCH   2   3
ENDBRANCH   1   2
BRANCH   1  27
ATOM     27  C   UNL A   1      35.408  30.938  28.125  1.00  0.00     0.118 C 
BRANCH  27  28
ATOM     28  N   UNL A   1      35.393  30.937  29.579  1.00  0.00    -0.352 N 
ATOM     29  C   UNL A   1      36.312  30.441  30.472  1.00  0.00     0.251 C 
ATOM     30  H   UNL A   1      34.601  31.356  29.987  1.00  0.00     0.163 HD
ATOM     31  O   UNL A   1      35.990  30.317  31.651  1.00  0.00    -0.269 OA
BRANCH  29  32
ATOM     32  C   UNL A   1      37.671  30.045  30.030  1.00  0.00     0.039 A 
ATOM     33  C   UNL A   1      38.580  29.571  30.982  1.00  0.00     0.014 A 
ATOM     34  C   UNL A   1      38.077  30.190  28.701  1.00  0.00     0.014 A 
ATOM     35  C   UNL A   1      39.870  29.200  30.591  1.00  0.00     0.010 A 
ATOM     36  C   UNL A   1      39.329  29.734  28.298  1.00  0.00     0.010 A 
ATOM     37  C   UNL A   1      40.249  29.254  29.240  1.00  0.00    -0.014 A 
BRANCH  37  38
ATOM     38  C   UNL A   1      41.614  28.861  28.801  1.00  0.00     0.031 A 
ATOM     39  C   UNL A   1      42.713  29.892  28.745  1.00  0.00     0.074 A 
ATOM     40  C   UNL A   1      41.856  27.595  28.406  1.00  0.00     0.049 A 
ATOM     41  N   UNL A   1      43.944  29.768  28.320  1.00  0.00    -0.248 NA
ATOM     42  C   UNL A   1      42.373  31.250  29.200  1.00  0.00     0.031 C 
ATOM     43  C   UNL A   1      40.868  26.514  28.369  1.00  0.00     0.029 A 
ATOM     44  N   UNL A   1      43.010  27.004  27.951  1.00  0.00    -0.354 N 
ATOM     45  C   UNL A   1      44.516  31.029  28.440  1.00  0.00     0.074 A 
ATOM     46  C   UNL A   1      43.483  31.917  28.923  1.00  0.00     0.031 C 
ATOM     47  C   UNL A   1      41.464  25.388  27.942  1.00  0.00     0.029 A 
ATOM     48  C   UNL A   1      42.863  25.673  27.641  1.00  0.00     0.049 A 
ATOM     49  H   UNL A   1      43.861  27.489  27.856  1.00  0.00     0.167 HD
ATOM     50  C   UNL A   1      45.794  31.409  28.200  1.00  0.00     0.037 A 
ATOM     51  C   UNL A   1      43.756  24.782  27.167  1.00  0.00     0.037 A 
ATOM     52  C   UNL A   1      46.830  30.516  27.756  1.00  0.00     0.049 A 
ATOM     53  C   UNL A   1      45.173  25.224  26.918  1.00  0.00     0.074 A 
ATOM     54  C   UNL A   1      48.167  30.792  27.525  1.00  0.00     0.029 A 
ATOM     55  N   UNL A   1      46.649  29.168  27.483  1.00  0.00    -0.354 N 
ATOM     56  N   UNL A   1      45.706  26.412  27.081  1.00  0.00    -0.248 NA
ATOM     57  C   UNL A   1      46.112  24.205  26.428  1.00  0.00     0.031 C 
ATOM     58  C   UNL A   1      48.788  29.616  27.087  1.00  0.00     0.029 A 
ATOM     59  C   UNL A   1      47.845  28.601  27.080  1.00  0.00     0.049 A 
ATOM     60  H   UNL A   1      45.794  28.685  27.564  1.00  0.00     0.167 HD
ATOM     61  C   UNL A   1      47.047  26.276  26.741  1.00  0.00     0.074 A 
ATOM     62  C   UNL A   1      47.247  24.888  26.373  1.00  0.00     0.031 C 
ATOM     63  C   UNL A   1      48.027  27.213  26.733  1.00  0.00     0.037 A 
BRANCH  50  64
ATOM     64  C   UNL A   1      46.145  32.854  28.431  1.00  0.00     0.058 A 
ATOM     65  C   UNL A   1      46.061  33.803  27.399  1.00  0.00     0.135 A 
ATOM     66  C   UNL A   1      46.544  33.302  29.700  1.00  0.00     0.135 A 
ATOM     67  F   UNL A   1      45.700  33.426  26.162  1.00  0.00    -0.206 F 
ATOM     68  C   UNL A   1      46.393  35.137  27.608  1.00  0.00     0.059 A 
ATOM     69  C   UNL A   1      46.855  34.639  29.939  1.00  0.00     0.059 A 
ATOM     70  F   UNL A   1      46.641  32.438  30.723  1.00  0.00    -0.206 F 
ATOM     71  C   UNL A   1      46.792  35.545  28.882  1.00  0.00     0.060 A 
BRANCH  71  72
ATOM     72  S   UNL A   1      47.220  37.280  29.137  1.00  0.00     0.124 S 
ATOM     73  O   UNL A   1      48.678  37.232  29.065  1.00  0.00    -0.237 OA
ATOM     74  O   UNL A   1      46.553  37.936  28.017  1.00  0.00    -0.237 OA
ATOM     75  O   UNL A   1      46.666  37.577  30.454  1.00  0.00    -0.744 OA
ENDBRANCH  71  72
ENDBRANCH  50  64
BRANCH  51  76
ATOM     76  C   UNL A   1      43.347  23.374  26.922  1.00  0.00     0.058 A 
ATOM     77  C   UNL A   1      43.121  22.495  27.992  1.00  0.00     0.135 A 
ATOM     78  C   UNL A   1      43.173  22.879  25.621  1.00  0.00     0.135 A 
ATOM     79  F   UNL A   1      43.278  22.921  29.254  1.00  0.00    -0.206 F 
ATOM     80  C   UNL A   1      42.757  21.169  27.782  1.00  0.00     0.059 A 
ATOM     81  C   UNL A   1      42.787  21.562  25.386  1.00  0.00     0.059 A 
ATOM     82  F   UNL A   1      43.360  23.684  24.564  1.00  0.00    -0.206 F 
ATOM     83  C   UNL A   1      42.594  20.711  26.473  1.00  0.00     0.060 A 
BRANCH  83  84
ATOM     84  S   UNL A   1      42.086  18.998  26.210  1.00  0.00     0.124 S 
ATOM     85  O   UNL A   1      43.026  18.569  25.181  1.00  0.00    -0.237 OA
ATOM     86  O   UNL A   1      42.276  18.411  27.534  1.00  0.00    -0.237 OA
ATOM     87  O   UNL A   1      40.695  19.124  25.783  1.00  0.00    -0.744 OA
ENDBRANCH  83  84
ENDBRANCH  51  76
BRANCH  63  88
ATOM     88  C   UNL A   1      49.409  26.766  26.354  1.00  0.00     0.058 A 
ATOM     89  C   UNL A   1      50.235  26.079  27.259  1.00  0.00     0.135 A 
ATOM     90  C   UNL A   1      49.894  26.982  25.055  1.00  0.00     0.135 A 
ATOM     91  F   UNL A   1      49.820  25.854  28.515  1.00  0.00    -0.206 F 
ATOM     92  C   UNL A   1      51.504  25.640  26.893  1.00  0.00     0.059 A 
ATOM     93  C   UNL A   1      51.149  26.531  24.659  1.00  0.00     0.059 A 
ATOM     94  F   UNL A   1      49.139  27.625  24.150  1.00  0.00    -0.206 F 
ATOM     95  C   UNL A   1      51.952  25.871  25.590  1.00  0.00     0.060 A 
BRANCH  95  96
ATOM     96  S   UNL A   1      53.584  25.265  25.115  1.00  0.00     0.124 S 
ATOM     97  O   UNL A   1      53.483  23.850  25.460  1.00  0.00    -0.237 OA
ATOM     98  O   UNL A   1      53.629  25.567  23.688  1.00  0.00    -0.237 OA
ATOM     99  O   UNL A   1      54.493  26.050  25.944  1.00  0.00    -0.744 OA
ENDBRANCH  95  96
ENDBRANCH  63  88
ENDBRANCH  37  38
ENDBRANCH  29  32
ENDBRANCH  27  28
ENDBRANCH   1  27
TORSDOF 16
ENDMDL
MODEL 3
REMARK VINA RESULT:     -12.0      4.696     10.603
REMARK SMILES C[NH+](C)Cc1ccccc1[C@H]1[NH2+][C@@H](C(=O)NCCCNC(=O)c2ccc(-c3c4nc(c(-c5c(F)cc(S(=O)(=O)[O-])cc5F)c5ccc([nH]5)c(-c5c(F)cc(S(=O)(=O)[O-])cc5F)c5nc(c(-c6c(F)cc(S(=O)(=O)[O-])cc6F)c6ccc3[nH]6)C=C5)C=C4)cc2)C(C)(C)S1
REMARK SMILES IDX 18 1 17 2 16 3 14 4 15 5 13 7 11 8 12 9 92 10 89 13 90 14
REMARK SMILES IDX 91 15 10 16 5 17 6 18 7 19 9 20 8 21 4 22 2 23 1 24 3 25
REMARK SMILES IDX 19 27 20 28 21 29 22 31 23 32 24 33 88 34 25 35 87 36 26 37
REMARK SMILES IDX 27 38 28 39 81 40 29 41 86 42 80 43 82 44 30 45 85 46 79 47
REMARK SMILES IDX 78 48 31 50 65 51 44 52 64 53 45 54 48 55 63 56 83 57 46 58
REMARK SMILES IDX 47 59 62 61 84 62 49 63 32 64 33 65 42 66 34 67 35 68 41 69
REMARK SMILES IDX 43 70 36 71 37 72 38 73 39 74 40 75 66 76 67 77 76 78 68 79
REMARK SMILES IDX 69 80 75 81 77 82 70 83 71 84 72 85 73 86 74 87 50 88 51 89
REMARK SMILES IDX 60 90 52 91 53 92 59 93 61 94 54 95 55 96 56 97 57 98 58 99
REMARK H PARENT 16 6 12 11 12 12 2 26 20 30 82 49 48 60
REMARK Flexibility Score: inf
ROOT
ATOM      1  C   UNL A   1      34.206  28.026  25.285  1.00  0.00     0.042 C 
ENDROOT
BRANCH   1   2
ATOM      2  C   UNL A   1      33.068  28.296  24.309  1.00  0.00     0.118 C 
BRANCH   2   3
ATOM      3  N   UNL A   1      33.081  27.400  23.161  1.00  0.00    -0.351 N 
ATOM      4  C   UNL A   1      32.912  26.067  22.971  1.00  0.00     0.279 C 
ATOM      5  O   UNL A   1      32.995  25.693  21.791  1.00  0.00    -0.268 OA
ATOM      6  H   UNL A   1      33.255  27.877  22.319  1.00  0.00     0.163 HD
BRANCH   4   7
ATOM      7  C   UNL A   1      32.716  25.003  24.068  1.00  0.00     0.289 C 
ATOM      8  C   UNL A   1      33.091  22.843  24.940  1.00  0.00     0.275 C 
ATOM      9  N   UNL A   1      33.502  23.758  23.867  1.00  0.00    -0.320 N 
ATOM     10  S   UNL A   1      31.365  23.144  25.363  1.00  0.00    -0.081 SA
ATOM     11  H   UNL A   1      33.293  23.351  22.956  1.00  0.00     0.348 HD
ATOM     12  H   UNL A   1      34.505  23.940  23.896  1.00  0.00     0.348 HD
ATOM     13  C   UNL A   1      31.236  24.697  24.391  1.00  0.00     0.077 C 
ATOM     14  C   UNL A   1      30.325  24.446  23.192  1.00  0.00     0.030 C 
ATOM     15  C   UNL A   1      30.604  25.783  25.268  1.00  0.00     0.030 C 
BRANCH   8  16
ATOM     16  C   UNL A   1      33.459  21.379  24.692  1.00  0.00     0.029 A 
ATOM     17  C   UNL A   1      34.666  20.716  25.061  1.00  0.00     0.016 A 
ATOM     18  C   UNL A   1      34.755  19.320  24.850  1.00  0.00     0.010 A 
ATOM     19  C   UNL A   1      33.742  18.593  24.231  1.00  0.00     0.001 A 
ATOM     20  C   UNL A   1      32.449  20.607  24.059  1.00  0.00     0.011 A 
ATOM     21  C   UNL A   1      32.590  19.241  23.824  1.00  0.00     0.001 A 
BRANCH  17  22
ATOM     22  C   UNL A   1      35.855  21.368  25.753  1.00  0.00     0.299 C 
BRANCH  22  23
ATOM     23  N   UNL A   1      36.963  21.900  24.952  1.00  0.00    -0.336 N 
ATOM     24  C   UNL A   1      36.857  23.300  24.577  1.00  0.00     0.332 C 
ATOM     25  C   UNL A   1      38.286  21.586  25.468  1.00  0.00     0.332 C 
ATOM     26  H   UNL A   1      36.852  21.380  24.081  1.00  0.00     0.347 HD
ENDBRANCH  22  23
ENDBRANCH  17  22
ENDBRANCH   8  16
ENDBRANCH   4   7
ENDBRANCH   2   3
ENDBRANCH   1   2
BRANCH   1  27
ATOM     27  C   UNL A   1      33.810  28.164  26.747  1.00  0.00     0.118 C 
BRANCH  27  28
ATOM     28  N   UNL A   1      33.615  29.553  27.130  1.00  0.00    -0.352 N 
ATOM     29  C   UNL A   1      34.420  30.389  27.866  1.00  0.00     0.251 C 
ATOM     30  H   UNL A   1      32.774  29.957  26.815  1.00  0.00     0.163 HD
ATOM     31  O   UNL A   1      33.954  31.445  28.287  1.00  0.00    -0.269 OA
BRANCH  29  32
ATOM     32  C   UNL A   1      35.827  30.029  28.164  1.00  0.00     0.039 A 
ATOM     33  C   UNL A   1      36.151  29.572  29.445  1.00  0.00     0.014 A 
ATOM     34  C   UNL A   1      36.838  30.191  27.213  1.00  0.00     0.014 A 
ATOM     35  C   UNL A   1      37.473  29.234  29.752  1.00  0.00     0.010 A 
ATOM     36  C   UNL A   1      38.135  29.768  27.491  1.00  0.00     0.010 A 
ATOM     37  C   UNL A   1      38.474  29.305  28.770  1.00  0.00    -0.014 A 
BRANCH  37  38
ATOM     38  C   UNL A   1      39.885  28.947  29.073  1.00  0.00     0.031 A 
ATOM     39  C   UNL A   1      40.794  29.958  29.726  1.00  0.00     0.074 A 
ATOM     40  C   UNL A   1      40.365  27.739  28.718  1.00  0.00     0.049 A 
ATOM     41  N   UNL A   1      42.069  29.868  30.003  1.00  0.00    -0.248 NA
ATOM     42  C   UNL A   1      40.194  31.252  30.091  1.00  0.00     0.031 C 
ATOM     43  C   UNL A   1      39.601  26.689  28.040  1.00  0.00     0.029 A 
ATOM     44  N   UNL A   1      41.614  27.191  28.873  1.00  0.00    -0.354 N 
ATOM     45  C   UNL A   1      42.426  31.093  30.555  1.00  0.00     0.074 A 
ATOM     46  C   UNL A   1      41.248  31.930  30.522  1.00  0.00     0.031 C 
ATOM     47  C   UNL A   1      40.391  25.617  27.861  1.00  0.00     0.029 A 
ATOM     48  C   UNL A   1      41.723  25.913  28.378  1.00  0.00     0.049 A 
ATOM     49  H   UNL A   1      42.362  27.669  29.299  1.00  0.00     0.167 HD
ATOM     50  C   UNL A   1      43.618  31.478  31.070  1.00  0.00     0.037 A 
ATOM     51  C   UNL A   1      42.777  25.075  28.344  1.00  0.00     0.037 A 
ATOM     52  C   UNL A   1      44.779  30.631  31.137  1.00  0.00     0.049 A 
ATOM     53  C   UNL A   1      44.089  25.520  28.934  1.00  0.00     0.074 A 
ATOM     54  C   UNL A   1      46.021  30.911  31.679  1.00  0.00     0.029 A 
ATOM     55  N   UNL A   1      44.838  29.332  30.653  1.00  0.00    -0.354 N 
ATOM     56  N   UNL A   1      44.394  26.668  29.491  1.00  0.00    -0.248 NA
ATOM     57  C   UNL A   1      45.197  24.556  28.895  1.00  0.00     0.031 C 
ATOM     58  C   UNL A   1      46.840  29.790  31.498  1.00  0.00     0.029 A 
ATOM     59  C   UNL A   1      46.096  28.800  30.877  1.00  0.00     0.049 A 
ATOM     60  H   UNL A   1      44.095  28.858  30.213  1.00  0.00     0.167 HD
ATOM     61  C   UNL A   1      45.719  26.553  29.896  1.00  0.00     0.074 A 
ATOM     62  C   UNL A   1      46.154  25.220  29.527  1.00  0.00     0.031 C 
ATOM     63  C   UNL A   1      46.506  27.466  30.516  1.00  0.00     0.037 A 
BRANCH  50  64
ATOM     64  C   UNL A   1      43.718  32.874  31.621  1.00  0.00     0.058 A 
ATOM     65  C   UNL A   1      43.553  33.136  32.991  1.00  0.00     0.135 A 
ATOM     66  C   UNL A   1      44.007  33.960  30.779  1.00  0.00     0.135 A 
ATOM     67  F   UNL A   1      43.259  32.137  33.839  1.00  0.00    -0.206 F 
ATOM     68  C   UNL A   1      43.636  34.426  33.501  1.00  0.00     0.059 A 
ATOM     69  C   UNL A   1      44.122  35.257  31.272  1.00  0.00     0.059 A 
ATOM     70  F   UNL A   1      44.175  33.767  29.460  1.00  0.00    -0.206 F 
ATOM     71  C   UNL A   1      43.919  35.482  32.633  1.00  0.00     0.060 A 
BRANCH  71  72
ATOM     72  S   UNL A   1      44.023  37.152  33.310  1.00  0.00     0.124 S 
ATOM     73  O   UNL A   1      44.222  37.944  32.099  1.00  0.00    -0.237 OA
ATOM     74  O   UNL A   1      42.728  37.308  33.963  1.00  0.00    -0.237 OA
ATOM     75  O   UNL A   1      45.170  37.083  34.209  1.00  0.00    -0.744 OA
ENDBRANCH  71  72
ENDBRANCH  50  64
BRANCH  51  76
ATOM     76  C   UNL A   1      42.632  23.717  27.756  1.00  0.00     0.058 A 
ATOM     77  C   UNL A   1      42.398  22.601  28.574  1.00  0.00     0.135 A 
ATOM     78  C   UNL A   1      42.722  23.506  26.372  1.00  0.00     0.135 A 
ATOM     79  F   UNL A   1      42.308  22.751  29.903  1.00  0.00    -0.206 F 
ATOM     80  C   UNL A   1      42.280  21.320  28.043  1.00  0.00     0.059 A 
ATOM     81  C   UNL A   1      42.584  22.238  25.815  1.00  0.00     0.059 A 
ATOM     82  F   UNL A   1      42.928  24.544  25.545  1.00  0.00    -0.206 F 
ATOM     83  C   UNL A   1      42.376  21.149  26.661  1.00  0.00     0.060 A 
BRANCH  83  84
ATOM     84  S   UNL A   1      42.184  19.489  25.977  1.00  0.00     0.124 S 
ATOM     85  O   UNL A   1      42.707  18.664  27.061  1.00  0.00    -0.237 OA
ATOM     86  O   UNL A   1      40.743  19.411  25.752  1.00  0.00    -0.237 OA
ATOM     87  O   UNL A   1      42.998  19.531  24.765  1.00  0.00    -0.744 OA
ENDBRANCH  83  84
ENDBRANCH  51  76
BRANCH  63  88
ATOM     88  C   UNL A   1      47.903  27.046  30.873  1.00  0.00     0.058 A 
ATOM     89  C   UNL A   1      48.189  26.391  32.080  1.00  0.00     0.135 A 
ATOM     90  C   UNL A   1      48.959  27.258  29.972  1.00  0.00     0.135 A 
ATOM     91  F   UNL A   1      47.216  26.172  32.977  1.00  0.00    -0.206 F 
ATOM     92  C   UNL A   1      49.481  25.978  32.392  1.00  0.00     0.059 A 
ATOM     93  C   UNL A   1      50.253  26.831  30.252  1.00  0.00     0.059 A 
ATOM     94  F   UNL A   1      48.734  27.871  28.799  1.00  0.00    -0.206 F 
ATOM     95  C   UNL A   1      50.506  26.202  31.471  1.00  0.00     0.060 A 
BRANCH  95  96
ATOM     96  S   UNL A   1      52.171  25.629  31.869  1.00  0.00     0.124 S 
ATOM     97  O   UNL A   1      52.512  26.484  33.002  1.00  0.00    -0.237 OA
ATOM     98  O   UNL A   1      51.952  24.220  32.182  1.00  0.00    -0.237 OA
ATOM     99  O   UNL A   1      52.920  25.882  30.643  1.00  0.00    -0.744 OA
ENDBRANCH  95  96
ENDBRANCH  63  88
ENDBRANCH  37  38
ENDBRANCH  29  32
ENDBRANCH  27  28
ENDBRANCH   1  27
TORSDOF 16
ENDMDL
