MODEL 1
REMARK VINA RESULT:     -13.3      0.000      0.000
REMARK SMILES Cc1cccc(-c2cc(OCC(=O)NCCCNC(=O)c3ccc(-c4c5nc(c(-c6c(F)cc(S(=O)(=O)[O-])cc6F)c6ccc([nH]6)c(-c6c(F)cc(S(=O)(=O)[O-])cc6F)c6nc(c(-c7c(F)cc(S(=O)(=O)[O-])cc7F)c7ccc4[nH]7)C=C6)C=C5)cc3)ncn2)c1
REMARK SMILES IDX 16 1 15 2 14 3 12 4 13 5 11 7 10 8 9 9 7 10 8 11 89 12 88 13
REMARK SMILES IDX 87 14 6 15 1 16 2 17 3 18 90 19 4 20 5 21 17 22 18 23 19 24
REMARK SMILES IDX 20 26 21 27 22 28 86 29 23 30 85 31 24 32 25 33 26 34 79 35
REMARK SMILES IDX 27 36 84 37 78 38 80 39 28 40 83 41 77 42 76 43 29 45 63 46
REMARK SMILES IDX 42 47 62 48 43 49 46 50 61 51 81 52 44 53 45 54 60 56 82 57
REMARK SMILES IDX 47 58 30 59 31 60 40 61 32 62 33 63 39 64 41 65 34 66 35 67
REMARK SMILES IDX 36 68 37 69 38 70 64 71 65 72 74 73 66 74 67 75 73 76 75 77
REMARK SMILES IDX 68 78 69 79 70 80 71 81 72 82 48 83 49 84 58 85 50 86 51 87
REMARK SMILES IDX 57 88 59 89 52 90 53 91 54 92 55 93 56 94
REMARK H PARENT 14 6 18 25 80 44 46 55
REMARK Flexibility Score: inf
ROOT
ATOM      1  C   UNL A   1      34.063  28.853  26.315  1.00  0.00     0.042 C 
ENDROOT
BRANCH   1   2
ATOM      2  C   UNL A   1      32.904  29.087  25.353  1.00  0.00     0.117 C 
BRANCH   2   3
ATOM      3  N   UNL A   1      32.811  28.080  24.303  1.00  0.00    -0.353 N 
ATOM      4  C   UNL A   1      31.954  27.025  24.195  1.00  0.00     0.258 C 
ATOM      5  O   UNL A   1      31.994  26.316  23.186  1.00  0.00    -0.271 OA
ATOM      6  H   UNL A   1      33.458  28.176  23.567  1.00  0.00     0.163 HD
BRANCH   4   7
ATOM      7  C   UNL A   1      30.945  26.735  25.313  1.00  0.00     0.331 C 
BRANCH   7   8
ATOM      8  O   UNL A   1      31.480  26.277  26.542  1.00  0.00    -0.467 OA
BRANCH   8   9
ATOM      9  C   UNL A   1      32.070  25.046  26.575  1.00  0.00     0.217 A 
ATOM     10  C   UNL A   1      33.769  23.446  26.284  1.00  0.00     0.077 A 
ATOM     11  C   UNL A   1      33.345  24.756  26.149  1.00  0.00     0.097 A 
ATOM     12  N   UNL A   1      32.970  22.474  26.765  1.00  0.00    -0.236 NA
ATOM     13  C   UNL A   1      31.751  22.864  27.157  1.00  0.00     0.226 A 
ATOM     14  N   UNL A   1      31.255  24.104  27.079  1.00  0.00    -0.202 NA
BRANCH  10  15
ATOM     15  C   UNL A   1      35.133  23.048  25.912  1.00  0.00     0.001 A 
ATOM     16  C   UNL A   1      37.010  19.883  24.868  1.00  0.00     0.044 C 
ATOM     17  C   UNL A   1      36.722  21.308  25.240  1.00  0.00    -0.050 A 
ATOM     18  C   UNL A   1      37.755  22.250  25.271  1.00  0.00     0.003 A 
ATOM     19  C   UNL A   1      35.422  21.713  25.568  1.00  0.00     0.013 A 
ATOM     20  C   UNL A   1      37.487  23.579  25.598  1.00  0.00     0.001 A 
ATOM     21  C   UNL A   1      36.184  23.977  25.906  1.00  0.00     0.010 A 
ENDBRANCH  10  15
ENDBRANCH   8   9
ENDBRANCH   7   8
ENDBRANCH   4   7
ENDBRANCH   2   3
ENDBRANCH   1   2
BRANCH   1  22
ATOM     22  C   UNL A   1      34.229  29.955  27.347  1.00  0.00     0.118 C 
BRANCH  22  23
ATOM     23  N   UNL A   1      35.330  30.879  27.113  1.00  0.00    -0.352 N 
ATOM     24  C   UNL A   1      36.244  31.093  28.155  1.00  0.00     0.251 C 
ATOM     25  H   UNL A   1      35.430  31.340  26.250  1.00  0.00     0.163 HD
ATOM     26  O   UNL A   1      36.223  32.009  28.920  1.00  0.00    -0.269 OA
BRANCH  24  27
ATOM     27  C   UNL A   1      37.147  29.925  28.356  1.00  0.00     0.039 A 
ATOM     28  C   UNL A   1      37.153  29.206  29.550  1.00  0.00     0.014 A 
ATOM     29  C   UNL A   1      38.131  29.727  27.388  1.00  0.00     0.014 A 
ATOM     30  C   UNL A   1      38.233  28.363  29.827  1.00  0.00     0.010 A 
ATOM     31  C   UNL A   1      39.235  28.966  27.701  1.00  0.00     0.010 A 
ATOM     32  C   UNL A   1      39.301  28.297  28.929  1.00  0.00    -0.014 A 
BRANCH  32  33
ATOM     33  C   UNL A   1      40.579  27.643  29.193  1.00  0.00     0.031 A 
ATOM     34  C   UNL A   1      40.834  26.253  28.739  1.00  0.00     0.074 A 
ATOM     35  C   UNL A   1      41.610  28.382  29.657  1.00  0.00     0.049 A 
ATOM     36  N   UNL A   1      41.794  25.509  29.184  1.00  0.00    -0.248 NA
ATOM     37  C   UNL A   1      40.004  25.581  27.745  1.00  0.00     0.031 C 
ATOM     38  C   UNL A   1      43.032  28.067  29.554  1.00  0.00     0.029 A 
ATOM     39  N   UNL A   1      41.566  29.512  30.469  1.00  0.00    -0.354 N 
ATOM     40  C   UNL A   1      41.892  24.417  28.353  1.00  0.00     0.074 A 
ATOM     41  C   UNL A   1      40.718  24.475  27.510  1.00  0.00     0.031 C 
ATOM     42  C   UNL A   1      43.711  28.818  30.435  1.00  0.00     0.029 A 
ATOM     43  C   UNL A   1      42.734  29.518  31.250  1.00  0.00     0.049 A 
ATOM     44  H   UNL A   1      40.847  30.183  30.493  1.00  0.00     0.167 HD
ATOM     45  C   UNL A   1      43.021  23.652  28.355  1.00  0.00     0.037 A 
ATOM     46  C   UNL A   1      42.671  29.433  32.613  1.00  0.00     0.037 A 
ATOM     47  C   UNL A   1      44.002  24.135  29.323  1.00  0.00     0.049 A 
ATOM     48  C   UNL A   1      43.333  28.201  33.186  1.00  0.00     0.074 A 
ATOM     49  C   UNL A   1      45.116  24.948  29.190  1.00  0.00     0.029 A 
ATOM     50  N   UNL A   1      43.737  24.052  30.686  1.00  0.00    -0.354 N 
ATOM     51  N   UNL A   1      43.641  27.143  32.488  1.00  0.00    -0.248 NA
ATOM     52  C   UNL A   1      43.692  28.058  34.595  1.00  0.00     0.031 C 
ATOM     53  C   UNL A   1      45.496  25.393  30.478  1.00  0.00     0.029 A 
ATOM     54  C   UNL A   1      44.617  24.846  31.397  1.00  0.00     0.049 A 
ATOM     55  H   UNL A   1      43.024  23.504  31.087  1.00  0.00     0.167 HD
ATOM     56  C   UNL A   1      44.180  26.188  33.311  1.00  0.00     0.074 A 
ATOM     57  C   UNL A   1      44.219  26.821  34.614  1.00  0.00     0.031 C 
ATOM     58  C   UNL A   1      44.541  24.953  32.846  1.00  0.00     0.037 A 
BRANCH  45  59
ATOM     59  C   UNL A   1      43.332  22.673  27.242  1.00  0.00     0.058 A 
ATOM     60  C   UNL A   1      42.670  21.430  27.151  1.00  0.00     0.135 A 
ATOM     61  C   UNL A   1      44.325  22.889  26.266  1.00  0.00     0.135 A 
ATOM     62  F   UNL A   1      41.644  21.117  27.952  1.00  0.00    -0.206 F 
ATOM     63  C   UNL A   1      43.044  20.435  26.246  1.00  0.00     0.059 A 
ATOM     64  C   UNL A   1      44.753  21.891  25.383  1.00  0.00     0.059 A 
ATOM     65  F   UNL A   1      44.906  24.093  26.132  1.00  0.00    -0.206 F 
ATOM     66  C   UNL A   1      44.113  20.658  25.391  1.00  0.00     0.060 A 
BRANCH  66  67
ATOM     67  S   UNL A   1      44.662  19.309  24.327  1.00  0.00     0.124 S 
ATOM     68  O   UNL A   1      46.064  19.162  24.709  1.00  0.00    -0.237 OA
ATOM     69  O   UNL A   1      43.778  18.224  24.735  1.00  0.00    -0.237 OA
ATOM     70  O   UNL A   1      44.442  19.829  22.981  1.00  0.00    -0.744 OA
ENDBRANCH  66  67
ENDBRANCH  45  59
BRANCH  46  71
ATOM     71  C   UNL A   1      41.476  30.118  33.180  1.00  0.00     0.058 A 
ATOM     72  C   UNL A   1      41.515  31.523  33.249  1.00  0.00     0.135 A 
ATOM     73  C   UNL A   1      40.217  29.501  33.159  1.00  0.00     0.135 A 
ATOM     74  F   UNL A   1      42.696  32.160  33.300  1.00  0.00    -0.206 F 
ATOM     75  C   UNL A   1      40.367  32.291  33.095  1.00  0.00     0.059 A 
ATOM     76  C   UNL A   1      39.049  30.254  33.015  1.00  0.00     0.059 A 
ATOM     77  F   UNL A   1      40.118  28.164  33.112  1.00  0.00    -0.206 F 
ATOM     78  C   UNL A   1      39.151  31.641  32.891  1.00  0.00     0.060 A 
BRANCH  78  79
ATOM     79  S   UNL A   1      37.763  32.624  32.271  1.00  0.00     0.124 S 
ATOM     80  O   UNL A   1      37.490  33.511  33.396  1.00  0.00    -0.237 OA
ATOM     81  O   UNL A   1      38.348  33.263  31.089  1.00  0.00    -0.237 OA
ATOM     82  O   UNL A   1      36.740  31.624  31.994  1.00  0.00    -0.744 OA
ENDBRANCH  78  79
ENDBRANCH  46  71
BRANCH  58  83
ATOM     83  C   UNL A   1      44.965  23.776  33.692  1.00  0.00     0.058 A 
ATOM     84  C   UNL A   1      44.106  22.732  34.075  1.00  0.00     0.135 A 
ATOM     85  C   UNL A   1      46.326  23.601  34.046  1.00  0.00     0.135 A 
ATOM     86  F   UNL A   1      42.819  22.716  33.698  1.00  0.00    -0.206 F 
ATOM     87  C   UNL A   1      44.542  21.636  34.823  1.00  0.00     0.059 A 
ATOM     88  C   UNL A   1      46.794  22.490  34.743  1.00  0.00     0.059 A 
ATOM     89  F   UNL A   1      47.258  24.507  33.712  1.00  0.00    -0.206 F 
ATOM     90  C   UNL A   1      45.888  21.524  35.154  1.00  0.00     0.060 A 
BRANCH  90  91
ATOM     91  S   UNL A   1      46.477  20.089  36.073  1.00  0.00     0.124 S 
ATOM     92  O   UNL A   1      45.814  20.274  37.359  1.00  0.00    -0.237 OA
ATOM     93  O   UNL A   1      45.993  18.966  35.274  1.00  0.00    -0.237 OA
ATOM     94  O   UNL A   1      47.925  20.269  36.073  1.00  0.00    -0.744 OA
ENDBRANCH  90  91
ENDBRANCH  58  83
ENDBRANCH  32  33
ENDBRANCH  24  27
ENDBRANCH  22  23
ENDBRANCH   1  22
TORSDOF 16
ENDMDL
MODEL 2
REMARK VINA RESULT:     -13.2      1.976      4.219
REMARK SMILES Cc1cccc(-c2cc(OCC(=O)NCCCNC(=O)c3ccc(-c4c5nc(c(-c6c(F)cc(S(=O)(=O)[O-])cc6F)c6ccc([nH]6)c(-c6c(F)cc(S(=O)(=O)[O-])cc6F)c6nc(c(-c7c(F)cc(S(=O)(=O)[O-])cc7F)c7ccc4[nH]7)C=C6)C=C5)cc3)ncn2)c1
REMARK SMILES IDX 16 1 15 2 14 3 12 4 13 5 11 7 10 8 9 9 7 10 8 11 89 12 88 13
REMARK SMILES IDX 87 14 6 15 1 16 2 17 3 18 90 19 4 20 5 21 17 22 18 23 19 24
REMARK SMILES IDX 20 26 21 27 22 28 86 29 23 30 85 31 24 32 25 33 26 34 79 35
REMARK SMILES IDX 27 36 84 37 78 38 80 39 28 40 83 41 77 42 76 43 29 45 63 46
REMARK SMILES IDX 42 47 62 48 43 49 46 50 61 51 81 52 44 53 45 54 60 56 82 57
REMARK SMILES IDX 47 58 30 59 31 60 40 61 32 62 33 63 39 64 41 65 34 66 35 67
REMARK SMILES IDX 36 68 37 69 38 70 64 71 65 72 74 73 66 74 67 75 73 76 75 77
REMARK SMILES IDX 68 78 69 79 70 80 71 81 72 82 48 83 49 84 58 85 50 86 51 87
REMARK SMILES IDX 57 88 59 89 52 90 53 91 54 92 55 93 56 94
REMARK H PARENT 14 6 18 25 80 44 46 55
REMARK Flexibility Score: inf
ROOT
ATOM      1  C   UNL A   1      32.822  30.244  27.040  1.00  0.00     0.042 C 
ENDROOT
BRANCH   1   2
ATOM      2  C   UNL A   1      32.253  29.742  25.718  1.00  0.00     0.117 C 
BRANCH   2   3
ATOM      3  N   UNL A   1      33.270  29.510  24.701  1.00  0.00    -0.353 N 
ATOM      4  C   UNL A   1      33.588  28.356  24.048  1.00  0.00     0.258 C 
ATOM      5  O   UNL A   1      34.449  28.380  23.164  1.00  0.00    -0.271 OA
ATOM      6  H   UNL A   1      33.803  30.299  24.448  1.00  0.00     0.163 HD
BRANCH   4   7
ATOM      7  C   UNL A   1      32.872  27.047  24.405  1.00  0.00     0.331 C 
BRANCH   7   8
ATOM      8  O   UNL A   1      31.962  26.544  23.444  1.00  0.00    -0.467 OA
BRANCH   8   9
ATOM      9  C   UNL A   1      30.736  27.137  23.338  1.00  0.00     0.217 A 
ATOM     10  C   UNL A   1      29.179  28.825  22.831  1.00  0.00     0.077 A 
ATOM     11  C   UNL A   1      30.499  28.412  22.881  1.00  0.00     0.097 A 
ATOM     12  N   UNL A   1      28.162  28.046  23.248  1.00  0.00    -0.236 NA
ATOM     13  C   UNL A   1      28.501  26.822  23.668  1.00  0.00     0.226 A 
ATOM     14  N   UNL A   1      29.743  26.328  23.743  1.00  0.00    -0.202 NA
BRANCH  10  15
ATOM     15  C   UNL A   1      28.817  30.147  22.304  1.00  0.00     0.001 A 
ATOM     16  C   UNL A   1      29.092  33.818  23.342  1.00  0.00     0.044 C 
ATOM     17  C   UNL A   1      28.754  32.584  22.558  1.00  0.00    -0.050 A 
ATOM     18  C   UNL A   1      28.063  32.685  21.347  1.00  0.00     0.003 A 
ATOM     19  C   UNL A   1      29.118  31.315  23.030  1.00  0.00     0.013 A 
ATOM     20  C   UNL A   1      27.766  31.540  20.608  1.00  0.00     0.001 A 
ATOM     21  C   UNL A   1      28.149  30.282  21.078  1.00  0.00     0.010 A 
ENDBRANCH  10  15
ENDBRANCH   8   9
ENDBRANCH   7   8
ENDBRANCH   4   7
ENDBRANCH   2   3
ENDBRANCH   1   2
BRANCH   1  22
ATOM     22  C   UNL A   1      34.214  29.718  27.342  1.00  0.00     0.118 C 
BRANCH  22  23
ATOM     23  N   UNL A   1      35.294  30.689  27.230  1.00  0.00    -0.352 N 
ATOM     24  C   UNL A   1      36.143  30.862  28.334  1.00  0.00     0.251 C 
ATOM     25  H   UNL A   1      35.425  31.210  26.405  1.00  0.00     0.163 HD
ATOM     26  O   UNL A   1      36.049  31.725  29.153  1.00  0.00    -0.269 OA
BRANCH  24  27
ATOM     27  C   UNL A   1      37.072  29.712  28.509  1.00  0.00     0.039 A 
ATOM     28  C   UNL A   1      37.133  29.001  29.707  1.00  0.00     0.014 A 
ATOM     29  C   UNL A   1      38.026  29.525  27.509  1.00  0.00     0.014 A 
ATOM     30  C   UNL A   1      38.237  28.179  29.951  1.00  0.00     0.010 A 
ATOM     31  C   UNL A   1      39.153  28.786  27.788  1.00  0.00     0.010 A 
ATOM     32  C   UNL A   1      39.275  28.127  29.017  1.00  0.00    -0.014 A 
BRANCH  32  33
ATOM     33  C   UNL A   1      40.573  27.497  29.240  1.00  0.00     0.031 A 
ATOM     34  C   UNL A   1      40.842  26.114  28.773  1.00  0.00     0.074 A 
ATOM     35  C   UNL A   1      41.602  28.255  29.675  1.00  0.00     0.049 A 
ATOM     36  N   UNL A   1      41.828  25.388  29.186  1.00  0.00    -0.248 NA
ATOM     37  C   UNL A   1      39.995  25.429  27.802  1.00  0.00     0.031 C 
ATOM     38  C   UNL A   1      43.026  27.969  29.529  1.00  0.00     0.029 A 
ATOM     39  N   UNL A   1      41.560  29.381  30.493  1.00  0.00    -0.354 N 
ATOM     40  C   UNL A   1      41.924  24.300  28.348  1.00  0.00     0.074 A 
ATOM     41  C   UNL A   1      40.724  24.338  27.541  1.00  0.00     0.031 C 
ATOM     42  C   UNL A   1      43.717  28.731  30.392  1.00  0.00     0.029 A 
ATOM     43  C   UNL A   1      42.751  29.408  31.239  1.00  0.00     0.049 A 
ATOM     44  H   UNL A   1      40.829  30.037  30.541  1.00  0.00     0.167 HD
ATOM     45  C   UNL A   1      43.067  23.558  28.314  1.00  0.00     0.037 A 
ATOM     46  C   UNL A   1      42.731  29.317  32.603  1.00  0.00     0.037 A 
ATOM     47  C   UNL A   1      44.066  24.058  29.254  1.00  0.00     0.049 A 
ATOM     48  C   UNL A   1      43.434  28.097  33.151  1.00  0.00     0.074 A 
ATOM     49  C   UNL A   1      45.160  24.893  29.091  1.00  0.00     0.029 A 
ATOM     50  N   UNL A   1      43.844  23.965  30.623  1.00  0.00    -0.354 N 
ATOM     51  N   UNL A   1      43.741  27.048  32.440  1.00  0.00    -0.248 NA
ATOM     52  C   UNL A   1      43.838  27.957  34.548  1.00  0.00     0.031 C 
ATOM     53  C   UNL A   1      45.569  25.341  30.368  1.00  0.00     0.029 A 
ATOM     54  C   UNL A   1      44.730  24.774  31.311  1.00  0.00     0.049 A 
ATOM     55  H   UNL A   1      43.155  23.401  31.044  1.00  0.00     0.167 HD
ATOM     56  C   UNL A   1      44.324  26.100  33.242  1.00  0.00     0.074 A 
ATOM     57  C   UNL A   1      44.390  26.730  34.546  1.00  0.00     0.031 C 
ATOM     58  C   UNL A   1      44.695  24.875  32.763  1.00  0.00     0.037 A 
BRANCH  45  59
ATOM     59  C   UNL A   1      43.364  22.589  27.188  1.00  0.00     0.058 A 
ATOM     60  C   UNL A   1      42.727  21.332  27.114  1.00  0.00     0.135 A 
ATOM     61  C   UNL A   1      44.320  22.830  26.182  1.00  0.00     0.135 A 
ATOM     62  F   UNL A   1      41.734  20.995  27.947  1.00  0.00    -0.206 F 
ATOM     63  C   UNL A   1      43.093  20.348  26.195  1.00  0.00     0.059 A 
ATOM     64  C   UNL A   1      44.741  21.844  25.282  1.00  0.00     0.059 A 
ATOM     65  F   UNL A   1      44.869  24.046  26.033  1.00  0.00    -0.206 F 
ATOM     66  C   UNL A   1      44.130  20.597  25.307  1.00  0.00     0.060 A 
BRANCH  66  67
ATOM     67  S   UNL A   1      44.674  19.263  24.221  1.00  0.00     0.124 S 
ATOM     68  O   UNL A   1      46.065  19.080  24.625  1.00  0.00    -0.237 OA
ATOM     69  O   UNL A   1      43.762  18.186  24.586  1.00  0.00    -0.237 OA
ATOM     70  O   UNL A   1      44.489  19.819  22.884  1.00  0.00    -0.744 OA
ENDBRANCH  66  67
ENDBRANCH  45  59
BRANCH  46  71
ATOM     71  C   UNL A   1      41.540  29.976  33.208  1.00  0.00     0.058 A 
ATOM     72  C   UNL A   1      41.568  31.379  33.314  1.00  0.00     0.135 A 
ATOM     73  C   UNL A   1      40.285  29.349  33.191  1.00  0.00     0.135 A 
ATOM     74  F   UNL A   1      42.745  32.024  33.362  1.00  0.00    -0.206 F 
ATOM     75  C   UNL A   1      40.411  32.141  33.200  1.00  0.00     0.059 A 
ATOM     76  C   UNL A   1      39.109  30.096  33.087  1.00  0.00     0.059 A 
ATOM     77  F   UNL A   1      40.197  28.013  33.109  1.00  0.00    -0.206 F 
ATOM     78  C   UNL A   1      39.198  31.487  32.998  1.00  0.00     0.060 A 
BRANCH  78  79
ATOM     79  S   UNL A   1      37.791  32.475  32.429  1.00  0.00     0.124 S 
ATOM     80  O   UNL A   1      36.715  31.491  32.408  1.00  0.00    -0.237 OA
ATOM     81  O   UNL A   1      37.695  33.496  33.477  1.00  0.00    -0.237 OA
ATOM     82  O   UNL A   1      38.227  32.961  31.127  1.00  0.00    -0.744 OA
ENDBRANCH  78  79
ENDBRANCH  46  71
BRANCH  58  83
ATOM     83  C   UNL A   1      45.167  23.704  33.591  1.00  0.00     0.058 A 
ATOM     84  C   UNL A   1      46.489  23.538  34.037  1.00  0.00     0.135 A 
ATOM     85  C   UNL A   1      44.238  22.750  34.078  1.00  0.00     0.135 A 
ATOM     86  F   UNL A   1      47.440  24.438  33.748  1.00  0.00    -0.206 F 
ATOM     87  C   UNL A   1      46.882  22.463  34.838  1.00  0.00     0.059 A 
ATOM     88  C   UNL A   1      44.598  21.703  34.923  1.00  0.00     0.059 A 
ATOM     89  F   UNL A   1      42.937  22.812  33.757  1.00  0.00    -0.206 F 
ATOM     90  C   UNL A   1      45.930  21.549  35.275  1.00  0.00     0.060 A 
BRANCH  90  91
ATOM     91  S   UNL A   1      46.411  20.187  36.354  1.00  0.00     0.124 S 
ATOM     92  O   UNL A   1      45.731  19.061  35.723  1.00  0.00    -0.237 OA
ATOM     93  O   UNL A   1      47.868  20.181  36.245  1.00  0.00    -0.237 OA
ATOM     94  O   UNL A   1      45.890  20.596  37.654  1.00  0.00    -0.744 OA
ENDBRANCH  90  91
ENDBRANCH  58  83
ENDBRANCH  32  33
ENDBRANCH  24  27
ENDBRANCH  22  23
ENDBRANCH   1  22
TORSDOF 16
ENDMDL
MODEL 3
REMARK VINA RESULT:     -13.2      1.245      1.834
REMARK SMILES Cc1cccc(-c2cc(OCC(=O)NCCCNC(=O)c3ccc(-c4c5nc(c(-c6c(F)cc(S(=O)(=O)[O-])cc6F)c6ccc([nH]6)c(-c6c(F)cc(S(=O)(=O)[O-])cc6F)c6nc(c(-c7c(F)cc(S(=O)(=O)[O-])cc7F)c7ccc4[nH]7)C=C6)C=C5)cc3)ncn2)c1
REMARK SMILES IDX 16 1 15 2 14 3 12 4 13 5 11 7 10 8 9 9 7 10 8 11 89 12 88 13
REMARK SMILES IDX 87 14 6 15 1 16 2 17 3 18 90 19 4 20 5 21 17 22 18 23 19 24
REMARK SMILES IDX 20 26 21 27 22 28 86 29 23 30 85 31 24 32 25 33 26 34 79 35
REMARK SMILES IDX 27 36 84 37 78 38 80 39 28 40 83 41 77 42 76 43 29 45 63 46
REMARK SMILES IDX 42 47 62 48 43 49 46 50 61 51 81 52 44 53 45 54 60 56 82 57
REMARK SMILES IDX 47 58 30 59 31 60 40 61 32 62 33 63 39 64 41 65 34 66 35 67
REMARK SMILES IDX 36 68 37 69 38 70 64 71 65 72 74 73 66 74 67 75 73 76 75 77
REMARK SMILES IDX 68 78 69 79 70 80 71 81 72 82 48 83 49 84 58 85 50 86 51 87
REMARK SMILES IDX 57 88 59 89 52 90 53 91 54 92 55 93 56 94
REMARK H PARENT 14 6 18 25 80 44 46 55
REMARK Flexibility Score: inf
ROOT
ATOM      1  C   UNL A   1      33.658  28.911  26.511  1.00  0.00     0.042 C 
ENDROOT
BRANCH   1   2
ATOM      2  C   UNL A   1      32.630  29.634  25.649  1.00  0.00     0.117 C 
BRANCH   2   3
ATOM      3  N   UNL A   1      31.526  28.782  25.227  1.00  0.00    -0.353 N 
ATOM      4  C   UNL A   1      31.195  28.359  23.973  1.00  0.00     0.258 C 
ATOM      5  O   UNL A   1      30.250  27.580  23.829  1.00  0.00    -0.271 OA
ATOM      6  H   UNL A   1      30.936  28.465  25.948  1.00  0.00     0.163 HD
BRANCH   4   7
ATOM      7  C   UNL A   1      32.000  28.841  22.760  1.00  0.00     0.331 C 
BRANCH   7   8
ATOM      8  O   UNL A   1      33.291  28.283  22.598  1.00  0.00    -0.467 OA
BRANCH   8   9
ATOM      9  C   UNL A   1      33.404  26.926  22.499  1.00  0.00     0.217 A 
ATOM     10  C   UNL A   1      33.965  24.740  23.165  1.00  0.00     0.077 A 
ATOM     11  C   UNL A   1      33.961  26.096  23.444  1.00  0.00     0.097 A 
ATOM     12  N   UNL A   1      33.492  24.240  22.007  1.00  0.00    -0.236 NA
ATOM     13  C   UNL A   1      32.967  25.132  21.159  1.00  0.00     0.226 A 
ATOM     14  N   UNL A   1      32.906  26.456  21.343  1.00  0.00    -0.202 NA
BRANCH  10  15
ATOM     15  C   UNL A   1      34.484  23.768  24.136  1.00  0.00     0.001 A 
ATOM     16  C   UNL A   1      34.384  19.994  24.743  1.00  0.00     0.044 C 
ATOM     17  C   UNL A   1      34.674  21.455  24.921  1.00  0.00    -0.050 A 
ATOM     18  C   UNL A   1      35.404  21.898  26.028  1.00  0.00     0.003 A 
ATOM     19  C   UNL A   1      34.213  22.394  23.989  1.00  0.00     0.013 A 
ATOM     20  C   UNL A   1      35.692  23.254  26.185  1.00  0.00     0.001 A 
ATOM     21  C   UNL A   1      35.243  24.181  25.240  1.00  0.00     0.010 A 
ENDBRANCH  10  15
ENDBRANCH   8   9
ENDBRANCH   7   8
ENDBRANCH   4   7
ENDBRANCH   2   3
ENDBRANCH   1   2
BRANCH   1  22
ATOM     22  C   UNL A   1      34.262  29.782  27.598  1.00  0.00     0.118 C 
BRANCH  22  23
ATOM     23  N   UNL A   1      35.333  30.673  27.171  1.00  0.00    -0.352 N 
ATOM     24  C   UNL A   1      36.352  30.967  28.089  1.00  0.00     0.251 C 
ATOM     25  H   UNL A   1      35.341  31.057  26.265  1.00  0.00     0.163 HD
ATOM     26  O   UNL A   1      36.411  31.946  28.769  1.00  0.00    -0.269 OA
BRANCH  24  27
ATOM     27  C   UNL A   1      37.270  29.813  28.294  1.00  0.00     0.039 A 
ATOM     28  C   UNL A   1      37.303  29.113  29.499  1.00  0.00     0.014 A 
ATOM     29  C   UNL A   1      38.242  29.610  27.314  1.00  0.00     0.014 A 
ATOM     30  C   UNL A   1      38.396  28.286  29.773  1.00  0.00     0.010 A 
ATOM     31  C   UNL A   1      39.359  28.866  27.623  1.00  0.00     0.010 A 
ATOM     32  C   UNL A   1      39.451  28.218  28.860  1.00  0.00    -0.014 A 
BRANCH  32  33
ATOM     33  C   UNL A   1      40.740  27.582  29.114  1.00  0.00     0.031 A 
ATOM     34  C   UNL A   1      41.020  26.204  28.639  1.00  0.00     0.074 A 
ATOM     35  C   UNL A   1      41.758  28.331  29.591  1.00  0.00     0.049 A 
ATOM     36  N   UNL A   1      41.992  25.470  29.073  1.00  0.00    -0.248 NA
ATOM     37  C   UNL A   1      40.202  25.533  27.633  1.00  0.00     0.031 C 
ATOM     38  C   UNL A   1      43.185  28.043  29.485  1.00  0.00     0.029 A 
ATOM     39  N   UNL A   1      41.693  29.447  30.421  1.00  0.00    -0.354 N 
ATOM     40  C   UNL A   1      42.110  24.393  28.225  1.00  0.00     0.074 A 
ATOM     41  C   UNL A   1      40.936  24.444  27.382  1.00  0.00     0.031 C 
ATOM     42  C   UNL A   1      43.851  28.792  30.378  1.00  0.00     0.029 A 
ATOM     43  C   UNL A   1      42.861  29.461  31.203  1.00  0.00     0.049 A 
ATOM     44  H   UNL A   1      40.963  30.105  30.455  1.00  0.00     0.167 HD
ATOM     45  C   UNL A   1      43.252  23.648  28.216  1.00  0.00     0.037 A 
ATOM     46  C   UNL A   1      42.799  29.354  32.565  1.00  0.00     0.037 A 
ATOM     47  C   UNL A   1      44.223  24.133  29.192  1.00  0.00     0.049 A 
ATOM     48  C   UNL A   1      43.481  28.125  33.119  1.00  0.00     0.074 A 
ATOM     49  C   UNL A   1      45.324  24.967  29.073  1.00  0.00     0.029 A 
ATOM     50  N   UNL A   1      43.959  24.023  30.553  1.00  0.00    -0.354 N 
ATOM     51  N   UNL A   1      43.808  27.083  32.404  1.00  0.00    -0.248 NA
ATOM     52  C   UNL A   1      43.842  27.966  34.525  1.00  0.00     0.031 C 
ATOM     53  C   UNL A   1      45.695  25.398  30.368  1.00  0.00     0.029 A 
ATOM     54  C   UNL A   1      44.825  24.821  31.277  1.00  0.00     0.049 A 
ATOM     55  H   UNL A   1      43.256  23.456  30.945  1.00  0.00     0.167 HD
ATOM     56  C   UNL A   1      44.363  26.124  33.212  1.00  0.00     0.074 A 
ATOM     57  C   UNL A   1      44.391  26.738  34.525  1.00  0.00     0.031 C 
ATOM     58  C   UNL A   1      44.746  24.904  32.728  1.00  0.00     0.037 A 
BRANCH  45  59
ATOM     59  C   UNL A   1      43.581  22.692  27.088  1.00  0.00     0.058 A 
ATOM     60  C   UNL A   1      42.920  21.452  26.960  1.00  0.00     0.135 A 
ATOM     61  C   UNL A   1      44.589  22.929  26.132  1.00  0.00     0.135 A 
ATOM     62  F   UNL A   1      41.882  21.123  27.738  1.00  0.00    -0.206 F 
ATOM     63  C   UNL A   1      43.309  20.476  26.041  1.00  0.00     0.059 A 
ATOM     64  C   UNL A   1      45.031  21.949  25.235  1.00  0.00     0.059 A 
ATOM     65  F   UNL A   1      45.172  24.134  26.033  1.00  0.00    -0.206 F 
ATOM     66  C   UNL A   1      44.391  20.716  25.208  1.00  0.00     0.060 A 
BRANCH  66  67
ATOM     67  S   UNL A   1      44.958  19.389  24.124  1.00  0.00     0.124 S 
ATOM     68  O   UNL A   1      46.409  19.464  24.272  1.00  0.00    -0.237 OA
ATOM     69  O   UNL A   1      44.320  18.221  24.720  1.00  0.00    -0.237 OA
ATOM     70  O   UNL A   1      44.450  19.784  22.814  1.00  0.00    -0.744 OA
ENDBRANCH  66  67
ENDBRANCH  45  59
BRANCH  46  71
ATOM     71  C   UNL A   1      41.591  30.008  33.141  1.00  0.00     0.058 A 
ATOM     72  C   UNL A   1      41.616  31.410  33.258  1.00  0.00     0.135 A 
ATOM     73  C   UNL A   1      40.338  29.381  33.086  1.00  0.00     0.135 A 
ATOM     74  F   UNL A   1      42.791  32.056  33.343  1.00  0.00    -0.206 F 
ATOM     75  C   UNL A   1      40.463  32.173  33.118  1.00  0.00     0.059 A 
ATOM     76  C   UNL A   1      39.165  30.129  32.954  1.00  0.00     0.059 A 
ATOM     77  F   UNL A   1      40.252  28.046  32.992  1.00  0.00    -0.206 F 
ATOM     78  C   UNL A   1      39.256  31.520  32.878  1.00  0.00     0.060 A 
BRANCH  78  79
ATOM     79  S   UNL A   1      37.865  32.512  32.277  1.00  0.00     0.124 S 
ATOM     80  O   UNL A   1      37.625  33.413  33.397  1.00  0.00    -0.237 OA
ATOM     81  O   UNL A   1      38.432  33.132  31.075  1.00  0.00    -0.237 OA
ATOM     82  O   UNL A   1      36.826  31.520  32.032  1.00  0.00    -0.744 OA
ENDBRANCH  78  79
ENDBRANCH  46  71
BRANCH  58  83
ATOM     83  C   UNL A   1      45.190  23.721  33.556  1.00  0.00     0.058 A 
ATOM     84  C   UNL A   1      46.506  23.527  34.009  1.00  0.00     0.135 A 
ATOM     85  C   UNL A   1      44.239  22.786  34.036  1.00  0.00     0.135 A 
ATOM     86  F   UNL A   1      47.476  24.408  33.727  1.00  0.00    -0.206 F 
ATOM     87  C   UNL A   1      46.872  22.443  34.809  1.00  0.00     0.059 A 
ATOM     88  C   UNL A   1      44.573  21.729  34.879  1.00  0.00     0.059 A 
ATOM     89  F   UNL A   1      42.941  22.875  33.708  1.00  0.00    -0.206 F 
ATOM     90  C   UNL A   1      45.900  21.547  35.239  1.00  0.00     0.060 A 
BRANCH  90  91
ATOM     91  S   UNL A   1      46.347  20.173  36.316  1.00  0.00     0.124 S 
ATOM     92  O   UNL A   1      45.750  20.587  37.581  1.00  0.00    -0.237 OA
ATOM     93  O   UNL A   1      45.714  19.028  35.668  1.00  0.00    -0.237 OA
ATOM     94  O   UNL A   1      47.806  20.180  36.270  1.00  0.00    -0.744 OA
ENDBRANCH  90  91
ENDBRANCH  58  83
ENDBRANCH  32  33
ENDBRANCH  24  27
ENDBRANCH  22  23
ENDBRANCH   1  22
TORSDOF 16
ENDMDL
