MODEL 1
REMARK VINA RESULT:     -13.5      0.000      0.000
REMARK SMILES O=C(NCCCNC(=O)C1CC[NH+]([C@H]2CC(=O)N(c3ccc4c(c3)OCCO4)C2=O)CC1)c1ccc(-c2c3nc(c(-c4c(F)cc(S(=O)(=O)[O-])cc4F)c4ccc([nH]4)c(-c4c(F)cc(S(=O)(=O)[O-])cc4F)c4nc(c(-c5c(F)cc(S(=O)(=O)[O-])cc5F)c5ccc2[nH]5)C=C4)C=C3)cc1
REMARK SMILES IDX 4 1 3 2 1 3 2 4 33 6 34 7 98 8 35 9 97 10 36 11 37 12 38 13
REMARK SMILES IDX 91 14 39 15 96 16 90 17 92 18 40 19 95 20 89 21 88 22 41 24
REMARK SMILES IDX 75 25 54 26 74 27 55 28 58 29 73 30 93 31 56 32 57 33 72 35
REMARK SMILES IDX 94 36 59 37 42 38 43 39 52 40 44 41 45 42 51 43 53 44 46 45
REMARK SMILES IDX 47 46 48 47 49 48 50 49 76 50 77 51 86 52 78 53 79 54 85 55
REMARK SMILES IDX 87 56 80 57 81 58 82 59 83 60 84 61 60 62 61 63 70 64 62 65
REMARK SMILES IDX 63 66 69 67 71 68 64 69 65 70 66 71 67 72 68 73 5 74 6 75
REMARK SMILES IDX 7 76 8 77 9 79 10 80 11 81 32 82 12 83 31 84 13 85 14 87
REMARK SMILES IDX 15 88 29 89 16 90 18 91 30 92 17 93 19 94 20 95 24 96 21 97
REMARK SMILES IDX 23 98 22 99 25 100 28 101 26 102 27 103
REMARK H PARENT 3 5 92 23 58 34 7 78 13 86
REMARK Flexibility Score: inf
ROOT
ATOM      1  C   UNL A   1      32.758  32.898  27.491  1.00  0.00     0.118 C 
ENDROOT
BRANCH   1   2
ATOM      2  N   UNL A   1      32.513  34.281  27.883  1.00  0.00    -0.352 N 
ATOM      3  O   UNL A   1      32.625  36.141  29.138  1.00  0.00    -0.269 OA
ATOM      4  C   UNL A   1      33.096  35.039  28.868  1.00  0.00     0.251 C 
ATOM      5  H   UNL A   1      31.821  34.744  27.358  1.00  0.00     0.163 HD
BRANCH   4   6
ATOM      6  C   UNL A   1      34.263  34.525  29.617  1.00  0.00     0.039 A 
ATOM      7  C   UNL A   1      35.550  34.613  29.087  1.00  0.00     0.014 A 
ATOM      8  C   UNL A   1      34.062  33.958  30.879  1.00  0.00     0.014 A 
ATOM      9  C   UNL A   1      36.611  33.996  29.743  1.00  0.00     0.010 A 
ATOM     10  C   UNL A   1      35.144  33.414  31.578  1.00  0.00     0.010 A 
ATOM     11  C   UNL A   1      36.421  33.389  30.995  1.00  0.00    -0.014 A 
BRANCH  11  12
ATOM     12  C   UNL A   1      37.576  32.752  31.678  1.00  0.00     0.031 A 
ATOM     13  C   UNL A   1      38.038  33.231  33.029  1.00  0.00     0.074 A 
ATOM     14  C   UNL A   1      38.185  31.704  31.088  1.00  0.00     0.049 A 
ATOM     15  N   UNL A   1      38.992  32.757  33.789  1.00  0.00    -0.248 NA
ATOM     16  C   UNL A   1      37.346  34.399  33.597  1.00  0.00     0.031 C 
ATOM     17  C   UNL A   1      37.837  31.159  29.774  1.00  0.00     0.029 A 
ATOM     18  N   UNL A   1      39.203  30.895  31.524  1.00  0.00    -0.354 N 
ATOM     19  C   UNL A   1      39.035  33.580  34.908  1.00  0.00     0.074 A 
ATOM     20  C   UNL A   1      38.024  34.598  34.719  1.00  0.00     0.031 C 
ATOM     21  C   UNL A   1      38.588  30.073  29.535  1.00  0.00     0.029 A 
ATOM     22  C   UNL A   1      39.506  29.876  30.652  1.00  0.00     0.049 A 
ATOM     23  H   UNL A   1      39.672  31.031  32.378  1.00  0.00     0.167 HD
ATOM     24  C   UNL A   1      39.837  33.490  35.997  1.00  0.00     0.037 A 
ATOM     25  C   UNL A   1      40.419  28.892  30.740  1.00  0.00     0.037 A 
ATOM     26  C   UNL A   1      40.823  32.456  36.192  1.00  0.00     0.049 A 
ATOM     27  C   UNL A   1      41.288  28.807  31.961  1.00  0.00     0.074 A 
ATOM     28  C   UNL A   1      41.655  32.254  37.280  1.00  0.00     0.029 A 
ATOM     29  N   UNL A   1      41.110  31.452  35.279  1.00  0.00    -0.354 N 
ATOM     30  N   UNL A   1      41.289  29.574  33.025  1.00  0.00    -0.248 NA
ATOM     31  C   UNL A   1      42.277  27.723  31.996  1.00  0.00     0.031 C 
ATOM     32  C   UNL A   1      42.470  31.149  37.008  1.00  0.00     0.029 A 
ATOM     33  C   UNL A   1      42.116  30.637  35.771  1.00  0.00     0.049 A 
ATOM     34  H   UNL A   1      40.664  31.336  34.410  1.00  0.00     0.167 HD
ATOM     35  C   UNL A   1      42.262  29.050  33.867  1.00  0.00     0.074 A 
ATOM     36  C   UNL A   1      42.820  27.895  33.193  1.00  0.00     0.031 C 
ATOM     37  C   UNL A   1      42.655  29.485  35.091  1.00  0.00     0.037 A 
BRANCH  24  38
ATOM     38  C   UNL A   1      39.699  34.550  37.055  1.00  0.00     0.058 A 
ATOM     39  C   UNL A   1      38.911  34.357  38.201  1.00  0.00     0.135 A 
ATOM     40  C   UNL A   1      40.387  35.769  36.934  1.00  0.00     0.135 A 
ATOM     41  F   UNL A   1      38.220  33.218  38.362  1.00  0.00    -0.206 F 
ATOM     42  C   UNL A   1      38.784  35.346  39.172  1.00  0.00     0.059 A 
ATOM     43  C   UNL A   1      40.294  36.762  37.904  1.00  0.00     0.059 A 
ATOM     44  F   UNL A   1      41.156  36.005  35.860  1.00  0.00    -0.206 F 
ATOM     45  C   UNL A   1      39.476  36.548  39.012  1.00  0.00     0.060 A 
BRANCH  45  46
ATOM     46  S   UNL A   1      39.291  37.829  40.272  1.00  0.00     0.124 S 
ATOM     47  O   UNL A   1      40.648  38.360  40.345  1.00  0.00    -0.237 OA
ATOM     48  O   UNL A   1      38.296  38.715  39.675  1.00  0.00    -0.237 OA
ATOM     49  O   UNL A   1      38.842  37.088  41.446  1.00  0.00    -0.744 OA
ENDBRANCH  45  46
ENDBRANCH  24  38
BRANCH  25  50
ATOM     50  C   UNL A   1      40.535  27.894  29.643  1.00  0.00     0.058 A 
ATOM     51  C   UNL A   1      39.617  26.841  29.530  1.00  0.00     0.135 A 
ATOM     52  C   UNL A   1      41.542  27.997  28.671  1.00  0.00     0.135 A 
ATOM     53  F   UNL A   1      38.640  26.701  30.439  1.00  0.00    -0.206 F 
ATOM     54  C   UNL A   1      39.699  25.914  28.497  1.00  0.00     0.059 A 
ATOM     55  C   UNL A   1      41.628  27.097  27.614  1.00  0.00     0.059 A 
ATOM     56  F   UNL A   1      42.432  29.000  28.727  1.00  0.00    -0.206 F 
ATOM     57  C   UNL A   1      40.707  26.053  27.540  1.00  0.00     0.060 A 
BRANCH  57  58
ATOM     58  S   UNL A   1      40.769  24.881  26.168  1.00  0.00     0.124 S 
ATOM     59  O   UNL A   1      39.379  24.451  26.088  1.00  0.00    -0.237 OA
ATOM     60  O   UNL A   1      41.244  25.718  25.070  1.00  0.00    -0.237 OA
ATOM     61  O   UNL A   1      41.719  23.874  26.632  1.00  0.00    -0.744 OA
ENDBRANCH  57  58
ENDBRANCH  25  50
BRANCH  37  62
ATOM     62  C   UNL A   1      43.711  28.681  35.796  1.00  0.00     0.058 A 
ATOM     63  C   UNL A   1      45.076  28.979  35.665  1.00  0.00     0.135 A 
ATOM     64  C   UNL A   1      43.347  27.614  36.631  1.00  0.00     0.135 A 
ATOM     65  F   UNL A   1      45.476  29.985  34.873  1.00  0.00    -0.206 F 
ATOM     66  C   UNL A   1      46.048  28.226  36.317  1.00  0.00     0.059 A 
ATOM     67  C   UNL A   1      44.300  26.862  37.311  1.00  0.00     0.059 A 
ATOM     68  F   UNL A   1      42.053  27.295  36.797  1.00  0.00    -0.206 F 
ATOM     69  C   UNL A   1      45.649  27.166  37.134  1.00  0.00     0.060 A 
BRANCH  69  70
ATOM     70  S   UNL A   1      46.915  26.202  37.987  1.00  0.00     0.124 S 
ATOM     71  O   UNL A   1      47.845  27.245  38.405  1.00  0.00    -0.237 OA
ATOM     72  O   UNL A   1      46.156  25.564  39.059  1.00  0.00    -0.237 OA
ATOM     73  O   UNL A   1      47.405  25.297  36.953  1.00  0.00    -0.744 OA
ENDBRANCH  69  70
ENDBRANCH  37  62
ENDBRANCH  11  12
ENDBRANCH   4   6
ENDBRANCH   1   2
BRANCH   1  74
ATOM     74  C   UNL A   1      31.653  32.328  26.607  1.00  0.00     0.042 C 
BRANCH  74  75
ATOM     75  C   UNL A   1      31.720  30.815  26.433  1.00  0.00     0.117 C 
BRANCH  75  76
ATOM     76  N   UNL A   1      31.190  30.387  25.147  1.00  0.00    -0.356 N 
ATOM     77  C   UNL A   1      31.575  29.335  24.363  1.00  0.00     0.223 C 
ATOM     78  H   UNL A   1      30.452  30.932  24.791  1.00  0.00     0.163 HD
ATOM     79  O   UNL A   1      31.053  29.190  23.260  1.00  0.00    -0.275 OA
BRANCH  77  80
ATOM     80  C   UNL A   1      32.586  28.350  24.930  1.00  0.00     0.089 C 
ATOM     81  C   UNL A   1      33.684  28.011  23.910  1.00  0.00     0.075 C 
ATOM     82  C   UNL A   1      31.825  27.136  25.485  1.00  0.00     0.075 C 
ATOM     83  C   UNL A   1      33.361  26.821  23.011  1.00  0.00     0.263 C 
ATOM     84  C   UNL A   1      31.632  26.012  24.467  1.00  0.00     0.263 C 
ATOM     85  N   UNL A   1      32.836  25.654  23.723  1.00  0.00    -0.324 N 
ATOM     86  H   UNL A   1      32.506  24.968  23.044  1.00  0.00     0.348 HD
BRANCH  85  87
ATOM     87  C   UNL A   1      33.856  24.804  24.372  1.00  0.00     0.284 C 
ATOM     88  C   UNL A   1      33.680  24.402  25.826  1.00  0.00     0.176 C 
ATOM     89  C   UNL A   1      33.973  23.441  23.680  1.00  0.00     0.292 C 
ATOM     90  C   UNL A   1      33.119  23.017  25.753  1.00  0.00     0.240 C 
ATOM     91  N   UNL A   1      33.433  22.491  24.524  1.00  0.00    -0.245 N 
ATOM     92  O   UNL A   1      34.424  23.273  22.552  1.00  0.00    -0.267 OA
ATOM     93  O   UNL A   1      32.577  22.474  26.704  1.00  0.00    -0.274 OA
BRANCH  91  94
ATOM     94  C   UNL A   1      33.267  21.124  24.200  1.00  0.00     0.056 A 
ATOM     95  C   UNL A   1      32.294  20.725  23.273  1.00  0.00     0.031 A 
ATOM     96  C   UNL A   1      34.104  20.150  24.763  1.00  0.00     0.077 A 
ATOM     97  C   UNL A   1      32.192  19.386  22.881  1.00  0.00     0.052 A 
ATOM     98  C   UNL A   1      33.967  18.807  24.408  1.00  0.00     0.163 A 
ATOM     99  C   UNL A   1      33.016  18.426  23.460  1.00  0.00     0.161 A 
ATOM    100  O   UNL A   1      34.791  17.916  25.047  1.00  0.00    -0.486 OA
ATOM    101  O   UNL A   1      32.842  17.131  23.046  1.00  0.00    -0.486 OA
ATOM    102  C   UNL A   1      34.819  16.649  24.384  1.00  0.00     0.271 C 
ATOM    103  C   UNL A   1      33.423  16.210  23.973  1.00  0.00     0.271 C 
ENDBRANCH  91  94
ENDBRANCH  85  87
ENDBRANCH  77  80
ENDBRANCH  75  76
ENDBRANCH  74  75
ENDBRANCH   1  74
TORSDOF 15
ENDMDL
MODEL 2
REMARK VINA RESULT:     -13.4      2.589      9.047
REMARK SMILES O=C(NCCCNC(=O)C1CC[NH+]([C@H]2CC(=O)N(c3ccc4c(c3)OCCO4)C2=O)CC1)c1ccc(-c2c3nc(c(-c4c(F)cc(S(=O)(=O)[O-])cc4F)c4ccc([nH]4)c(-c4c(F)cc(S(=O)(=O)[O-])cc4F)c4nc(c(-c5c(F)cc(S(=O)(=O)[O-])cc5F)c5ccc2[nH]5)C=C4)C=C3)cc1
REMARK SMILES IDX 4 1 3 2 1 3 2 4 33 6 34 7 98 8 35 9 97 10 36 11 37 12 38 13
REMARK SMILES IDX 91 14 39 15 96 16 90 17 92 18 40 19 95 20 89 21 88 22 41 24
REMARK SMILES IDX 75 25 54 26 74 27 55 28 58 29 73 30 93 31 56 32 57 33 72 35
REMARK SMILES IDX 94 36 59 37 42 38 43 39 52 40 44 41 45 42 51 43 53 44 46 45
REMARK SMILES IDX 47 46 48 47 49 48 50 49 76 50 77 51 86 52 78 53 79 54 85 55
REMARK SMILES IDX 87 56 80 57 81 58 82 59 83 60 84 61 60 62 61 63 70 64 62 65
REMARK SMILES IDX 63 66 69 67 71 68 64 69 65 70 66 71 67 72 68 73 5 74 6 75
REMARK SMILES IDX 7 76 8 77 9 79 10 80 11 81 32 82 12 83 31 84 13 85 14 87
REMARK SMILES IDX 15 88 29 89 16 90 18 91 30 92 17 93 19 94 20 95 24 96 21 97
REMARK SMILES IDX 23 98 22 99 25 100 28 101 26 102 27 103
REMARK H PARENT 3 5 92 23 58 34 7 78 13 86
REMARK Flexibility Score: inf
ROOT
ATOM      1  C   UNL A   1      40.297  23.143  27.111  1.00  0.00     0.118 C 
ENDROOT
BRANCH   1   2
ATOM      2  N   UNL A   1      40.903  23.961  26.068  1.00  0.00    -0.352 N 
ATOM      3  O   UNL A   1      41.571  25.827  25.009  1.00  0.00    -0.269 OA
ATOM      4  C   UNL A   1      41.211  25.300  26.058  1.00  0.00     0.251 C 
ATOM      5  H   UNL A   1      41.126  23.478  25.240  1.00  0.00     0.163 HD
BRANCH   4   6
ATOM      6  C   UNL A   1      41.085  26.105  27.291  1.00  0.00     0.039 A 
ATOM      7  C   UNL A   1      40.040  25.884  28.190  1.00  0.00     0.014 A 
ATOM      8  C   UNL A   1      42.042  27.089  27.559  1.00  0.00     0.014 A 
ATOM      9  C   UNL A   1      39.862  26.746  29.267  1.00  0.00     0.010 A 
ATOM     10  C   UNL A   1      41.909  27.901  28.690  1.00  0.00     0.010 A 
ATOM     11  C   UNL A   1      40.793  27.764  29.530  1.00  0.00    -0.014 A 
BRANCH  11  12
ATOM     12  C   UNL A   1      40.582  28.658  30.697  1.00  0.00     0.031 A 
ATOM     13  C   UNL A   1      41.470  28.571  31.910  1.00  0.00     0.074 A 
ATOM     14  C   UNL A   1      39.606  29.586  30.641  1.00  0.00     0.049 A 
ATOM     15  N   UNL A   1      41.462  29.308  32.992  1.00  0.00    -0.248 NA
ATOM     16  C   UNL A   1      42.496  27.515  31.914  1.00  0.00     0.031 C 
ATOM     17  C   UNL A   1      38.672  29.757  29.525  1.00  0.00     0.029 A 
ATOM     18  N   UNL A   1      39.251  30.573  31.525  1.00  0.00    -0.354 N 
ATOM     19  C   UNL A   1      42.456  28.791  33.815  1.00  0.00     0.074 A 
ATOM     20  C   UNL A   1      43.035  27.663  33.116  1.00  0.00     0.031 C 
ATOM     21  C   UNL A   1      37.889  30.820  29.766  1.00  0.00     0.029 A 
ATOM     22  C   UNL A   1      38.228  31.372  31.073  1.00  0.00     0.049 A 
ATOM     23  H   UNL A   1      39.687  30.696  32.398  1.00  0.00     0.167 HD
ATOM     24  C   UNL A   1      42.855  29.222  35.037  1.00  0.00     0.037 A 
ATOM     25  C   UNL A   1      37.630  32.433  31.645  1.00  0.00     0.037 A 
ATOM     26  C   UNL A   1      42.294  30.363  35.714  1.00  0.00     0.049 A 
ATOM     27  C   UNL A   1      38.097  32.898  32.993  1.00  0.00     0.074 A 
ATOM     28  C   UNL A   1      42.658  30.905  36.935  1.00  0.00     0.029 A 
ATOM     29  N   UNL A   1      41.250  31.138  35.231  1.00  0.00    -0.354 N 
ATOM     30  N   UNL A   1      39.063  32.418  33.741  1.00  0.00    -0.248 NA
ATOM     31  C   UNL A   1      37.398  34.050  33.577  1.00  0.00     0.031 C 
ATOM     32  C   UNL A   1      41.810  31.985  37.206  1.00  0.00     0.029 A 
ATOM     33  C   UNL A   1      40.946  32.143  36.135  1.00  0.00     0.049 A 
ATOM     34  H   UNL A   1      40.791  30.994  34.372  1.00  0.00     0.167 HD
ATOM     35  C   UNL A   1      39.102  33.224  34.872  1.00  0.00     0.074 A 
ATOM     36  C   UNL A   1      38.072  34.228  34.705  1.00  0.00     0.031 C 
ATOM     37  C   UNL A   1      39.922  33.141  35.950  1.00  0.00     0.037 A 
BRANCH  24  38
ATOM     38  C   UNL A   1      43.939  28.443  35.732  1.00  0.00     0.058 A 
ATOM     39  C   UNL A   1      45.299  28.732  35.541  1.00  0.00     0.135 A 
ATOM     40  C   UNL A   1      43.610  27.408  36.623  1.00  0.00     0.135 A 
ATOM     41  F   UNL A   1      45.672  29.701  34.690  1.00  0.00    -0.206 F 
ATOM     42  C   UNL A   1      46.295  28.003  36.184  1.00  0.00     0.059 A 
ATOM     43  C   UNL A   1      44.588  26.682  37.295  1.00  0.00     0.059 A 
ATOM     44  F   UNL A   1      42.324  27.092  36.844  1.00  0.00    -0.206 F 
ATOM     45  C   UNL A   1      45.929  26.975  37.055  1.00  0.00     0.060 A 
BRANCH  45  46
ATOM     46  S   UNL A   1      47.232  26.026  37.871  1.00  0.00     0.124 S 
ATOM     47  O   UNL A   1      46.855  24.660  37.522  1.00  0.00    -0.237 OA
ATOM     48  O   UNL A   1      48.440  26.533  37.228  1.00  0.00    -0.237 OA
ATOM     49  O   UNL A   1      47.079  26.380  39.278  1.00  0.00    -0.744 OA
ENDBRANCH  45  46
ENDBRANCH  24  38
BRANCH  25  50
ATOM     50  C   UNL A   1      36.538  33.140  30.925  1.00  0.00     0.058 A 
ATOM     51  C   UNL A   1      35.204  33.009  31.335  1.00  0.00     0.135 A 
ATOM     52  C   UNL A   1      36.812  33.983  29.837  1.00  0.00     0.135 A 
ATOM     53  F   UNL A   1      34.894  32.211  32.368  1.00  0.00    -0.206 F 
ATOM     54  C   UNL A   1      34.175  33.682  30.685  1.00  0.00     0.059 A 
ATOM     55  C   UNL A   1      35.803  34.686  29.187  1.00  0.00     0.059 A 
ATOM     56  F   UNL A   1      38.076  34.154  29.420  1.00  0.00    -0.206 F 
ATOM     57  C   UNL A   1      34.486  34.522  29.614  1.00  0.00     0.060 A 
BRANCH  57  58
ATOM     58  S   UNL A   1      33.151  35.439  28.813  1.00  0.00     0.124 S 
ATOM     59  O   UNL A   1      32.491  34.387  28.049  1.00  0.00    -0.237 OA
ATOM     60  O   UNL A   1      32.409  35.961  29.957  1.00  0.00    -0.237 OA
ATOM     61  O   UNL A   1      33.862  36.443  28.027  1.00  0.00    -0.744 OA
ENDBRANCH  57  58
ENDBRANCH  25  50
BRANCH  37  62
ATOM     62  C   UNL A   1      39.763  34.192  37.012  1.00  0.00     0.058 A 
ATOM     63  C   UNL A   1      40.326  35.471  36.876  1.00  0.00     0.135 A 
ATOM     64  C   UNL A   1      39.016  33.921  38.169  1.00  0.00     0.135 A 
ATOM     65  F   UNL A   1      41.055  35.777  35.792  1.00  0.00    -0.206 F 
ATOM     66  C   UNL A   1      40.178  36.436  37.868  1.00  0.00     0.059 A 
ATOM     67  C   UNL A   1      38.835  34.878  39.161  1.00  0.00     0.059 A 
ATOM     68  F   UNL A   1      38.449  32.716  38.340  1.00  0.00    -0.206 F 
ATOM     69  C   UNL A   1      39.434  36.128  39.008  1.00  0.00     0.060 A 
BRANCH  69  70
ATOM     70  S   UNL A   1      39.235  37.390  40.284  1.00  0.00     0.124 S 
ATOM     71  O   UNL A   1      38.321  38.323  39.633  1.00  0.00    -0.237 OA
ATOM     72  O   UNL A   1      38.676  36.628  41.397  1.00  0.00    -0.237 OA
ATOM     73  O   UNL A   1      40.594  37.880  40.490  1.00  0.00    -0.744 OA
ENDBRANCH  69  70
ENDBRANCH  37  62
ENDBRANCH  11  12
ENDBRANCH   4   6
ENDBRANCH   1   2
BRANCH   1  74
ATOM     74  C   UNL A   1      39.120  22.314  26.607  1.00  0.00     0.042 C 
BRANCH  74  75
ATOM     75  C   UNL A   1      37.980  23.146  26.031  1.00  0.00     0.117 C 
BRANCH  75  76
ATOM     76  N   UNL A   1      37.805  22.920  24.604  1.00  0.00    -0.356 N 
ATOM     77  C   UNL A   1      36.655  22.931  23.865  1.00  0.00     0.223 C 
ATOM     78  H   UNL A   1      38.630  22.734  24.100  1.00  0.00     0.163 HD
ATOM     79  O   UNL A   1      36.707  22.631  22.674  1.00  0.00    -0.275 OA
BRANCH  77  80
ATOM     80  C   UNL A   1      35.370  23.383  24.542  1.00  0.00     0.089 C 
ATOM     81  C   UNL A   1      34.542  22.193  25.048  1.00  0.00     0.075 C 
ATOM     82  C   UNL A   1      34.623  24.328  23.588  1.00  0.00     0.075 C 
ATOM     83  C   UNL A   1      33.550  21.639  24.030  1.00  0.00     0.263 C 
ATOM     84  C   UNL A   1      33.629  23.617  22.672  1.00  0.00     0.263 C 
ATOM     85  N   UNL A   1      32.754  22.664  23.348  1.00  0.00    -0.324 N 
ATOM     86  H   UNL A   1      32.233  22.229  22.586  1.00  0.00     0.348 HD
BRANCH  85  87
ATOM     87  C   UNL A   1      31.593  23.167  24.110  1.00  0.00     0.284 C 
ATOM     88  C   UNL A   1      31.406  22.740  25.556  1.00  0.00     0.176 C 
ATOM     89  C   UNL A   1      31.623  24.694  24.234  1.00  0.00     0.292 C 
ATOM     90  C   UNL A   1      31.944  23.891  26.345  1.00  0.00     0.240 C 
ATOM     91  N   UNL A   1      31.927  25.006  25.544  1.00  0.00    -0.245 N 
ATOM     92  O   UNL A   1      31.456  25.469  23.299  1.00  0.00    -0.267 OA
ATOM     93  O   UNL A   1      32.231  23.802  27.530  1.00  0.00    -0.274 OA
BRANCH  91  94
ATOM     94  C   UNL A   1      32.143  26.316  26.034  1.00  0.00     0.056 A 
ATOM     95  C   UNL A   1      31.068  27.094  26.486  1.00  0.00     0.031 A 
ATOM     96  C   UNL A   1      33.440  26.842  26.121  1.00  0.00     0.077 A 
ATOM     97  C   UNL A   1      31.289  28.351  27.058  1.00  0.00     0.052 A 
ATOM     98  C   UNL A   1      33.654  28.117  26.646  1.00  0.00     0.163 A 
ATOM     99  C   UNL A   1      32.579  28.869  27.123  1.00  0.00     0.161 A 
ATOM    100  O   UNL A   1      34.948  28.572  26.643  1.00  0.00    -0.486 OA
ATOM    101  O   UNL A   1      32.718  30.116  27.672  1.00  0.00    -0.486 OA
ATOM    102  C   UNL A   1      35.113  29.710  27.495  1.00  0.00     0.271 C 
ATOM    103  C   UNL A   1      33.974  30.701  27.317  1.00  0.00     0.271 C 
ENDBRANCH  91  94
ENDBRANCH  85  87
ENDBRANCH  77  80
ENDBRANCH  75  76
ENDBRANCH  74  75
ENDBRANCH   1  74
TORSDOF 15
ENDMDL
MODEL 3
REMARK VINA RESULT:     -13.4      2.589      9.162
REMARK SMILES O=C(NCCCNC(=O)C1CC[NH+]([C@H]2CC(=O)N(c3ccc4c(c3)OCCO4)C2=O)CC1)c1ccc(-c2c3nc(c(-c4c(F)cc(S(=O)(=O)[O-])cc4F)c4ccc([nH]4)c(-c4c(F)cc(S(=O)(=O)[O-])cc4F)c4nc(c(-c5c(F)cc(S(=O)(=O)[O-])cc5F)c5ccc2[nH]5)C=C4)C=C3)cc1
REMARK SMILES IDX 4 1 3 2 1 3 2 4 33 6 34 7 98 8 35 9 97 10 36 11 37 12 38 13
REMARK SMILES IDX 91 14 39 15 96 16 90 17 92 18 40 19 95 20 89 21 88 22 41 24
REMARK SMILES IDX 75 25 54 26 74 27 55 28 58 29 73 30 93 31 56 32 57 33 72 35
REMARK SMILES IDX 94 36 59 37 42 38 43 39 52 40 44 41 45 42 51 43 53 44 46 45
REMARK SMILES IDX 47 46 48 47 49 48 50 49 76 50 77 51 86 52 78 53 79 54 85 55
REMARK SMILES IDX 87 56 80 57 81 58 82 59 83 60 84 61 60 62 61 63 70 64 62 65
REMARK SMILES IDX 63 66 69 67 71 68 64 69 65 70 66 71 67 72 68 73 5 74 6 75
REMARK SMILES IDX 7 76 8 77 9 79 10 80 11 81 32 82 12 83 31 84 13 85 14 87
REMARK SMILES IDX 15 88 29 89 16 90 18 91 30 92 17 93 19 94 20 95 24 96 21 97
REMARK SMILES IDX 23 98 22 99 25 100 28 101 26 102 27 103
REMARK H PARENT 3 5 92 23 58 34 7 78 13 86
REMARK Flexibility Score: inf
ROOT
ATOM      1  C   UNL A   1      41.683  23.156  27.322  1.00  0.00     0.118 C 
ENDROOT
BRANCH   1   2
ATOM      2  N   UNL A   1      41.663  24.050  26.171  1.00  0.00    -0.352 N 
ATOM      3  O   UNL A   1      41.291  25.932  25.000  1.00  0.00    -0.269 OA
ATOM      4  C   UNL A   1      41.417  25.399  26.100  1.00  0.00     0.251 C 
ATOM      5  H   UNL A   1      41.857  23.618  25.308  1.00  0.00     0.163 HD
BRANCH   4   6
ATOM      6  C   UNL A   1      41.279  26.200  27.335  1.00  0.00     0.039 A 
ATOM      7  C   UNL A   1      40.230  25.970  28.226  1.00  0.00     0.014 A 
ATOM      8  C   UNL A   1      42.229  27.188  27.612  1.00  0.00     0.014 A 
ATOM      9  C   UNL A   1      40.041  26.828  29.305  1.00  0.00     0.010 A 
ATOM     10  C   UNL A   1      42.085  27.995  28.745  1.00  0.00     0.010 A 
ATOM     11  C   UNL A   1      40.964  27.850  29.578  1.00  0.00    -0.014 A 
BRANCH  11  12
ATOM     12  C   UNL A   1      40.742  28.739  30.746  1.00  0.00     0.031 A 
ATOM     13  C   UNL A   1      41.632  28.663  31.959  1.00  0.00     0.074 A 
ATOM     14  C   UNL A   1      39.751  29.652  30.692  1.00  0.00     0.049 A 
ATOM     15  N   UNL A   1      41.614  29.398  33.041  1.00  0.00    -0.248 NA
ATOM     16  C   UNL A   1      42.673  27.622  31.959  1.00  0.00     0.031 C 
ATOM     17  C   UNL A   1      38.814  29.811  29.578  1.00  0.00     0.029 A 
ATOM     18  N   UNL A   1      39.383  30.632  31.578  1.00  0.00    -0.354 N 
ATOM     19  C   UNL A   1      42.617  28.894  33.862  1.00  0.00     0.074 A 
ATOM     20  C   UNL A   1      43.211  27.776  33.161  1.00  0.00     0.031 C 
ATOM     21  C   UNL A   1      38.016  30.862  29.821  1.00  0.00     0.029 A 
ATOM     22  C   UNL A   1      38.348  31.417  31.129  1.00  0.00     0.049 A 
ATOM     23  H   UNL A   1      39.818  30.760  32.451  1.00  0.00     0.167 HD
ATOM     24  C   UNL A   1      43.010  29.330  35.084  1.00  0.00     0.037 A 
ATOM     25  C   UNL A   1      37.734  32.468  31.703  1.00  0.00     0.037 A 
ATOM     26  C   UNL A   1      42.432  30.461  35.764  1.00  0.00     0.049 A 
ATOM     27  C   UNL A   1      38.196  32.938  33.051  1.00  0.00     0.074 A 
ATOM     28  C   UNL A   1      42.790  31.007  36.985  1.00  0.00     0.029 A 
ATOM     29  N   UNL A   1      41.376  31.221  35.283  1.00  0.00    -0.354 N 
ATOM     30  N   UNL A   1      39.170  32.471  33.797  1.00  0.00    -0.248 NA
ATOM     31  C   UNL A   1      37.481  34.078  33.637  1.00  0.00     0.031 C 
ATOM     32  C   UNL A   1      41.926  32.074  37.259  1.00  0.00     0.029 A 
ATOM     33  C   UNL A   1      41.059  32.220  36.189  1.00  0.00     0.049 A 
ATOM     34  H   UNL A   1      40.919  31.072  34.424  1.00  0.00     0.167 HD
ATOM     35  C   UNL A   1      39.198  33.275  34.929  1.00  0.00     0.074 A 
ATOM     36  C   UNL A   1      38.153  34.265  34.765  1.00  0.00     0.031 C 
ATOM     37  C   UNL A   1      40.020  33.204  36.007  1.00  0.00     0.037 A 
BRANCH  24  38
ATOM     38  C   UNL A   1      44.106  28.566  35.777  1.00  0.00     0.058 A 
ATOM     39  C   UNL A   1      43.830  27.505  36.655  1.00  0.00     0.135 A 
ATOM     40  C   UNL A   1      45.453  28.883  35.539  1.00  0.00     0.135 A 
ATOM     41  F   UNL A   1      42.560  27.168  36.931  1.00  0.00    -0.206 F 
ATOM     42  C   UNL A   1      44.849  26.808  37.296  1.00  0.00     0.059 A 
ATOM     43  C   UNL A   1      46.489  28.183  36.150  1.00  0.00     0.059 A 
ATOM     44  F   UNL A   1      45.773  29.886  34.707  1.00  0.00    -0.206 F 
ATOM     45  C   UNL A   1      46.177  27.158  37.041  1.00  0.00     0.060 A 
BRANCH  45  46
ATOM     46  S   UNL A   1      47.490  26.255  37.891  1.00  0.00     0.124 S 
ATOM     47  O   UNL A   1      47.414  26.828  39.232  1.00  0.00    -0.237 OA
ATOM     48  O   UNL A   1      47.047  24.869  37.770  1.00  0.00    -0.237 OA
ATOM     49  O   UNL A   1      48.686  26.596  37.128  1.00  0.00    -0.744 OA
ENDBRANCH  45  46
ENDBRANCH  24  38
BRANCH  25  50
ATOM     50  C   UNL A   1      36.631  33.159  30.985  1.00  0.00     0.058 A 
ATOM     51  C   UNL A   1      35.299  33.005  31.393  1.00  0.00     0.135 A 
ATOM     52  C   UNL A   1      36.892  34.012  29.901  1.00  0.00     0.135 A 
ATOM     53  F   UNL A   1      35.002  32.196  32.422  1.00  0.00    -0.206 F 
ATOM     54  C   UNL A   1      34.260  33.663  30.745  1.00  0.00     0.059 A 
ATOM     55  C   UNL A   1      35.872  34.701  29.254  1.00  0.00     0.059 A 
ATOM     56  F   UNL A   1      38.154  34.207  29.486  1.00  0.00    -0.206 F 
ATOM     57  C   UNL A   1      34.558  34.513  29.678  1.00  0.00     0.060 A 
BRANCH  57  58
ATOM     58  S   UNL A   1      33.208  35.411  28.880  1.00  0.00     0.124 S 
ATOM     59  O   UNL A   1      33.938  36.407  28.105  1.00  0.00    -0.237 OA
ATOM     60  O   UNL A   1      32.551  34.359  28.112  1.00  0.00    -0.237 OA
ATOM     61  O   UNL A   1      32.438  35.926  30.009  1.00  0.00    -0.744 OA
ENDBRANCH  57  58
ENDBRANCH  25  50
BRANCH  37  62
ATOM     62  C   UNL A   1      39.846  34.250  37.070  1.00  0.00     0.058 A 
ATOM     63  C   UNL A   1      40.403  35.533  36.943  1.00  0.00     0.135 A 
ATOM     64  C   UNL A   1      39.092  33.971  38.220  1.00  0.00     0.135 A 
ATOM     65  F   UNL A   1      41.138  35.847  35.866  1.00  0.00    -0.206 F 
ATOM     66  C   UNL A   1      40.242  36.494  37.936  1.00  0.00     0.059 A 
ATOM     67  C   UNL A   1      38.898  34.924  39.214  1.00  0.00     0.059 A 
ATOM     68  F   UNL A   1      38.531  32.762  38.384  1.00  0.00    -0.206 F 
ATOM     69  C   UNL A   1      39.490  36.178  39.070  1.00  0.00     0.060 A 
BRANCH  69  70
ATOM     70  S   UNL A   1      39.274  37.435  40.348  1.00  0.00     0.124 S 
ATOM     71  O   UNL A   1      38.506  38.450  39.633  1.00  0.00    -0.237 OA
ATOM     72  O   UNL A   1      38.550  36.708  41.386  1.00  0.00    -0.237 OA
ATOM     73  O   UNL A   1      40.643  37.807  40.691  1.00  0.00    -0.744 OA
ENDBRANCH  69  70
ENDBRANCH  37  62
ENDBRANCH  11  12
ENDBRANCH   4   6
ENDBRANCH   1   2
BRANCH   1  74
ATOM     74  C   UNL A   1      40.486  22.211  27.360  1.00  0.00     0.042 C 
BRANCH  74  75
ATOM     75  C   UNL A   1      39.226  22.784  26.720  1.00  0.00     0.117 C 
BRANCH  75  76
ATOM     76  N   UNL A   1      38.817  22.031  25.544  1.00  0.00    -0.356 N 
ATOM     77  C   UNL A   1      37.557  21.752  25.094  1.00  0.00     0.223 C 
ATOM     78  H   UNL A   1      39.552  21.673  24.995  1.00  0.00     0.163 HD
ATOM     79  O   UNL A   1      37.420  21.022  24.115  1.00  0.00    -0.275 OA
BRANCH  77  80
ATOM     80  C   UNL A   1      36.381  22.419  25.792  1.00  0.00     0.089 C 
ATOM     81  C   UNL A   1      35.218  21.441  26.010  1.00  0.00     0.075 C 
ATOM     82  C   UNL A   1      36.015  23.694  25.015  1.00  0.00     0.075 C 
ATOM     83  C   UNL A   1      34.218  21.386  24.858  1.00  0.00     0.263 C 
ATOM     84  C   UNL A   1      34.961  23.472  23.931  1.00  0.00     0.263 C 
ATOM     85  N   UNL A   1      33.800  22.699  24.362  1.00  0.00    -0.324 N 
ATOM     86  H   UNL A   1      33.258  22.576  23.506  1.00  0.00     0.348 HD
BRANCH  85  87
ATOM     87  C   UNL A   1      32.748  23.364  25.159  1.00  0.00     0.284 C 
ATOM     88  C   UNL A   1      33.144  24.336  26.257  1.00  0.00     0.176 C 
ATOM     89  C   UNL A   1      31.843  24.234  24.279  1.00  0.00     0.292 C 
ATOM     90  C   UNL A   1      32.984  25.682  25.622  1.00  0.00     0.240 C 
ATOM     91  N   UNL A   1      32.127  25.556  24.558  1.00  0.00    -0.245 N 
ATOM     92  O   UNL A   1      31.058  23.795  23.446  1.00  0.00    -0.267 OA
ATOM     93  O   UNL A   1      33.481  26.695  26.092  1.00  0.00    -0.274 OA
BRANCH  91  94
ATOM     94  C   UNL A   1      31.568  26.664  23.877  1.00  0.00     0.056 A 
ATOM     95  C   UNL A   1      32.368  27.473  23.058  1.00  0.00     0.031 A 
ATOM     96  C   UNL A   1      30.197  26.942  23.970  1.00  0.00     0.077 A 
ATOM     97  C   UNL A   1      31.799  28.510  22.310  1.00  0.00     0.052 A 
ATOM     98  C   UNL A   1      29.640  28.009  23.263  1.00  0.00     0.163 A 
ATOM     99  C   UNL A   1      30.440  28.788  22.425  1.00  0.00     0.161 A 
ATOM    100  O   UNL A   1      28.302  28.241  23.455  1.00  0.00    -0.486 OA
ATOM    101  O   UNL A   1      29.959  29.834  21.683  1.00  0.00    -0.486 OA
ATOM    102  C   UNL A   1      27.765  29.107  22.451  1.00  0.00     0.271 C 
ATOM    103  C   UNL A   1      28.693  30.279  22.179  1.00  0.00     0.271 C 
ENDBRANCH  91  94
ENDBRANCH  85  87
ENDBRANCH  77  80
ENDBRANCH  75  76
ENDBRANCH  74  75
ENDBRANCH   1  74
TORSDOF 15
ENDMDL
