MODEL 1
REMARK VINA RESULT:     -14.3      0.000      0.000
REMARK SMILES O=C(NCCCNC(=O)c1ccc(N2C(=O)[C@@H]3N=NC(c4ccccc4)=C3[C@H]2c2cccc(Br)c2)cc1)c1ccc(-c2c3nc(c(-c4c(F)cc(S(=O)(=O)[O-])cc4F)c4ccc([nH]4)c(-c4c(F)cc(S(=O)(=O)[O-])cc4F)c4nc(c(-c5c(F)cc(S(=O)(=O)[O-])cc5F)c5ccc2[nH]5)C=C4)C=C3)cc1
REMARK SMILES IDX 4 1 3 2 1 3 2 4 38 6 39 7 103 8 40 9 102 10 41 11 42 12
REMARK SMILES IDX 43 13 96 14 44 15 101 16 95 17 97 18 45 19 100 20 94 21
REMARK SMILES IDX 93 22 46 24 80 25 59 26 79 27 60 28 63 29 78 30 98 31 61 32
REMARK SMILES IDX 62 33 77 35 99 36 64 37 47 38 48 39 57 40 49 41 50 42 56 43
REMARK SMILES IDX 58 44 51 45 52 46 53 47 54 48 55 49 81 50 82 51 91 52 83 53
REMARK SMILES IDX 84 54 90 55 92 56 85 57 86 58 87 59 88 60 89 61 65 62 66 63
REMARK SMILES IDX 75 64 67 65 68 66 74 67 76 68 69 69 70 70 71 71 72 72 73 73
REMARK SMILES IDX 5 74 6 75 7 76 8 77 9 79 10 80 11 81 37 82 12 83 36 84 13 85
REMARK SMILES IDX 14 86 15 87 28 88 17 89 16 90 27 91 18 92 20 93 19 94 29 95
REMARK SMILES IDX 30 96 35 97 31 98 33 99 32 100 34 101 21 102 22 103 26 104
REMARK SMILES IDX 23 105 25 106 24 107
REMARK H PARENT 3 5 97 23 63 34 7 78
REMARK Flexibility Score: inf
ROOT
ATOM      1  C   UNL A   1      33.099  29.880  26.030  1.00  0.00     0.118 C 
ENDROOT
BRANCH   1   2
ATOM      2  N   UNL A   1      33.111  31.006  26.942  1.00  0.00    -0.352 N 
ATOM      3  O   UNL A   1      33.761  32.750  28.129  1.00  0.00    -0.269 OA
ATOM      4  C   UNL A   1      34.081  31.654  27.658  1.00  0.00     0.251 C 
ATOM      5  H   UNL A   1      32.217  31.394  27.078  1.00  0.00     0.163 HD
BRANCH   4   6
ATOM      6  C   UNL A   1      35.425  31.102  27.978  1.00  0.00     0.039 A 
ATOM      7  C   UNL A   1      35.776  29.752  27.985  1.00  0.00     0.014 A 
ATOM      8  C   UNL A   1      36.403  32.054  28.327  1.00  0.00     0.014 A 
ATOM      9  C   UNL A   1      37.042  29.357  28.422  1.00  0.00     0.010 A 
ATOM     10  C   UNL A   1      37.668  31.667  28.754  1.00  0.00     0.010 A 
ATOM     11  C   UNL A   1      37.978  30.313  28.831  1.00  0.00    -0.014 A 
BRANCH  11  12
ATOM     12  C   UNL A   1      39.354  29.884  29.093  1.00  0.00     0.031 A 
ATOM     13  C   UNL A   1      39.693  29.878  30.546  1.00  0.00     0.074 A 
ATOM     14  C   UNL A   1      40.177  29.358  28.160  1.00  0.00     0.049 A 
ATOM     15  N   UNL A   1      40.585  30.582  31.164  1.00  0.00    -0.248 NA
ATOM     16  C   UNL A   1      38.824  29.102  31.449  1.00  0.00     0.031 C 
ATOM     17  C   UNL A   1      39.843  29.045  26.768  1.00  0.00     0.029 A 
ATOM     18  N   UNL A   1      41.454  28.882  28.276  1.00  0.00    -0.354 N 
ATOM     19  C   UNL A   1      40.558  30.140  32.486  1.00  0.00     0.074 A 
ATOM     20  C   UNL A   1      39.330  29.411  32.643  1.00  0.00     0.031 C 
ATOM     21  C   UNL A   1      40.794  28.236  26.250  1.00  0.00     0.029 A 
ATOM     22  C   UNL A   1      41.858  28.057  27.225  1.00  0.00     0.049 A 
ATOM     23  H   UNL A   1      42.040  29.102  29.037  1.00  0.00     0.167 HD
ATOM     24  C   UNL A   1      41.686  30.146  33.250  1.00  0.00     0.037 A 
ATOM     25  C   UNL A   1      42.945  27.238  27.180  1.00  0.00     0.037 A 
ATOM     26  C   UNL A   1      42.667  31.060  32.718  1.00  0.00     0.049 A 
ATOM     27  C   UNL A   1      43.893  27.704  28.224  1.00  0.00     0.074 A 
ATOM     28  C   UNL A   1      42.683  32.405  32.398  1.00  0.00     0.029 A 
ATOM     29  N   UNL A   1      43.765  30.520  32.098  1.00  0.00    -0.354 N 
ATOM     30  N   UNL A   1      44.534  28.837  28.174  1.00  0.00    -0.248 NA
ATOM     31  C   UNL A   1      43.805  27.093  29.540  1.00  0.00     0.031 C 
ATOM     32  C   UNL A   1      43.498  32.501  31.232  1.00  0.00     0.029 A 
ATOM     33  C   UNL A   1      43.988  31.227  30.949  1.00  0.00     0.049 A 
ATOM     34  H   UNL A   1      44.298  29.758  32.424  1.00  0.00     0.167 HD
ATOM     35  C   UNL A   1      44.525  29.300  29.481  1.00  0.00     0.074 A 
ATOM     36  C   UNL A   1      44.158  28.140  30.290  1.00  0.00     0.031 C 
ATOM     37  C   UNL A   1      44.534  30.638  29.748  1.00  0.00     0.037 A 
BRANCH  24  38
ATOM     38  C   UNL A   1      42.072  29.010  34.186  1.00  0.00     0.058 A 
ATOM     39  C   UNL A   1      42.087  27.690  33.684  1.00  0.00     0.135 A 
ATOM     40  C   UNL A   1      42.113  29.115  35.596  1.00  0.00     0.135 A 
ATOM     41  F   UNL A   1      42.059  27.462  32.361  1.00  0.00    -0.206 F 
ATOM     42  C   UNL A   1      42.029  26.571  34.515  1.00  0.00     0.059 A 
ATOM     43  C   UNL A   1      42.111  28.012  36.440  1.00  0.00     0.059 A 
ATOM     44  F   UNL A   1      42.060  30.286  36.240  1.00  0.00    -0.206 F 
ATOM     45  C   UNL A   1      42.021  26.745  35.893  1.00  0.00     0.060 A 
BRANCH  45  46
ATOM     46  S   UNL A   1      41.843  25.315  36.971  1.00  0.00     0.124 S 
ATOM     47  O   UNL A   1      43.159  25.262  37.598  1.00  0.00    -0.237 OA
ATOM     48  O   UNL A   1      40.737  25.723  37.830  1.00  0.00    -0.237 OA
ATOM     49  O   UNL A   1      41.539  24.231  36.041  1.00  0.00    -0.744 OA
ENDBRANCH  45  46
ENDBRANCH  24  38
BRANCH  25  50
ATOM     50  C   UNL A   1      43.098  25.904  26.526  1.00  0.00     0.058 A 
ATOM     51  C   UNL A   1      44.034  25.694  25.491  1.00  0.00     0.135 A 
ATOM     52  C   UNL A   1      42.547  24.738  27.093  1.00  0.00     0.135 A 
ATOM     53  F   UNL A   1      44.630  26.740  24.896  1.00  0.00    -0.206 F 
ATOM     54  C   UNL A   1      44.439  24.413  25.088  1.00  0.00     0.059 A 
ATOM     55  C   UNL A   1      42.924  23.454  26.699  1.00  0.00     0.059 A 
ATOM     56  F   UNL A   1      41.689  24.806  28.121  1.00  0.00    -0.206 F 
ATOM     57  C   UNL A   1      43.892  23.296  25.716  1.00  0.00     0.060 A 
BRANCH  57  58
ATOM     58  S   UNL A   1      44.537  21.647  25.339  1.00  0.00     0.124 S 
ATOM     59  O   UNL A   1      45.878  21.708  25.907  1.00  0.00    -0.237 OA
ATOM     60  O   UNL A   1      43.590  20.777  26.029  1.00  0.00    -0.237 OA
ATOM     61  O   UNL A   1      44.481  21.588  23.880  1.00  0.00    -0.744 OA
ENDBRANCH  57  58
ENDBRANCH  25  50
BRANCH  37  62
ATOM     62  C   UNL A   1      44.952  31.583  28.654  1.00  0.00     0.058 A 
ATOM     63  C   UNL A   1      44.191  31.894  27.514  1.00  0.00     0.135 A 
ATOM     64  C   UNL A   1      46.148  32.295  28.841  1.00  0.00     0.135 A 
ATOM     65  F   UNL A   1      42.986  31.341  27.313  1.00  0.00    -0.206 F 
ATOM     66  C   UNL A   1      44.630  32.830  26.575  1.00  0.00     0.059 A 
ATOM     67  C   UNL A   1      46.585  33.257  27.939  1.00  0.00     0.059 A 
ATOM     68  F   UNL A   1      46.891  32.088  29.941  1.00  0.00    -0.206 F 
ATOM     69  C   UNL A   1      45.830  33.505  26.796  1.00  0.00     0.060 A 
BRANCH  69  70
ATOM     70  S   UNL A   1      46.376  34.750  25.607  1.00  0.00     0.124 S 
ATOM     71  O   UNL A   1      46.144  35.993  26.335  1.00  0.00    -0.237 OA
ATOM     72  O   UNL A   1      47.775  34.392  25.393  1.00  0.00    -0.237 OA
ATOM     73  O   UNL A   1      45.503  34.529  24.456  1.00  0.00    -0.744 OA
ENDBRANCH  69  70
ENDBRANCH  37  62
ENDBRANCH  11  12
ENDBRANCH   4   6
ENDBRANCH   1   2
BRANCH   1  74
ATOM     74  C   UNL A   1      31.773  29.129  25.905  1.00  0.00     0.042 C 
BRANCH  74  75
ATOM     75  C   UNL A   1      31.013  29.329  24.592  1.00  0.00     0.118 C 
BRANCH  75  76
ATOM     76  N   UNL A   1      31.882  29.420  23.431  1.00  0.00    -0.352 N 
ATOM     77  C   UNL A   1      32.612  28.455  22.784  1.00  0.00     0.251 C 
ATOM     78  H   UNL A   1      31.959  30.321  23.043  1.00  0.00     0.163 HD
ATOM     79  O   UNL A   1      33.381  28.791  21.883  1.00  0.00    -0.269 OA
BRANCH  77  80
ATOM     80  C   UNL A   1      32.533  27.020  23.160  1.00  0.00     0.039 A 
ATOM     81  C   UNL A   1      33.611  26.483  23.863  1.00  0.00     0.016 A 
ATOM     82  C   UNL A   1      31.478  26.179  22.779  1.00  0.00     0.016 A 
ATOM     83  C   UNL A   1      33.595  25.139  24.245  1.00  0.00     0.027 A 
ATOM     84  C   UNL A   1      31.469  24.816  23.156  1.00  0.00     0.027 A 
ATOM     85  C   UNL A   1      32.518  24.293  23.915  1.00  0.00     0.045 A 
BRANCH  85  86
ATOM     86  N   UNL A   1      32.478  22.957  24.446  1.00  0.00    -0.299 N 
ATOM     87  C   UNL A   1      32.000  22.863  25.801  1.00  0.00     0.259 C 
ATOM     88  C   UNL A   1      33.626  22.037  24.241  1.00  0.00     0.152 C 
ATOM     89  C   UNL A   1      32.867  21.889  26.533  1.00  0.00     0.248 C 
ATOM     90  O   UNL A   1      31.102  23.531  26.307  1.00  0.00    -0.271 OA
ATOM     91  C   UNL A   1      34.054  21.989  25.653  1.00  0.00     0.021 C 
ATOM     92  N   UNL A   1      33.417  22.333  27.824  1.00  0.00    -0.170 NA
ATOM     93  C   UNL A   1      35.100  22.206  26.444  1.00  0.00     0.097 C 
ATOM     94  N   UNL A   1      34.683  22.364  27.750  1.00  0.00    -0.154 NA
BRANCH  88  95
ATOM     95  C   UNL A   1      33.303  20.601  23.762  1.00  0.00    -0.020 A 
ATOM     96  C   UNL A   1      32.327  20.377  22.749  1.00  0.00     0.006 A 
ATOM     97  C   UNL A   1      33.865  19.460  24.350  1.00  0.00     0.022 A 
ATOM     98  C   UNL A   1      31.957  19.104  22.316  1.00  0.00     0.002 A 
ATOM     99  C   UNL A   1      33.464  18.174  23.933  1.00  0.00     0.018 A 
ATOM    100  C   UNL A   1      32.522  17.994  22.919  1.00  0.00     0.016 A 
ATOM    101  Br  UNL A   1      34.171  16.636  24.781  1.00  0.00    -0.051 Br
ENDBRANCH  88  95
BRANCH  93 102
ATOM    102  C   UNL A   1      36.500  22.435  26.110  1.00  0.00     0.002 A 
ATOM    103  C   UNL A   1      37.320  21.367  25.719  1.00  0.00     0.010 A 
ATOM    104  C   UNL A   1      37.082  23.673  26.409  1.00  0.00     0.010 A 
ATOM    105  C   UNL A   1      38.711  21.514  25.724  1.00  0.00     0.001 A 
ATOM    106  C   UNL A   1      38.470  23.816  26.410  1.00  0.00     0.001 A 
ATOM    107  C   UNL A   1      39.283  22.729  26.096  1.00  0.00     0.000 A 
ENDBRANCH  93 102
ENDBRANCH  85  86
ENDBRANCH  77  80
ENDBRANCH  75  76
ENDBRANCH  74  75
ENDBRANCH   1  74
TORSDOF 16
ENDMDL
MODEL 2
REMARK VINA RESULT:     -12.9      5.047     12.363
REMARK SMILES O=C(NCCCNC(=O)c1ccc(N2C(=O)[C@@H]3N=NC(c4ccccc4)=C3[C@H]2c2cccc(Br)c2)cc1)c1ccc(-c2c3nc(c(-c4c(F)cc(S(=O)(=O)[O-])cc4F)c4ccc([nH]4)c(-c4c(F)cc(S(=O)(=O)[O-])cc4F)c4nc(c(-c5c(F)cc(S(=O)(=O)[O-])cc5F)c5ccc2[nH]5)C=C4)C=C3)cc1
REMARK SMILES IDX 4 1 3 2 1 3 2 4 38 6 39 7 103 8 40 9 102 10 41 11 42 12
REMARK SMILES IDX 43 13 96 14 44 15 101 16 95 17 97 18 45 19 100 20 94 21
REMARK SMILES IDX 93 22 46 24 80 25 59 26 79 27 60 28 63 29 78 30 98 31 61 32
REMARK SMILES IDX 62 33 77 35 99 36 64 37 47 38 48 39 57 40 49 41 50 42 56 43
REMARK SMILES IDX 58 44 51 45 52 46 53 47 54 48 55 49 81 50 82 51 91 52 83 53
REMARK SMILES IDX 84 54 90 55 92 56 85 57 86 58 87 59 88 60 89 61 65 62 66 63
REMARK SMILES IDX 75 64 67 65 68 66 74 67 76 68 69 69 70 70 71 71 72 72 73 73
REMARK SMILES IDX 5 74 6 75 7 76 8 77 9 79 10 80 11 81 37 82 12 83 36 84 13 85
REMARK SMILES IDX 14 86 15 87 28 88 17 89 16 90 27 91 18 92 20 93 19 94 29 95
REMARK SMILES IDX 30 96 35 97 31 98 33 99 32 100 34 101 21 102 22 103 26 104
REMARK SMILES IDX 23 105 25 106 24 107
REMARK H PARENT 3 5 97 23 63 34 7 78
REMARK Flexibility Score: inf
ROOT
ATOM      1  C   UNL A   1      41.178  20.537  27.239  1.00  0.00     0.118 C 
ENDROOT
BRANCH   1   2
ATOM      2  N   UNL A   1      39.973  20.959  26.550  1.00  0.00    -0.352 N 
ATOM      3  O   UNL A   1      38.496  22.158  25.432  1.00  0.00    -0.269 OA
ATOM      4  C   UNL A   1      39.394  22.169  26.280  1.00  0.00     0.251 C 
ATOM      5  H   UNL A   1      39.454  20.202  26.196  1.00  0.00     0.163 HD
BRANCH   4   6
ATOM      6  C   UNL A   1      39.697  23.444  26.984  1.00  0.00     0.039 A 
ATOM      7  C   UNL A   1      38.899  24.588  26.988  1.00  0.00     0.014 A 
ATOM      8  C   UNL A   1      40.922  23.475  27.679  1.00  0.00     0.014 A 
ATOM      9  C   UNL A   1      39.356  25.762  27.590  1.00  0.00     0.010 A 
ATOM     10  C   UNL A   1      41.378  24.638  28.288  1.00  0.00     0.010 A 
ATOM     11  C   UNL A   1      40.606  25.794  28.217  1.00  0.00    -0.014 A 
BRANCH  11  12
ATOM     12  C   UNL A   1      40.970  26.974  29.004  1.00  0.00     0.031 A 
ATOM     13  C   UNL A   1      42.155  27.695  28.458  1.00  0.00     0.074 A 
ATOM     14  C   UNL A   1      40.212  27.485  29.999  1.00  0.00     0.049 A 
ATOM     15  N   UNL A   1      43.304  27.888  29.018  1.00  0.00    -0.248 NA
ATOM     16  C   UNL A   1      42.107  28.121  27.046  1.00  0.00     0.031 C 
ATOM     17  C   UNL A   1      38.885  27.028  30.419  1.00  0.00     0.029 A 
ATOM     18  N   UNL A   1      40.408  28.593  30.778  1.00  0.00    -0.354 N 
ATOM     19  C   UNL A   1      44.024  28.685  28.128  1.00  0.00     0.074 A 
ATOM     20  C   UNL A   1      43.336  28.605  26.869  1.00  0.00     0.031 C 
ATOM     21  C   UNL A   1      38.311  27.973  31.197  1.00  0.00     0.029 A 
ATOM     22  C   UNL A   1      39.259  29.052  31.424  1.00  0.00     0.049 A 
ATOM     23  H   UNL A   1      41.286  29.030  30.875  1.00  0.00     0.167 HD
ATOM     24  C   UNL A   1      44.943  29.585  28.577  1.00  0.00     0.037 A 
ATOM     25  C   UNL A   1      39.074  30.252  32.040  1.00  0.00     0.037 A 
ATOM     26  C   UNL A   1      45.383  29.252  29.910  1.00  0.00     0.049 A 
ATOM     27  C   UNL A   1      40.418  30.809  32.335  1.00  0.00     0.074 A 
ATOM     28  C   UNL A   1      45.943  28.139  30.509  1.00  0.00     0.029 A 
ATOM     29  N   UNL A   1      44.937  30.041  30.940  1.00  0.00    -0.354 N 
ATOM     30  N   UNL A   1      41.245  30.300  33.204  1.00  0.00    -0.248 NA
ATOM     31  C   UNL A   1      41.015  31.696  31.350  1.00  0.00     0.031 C 
ATOM     32  C   UNL A   1      45.377  28.096  31.817  1.00  0.00     0.029 A 
ATOM     33  C   UNL A   1      44.563  29.218  31.966  1.00  0.00     0.049 A 
ATOM     34  H   UNL A   1      44.893  31.025  30.939  1.00  0.00     0.167 HD
ATOM     35  C   UNL A   1      42.492  30.424  32.611  1.00  0.00     0.074 A 
ATOM     36  C   UNL A   1      42.301  31.382  31.525  1.00  0.00     0.031 C 
ATOM     37  C   UNL A   1      43.484  29.525  32.877  1.00  0.00     0.037 A 
BRANCH  24  38
ATOM     38  C   UNL A   1      45.090  30.989  28.010  1.00  0.00     0.058 A 
ATOM     39  C   UNL A   1      43.953  31.825  27.960  1.00  0.00     0.135 A 
ATOM     40  C   UNL A   1      46.191  31.427  27.237  1.00  0.00     0.135 A 
ATOM     41  F   UNL A   1      42.848  31.518  28.658  1.00  0.00    -0.206 F 
ATOM     42  C   UNL A   1      43.876  32.938  27.121  1.00  0.00     0.059 A 
ATOM     43  C   UNL A   1      46.153  32.563  26.438  1.00  0.00     0.059 A 
ATOM     44  F   UNL A   1      47.329  30.734  27.134  1.00  0.00    -0.206 F 
ATOM     45  C   UNL A   1      44.978  33.286  26.348  1.00  0.00     0.060 A 
BRANCH  45  46
ATOM     46  S   UNL A   1      44.855  34.657  25.190  1.00  0.00     0.124 S 
ATOM     47  O   UNL A   1      46.122  35.341  25.419  1.00  0.00    -0.237 OA
ATOM     48  O   UNL A   1      44.722  33.959  23.915  1.00  0.00    -0.237 OA
ATOM     49  O   UNL A   1      43.659  35.366  25.636  1.00  0.00    -0.744 OA
ENDBRANCH  45  46
ENDBRANCH  24  38
BRANCH  25  50
ATOM     50  C   UNL A   1      37.845  31.097  32.116  1.00  0.00     0.058 A 
ATOM     51  C   UNL A   1      37.417  31.668  33.335  1.00  0.00     0.135 A 
ATOM     52  C   UNL A   1      37.228  31.606  30.957  1.00  0.00     0.135 A 
ATOM     53  F   UNL A   1      37.956  31.263  34.496  1.00  0.00    -0.206 F 
ATOM     54  C   UNL A   1      36.486  32.714  33.392  1.00  0.00     0.059 A 
ATOM     55  C   UNL A   1      36.288  32.637  30.990  1.00  0.00     0.059 A 
ATOM     56  F   UNL A   1      37.589  31.184  29.737  1.00  0.00    -0.206 F 
ATOM     57  C   UNL A   1      35.942  33.208  32.208  1.00  0.00     0.060 A 
BRANCH  57  58
ATOM     58  S   UNL A   1      34.882  34.676  32.249  1.00  0.00     0.124 S 
ATOM     59  O   UNL A   1      34.801  35.030  30.837  1.00  0.00    -0.237 OA
ATOM     60  O   UNL A   1      33.657  34.158  32.848  1.00  0.00    -0.237 OA
ATOM     61  O   UNL A   1      35.632  35.612  33.083  1.00  0.00    -0.744 OA
ENDBRANCH  57  58
ENDBRANCH  25  50
BRANCH  37  62
ATOM     62  C   UNL A   1      43.352  28.653  34.096  1.00  0.00     0.058 A 
ATOM     63  C   UNL A   1      43.765  29.003  35.394  1.00  0.00     0.135 A 
ATOM     64  C   UNL A   1      42.663  27.439  33.947  1.00  0.00     0.135 A 
ATOM     65  F   UNL A   1      44.333  30.191  35.644  1.00  0.00    -0.206 F 
ATOM     66  C   UNL A   1      43.549  28.155  36.482  1.00  0.00     0.059 A 
ATOM     67  C   UNL A   1      42.406  26.597  35.022  1.00  0.00     0.059 A 
ATOM     68  F   UNL A   1      42.191  27.075  32.743  1.00  0.00    -0.206 F 
ATOM     69  C   UNL A   1      42.870  26.952  36.285  1.00  0.00     0.060 A 
BRANCH  69  70
ATOM     70  S   UNL A   1      42.549  25.876  37.699  1.00  0.00     0.124 S 
ATOM     71  O   UNL A   1      43.386  26.472  38.736  1.00  0.00    -0.237 OA
ATOM     72  O   UNL A   1      41.109  26.019  37.886  1.00  0.00    -0.237 OA
ATOM     73  O   UNL A   1      42.980  24.560  37.231  1.00  0.00    -0.744 OA
ENDBRANCH  69  70
ENDBRANCH  37  62
ENDBRANCH  11  12
ENDBRANCH   4   6
ENDBRANCH   1   2
BRANCH   1  74
ATOM     74  C   UNL A   1      42.228  19.829  26.384  1.00  0.00     0.042 C 
BRANCH  74  75
ATOM     75  C   UNL A   1      43.296  20.726  25.756  1.00  0.00     0.118 C 
BRANCH  75  76
ATOM     76  N   UNL A   1      44.550  20.038  25.500  1.00  0.00    -0.352 N 
ATOM     77  C   UNL A   1      45.801  20.532  25.225  1.00  0.00     0.251 C 
ATOM     78  H   UNL A   1      44.495  19.056  25.529  1.00  0.00     0.163 HD
ATOM     79  O   UNL A   1      46.699  19.748  24.921  1.00  0.00    -0.269 OA
BRANCH  77  80
ATOM     80  C   UNL A   1      46.097  21.987  25.249  1.00  0.00     0.039 A 
ATOM     81  C   UNL A   1      45.715  22.698  26.386  1.00  0.00     0.016 A 
ATOM     82  C   UNL A   1      46.662  22.679  24.168  1.00  0.00     0.016 A 
ATOM     83  C   UNL A   1      45.966  24.071  26.469  1.00  0.00     0.027 A 
ATOM     84  C   UNL A   1      46.905  24.069  24.248  1.00  0.00     0.027 A 
ATOM     85  C   UNL A   1      46.582  24.770  25.412  1.00  0.00     0.045 A 
BRANCH  85  86
ATOM     86  N   UNL A   1      46.947  26.149  25.593  1.00  0.00    -0.299 N 
ATOM     87  C   UNL A   1      46.039  27.094  24.998  1.00  0.00     0.259 C 
ATOM     88  C   UNL A   1      48.352  26.584  25.381  1.00  0.00     0.152 C 
ATOM     89  C   UNL A   1      46.848  28.167  24.341  1.00  0.00     0.248 C 
ATOM     90  O   UNL A   1      44.815  26.999  24.949  1.00  0.00    -0.271 OA
ATOM     91  C   UNL A   1      48.096  27.389  24.170  1.00  0.00     0.021 C 
ATOM     92  N   UNL A   1      46.507  28.492  22.947  1.00  0.00    -0.170 NA
ATOM     93  C   UNL A   1      48.460  27.523  22.900  1.00  0.00     0.097 C 
ATOM     94  N   UNL A   1      47.501  28.231  22.203  1.00  0.00    -0.154 NA
BRANCH  88  95
ATOM     95  C   UNL A   1      48.982  27.490  26.467  1.00  0.00    -0.020 A 
ATOM     96  C   UNL A   1      48.492  27.468  27.803  1.00  0.00     0.006 A 
ATOM     97  C   UNL A   1      49.980  28.433  26.183  1.00  0.00     0.022 A 
ATOM     98  C   UNL A   1      48.983  28.301  28.809  1.00  0.00     0.002 A 
ATOM     99  C   UNL A   1      50.450  29.295  27.195  1.00  0.00     0.018 A 
ATOM    100  C   UNL A   1      49.963  29.227  28.501  1.00  0.00     0.016 A 
ATOM    101  Br  UNL A   1      51.745  30.616  26.790  1.00  0.00    -0.051 Br
ENDBRANCH  88  95
BRANCH  93 102
ATOM    102  C   UNL A   1      49.577  26.932  22.173  1.00  0.00     0.002 A 
ATOM    103  C   UNL A   1      50.894  27.134  22.609  1.00  0.00     0.010 A 
ATOM    104  C   UNL A   1      49.351  26.365  20.913  1.00  0.00     0.010 A 
ATOM    105  C   UNL A   1      51.965  26.863  21.752  1.00  0.00     0.001 A 
ATOM    106  C   UNL A   1      50.423  26.093  20.062  1.00  0.00     0.001 A 
ATOM    107  C   UNL A   1      51.726  26.369  20.471  1.00  0.00     0.000 A 
ENDBRANCH  93 102
ENDBRANCH  85  86
ENDBRANCH  77  80
ENDBRANCH  75  76
ENDBRANCH  74  75
ENDBRANCH   1  74
TORSDOF 16
ENDMDL
MODEL 3
REMARK VINA RESULT:     -12.7      2.616      7.233
REMARK SMILES O=C(NCCCNC(=O)c1ccc(N2C(=O)[C@@H]3N=NC(c4ccccc4)=C3[C@H]2c2cccc(Br)c2)cc1)c1ccc(-c2c3nc(c(-c4c(F)cc(S(=O)(=O)[O-])cc4F)c4ccc([nH]4)c(-c4c(F)cc(S(=O)(=O)[O-])cc4F)c4nc(c(-c5c(F)cc(S(=O)(=O)[O-])cc5F)c5ccc2[nH]5)C=C4)C=C3)cc1
REMARK SMILES IDX 4 1 3 2 1 3 2 4 38 6 39 7 103 8 40 9 102 10 41 11 42 12
REMARK SMILES IDX 43 13 96 14 44 15 101 16 95 17 97 18 45 19 100 20 94 21
REMARK SMILES IDX 93 22 46 24 80 25 59 26 79 27 60 28 63 29 78 30 98 31 61 32
REMARK SMILES IDX 62 33 77 35 99 36 64 37 47 38 48 39 57 40 49 41 50 42 56 43
REMARK SMILES IDX 58 44 51 45 52 46 53 47 54 48 55 49 81 50 82 51 91 52 83 53
REMARK SMILES IDX 84 54 90 55 92 56 85 57 86 58 87 59 88 60 89 61 65 62 66 63
REMARK SMILES IDX 75 64 67 65 68 66 74 67 76 68 69 69 70 70 71 71 72 72 73 73
REMARK SMILES IDX 5 74 6 75 7 76 8 77 9 79 10 80 11 81 37 82 12 83 36 84 13 85
REMARK SMILES IDX 14 86 15 87 28 88 17 89 16 90 27 91 18 92 20 93 19 94 29 95
REMARK SMILES IDX 30 96 35 97 31 98 33 99 32 100 34 101 21 102 22 103 26 104
REMARK SMILES IDX 23 105 25 106 24 107
REMARK H PARENT 3 5 97 23 63 34 7 78
REMARK Flexibility Score: inf
ROOT
ATOM      1  C   UNL A   1      31.882  32.437  26.469  1.00  0.00     0.118 C 
ENDROOT
BRANCH   1   2
ATOM      2  N   UNL A   1      31.835  33.530  27.420  1.00  0.00    -0.352 N 
ATOM      3  O   UNL A   1      32.387  35.277  28.650  1.00  0.00    -0.269 OA
ATOM      4  C   UNL A   1      32.774  34.225  28.134  1.00  0.00     0.251 C 
ATOM      5  H   UNL A   1      30.919  33.845  27.591  1.00  0.00     0.163 HD
BRANCH   4   6
ATOM      6  C   UNL A   1      34.163  33.764  28.402  1.00  0.00     0.039 A 
ATOM      7  C   UNL A   1      35.296  34.102  27.659  1.00  0.00     0.014 A 
ATOM      8  C   UNL A   1      34.311  32.888  29.494  1.00  0.00     0.014 A 
ATOM      9  C   UNL A   1      36.526  33.506  27.943  1.00  0.00     0.010 A 
ATOM     10  C   UNL A   1      35.535  32.298  29.787  1.00  0.00     0.010 A 
ATOM     11  C   UNL A   1      36.639  32.584  28.990  1.00  0.00    -0.014 A 
BRANCH  11  12
ATOM     12  C   UNL A   1      37.974  32.129  29.385  1.00  0.00     0.031 A 
ATOM     13  C   UNL A   1      38.237  30.709  29.013  1.00  0.00     0.074 A 
ATOM     14  C   UNL A   1      38.945  32.942  29.854  1.00  0.00     0.049 A 
ATOM     15  N   UNL A   1      38.478  29.707  29.794  1.00  0.00    -0.248 NA
ATOM     16  C   UNL A   1      38.056  30.325  27.600  1.00  0.00     0.031 C 
ATOM     17  C   UNL A   1      38.889  34.401  29.978  1.00  0.00     0.029 A 
ATOM     18  N   UNL A   1      40.234  32.660  30.216  1.00  0.00    -0.354 N 
ATOM     19  C   UNL A   1      38.735  28.628  28.950  1.00  0.00     0.074 A 
ATOM     20  C   UNL A   1      38.248  29.008  27.652  1.00  0.00     0.031 C 
ATOM     21  C   UNL A   1      40.139  34.884  30.159  1.00  0.00     0.029 A 
ATOM     22  C   UNL A   1      41.072  33.775  30.273  1.00  0.00     0.049 A 
ATOM     23  H   UNL A   1      40.546  31.747  30.418  1.00  0.00     0.167 HD
ATOM     24  C   UNL A   1      39.602  27.642  29.315  1.00  0.00     0.037 A 
ATOM     25  C   UNL A   1      42.432  33.791  30.342  1.00  0.00     0.037 A 
ATOM     26  C   UNL A   1      39.780  27.615  30.746  1.00  0.00     0.049 A 
ATOM     27  C   UNL A   1      42.867  32.455  30.821  1.00  0.00     0.074 A 
ATOM     28  C   UNL A   1      38.939  27.502  31.837  1.00  0.00     0.029 A 
ATOM     29  N   UNL A   1      40.973  28.074  31.244  1.00  0.00    -0.354 N 
ATOM     30  N   UNL A   1      42.644  32.001  32.022  1.00  0.00    -0.248 NA
ATOM     31  C   UNL A   1      43.184  31.447  29.822  1.00  0.00     0.031 C 
ATOM     32  C   UNL A   1      39.511  28.344  32.836  1.00  0.00     0.029 A 
ATOM     33  C   UNL A   1      40.699  28.865  32.325  1.00  0.00     0.049 A 
ATOM     34  H   UNL A   1      41.867  27.870  30.885  1.00  0.00     0.167 HD
ATOM     35  C   UNL A   1      42.340  30.661  31.837  1.00  0.00     0.074 A 
ATOM     36  C   UNL A   1      42.791  30.355  30.482  1.00  0.00     0.031 C 
ATOM     37  C   UNL A   1      41.497  30.012  32.692  1.00  0.00     0.037 A 
BRANCH  24  38
ATOM     38  C   UNL A   1      40.618  27.024  28.367  1.00  0.00     0.058 A 
ATOM     39  C   UNL A   1      40.733  25.618  28.315  1.00  0.00     0.135 A 
ATOM     40  C   UNL A   1      41.681  27.735  27.760  1.00  0.00     0.135 A 
ATOM     41  F   UNL A   1      39.784  24.834  28.851  1.00  0.00    -0.206 F 
ATOM     42  C   UNL A   1      41.864  24.975  27.808  1.00  0.00     0.059 A 
ATOM     43  C   UNL A   1      42.789  27.112  27.201  1.00  0.00     0.059 A 
ATOM     44  F   UNL A   1      41.755  29.070  27.758  1.00  0.00    -0.206 F 
ATOM     45  C   UNL A   1      42.896  25.735  27.272  1.00  0.00     0.060 A 
BRANCH  45  46
ATOM     46  S   UNL A   1      44.400  24.923  26.709  1.00  0.00     0.124 S 
ATOM     47  O   UNL A   1      44.383  23.703  27.508  1.00  0.00    -0.237 OA
ATOM     48  O   UNL A   1      44.138  24.762  25.283  1.00  0.00    -0.237 OA
ATOM     49  O   UNL A   1      45.445  25.886  27.043  1.00  0.00    -0.744 OA
ENDBRANCH  45  46
ENDBRANCH  24  38
BRANCH  25  50
ATOM     50  C   UNL A   1      43.399  34.755  29.736  1.00  0.00     0.058 A 
ATOM     51  C   UNL A   1      43.731  34.701  28.365  1.00  0.00     0.135 A 
ATOM     52  C   UNL A   1      43.793  35.926  30.412  1.00  0.00     0.135 A 
ATOM     53  F   UNL A   1      43.384  33.635  27.626  1.00  0.00    -0.206 F 
ATOM     54  C   UNL A   1      44.357  35.765  27.698  1.00  0.00     0.059 A 
ATOM     55  C   UNL A   1      44.431  36.991  29.772  1.00  0.00     0.059 A 
ATOM     56  F   UNL A   1      43.487  36.118  31.702  1.00  0.00    -0.206 F 
ATOM     57  C   UNL A   1      44.684  36.917  28.409  1.00  0.00     0.060 A 
BRANCH  57  58
ATOM     58  S   UNL A   1      45.323  38.365  27.530  1.00  0.00     0.124 S 
ATOM     59  O   UNL A   1      46.418  37.792  26.757  1.00  0.00    -0.237 OA
ATOM     60  O   UNL A   1      44.161  38.802  26.764  1.00  0.00    -0.237 OA
ATOM     61  O   UNL A   1      45.727  39.265  28.608  1.00  0.00    -0.744 OA
ENDBRANCH  57  58
ENDBRANCH  25  50
BRANCH  37  62
ATOM     62  C   UNL A   1      41.223  30.632  34.035  1.00  0.00     0.058 A 
ATOM     63  C   UNL A   1      42.013  30.461  35.186  1.00  0.00     0.135 A 
ATOM     64  C   UNL A   1      40.156  31.541  34.119  1.00  0.00     0.135 A 
ATOM     65  F   UNL A   1      43.114  29.697  35.163  1.00  0.00    -0.206 F 
ATOM     66  C   UNL A   1      41.718  31.124  36.380  1.00  0.00     0.059 A 
ATOM     67  C   UNL A   1      39.867  32.238  35.286  1.00  0.00     0.059 A 
ATOM     68  F   UNL A   1      39.399  31.793  33.038  1.00  0.00    -0.206 F 
ATOM     69  C   UNL A   1      40.641  32.009  36.420  1.00  0.00     0.060 A 
BRANCH  69  70
ATOM     70  S   UNL A   1      40.286  32.901  37.949  1.00  0.00     0.124 S 
ATOM     71  O   UNL A   1      38.923  32.473  38.245  1.00  0.00    -0.237 OA
ATOM     72  O   UNL A   1      41.318  32.403  38.853  1.00  0.00    -0.237 OA
ATOM     73  O   UNL A   1      40.429  34.304  37.567  1.00  0.00    -0.744 OA
ENDBRANCH  69  70
ENDBRANCH  37  62
ENDBRANCH  11  12
ENDBRANCH   4   6
ENDBRANCH   1   2
BRANCH   1  74
ATOM     74  C   UNL A   1      31.915  31.029  27.064  1.00  0.00     0.042 C 
BRANCH  74  75
ATOM     75  C   UNL A   1      32.453  29.928  26.148  1.00  0.00     0.118 C 
BRANCH  75  76
ATOM     76  N   UNL A   1      31.955  30.017  24.785  1.00  0.00    -0.352 N 
ATOM     77  C   UNL A   1      31.722  29.038  23.853  1.00  0.00     0.251 C 
ATOM     78  H   UNL A   1      31.750  30.930  24.480  1.00  0.00     0.163 HD
ATOM     79  O   UNL A   1      31.410  29.365  22.708  1.00  0.00    -0.269 OA
BRANCH  77  80
ATOM     80  C   UNL A   1      31.869  27.594  24.171  1.00  0.00     0.039 A 
ATOM     81  C   UNL A   1      30.699  26.861  24.367  1.00  0.00     0.016 A 
ATOM     82  C   UNL A   1      33.109  26.966  24.356  1.00  0.00     0.016 A 
ATOM     83  C   UNL A   1      30.772  25.498  24.669  1.00  0.00     0.027 A 
ATOM     84  C   UNL A   1      33.180  25.590  24.674  1.00  0.00     0.027 A 
ATOM     85  C   UNL A   1      32.010  24.841  24.807  1.00  0.00     0.045 A 
BRANCH  85  86
ATOM     86  N   UNL A   1      32.039  23.413  24.980  1.00  0.00    -0.299 N 
ATOM     87  C   UNL A   1      31.694  22.962  26.303  1.00  0.00     0.259 C 
ATOM     88  C   UNL A   1      33.175  22.619  24.446  1.00  0.00     0.152 C 
ATOM     89  C   UNL A   1      32.639  21.867  26.682  1.00  0.00     0.248 C 
ATOM     90  O   UNL A   1      30.838  23.446  27.039  1.00  0.00    -0.271 OA
ATOM     91  C   UNL A   1      33.735  22.231  25.756  1.00  0.00     0.021 C 
ATOM     92  N   UNL A   1      33.302  21.989  27.990  1.00  0.00    -0.170 NA
ATOM     93  C   UNL A   1      34.848  22.279  26.480  1.00  0.00     0.097 C 
ATOM     94  N   UNL A   1      34.555  22.085  27.815  1.00  0.00    -0.154 NA
BRANCH  88  95
ATOM     95  C   UNL A   1      32.827  21.340  23.646  1.00  0.00    -0.020 A 
ATOM     96  C   UNL A   1      32.133  21.427  22.406  1.00  0.00     0.006 A 
ATOM     97  C   UNL A   1      33.081  20.049  24.130  1.00  0.00     0.022 A 
ATOM     98  C   UNL A   1      31.746  20.307  21.669  1.00  0.00     0.002 A 
ATOM     99  C   UNL A   1      32.658  18.920  23.398  1.00  0.00     0.018 A 
ATOM    100  C   UNL A   1      32.003  19.044  22.173  1.00  0.00     0.016 A 
ATOM    101  Br  UNL A   1      32.938  17.180  24.091  1.00  0.00    -0.051 Br
ENDBRANCH  88  95
BRANCH  93 102
ATOM    102  C   UNL A   1      36.208  22.637  26.093  1.00  0.00     0.002 A 
ATOM    103  C   UNL A   1      37.132  21.641  25.746  1.00  0.00     0.010 A 
ATOM    104  C   UNL A   1      36.655  23.947  26.299  1.00  0.00     0.010 A 
ATOM    105  C   UNL A   1      38.498  21.938  25.703  1.00  0.00     0.001 A 
ATOM    106  C   UNL A   1      38.019  24.240  26.252  1.00  0.00     0.001 A 
ATOM    107  C   UNL A   1      38.940  23.230  25.983  1.00  0.00     0.000 A 
ENDBRANCH  93 102
ENDBRANCH  85  86
ENDBRANCH  77  80
ENDBRANCH  75  76
ENDBRANCH  74  75
ENDBRANCH   1  74
TORSDOF 16
ENDMDL
