MODEL 1
REMARK VINA RESULT:     -10.3      0.000      0.000
REMARK SMILES CCNC(=O)C[NH2+][C@@H](C)[C@@H](C)C(=O)NCCCNC(=O)c1ccc(-c2c3nc(c(-c4c(F)cc(S(=O)(=O)[O-])cc4F)c4ccc([nH]4)c(-c4c(F)cc(S(=O)(=O)[O-])cc4F)c4nc(c(-c5c(F)cc(S(=O)(=O)[O-])cc5F)c5ccc2[nH]5)C=C4)C=C3)cc1
REMARK SMILES IDX 15 1 14 2 12 3 13 4 10 6 11 7 8 8 9 9 7 10 6 13 4 14 3 15
REMARK SMILES IDX 5 17 2 18 1 19 16 20 17 21 18 22 19 23 20 25 21 26 22 27
REMARK SMILES IDX 86 28 23 29 85 30 24 31 25 32 26 33 79 34 27 35 84 36 78 37
REMARK SMILES IDX 80 38 28 39 83 40 77 41 76 42 29 44 63 45 42 46 62 47 43 48
REMARK SMILES IDX 46 49 61 50 81 51 44 52 45 53 60 55 82 56 47 57 30 58 31 59
REMARK SMILES IDX 40 60 32 61 33 62 39 63 41 64 34 65 35 66 36 67 37 68 38 69
REMARK SMILES IDX 64 70 65 71 74 72 66 73 67 74 73 75 75 76 68 77 69 78 70 79
REMARK SMILES IDX 71 80 72 81 48 82 49 83 58 84 50 85 51 86 57 87 59 88 52 89
REMARK SMILES IDX 53 90 54 91 55 92 56 93
REMARK H PARENT 14 5 7 11 7 12 3 16 18 24 80 43 46 54
REMARK Flexibility Score: inf
ROOT
ATOM      1  C   UNL A   1      37.678  22.457  25.741  1.00  0.00     0.117 C 
ENDROOT
BRANCH   1   2
ATOM      2  N   UNL A   1      37.393  22.629  24.327  1.00  0.00    -0.356 N 
ATOM      3  C   UNL A   1      36.232  22.866  23.659  1.00  0.00     0.228 C 
ATOM      4  O   UNL A   1      36.300  22.975  22.432  1.00  0.00    -0.275 OA
ATOM      5  H   UNL A   1      38.184  22.564  23.745  1.00  0.00     0.163 HD
BRANCH   3   6
ATOM      6  C   UNL A   1      34.887  23.008  24.368  1.00  0.00     0.133 C 
ATOM      7  C   UNL A   1      33.947  21.876  23.940  1.00  0.00     0.024 C 
BRANCH   6   8
ATOM      8  C   UNL A   1      34.312  24.444  24.267  1.00  0.00     0.191 C 
ATOM      9  C   UNL A   1      33.404  24.740  25.473  1.00  0.00     0.076 C 
BRANCH   8  10
ATOM     10  N   UNL A   1      33.582  24.616  23.000  1.00  0.00    -0.336 N 
ATOM     11  H   UNL A   1      34.055  24.078  22.274  1.00  0.00     0.346 HD
ATOM     12  H   UNL A   1      32.626  24.291  23.145  1.00  0.00     0.346 HD
BRANCH  10  13
ATOM     13  C   UNL A   1      33.516  26.028  22.576  1.00  0.00     0.362 C 
BRANCH  13  14
ATOM     14  C   UNL A   1      32.458  26.198  21.483  1.00  0.00     0.275 C 
ATOM     15  N   UNL A   1      31.437  27.087  21.668  1.00  0.00    -0.351 N 
ATOM     16  H   UNL A   1      30.724  27.068  20.990  1.00  0.00     0.163 HD
ATOM     17  O   UNL A   1      32.501  25.546  20.437  1.00  0.00    -0.269 OA
BRANCH  15  18
ATOM     18  C   UNL A   1      31.268  28.052  22.736  1.00  0.00     0.112 C 
ATOM     19  C   UNL A   1      30.233  29.095  22.354  1.00  0.00     0.027 C 
ENDBRANCH  15  18
ENDBRANCH  13  14
ENDBRANCH  10  13
ENDBRANCH   8  10
ENDBRANCH   6   8
ENDBRANCH   3   6
ENDBRANCH   1   2
BRANCH   1  20
ATOM     20  C   UNL A   1      38.300  23.700  26.364  1.00  0.00     0.042 C 
BRANCH  20  21
ATOM     21  C   UNL A   1      39.686  23.471  26.953  1.00  0.00     0.118 C 
BRANCH  21  22
ATOM     22  N   UNL A   1      40.750  23.949  26.082  1.00  0.00    -0.352 N 
ATOM     23  C   UNL A   1      41.482  25.109  26.133  1.00  0.00     0.251 C 
ATOM     24  H   UNL A   1      40.981  23.346  25.339  1.00  0.00     0.163 HD
ATOM     25  O   UNL A   1      42.191  25.416  25.174  1.00  0.00    -0.269 OA
BRANCH  23  26
ATOM     26  C   UNL A   1      41.410  25.993  27.315  1.00  0.00     0.039 A 
ATOM     27  C   UNL A   1      42.276  27.086  27.400  1.00  0.00     0.014 A 
ATOM     28  C   UNL A   1      40.503  25.741  28.348  1.00  0.00     0.014 A 
ATOM     29  C   UNL A   1      42.183  27.963  28.483  1.00  0.00     0.010 A 
ATOM     30  C   UNL A   1      40.348  26.666  29.376  1.00  0.00     0.010 A 
ATOM     31  C   UNL A   1      41.190  27.783  29.460  1.00  0.00    -0.014 A 
BRANCH  31  32
ATOM     32  C   UNL A   1      41.015  28.750  30.575  1.00  0.00     0.031 A 
ATOM     33  C   UNL A   1      41.874  28.646  31.808  1.00  0.00     0.074 A 
ATOM     34  C   UNL A   1      40.039  29.677  30.506  1.00  0.00     0.049 A 
ATOM     35  N   UNL A   1      41.820  29.345  32.913  1.00  0.00    -0.248 NA
ATOM     36  C   UNL A   1      42.910  27.600  31.811  1.00  0.00     0.031 C 
ATOM     37  C   UNL A   1      39.110  29.846  29.385  1.00  0.00     0.029 A 
ATOM     38  N   UNL A   1      39.655  30.645  31.400  1.00  0.00    -0.354 N 
ATOM     39  C   UNL A   1      42.801  28.816  33.744  1.00  0.00     0.074 A 
ATOM     40  C   UNL A   1      43.394  27.701  33.040  1.00  0.00     0.031 C 
ATOM     41  C   UNL A   1      38.283  30.871  29.648  1.00  0.00     0.029 A 
ATOM     42  C   UNL A   1      38.589  31.403  30.972  1.00  0.00     0.049 A 
ATOM     43  H   UNL A   1      40.101  30.785  32.267  1.00  0.00     0.167 HD
ATOM     44  C   UNL A   1      43.189  29.239  34.971  1.00  0.00     0.037 A 
ATOM     45  C   UNL A   1      37.927  32.406  31.581  1.00  0.00     0.037 A 
ATOM     46  C   UNL A   1      42.607  30.364  35.655  1.00  0.00     0.049 A 
ATOM     47  C   UNL A   1      38.369  32.850  32.949  1.00  0.00     0.074 A 
ATOM     48  C   UNL A   1      42.965  30.907  36.877  1.00  0.00     0.029 A 
ATOM     49  N   UNL A   1      41.543  31.117  35.180  1.00  0.00    -0.354 N 
ATOM     50  N   UNL A   1      39.341  32.380  33.694  1.00  0.00    -0.248 NA
ATOM     51  C   UNL A   1      37.630  33.964  33.559  1.00  0.00     0.031 C 
ATOM     52  C   UNL A   1      42.084  31.953  37.165  1.00  0.00     0.029 A 
ATOM     53  C   UNL A   1      41.216  32.104  36.095  1.00  0.00     0.049 A 
ATOM     54  H   UNL A   1      41.087  30.971  34.320  1.00  0.00     0.167 HD
ATOM     55  C   UNL A   1      39.353  33.163  34.844  1.00  0.00     0.074 A 
ATOM     56  C   UNL A   1      38.295  34.141  34.692  1.00  0.00     0.031 C 
ATOM     57  C   UNL A   1      40.167  33.080  35.925  1.00  0.00     0.037 A 
BRANCH  44  58
ATOM     58  C   UNL A   1      44.297  28.482  35.654  1.00  0.00     0.058 A 
ATOM     59  C   UNL A   1      45.648  28.816  35.462  1.00  0.00     0.135 A 
ATOM     60  C   UNL A   1      44.005  27.435  36.544  1.00  0.00     0.135 A 
ATOM     61  F   UNL A   1      45.988  29.799  34.613  1.00  0.00    -0.206 F 
ATOM     62  C   UNL A   1      46.669  28.121  36.101  1.00  0.00     0.059 A 
ATOM     63  C   UNL A   1      45.009  26.747  37.219  1.00  0.00     0.059 A 
ATOM     64  F   UNL A   1      42.732  27.072  36.766  1.00  0.00    -0.206 F 
ATOM     65  C   UNL A   1      46.339  27.087  36.980  1.00  0.00     0.060 A 
BRANCH  65  66
ATOM     66  S   UNL A   1      47.677  26.201  37.806  1.00  0.00     0.124 S 
ATOM     67  O   UNL A   1      48.641  26.053  36.719  1.00  0.00    -0.237 OA
ATOM     68  O   UNL A   1      48.056  27.128  38.866  1.00  0.00    -0.237 OA
ATOM     69  O   UNL A   1      47.042  24.965  38.253  1.00  0.00    -0.744 OA
ENDBRANCH  65  66
ENDBRANCH  44  58
BRANCH  45  70
ATOM     70  C   UNL A   1      36.787  33.070  30.892  1.00  0.00     0.058 A 
ATOM     71  C   UNL A   1      37.007  33.995  29.861  1.00  0.00     0.135 A 
ATOM     72  C   UNL A   1      35.457  32.785  31.239  1.00  0.00     0.135 A 
ATOM     73  F   UNL A   1      38.260  34.306  29.495  1.00  0.00    -0.206 F 
ATOM     74  C   UNL A   1      35.953  34.629  29.211  1.00  0.00     0.059 A 
ATOM     75  C   UNL A   1      34.384  33.384  30.585  1.00  0.00     0.059 A 
ATOM     76  F   UNL A   1      35.191  31.893  32.206  1.00  0.00    -0.206 F 
ATOM     77  C   UNL A   1      34.643  34.313  29.578  1.00  0.00     0.060 A 
BRANCH  77  78
ATOM     78  S   UNL A   1      33.282  35.105  28.695  1.00  0.00     0.124 S 
ATOM     79  O   UNL A   1      33.986  36.115  27.914  1.00  0.00    -0.237 OA
ATOM     80  O   UNL A   1      32.719  33.990  27.940  1.00  0.00    -0.237 OA
ATOM     81  O   UNL A   1      32.436  35.615  29.770  1.00  0.00    -0.744 OA
ENDBRANCH  77  78
ENDBRANCH  45  70
BRANCH  57  82
ATOM     82  C   UNL A   1      39.983  34.102  37.015  1.00  0.00     0.058 A 
ATOM     83  C   UNL A   1      40.607  35.358  36.968  1.00  0.00     0.135 A 
ATOM     84  C   UNL A   1      39.119  33.838  38.092  1.00  0.00     0.135 A 
ATOM     85  F   UNL A   1      41.447  35.658  35.965  1.00  0.00    -0.206 F 
ATOM     86  C   UNL A   1      40.398  36.309  37.961  1.00  0.00     0.059 A 
ATOM     87  C   UNL A   1      38.872  34.786  39.078  1.00  0.00     0.059 A 
ATOM     88  F   UNL A   1      38.489  32.656  38.180  1.00  0.00    -0.206 F 
ATOM     89  C   UNL A   1      39.524  36.016  39.011  1.00  0.00     0.060 A 
BRANCH  89  90
ATOM     90  S   UNL A   1      39.231  37.276  40.269  1.00  0.00     0.124 S 
ATOM     91  O   UNL A   1      38.479  36.524  41.268  1.00  0.00    -0.237 OA
ATOM     92  O   UNL A   1      40.587  37.658  40.650  1.00  0.00    -0.237 OA
ATOM     93  O   UNL A   1      38.475  38.301  39.555  1.00  0.00    -0.744 OA
ENDBRANCH  89  90
ENDBRANCH  57  82
ENDBRANCH  31  32
ENDBRANCH  23  26
ENDBRANCH  21  22
ENDBRANCH  20  21
ENDBRANCH   1  20
TORSDOF 18
ENDMDL
MODEL 2
REMARK VINA RESULT:     -10.2      3.536      5.055
REMARK SMILES CCNC(=O)C[NH2+][C@@H](C)[C@@H](C)C(=O)NCCCNC(=O)c1ccc(-c2c3nc(c(-c4c(F)cc(S(=O)(=O)[O-])cc4F)c4ccc([nH]4)c(-c4c(F)cc(S(=O)(=O)[O-])cc4F)c4nc(c(-c5c(F)cc(S(=O)(=O)[O-])cc5F)c5ccc2[nH]5)C=C4)C=C3)cc1
REMARK SMILES IDX 15 1 14 2 12 3 13 4 10 6 11 7 8 8 9 9 7 10 6 13 4 14 3 15
REMARK SMILES IDX 5 17 2 18 1 19 16 20 17 21 18 22 19 23 20 25 21 26 22 27
REMARK SMILES IDX 86 28 23 29 85 30 24 31 25 32 26 33 79 34 27 35 84 36 78 37
REMARK SMILES IDX 80 38 28 39 83 40 77 41 76 42 29 44 63 45 42 46 62 47 43 48
REMARK SMILES IDX 46 49 61 50 81 51 44 52 45 53 60 55 82 56 47 57 30 58 31 59
REMARK SMILES IDX 40 60 32 61 33 62 39 63 41 64 34 65 35 66 36 67 37 68 38 69
REMARK SMILES IDX 64 70 65 71 74 72 66 73 67 74 73 75 75 76 68 77 69 78 70 79
REMARK SMILES IDX 71 80 72 81 48 82 49 83 58 84 50 85 51 86 57 87 59 88 52 89
REMARK SMILES IDX 53 90 54 91 55 92 56 93
REMARK H PARENT 14 5 7 11 7 12 3 16 18 24 80 43 46 54
REMARK Flexibility Score: inf
ROOT
ATOM      1  C   UNL A   1      41.503  20.847  26.135  1.00  0.00     0.117 C 
ENDROOT
BRANCH   1   2
ATOM      2  N   UNL A   1      42.263  19.613  26.240  1.00  0.00    -0.356 N 
ATOM      3  C   UNL A   1      43.407  19.199  25.634  1.00  0.00     0.228 C 
ATOM      4  O   UNL A   1      43.829  18.078  25.933  1.00  0.00    -0.275 OA
ATOM      5  H   UNL A   1      41.879  18.957  26.866  1.00  0.00     0.163 HD
BRANCH   3   6
ATOM      6  C   UNL A   1      44.169  20.063  24.631  1.00  0.00     0.133 C 
ATOM      7  C   UNL A   1      45.490  19.385  24.253  1.00  0.00     0.024 C 
BRANCH   6   8
ATOM      8  C   UNL A   1      44.268  21.543  25.080  1.00  0.00     0.191 C 
ATOM      9  C   UNL A   1      44.600  22.443  23.877  1.00  0.00     0.076 C 
BRANCH   8  10
ATOM     10  N   UNL A   1      45.275  21.691  26.145  1.00  0.00    -0.336 N 
ATOM     11  H   UNL A   1      44.810  21.606  27.049  1.00  0.00     0.346 HD
ATOM     12  H   UNL A   1      45.975  20.961  26.014  1.00  0.00     0.346 HD
BRANCH  10  13
ATOM     13  C   UNL A   1      45.967  22.993  26.089  1.00  0.00     0.362 C 
BRANCH  13  14
ATOM     14  C   UNL A   1      45.203  24.027  26.918  1.00  0.00     0.275 C 
ATOM     15  N   UNL A   1      45.239  25.343  26.550  1.00  0.00    -0.351 N 
ATOM     16  H   UNL A   1      44.831  25.976  27.183  1.00  0.00     0.163 HD
ATOM     17  O   UNL A   1      44.558  23.704  27.918  1.00  0.00    -0.269 OA
BRANCH  15  18
ATOM     18  C   UNL A   1      45.801  25.925  25.348  1.00  0.00     0.112 C 
ATOM     19  C   UNL A   1      45.354  27.368  25.194  1.00  0.00     0.027 C 
ENDBRANCH  15  18
ENDBRANCH  13  14
ENDBRANCH  10  13
ENDBRANCH   8  10
ENDBRANCH   6   8
ENDBRANCH   3   6
ENDBRANCH   1   2
BRANCH   1  20
ATOM     20  C   UNL A   1      41.192  21.456  27.495  1.00  0.00     0.042 C 
BRANCH  20  21
ATOM     21  C   UNL A   1      40.917  22.954  27.457  1.00  0.00     0.118 C 
BRANCH  21  22
ATOM     22  N   UNL A   1      41.601  23.620  26.357  1.00  0.00    -0.352 N 
ATOM     23  C   UNL A   1      41.824  24.955  26.133  1.00  0.00     0.251 C 
ATOM     24  H   UNL A   1      41.960  23.018  25.666  1.00  0.00     0.163 HD
ATOM     25  O   UNL A   1      42.240  25.320  25.033  1.00  0.00    -0.269 OA
BRANCH  23  26
ATOM     26  C   UNL A   1      41.551  25.952  27.189  1.00  0.00     0.039 A 
ATOM     27  C   UNL A   1      40.505  25.722  28.087  1.00  0.00     0.014 A 
ATOM     28  C   UNL A   1      42.310  27.121  27.289  1.00  0.00     0.014 A 
ATOM     29  C   UNL A   1      40.269  26.627  29.124  1.00  0.00     0.010 A 
ATOM     30  C   UNL A   1      42.135  27.972  28.376  1.00  0.00     0.010 A 
ATOM     31  C   UNL A   1      41.109  27.739  29.303  1.00  0.00    -0.014 A 
BRANCH  31  32
ATOM     32  C   UNL A   1      40.932  28.668  30.449  1.00  0.00     0.031 A 
ATOM     33  C   UNL A   1      41.779  28.513  31.685  1.00  0.00     0.074 A 
ATOM     34  C   UNL A   1      39.966  29.607  30.403  1.00  0.00     0.049 A 
ATOM     35  N   UNL A   1      41.722  29.174  32.813  1.00  0.00    -0.248 NA
ATOM     36  C   UNL A   1      42.805  27.457  31.661  1.00  0.00     0.031 C 
ATOM     37  C   UNL A   1      39.049  29.824  29.281  1.00  0.00     0.029 A 
ATOM     38  N   UNL A   1      39.584  30.547  31.327  1.00  0.00    -0.354 N 
ATOM     39  C   UNL A   1      42.690  28.606  33.634  1.00  0.00     0.074 A 
ATOM     40  C   UNL A   1      43.278  27.510  32.897  1.00  0.00     0.031 C 
ATOM     41  C   UNL A   1      38.230  30.847  29.572  1.00  0.00     0.029 A 
ATOM     42  C   UNL A   1      38.529  31.329  30.917  1.00  0.00     0.049 A 
ATOM     43  H   UNL A   1      40.023  30.652  32.202  1.00  0.00     0.167 HD
ATOM     44  C   UNL A   1      43.070  28.982  34.879  1.00  0.00     0.037 A 
ATOM     45  C   UNL A   1      37.871  32.318  31.554  1.00  0.00     0.037 A 
ATOM     46  C   UNL A   1      42.493  30.089  35.596  1.00  0.00     0.049 A 
ATOM     47  C   UNL A   1      38.304  32.710  32.940  1.00  0.00     0.074 A 
ATOM     48  C   UNL A   1      42.845  30.585  36.839  1.00  0.00     0.029 A 
ATOM     49  N   UNL A   1      41.440  30.868  35.138  1.00  0.00    -0.354 N 
ATOM     50  N   UNL A   1      39.265  32.205  33.677  1.00  0.00    -0.248 NA
ATOM     51  C   UNL A   1      37.571  33.809  33.582  1.00  0.00     0.031 C 
ATOM     52  C   UNL A   1      41.972  31.630  37.155  1.00  0.00     0.029 A 
ATOM     53  C   UNL A   1      41.115  31.826  36.084  1.00  0.00     0.049 A 
ATOM     54  H   UNL A   1      40.991  30.757  34.269  1.00  0.00     0.167 HD
ATOM     55  C   UNL A   1      39.274  32.946  34.854  1.00  0.00     0.074 A 
ATOM     56  C   UNL A   1      38.227  33.940  34.727  1.00  0.00     0.031 C 
ATOM     57  C   UNL A   1      40.077  32.818  35.939  1.00  0.00     0.037 A 
BRANCH  44  58
ATOM     58  C   UNL A   1      44.164  28.191  35.545  1.00  0.00     0.058 A 
ATOM     59  C   UNL A   1      45.519  28.532  35.395  1.00  0.00     0.135 A 
ATOM     60  C   UNL A   1      43.855  27.102  36.376  1.00  0.00     0.135 A 
ATOM     61  F   UNL A   1      45.876  29.555  34.601  1.00  0.00    -0.206 F 
ATOM     62  C   UNL A   1      46.527  27.804  36.019  1.00  0.00     0.059 A 
ATOM     63  C   UNL A   1      44.846  26.380  37.036  1.00  0.00     0.059 A 
ATOM     64  F   UNL A   1      42.578  26.731  36.556  1.00  0.00    -0.206 F 
ATOM     65  C   UNL A   1      46.180  26.729  36.839  1.00  0.00     0.060 A 
BRANCH  65  66
ATOM     66  S   UNL A   1      47.501  25.802  37.646  1.00  0.00     0.124 S 
ATOM     67  O   UNL A   1      48.409  26.875  38.042  1.00  0.00    -0.237 OA
ATOM     68  O   UNL A   1      46.794  25.136  38.735  1.00  0.00    -0.237 OA
ATOM     69  O   UNL A   1      47.994  24.923  36.591  1.00  0.00    -0.744 OA
ENDBRANCH  65  66
ENDBRANCH  44  58
BRANCH  45  70
ATOM     70  C   UNL A   1      36.744  33.017  30.878  1.00  0.00     0.058 A 
ATOM     71  C   UNL A   1      36.978  33.913  29.825  1.00  0.00     0.135 A 
ATOM     72  C   UNL A   1      35.411  32.794  31.261  1.00  0.00     0.135 A 
ATOM     73  F   UNL A   1      38.234  34.164  29.425  1.00  0.00    -0.206 F 
ATOM     74  C   UNL A   1      35.936  34.579  29.187  1.00  0.00     0.059 A 
ATOM     75  C   UNL A   1      34.350  33.426  30.620  1.00  0.00     0.059 A 
ATOM     76  F   UNL A   1      35.131  31.932  32.250  1.00  0.00    -0.206 F 
ATOM     77  C   UNL A   1      34.624  34.325  29.590  1.00  0.00     0.060 A 
BRANCH  77  78
ATOM     78  S   UNL A   1      33.277  35.158  28.722  1.00  0.00     0.124 S 
ATOM     79  O   UNL A   1      32.437  35.592  29.832  1.00  0.00    -0.237 OA
ATOM     80  O   UNL A   1      33.984  36.213  28.003  1.00  0.00    -0.237 OA
ATOM     81  O   UNL A   1      32.717  34.103  27.882  1.00  0.00    -0.744 OA
ENDBRANCH  77  78
ENDBRANCH  45  70
BRANCH  57  82
ATOM     82  C   UNL A   1      39.893  33.803  37.061  1.00  0.00     0.058 A 
ATOM     83  C   UNL A   1      40.468  35.083  37.028  1.00  0.00     0.135 A 
ATOM     84  C   UNL A   1      39.078  33.478  38.159  1.00  0.00     0.135 A 
ATOM     85  F   UNL A   1      41.260  35.441  36.006  1.00  0.00    -0.206 F 
ATOM     86  C   UNL A   1      40.258  35.999  38.053  1.00  0.00     0.059 A 
ATOM     87  C   UNL A   1      38.829  34.390  39.179  1.00  0.00     0.059 A 
ATOM     88  F   UNL A   1      38.496  32.271  38.237  1.00  0.00    -0.206 F 
ATOM     89  C   UNL A   1      39.433  35.645  39.123  1.00  0.00     0.060 A 
BRANCH  89  90
ATOM     90  S   UNL A   1      39.136  36.860  40.425  1.00  0.00     0.124 S 
ATOM     91  O   UNL A   1      40.486  37.087  40.929  1.00  0.00    -0.237 OA
ATOM     92  O   UNL A   1      38.539  37.969  39.687  1.00  0.00    -0.237 OA
ATOM     93  O   UNL A   1      38.233  36.166  41.339  1.00  0.00    -0.744 OA
ENDBRANCH  89  90
ENDBRANCH  57  82
ENDBRANCH  31  32
ENDBRANCH  23  26
ENDBRANCH  21  22
ENDBRANCH  20  21
ENDBRANCH   1  20
TORSDOF 18
ENDMDL
MODEL 3
REMARK VINA RESULT:     -10.1      6.366      8.692
REMARK SMILES CCNC(=O)C[NH2+][C@@H](C)[C@@H](C)C(=O)NCCCNC(=O)c1ccc(-c2c3nc(c(-c4c(F)cc(S(=O)(=O)[O-])cc4F)c4ccc([nH]4)c(-c4c(F)cc(S(=O)(=O)[O-])cc4F)c4nc(c(-c5c(F)cc(S(=O)(=O)[O-])cc5F)c5ccc2[nH]5)C=C4)C=C3)cc1
REMARK SMILES IDX 15 1 14 2 12 3 13 4 10 6 11 7 8 8 9 9 7 10 6 13 4 14 3 15
REMARK SMILES IDX 5 17 2 18 1 19 16 20 17 21 18 22 19 23 20 25 21 26 22 27
REMARK SMILES IDX 86 28 23 29 85 30 24 31 25 32 26 33 79 34 27 35 84 36 78 37
REMARK SMILES IDX 80 38 28 39 83 40 77 41 76 42 29 44 63 45 42 46 62 47 43 48
REMARK SMILES IDX 46 49 61 50 81 51 44 52 45 53 60 55 82 56 47 57 30 58 31 59
REMARK SMILES IDX 40 60 32 61 33 62 39 63 41 64 34 65 35 66 36 67 37 68 38 69
REMARK SMILES IDX 64 70 65 71 74 72 66 73 67 74 73 75 75 76 68 77 69 78 70 79
REMARK SMILES IDX 71 80 72 81 48 82 49 83 58 84 50 85 51 86 57 87 59 88 52 89
REMARK SMILES IDX 53 90 54 91 55 92 56 93
REMARK H PARENT 14 5 7 11 7 12 3 16 18 24 80 43 46 54
REMARK Flexibility Score: inf
ROOT
ATOM      1  C   UNL A   1      36.942  20.137  25.354  1.00  0.00     0.117 C 
ENDROOT
BRANCH   1   2
ATOM      2  N   UNL A   1      36.979  21.486  25.891  1.00  0.00    -0.356 N 
ATOM      3  C   UNL A   1      36.434  22.652  25.451  1.00  0.00     0.228 C 
ATOM      4  O   UNL A   1      36.634  23.660  26.134  1.00  0.00    -0.275 OA
ATOM      5  H   UNL A   1      37.493  21.573  26.726  1.00  0.00     0.163 HD
BRANCH   3   6
ATOM      6  C   UNL A   1      35.595  22.742  24.178  1.00  0.00     0.133 C 
ATOM      7  C   UNL A   1      36.505  22.978  22.967  1.00  0.00     0.024 C 
BRANCH   6   8
ATOM      8  C   UNL A   1      34.395  23.711  24.326  1.00  0.00     0.191 C 
ATOM      9  C   UNL A   1      33.309  23.081  25.214  1.00  0.00     0.076 C 
BRANCH   8  10
ATOM     10  N   UNL A   1      33.856  24.067  23.003  1.00  0.00    -0.336 N 
ATOM     11  H   UNL A   1      34.472  23.685  22.285  1.00  0.00     0.346 HD
ATOM     12  H   UNL A   1      32.916  23.677  22.935  1.00  0.00     0.346 HD
BRANCH  10  13
ATOM     13  C   UNL A   1      33.752  25.526  22.810  1.00  0.00     0.362 C 
BRANCH  13  14
ATOM     14  C   UNL A   1      32.831  25.834  21.628  1.00  0.00     0.275 C 
ATOM     15  N   UNL A   1      31.497  26.028  21.848  1.00  0.00    -0.351 N 
ATOM     16  H   UNL A   1      30.936  26.104  21.043  1.00  0.00     0.163 HD
ATOM     17  O   UNL A   1      33.263  25.907  20.475  1.00  0.00    -0.269 OA
BRANCH  15  18
ATOM     18  C   UNL A   1      30.801  26.134  23.115  1.00  0.00     0.112 C 
ATOM     19  C   UNL A   1      30.277  24.778  23.552  1.00  0.00     0.027 C 
ENDBRANCH  15  18
ENDBRANCH  13  14
ENDBRANCH  10  13
ENDBRANCH   8  10
ENDBRANCH   6   8
ENDBRANCH   3   6
ENDBRANCH   1   2
BRANCH   1  20
ATOM     20  C   UNL A   1      38.324  19.625  24.972  1.00  0.00     0.042 C 
BRANCH  20  21
ATOM     21  C   UNL A   1      39.448  20.157  25.851  1.00  0.00     0.118 C 
BRANCH  21  22
ATOM     22  N   UNL A   1      40.481  19.161  26.102  1.00  0.00    -0.352 N 
ATOM     23  C   UNL A   1      41.832  19.315  26.289  1.00  0.00     0.251 C 
ATOM     24  H   UNL A   1      40.160  18.232  26.145  1.00  0.00     0.163 HD
ATOM     25  O   UNL A   1      42.559  18.321  26.277  1.00  0.00    -0.269 OA
BRANCH  23  26
ATOM     26  C   UNL A   1      42.417  20.658  26.483  1.00  0.00     0.039 A 
ATOM     27  C   UNL A   1      42.917  21.349  25.376  1.00  0.00     0.014 A 
ATOM     28  C   UNL A   1      42.490  21.234  27.755  1.00  0.00     0.014 A 
ATOM     29  C   UNL A   1      43.423  22.641  25.535  1.00  0.00     0.010 A 
ATOM     30  C   UNL A   1      42.906  22.555  27.896  1.00  0.00     0.010 A 
ATOM     31  C   UNL A   1      43.384  23.271  26.789  1.00  0.00    -0.014 A 
BRANCH  31  32
ATOM     32  C   UNL A   1      43.835  24.676  26.966  1.00  0.00     0.031 A 
ATOM     33  C   UNL A   1      45.287  25.032  26.782  1.00  0.00     0.074 A 
ATOM     34  C   UNL A   1      42.952  25.616  27.359  1.00  0.00     0.049 A 
ATOM     35  N   UNL A   1      45.885  26.181  26.966  1.00  0.00    -0.248 NA
ATOM     36  C   UNL A   1      46.191  23.948  26.364  1.00  0.00     0.031 C 
ATOM     37  C   UNL A   1      41.529  25.384  27.617  1.00  0.00     0.029 A 
ATOM     38  N   UNL A   1      43.120  26.952  27.620  1.00  0.00    -0.354 N 
ATOM     39  C   UNL A   1      47.231  25.955  26.701  1.00  0.00     0.074 A 
ATOM     40  C   UNL A   1      47.371  24.547  26.402  1.00  0.00     0.031 C 
ATOM     41  C   UNL A   1      40.951  26.541  27.975  1.00  0.00     0.029 A 
ATOM     42  C   UNL A   1      41.967  27.588  28.018  1.00  0.00     0.049 A 
ATOM     43  H   UNL A   1      43.987  27.413  27.533  1.00  0.00     0.167 HD
ATOM     44  C   UNL A   1      48.252  26.846  26.684  1.00  0.00     0.037 A 
ATOM     45  C   UNL A   1      41.753  28.867  28.384  1.00  0.00     0.037 A 
ATOM     46  C   UNL A   1      48.099  28.250  26.962  1.00  0.00     0.049 A 
ATOM     47  C   UNL A   1      42.904  29.835  28.368  1.00  0.00     0.074 A 
ATOM     48  C   UNL A   1      49.059  29.245  26.918  1.00  0.00     0.029 A 
ATOM     49  N   UNL A   1      46.911  28.858  27.342  1.00  0.00    -0.354 N 
ATOM     50  N   UNL A   1      44.159  29.618  28.051  1.00  0.00    -0.248 NA
ATOM     51  C   UNL A   1      42.614  31.223  28.751  1.00  0.00     0.031 C 
ATOM     52  C   UNL A   1      48.465  30.444  27.321  1.00  0.00     0.029 A 
ATOM     53  C   UNL A   1      47.119  30.210  27.557  1.00  0.00     0.049 A 
ATOM     54  H   UNL A   1      46.047  28.397  27.443  1.00  0.00     0.167 HD
ATOM     55  C   UNL A   1      44.800  30.848  28.165  1.00  0.00     0.074 A 
ATOM     56  C   UNL A   1      43.792  31.806  28.571  1.00  0.00     0.031 C 
ATOM     57  C   UNL A   1      46.102  31.156  27.950  1.00  0.00     0.037 A 
BRANCH  44  58
ATOM     58  C   UNL A   1      49.626  26.329  26.351  1.00  0.00     0.058 A 
ATOM     59  C   UNL A   1      50.153  26.412  25.051  1.00  0.00     0.135 A 
ATOM     60  C   UNL A   1      50.445  25.779  27.352  1.00  0.00     0.135 A 
ATOM     61  F   UNL A   1      49.410  26.914  24.051  1.00  0.00    -0.206 F 
ATOM     62  C   UNL A   1      51.426  25.941  24.749  1.00  0.00     0.059 A 
ATOM     63  C   UNL A   1      51.735  25.332  27.078  1.00  0.00     0.059 A 
ATOM     64  F   UNL A   1      49.995  25.675  28.612  1.00  0.00    -0.206 F 
ATOM     65  C   UNL A   1      52.211  25.403  25.771  1.00  0.00     0.060 A 
BRANCH  65  66
ATOM     66  S   UNL A   1      53.863  24.804  25.361  1.00  0.00     0.124 S 
ATOM     67  O   UNL A   1      53.589  23.415  25.006  1.00  0.00    -0.237 OA
ATOM     68  O   UNL A   1      54.245  25.676  24.256  1.00  0.00    -0.237 OA
ATOM     69  O   UNL A   1      54.612  24.998  26.598  1.00  0.00    -0.744 OA
ENDBRANCH  65  66
ENDBRANCH  44  58
BRANCH  45  70
ATOM     70  C   UNL A   1      40.387  29.309  28.779  1.00  0.00     0.058 A 
ATOM     71  C   UNL A   1      40.058  29.521  30.126  1.00  0.00     0.135 A 
ATOM     72  C   UNL A   1      39.390  29.544  27.819  1.00  0.00     0.135 A 
ATOM     73  F   UNL A   1      40.975  29.306  31.082  1.00  0.00    -0.206 F 
ATOM     74  C   UNL A   1      38.785  29.929  30.511  1.00  0.00     0.059 A 
ATOM     75  C   UNL A   1      38.117  29.980  28.177  1.00  0.00     0.059 A 
ATOM     76  F   UNL A   1      39.658  29.375  26.515  1.00  0.00    -0.206 F 
ATOM     77  C   UNL A   1      37.822  30.159  29.527  1.00  0.00     0.060 A 
BRANCH  77  78
ATOM     78  S   UNL A   1      36.188  30.735  30.036  1.00  0.00     0.124 S 
ATOM     79  O   UNL A   1      35.350  30.239  28.950  1.00  0.00    -0.237 OA
ATOM     80  O   UNL A   1      36.020  30.075  31.327  1.00  0.00    -0.237 OA
ATOM     81  O   UNL A   1      36.348  32.186  30.097  1.00  0.00    -0.744 OA
ENDBRANCH  77  78
ENDBRANCH  45  70
BRANCH  57  82
ATOM     82  C   UNL A   1      46.512  32.596  28.101  1.00  0.00     0.058 A 
ATOM     83  C   UNL A   1      47.055  33.091  29.296  1.00  0.00     0.135 A 
ATOM     84  C   UNL A   1      46.413  33.477  27.010  1.00  0.00     0.135 A 
ATOM     85  F   UNL A   1      47.165  32.294  30.370  1.00  0.00    -0.206 F 
ATOM     86  C   UNL A   1      47.468  34.414  29.412  1.00  0.00     0.059 A 
ATOM     87  C   UNL A   1      46.848  34.794  27.095  1.00  0.00     0.059 A 
ATOM     88  F   UNL A   1      45.909  33.052  25.841  1.00  0.00    -0.206 F 
ATOM     89  C   UNL A   1      47.364  35.258  28.303  1.00  0.00     0.060 A 
BRANCH  89  90
ATOM     90  S   UNL A   1      47.943  36.961  28.456  1.00  0.00     0.124 S 
ATOM     91  O   UNL A   1      46.933  37.684  27.690  1.00  0.00    -0.237 OA
ATOM     92  O   UNL A   1      47.915  37.171  29.900  1.00  0.00    -0.237 OA
ATOM     93  O   UNL A   1      49.275  36.924  27.860  1.00  0.00    -0.744 OA
ENDBRANCH  89  90
ENDBRANCH  57  82
ENDBRANCH  31  32
ENDBRANCH  23  26
ENDBRANCH  21  22
ENDBRANCH  20  21
ENDBRANCH   1  20
TORSDOF 18
ENDMDL
