MODEL 1
REMARK VINA RESULT:     -11.8      0.000      0.000
REMARK SMILES Cc1cscc1-c1nc(C)c(C(=O)NCCCNC(=O)c2ccc(-c3c4nc(c(-c5c(F)cc(S(=O)(=O)[O-])cc5F)c5ccc([nH]5)c(-c5c(F)cc(S(=O)(=O)[O-])cc5F)c5nc(c(-c6c(F)cc(S(=O)(=O)[O-])cc6F)c6ccc3[nH]6)C=C5)C=C4)cc2)c(C)n1
REMARK SMILES IDX 17 1 16 2 15 3 14 4 12 5 13 6 11 8 7 9 8 10 89 11 9 12 87 13
REMARK SMILES IDX 10 14 88 15 6 16 1 17 2 18 3 19 4 20 5 21 18 22 19 23 20 25
REMARK SMILES IDX 21 26 22 27 86 28 23 29 85 30 24 31 25 32 26 33 79 34 27 35
REMARK SMILES IDX 84 36 78 37 80 38 28 39 83 40 77 41 76 42 29 44 63 45 42 46
REMARK SMILES IDX 62 47 43 48 46 49 61 50 81 51 44 52 45 53 60 55 82 56 47 57
REMARK SMILES IDX 30 58 31 59 40 60 32 61 33 62 39 63 41 64 34 65 35 66 36 67
REMARK SMILES IDX 37 68 38 69 64 70 65 71 74 72 66 73 67 74 73 75 75 76 68 77
REMARK SMILES IDX 69 78 70 79 71 80 72 81 48 82 49 83 58 84 50 85 51 86 57 87
REMARK SMILES IDX 59 88 52 89 53 90 54 91 55 92 56 93
REMARK H PARENT 14 7 18 24 80 43 46 54
REMARK Flexibility Score: inf
ROOT
ATOM      1  C   UNL A   1      33.708  28.376  26.969  1.00  0.00     0.118 C 
ENDROOT
BRANCH   1   2
ATOM      2  C   UNL A   1      32.377  27.923  26.386  1.00  0.00     0.042 C 
BRANCH   2   3
ATOM      3  C   UNL A   1      32.249  26.402  26.283  1.00  0.00     0.118 C 
BRANCH   3   4
ATOM      4  N   UNL A   1      31.220  26.043  25.335  1.00  0.00    -0.352 N 
ATOM      5  C   UNL A   1      30.898  24.981  24.541  1.00  0.00     0.254 C 
ATOM      6  O   UNL A   1      29.905  25.228  23.848  1.00  0.00    -0.269 OA
ATOM      7  H   UNL A   1      30.565  26.771  25.233  1.00  0.00     0.163 HD
BRANCH   5   8
ATOM      8  C   UNL A   1      31.542  23.624  24.441  1.00  0.00     0.082 A 
ATOM      9  C   UNL A   1      32.508  21.040  24.480  1.00  0.00     0.160 A 
ATOM     10  N   UNL A   1      32.920  21.865  23.525  1.00  0.00    -0.232 NA
ATOM     11  N   UNL A   1      31.652  21.371  25.439  1.00  0.00    -0.232 NA
ATOM     12  C   UNL A   1      32.411  23.120  23.470  1.00  0.00     0.054 A 
ATOM     13  C   UNL A   1      31.191  22.657  25.423  1.00  0.00     0.054 A 
ATOM     14  C   UNL A   1      32.914  23.762  22.228  1.00  0.00     0.068 C 
ATOM     15  C   UNL A   1      30.263  22.921  26.582  1.00  0.00     0.068 C 
BRANCH   9  16
ATOM     16  C   UNL A   1      33.094  19.716  24.442  1.00  0.00     0.033 A 
ATOM     17  C   UNL A   1      35.517  20.390  25.090  1.00  0.00     0.046 C 
ATOM     18  C   UNL A   1      34.485  19.396  24.662  1.00  0.00    -0.029 A 
ATOM     19  C   UNL A   1      34.731  18.062  24.403  1.00  0.00     0.069 A 
ATOM     20  S   UNL A   1      33.328  17.210  23.924  1.00  0.00    -0.151 S 
ATOM     21  C   UNL A   1      32.364  18.617  24.036  1.00  0.00     0.077 A 
ENDBRANCH   9  16
ENDBRANCH   5   8
ENDBRANCH   3   4
ENDBRANCH   2   3
ENDBRANCH   1   2
BRANCH   1  22
ATOM     22  N   UNL A   1      33.656  29.771  27.383  1.00  0.00    -0.352 N 
ATOM     23  C   UNL A   1      34.554  30.499  28.120  1.00  0.00     0.251 C 
ATOM     24  H   UNL A   1      32.857  30.266  27.089  1.00  0.00     0.163 HD
ATOM     25  O   UNL A   1      34.202  31.571  28.613  1.00  0.00    -0.269 OA
BRANCH  23  26
ATOM     26  C   UNL A   1      35.926  29.996  28.330  1.00  0.00     0.039 A 
ATOM     27  C   UNL A   1      36.847  30.065  27.281  1.00  0.00     0.014 A 
ATOM     28  C   UNL A   1      36.300  29.446  29.558  1.00  0.00     0.014 A 
ATOM     29  C   UNL A   1      38.162  29.650  27.491  1.00  0.00     0.010 A 
ATOM     30  C   UNL A   1      37.630  29.116  29.792  1.00  0.00     0.010 A 
ATOM     31  C   UNL A   1      38.575  29.215  28.761  1.00  0.00    -0.014 A 
BRANCH  31  32
ATOM     32  C   UNL A   1      39.991  28.877  29.045  1.00  0.00     0.031 A 
ATOM     33  C   UNL A   1      40.920  29.924  29.594  1.00  0.00     0.074 A 
ATOM     34  C   UNL A   1      40.453  27.652  28.724  1.00  0.00     0.049 A 
ATOM     35  N   UNL A   1      42.208  29.855  29.806  1.00  0.00    -0.248 NA
ATOM     36  C   UNL A   1      40.327  31.232  29.921  1.00  0.00     0.031 C 
ATOM     37  C   UNL A   1      39.652  26.572  28.141  1.00  0.00     0.029 A 
ATOM     38  N   UNL A   1      41.710  27.113  28.824  1.00  0.00    -0.354 N 
ATOM     39  C   UNL A   1      42.582  31.108  30.276  1.00  0.00     0.074 A 
ATOM     40  C   UNL A   1      41.397  31.935  30.266  1.00  0.00     0.031 C 
ATOM     41  C   UNL A   1      40.432  25.495  27.956  1.00  0.00     0.029 A 
ATOM     42  C   UNL A   1      41.796  25.822  28.358  1.00  0.00     0.049 A 
ATOM     43  H   UNL A   1      42.479  27.603  29.196  1.00  0.00     0.167 HD
ATOM     44  C   UNL A   1      43.801  31.520  30.699  1.00  0.00     0.037 A 
ATOM     45  C   UNL A   1      42.857  25.000  28.249  1.00  0.00     0.037 A 
ATOM     46  C   UNL A   1      44.968  30.678  30.720  1.00  0.00     0.049 A 
ATOM     47  C   UNL A   1      44.205  25.490  28.702  1.00  0.00     0.074 A 
ATOM     48  C   UNL A   1      46.236  30.979  31.185  1.00  0.00     0.029 A 
ATOM     49  N   UNL A   1      45.013  29.373  30.251  1.00  0.00    -0.354 N 
ATOM     50  N   UNL A   1      44.529  26.655  29.211  1.00  0.00    -0.248 NA
ATOM     51  C   UNL A   1      45.332  24.559  28.567  1.00  0.00     0.031 C 
ATOM     52  C   UNL A   1      47.060  29.876  30.946  1.00  0.00     0.029 A 
ATOM     53  C   UNL A   1      46.294  28.866  30.385  1.00  0.00     0.049 A 
ATOM     54  H   UNL A   1      44.247  28.881  29.877  1.00  0.00     0.167 HD
ATOM     55  C   UNL A   1      45.891  26.590  29.478  1.00  0.00     0.074 A 
ATOM     56  C   UNL A   1      46.328  25.264  29.089  1.00  0.00     0.031 C 
ATOM     57  C   UNL A   1      46.707  27.540  29.996  1.00  0.00     0.037 A 
BRANCH  44  58
ATOM     58  C   UNL A   1      43.933  32.943  31.175  1.00  0.00     0.058 A 
ATOM     59  C   UNL A   1      44.321  33.977  30.308  1.00  0.00     0.135 A 
ATOM     60  C   UNL A   1      43.630  33.283  32.503  1.00  0.00     0.135 A 
ATOM     61  F   UNL A   1      44.637  33.708  29.032  1.00  0.00    -0.206 F 
ATOM     62  C   UNL A   1      44.433  35.293  30.747  1.00  0.00     0.059 A 
ATOM     63  C   UNL A   1      43.705  34.597  32.957  1.00  0.00     0.059 A 
ATOM     64  F   UNL A   1      43.255  32.334  33.375  1.00  0.00    -0.206 F 
ATOM     65  C   UNL A   1      44.121  35.593  32.075  1.00  0.00     0.060 A 
BRANCH  65  66
ATOM     66  S   UNL A   1      44.264  37.306  32.624  1.00  0.00     0.124 S 
ATOM     67  O   UNL A   1      45.658  37.358  33.054  1.00  0.00    -0.237 OA
ATOM     68  O   UNL A   1      43.948  38.050  31.409  1.00  0.00    -0.237 OA
ATOM     69  O   UNL A   1      43.274  37.405  33.692  1.00  0.00    -0.744 OA
ENDBRANCH  65  66
ENDBRANCH  44  58
BRANCH  45  70
ATOM     70  C   UNL A   1      42.684  23.629  27.698  1.00  0.00     0.058 A 
ATOM     71  C   UNL A   1      42.723  23.398  26.314  1.00  0.00     0.135 A 
ATOM     72  C   UNL A   1      42.492  22.521  28.540  1.00  0.00     0.135 A 
ATOM     73  F   UNL A   1      42.897  24.424  25.468  1.00  0.00    -0.206 F 
ATOM     74  C   UNL A   1      42.563  22.122  25.783  1.00  0.00     0.059 A 
ATOM     75  C   UNL A   1      42.360  21.232  28.034  1.00  0.00     0.059 A 
ATOM     76  F   UNL A   1      42.465  22.685  29.871  1.00  0.00    -0.206 F 
ATOM     77  C   UNL A   1      42.385  21.044  26.653  1.00  0.00     0.060 A 
BRANCH  77  78
ATOM     78  S   UNL A   1      42.226  19.387  25.952  1.00  0.00     0.124 S 
ATOM     79  O   UNL A   1      40.788  19.302  25.725  1.00  0.00    -0.237 OA
ATOM     80  O   UNL A   1      43.058  19.479  24.757  1.00  0.00    -0.237 OA
ATOM     81  O   UNL A   1      42.751  18.526  27.008  1.00  0.00    -0.744 OA
ENDBRANCH  77  78
ENDBRANCH  45  70
BRANCH  57  82
ATOM     82  C   UNL A   1      48.154  27.178  30.197  1.00  0.00     0.058 A 
ATOM     83  C   UNL A   1      49.130  27.490  29.239  1.00  0.00     0.135 A 
ATOM     84  C   UNL A   1      48.576  26.579  31.395  1.00  0.00     0.135 A 
ATOM     85  F   UNL A   1      48.778  28.054  28.073  1.00  0.00    -0.206 F 
ATOM     86  C   UNL A   1      50.475  27.211  29.456  1.00  0.00     0.059 A 
ATOM     87  C   UNL A   1      49.920  26.319  31.646  1.00  0.00     0.059 A 
ATOM     88  F   UNL A   1      47.683  26.268  32.348  1.00  0.00    -0.206 F 
ATOM     89  C   UNL A   1      50.861  26.631  30.667  1.00  0.00     0.060 A 
BRANCH  89  90
ATOM     90  S   UNL A   1      52.615  26.329  30.958  1.00  0.00     0.124 S 
ATOM     91  O   UNL A   1      52.577  25.096  31.739  1.00  0.00    -0.237 OA
ATOM     92  O   UNL A   1      53.139  26.204  29.601  1.00  0.00    -0.237 OA
ATOM     93  O   UNL A   1      53.052  27.518  31.684  1.00  0.00    -0.744 OA
ENDBRANCH  89  90
ENDBRANCH  57  82
ENDBRANCH  31  32
ENDBRANCH  23  26
ENDBRANCH   1  22
TORSDOF 14
ENDMDL
MODEL 2
REMARK VINA RESULT:     -11.7      4.796     11.285
REMARK SMILES Cc1cscc1-c1nc(C)c(C(=O)NCCCNC(=O)c2ccc(-c3c4nc(c(-c5c(F)cc(S(=O)(=O)[O-])cc5F)c5ccc([nH]5)c(-c5c(F)cc(S(=O)(=O)[O-])cc5F)c5nc(c(-c6c(F)cc(S(=O)(=O)[O-])cc6F)c6ccc3[nH]6)C=C5)C=C4)cc2)c(C)n1
REMARK SMILES IDX 17 1 16 2 15 3 14 4 12 5 13 6 11 8 7 9 8 10 89 11 9 12 87 13
REMARK SMILES IDX 10 14 88 15 6 16 1 17 2 18 3 19 4 20 5 21 18 22 19 23 20 25
REMARK SMILES IDX 21 26 22 27 86 28 23 29 85 30 24 31 25 32 26 33 79 34 27 35
REMARK SMILES IDX 84 36 78 37 80 38 28 39 83 40 77 41 76 42 29 44 63 45 42 46
REMARK SMILES IDX 62 47 43 48 46 49 61 50 81 51 44 52 45 53 60 55 82 56 47 57
REMARK SMILES IDX 30 58 31 59 40 60 32 61 33 62 39 63 41 64 34 65 35 66 36 67
REMARK SMILES IDX 37 68 38 69 64 70 65 71 74 72 66 73 67 74 73 75 75 76 68 77
REMARK SMILES IDX 69 78 70 79 71 80 72 81 48 82 49 83 58 84 50 85 51 86 57 87
REMARK SMILES IDX 59 88 52 89 53 90 54 91 55 92 56 93
REMARK H PARENT 14 7 18 24 80 43 46 54
REMARK Flexibility Score: inf
ROOT
ATOM      1  C   UNL A   1      40.286  21.621  26.660  1.00  0.00     0.118 C 
ENDROOT
BRANCH   1   2
ATOM      2  C   UNL A   1      41.684  21.985  26.181  1.00  0.00     0.042 C 
BRANCH   2   3
ATOM      3  C   UNL A   1      42.636  22.352  27.321  1.00  0.00     0.118 C 
BRANCH   3   4
ATOM      4  N   UNL A   1      44.006  22.325  26.866  1.00  0.00    -0.352 N 
ATOM      5  C   UNL A   1      45.010  23.216  26.617  1.00  0.00     0.254 C 
ATOM      6  O   UNL A   1      46.009  22.645  26.165  1.00  0.00    -0.269 OA
ATOM      7  H   UNL A   1      44.299  21.403  26.685  1.00  0.00     0.163 HD
BRANCH   5   8
ATOM      8  C   UNL A   1      45.056  24.703  26.843  1.00  0.00     0.082 A 
ATOM      9  C   UNL A   1      44.885  27.448  27.058  1.00  0.00     0.160 A 
ATOM     10  N   UNL A   1      45.678  26.787  27.893  1.00  0.00    -0.232 NA
ATOM     11  N   UNL A   1      44.156  26.878  26.107  1.00  0.00    -0.232 NA
ATOM     12  C   UNL A   1      45.728  25.434  27.825  1.00  0.00     0.054 A 
ATOM     13  C   UNL A   1      44.258  25.521  25.996  1.00  0.00     0.054 A 
ATOM     14  C   UNL A   1      46.555  24.951  28.962  1.00  0.00     0.068 C 
ATOM     15  C   UNL A   1      43.418  24.999  24.857  1.00  0.00     0.068 C 
BRANCH   9  16
ATOM     16  C   UNL A   1      44.886  28.887  27.222  1.00  0.00     0.033 A 
ATOM     17  C   UNL A   1      42.448  29.327  26.443  1.00  0.00     0.046 C 
ATOM     18  C   UNL A   1      43.800  29.780  26.893  1.00  0.00    -0.029 A 
ATOM     19  C   UNL A   1      44.187  31.099  27.031  1.00  0.00     0.069 A 
ATOM     20  S   UNL A   1      45.807  31.263  27.555  1.00  0.00    -0.151 S 
ATOM     21  C   UNL A   1      46.028  29.569  27.592  1.00  0.00     0.077 A 
ENDBRANCH   9  16
ENDBRANCH   5   8
ENDBRANCH   3   4
ENDBRANCH   2   3
ENDBRANCH   1   2
BRANCH   1  22
ATOM     22  N   UNL A   1      39.265  22.208  25.802  1.00  0.00    -0.352 N 
ATOM     23  C   UNL A   1      38.644  23.427  25.891  1.00  0.00     0.251 C 
ATOM     24  H   UNL A   1      38.978  21.646  25.047  1.00  0.00     0.163 HD
ATOM     25  O   UNL A   1      37.608  23.624  25.255  1.00  0.00    -0.269 OA
BRANCH  23  26
ATOM     26  C   UNL A   1      39.206  24.488  26.750  1.00  0.00     0.039 A 
ATOM     27  C   UNL A   1      40.068  25.435  26.190  1.00  0.00     0.014 A 
ATOM     28  C   UNL A   1      38.892  24.542  28.110  1.00  0.00     0.014 A 
ATOM     29  C   UNL A   1      40.553  26.478  26.980  1.00  0.00     0.010 A 
ATOM     30  C   UNL A   1      39.304  25.628  28.873  1.00  0.00     0.010 A 
ATOM     31  C   UNL A   1      40.138  26.607  28.316  1.00  0.00    -0.014 A 
BRANCH  31  32
ATOM     32  C   UNL A   1      40.545  27.767  29.148  1.00  0.00     0.031 A 
ATOM     33  C   UNL A   1      41.826  27.718  29.932  1.00  0.00     0.074 A 
ATOM     34  C   UNL A   1      39.712  28.820  29.260  1.00  0.00     0.049 A 
ATOM     35  N   UNL A   1      42.298  28.580  30.795  1.00  0.00    -0.248 NA
ATOM     36  C   UNL A   1      42.676  26.530  29.745  1.00  0.00     0.031 C 
ATOM     37  C   UNL A   1      38.420  28.954  28.582  1.00  0.00     0.029 A 
ATOM     38  N   UNL A   1      39.817  29.972  29.998  1.00  0.00    -0.354 N 
ATOM     39  C   UNL A   1      43.488  28.035  31.262  1.00  0.00     0.074 A 
ATOM     40  C   UNL A   1      43.639  26.743  30.630  1.00  0.00     0.031 C 
ATOM     41  C   UNL A   1      37.864  30.129  28.918  1.00  0.00     0.029 A 
ATOM     42  C   UNL A   1      38.733  30.809  29.872  1.00  0.00     0.049 A 
ATOM     43  H   UNL A   1      40.595  30.180  30.563  1.00  0.00     0.167 HD
ATOM     44  C   UNL A   1      44.383  28.575  32.122  1.00  0.00     0.037 A 
ATOM     45  C   UNL A   1      38.460  31.982  30.474  1.00  0.00     0.037 A 
ATOM     46  C   UNL A   1      44.227  29.871  32.730  1.00  0.00     0.049 A 
ATOM     47  C   UNL A   1      39.458  32.551  31.445  1.00  0.00     0.074 A 
ATOM     48  C   UNL A   1      45.103  30.538  33.568  1.00  0.00     0.029 A 
ATOM     49  N   UNL A   1      43.121  30.695  32.570  1.00  0.00    -0.354 N 
ATOM     50  N   UNL A   1      40.613  32.055  31.822  1.00  0.00    -0.248 NA
ATOM     51  C   UNL A   1      39.119  33.833  32.074  1.00  0.00     0.031 C 
ATOM     52  C   UNL A   1      44.502  31.738  33.959  1.00  0.00     0.029 A 
ATOM     53  C   UNL A   1      43.277  31.848  33.319  1.00  0.00     0.049 A 
ATOM     54  H   UNL A   1      42.340  30.487  32.007  1.00  0.00     0.167 HD
ATOM     55  C   UNL A   1      41.150  32.977  32.715  1.00  0.00     0.074 A 
ATOM     56  C   UNL A   1      40.200  34.067  32.808  1.00  0.00     0.031 C 
ATOM     57  C   UNL A   1      42.320  32.925  33.396  1.00  0.00     0.037 A 
BRANCH  44  58
ATOM     58  C   UNL A   1      45.610  27.769  32.456  1.00  0.00     0.058 A 
ATOM     59  C   UNL A   1      45.628  26.863  33.529  1.00  0.00     0.135 A 
ATOM     60  C   UNL A   1      46.769  27.874  31.671  1.00  0.00     0.135 A 
ATOM     61  F   UNL A   1      44.554  26.733  34.323  1.00  0.00    -0.206 F 
ATOM     62  C   UNL A   1      46.760  26.112  33.829  1.00  0.00     0.059 A 
ATOM     63  C   UNL A   1      47.903  27.110  31.934  1.00  0.00     0.059 A 
ATOM     64  F   UNL A   1      46.809  28.726  30.634  1.00  0.00    -0.206 F 
ATOM     65  C   UNL A   1      47.893  26.242  33.024  1.00  0.00     0.060 A 
BRANCH  65  66
ATOM     66  S   UNL A   1      49.349  25.253  33.424  1.00  0.00     0.124 S 
ATOM     67  O   UNL A   1      49.866  24.946  32.094  1.00  0.00    -0.237 OA
ATOM     68  O   UNL A   1      50.148  26.182  34.215  1.00  0.00    -0.237 OA
ATOM     69  O   UNL A   1      48.799  24.118  34.160  1.00  0.00    -0.744 OA
ENDBRANCH  65  66
ENDBRANCH  44  58
BRANCH  45  70
ATOM     70  C   UNL A   1      37.193  32.700  30.166  1.00  0.00     0.058 A 
ATOM     71  C   UNL A   1      37.150  33.693  29.176  1.00  0.00     0.135 A 
ATOM     72  C   UNL A   1      35.999  32.398  30.840  1.00  0.00     0.135 A 
ATOM     73  F   UNL A   1      38.266  34.022  28.507  1.00  0.00    -0.206 F 
ATOM     74  C   UNL A   1      35.974  34.372  28.875  1.00  0.00     0.059 A 
ATOM     75  C   UNL A   1      34.804  33.043  30.536  1.00  0.00     0.059 A 
ATOM     76  F   UNL A   1      35.982  31.443  31.783  1.00  0.00    -0.206 F 
ATOM     77  C   UNL A   1      34.804  34.037  29.559  1.00  0.00     0.060 A 
BRANCH  77  78
ATOM     78  S   UNL A   1      33.275  34.894  29.127  1.00  0.00     0.124 S 
ATOM     79  O   UNL A   1      32.574  34.907  30.405  1.00  0.00    -0.237 OA
ATOM     80  O   UNL A   1      33.770  36.183  28.655  1.00  0.00    -0.237 OA
ATOM     81  O   UNL A   1      32.692  34.040  28.096  1.00  0.00    -0.744 OA
ENDBRANCH  77  78
ENDBRANCH  45  70
BRANCH  57  82
ATOM     82  C   UNL A   1      42.657  34.089  34.286  1.00  0.00     0.058 A 
ATOM     83  C   UNL A   1      42.304  34.101  35.645  1.00  0.00     0.135 A 
ATOM     84  C   UNL A   1      43.406  35.169  33.793  1.00  0.00     0.135 A 
ATOM     85  F   UNL A   1      41.580  33.098  36.165  1.00  0.00    -0.206 F 
ATOM     86  C   UNL A   1      42.672  35.151  36.480  1.00  0.00     0.059 A 
ATOM     87  C   UNL A   1      43.811  36.214  34.616  1.00  0.00     0.059 A 
ATOM     88  F   UNL A   1      43.776  35.202  32.502  1.00  0.00    -0.206 F 
ATOM     89  C   UNL A   1      43.433  36.199  35.958  1.00  0.00     0.060 A 
BRANCH  89  90
ATOM     90  S   UNL A   1      43.952  37.524  37.067  1.00  0.00     0.124 S 
ATOM     91  O   UNL A   1      45.217  37.003  37.577  1.00  0.00    -0.237 OA
ATOM     92  O   UNL A   1      44.054  38.665  36.163  1.00  0.00    -0.237 OA
ATOM     93  O   UNL A   1      42.867  37.599  38.041  1.00  0.00    -0.744 OA
ENDBRANCH  89  90
ENDBRANCH  57  82
ENDBRANCH  31  32
ENDBRANCH  23  26
ENDBRANCH   1  22
TORSDOF 14
ENDMDL
MODEL 3
REMARK VINA RESULT:     -11.7      0.295      1.438
REMARK SMILES Cc1cscc1-c1nc(C)c(C(=O)NCCCNC(=O)c2ccc(-c3c4nc(c(-c5c(F)cc(S(=O)(=O)[O-])cc5F)c5ccc([nH]5)c(-c5c(F)cc(S(=O)(=O)[O-])cc5F)c5nc(c(-c6c(F)cc(S(=O)(=O)[O-])cc6F)c6ccc3[nH]6)C=C5)C=C4)cc2)c(C)n1
REMARK SMILES IDX 17 1 16 2 15 3 14 4 12 5 13 6 11 8 7 9 8 10 89 11 9 12 87 13
REMARK SMILES IDX 10 14 88 15 6 16 1 17 2 18 3 19 4 20 5 21 18 22 19 23 20 25
REMARK SMILES IDX 21 26 22 27 86 28 23 29 85 30 24 31 25 32 26 33 79 34 27 35
REMARK SMILES IDX 84 36 78 37 80 38 28 39 83 40 77 41 76 42 29 44 63 45 42 46
REMARK SMILES IDX 62 47 43 48 46 49 61 50 81 51 44 52 45 53 60 55 82 56 47 57
REMARK SMILES IDX 30 58 31 59 40 60 32 61 33 62 39 63 41 64 34 65 35 66 36 67
REMARK SMILES IDX 37 68 38 69 64 70 65 71 74 72 66 73 67 74 73 75 75 76 68 77
REMARK SMILES IDX 69 78 70 79 71 80 72 81 48 82 49 83 58 84 50 85 51 86 57 87
REMARK SMILES IDX 59 88 52 89 53 90 54 91 55 92 56 93
REMARK H PARENT 14 7 18 24 80 43 46 54
REMARK Flexibility Score: inf
ROOT
ATOM      1  C   UNL A   1      33.568  28.466  27.247  1.00  0.00     0.118 C 
ENDROOT
BRANCH   1   2
ATOM      2  C   UNL A   1      32.190  27.961  26.843  1.00  0.00     0.042 C 
BRANCH   2   3
ATOM      3  C   UNL A   1      32.175  26.476  26.479  1.00  0.00     0.118 C 
BRANCH   3   4
ATOM      4  N   UNL A   1      31.194  26.215  25.452  1.00  0.00    -0.352 N 
ATOM      5  C   UNL A   1      30.818  25.178  24.648  1.00  0.00     0.254 C 
ATOM      6  O   UNL A   1      29.922  25.521  23.869  1.00  0.00    -0.269 OA
ATOM      7  H   UNL A   1      30.640  27.011  25.283  1.00  0.00     0.163 HD
BRANCH   5   8
ATOM      8  C   UNL A   1      31.305  23.753  24.623  1.00  0.00     0.082 A 
ATOM      9  C   UNL A   1      32.416  21.243  24.360  1.00  0.00     0.160 A 
ATOM     10  N   UNL A   1      31.554  21.463  25.345  1.00  0.00    -0.232 NA
ATOM     11  N   UNL A   1      32.790  22.156  23.473  1.00  0.00    -0.232 NA
ATOM     12  C   UNL A   1      31.043  22.707  25.510  1.00  0.00     0.054 A 
ATOM     13  C   UNL A   1      32.222  23.392  23.599  1.00  0.00     0.054 A 
ATOM     14  C   UNL A   1      30.245  22.709  26.764  1.00  0.00     0.068 C 
ATOM     15  C   UNL A   1      32.693  24.325  22.512  1.00  0.00     0.068 C 
BRANCH   9  16
ATOM     16  C   UNL A   1      32.921  19.888  24.278  1.00  0.00     0.033 A 
ATOM     17  C   UNL A   1      35.288  20.339  25.246  1.00  0.00     0.046 C 
ATOM     18  C   UNL A   1      34.255  19.455  24.625  1.00  0.00    -0.029 A 
ATOM     19  C   UNL A   1      34.447  18.130  24.286  1.00  0.00     0.069 A 
ATOM     20  S   UNL A   1      33.060  17.416  23.586  1.00  0.00    -0.151 S 
ATOM     21  C   UNL A   1      32.177  18.876  23.704  1.00  0.00     0.077 A 
ENDBRANCH   9  16
ENDBRANCH   5   8
ENDBRANCH   3   4
ENDBRANCH   2   3
ENDBRANCH   1   2
BRANCH   1  22
ATOM     22  N   UNL A   1      33.528  29.877  27.608  1.00  0.00    -0.352 N 
ATOM     23  C   UNL A   1      34.449  30.632  28.287  1.00  0.00     0.251 C 
ATOM     24  H   UNL A   1      32.719  30.360  27.321  1.00  0.00     0.163 HD
ATOM     25  O   UNL A   1      34.112  31.724  28.749  1.00  0.00    -0.269 OA
BRANCH  23  26
ATOM     26  C   UNL A   1      35.828  30.137  28.471  1.00  0.00     0.039 A 
ATOM     27  C   UNL A   1      36.702  30.129  27.381  1.00  0.00     0.014 A 
ATOM     28  C   UNL A   1      36.253  29.671  29.717  1.00  0.00     0.014 A 
ATOM     29  C   UNL A   1      38.025  29.722  27.562  1.00  0.00     0.010 A 
ATOM     30  C   UNL A   1      37.591  29.351  29.916  1.00  0.00     0.010 A 
ATOM     31  C   UNL A   1      38.491  29.373  28.840  1.00  0.00    -0.014 A 
BRANCH  31  32
ATOM     32  C   UNL A   1      39.917  29.048  29.086  1.00  0.00     0.031 A 
ATOM     33  C   UNL A   1      40.853  30.105  29.603  1.00  0.00     0.074 A 
ATOM     34  C   UNL A   1      40.380  27.825  28.757  1.00  0.00     0.049 A 
ATOM     35  N   UNL A   1      42.147  30.047  29.778  1.00  0.00    -0.248 NA
ATOM     36  C   UNL A   1      40.260  31.410  29.940  1.00  0.00     0.031 C 
ATOM     37  C   UNL A   1      39.571  26.736  28.203  1.00  0.00     0.029 A 
ATOM     38  N   UNL A   1      41.643  27.296  28.824  1.00  0.00    -0.354 N 
ATOM     39  C   UNL A   1      42.525  31.305  30.231  1.00  0.00     0.074 A 
ATOM     40  C   UNL A   1      41.333  32.123  30.251  1.00  0.00     0.031 C 
ATOM     41  C   UNL A   1      40.354  25.664  28.001  1.00  0.00     0.029 A 
ATOM     42  C   UNL A   1      41.726  26.004  28.363  1.00  0.00     0.049 A 
ATOM     43  H   UNL A   1      42.418  27.794  29.171  1.00  0.00     0.167 HD
ATOM     44  C   UNL A   1      43.751  31.730  30.617  1.00  0.00     0.037 A 
ATOM     45  C   UNL A   1      42.790  25.190  28.227  1.00  0.00     0.037 A 
ATOM     46  C   UNL A   1      44.925  30.897  30.609  1.00  0.00     0.049 A 
ATOM     47  C   UNL A   1      44.147  25.692  28.640  1.00  0.00     0.074 A 
ATOM     48  C   UNL A   1      46.204  31.210  31.036  1.00  0.00     0.029 A 
ATOM     49  N   UNL A   1      44.967  29.589  30.145  1.00  0.00    -0.354 N 
ATOM     50  N   UNL A   1      44.475  26.863  29.133  1.00  0.00    -0.248 NA
ATOM     51  C   UNL A   1      45.277  24.770  28.477  1.00  0.00     0.031 C 
ATOM     52  C   UNL A   1      47.029  30.113  30.779  1.00  0.00     0.029 A 
ATOM     53  C   UNL A   1      46.256  29.093  30.246  1.00  0.00     0.049 A 
ATOM     54  H   UNL A   1      44.194  29.089  29.795  1.00  0.00     0.167 HD
ATOM     55  C   UNL A   1      45.845  26.809  29.361  1.00  0.00     0.074 A 
ATOM     56  C   UNL A   1      46.281  25.485  28.967  1.00  0.00     0.031 C 
ATOM     57  C   UNL A   1      46.668  27.768  29.851  1.00  0.00     0.037 A 
BRANCH  44  58
ATOM     58  C   UNL A   1      43.885  33.155  31.082  1.00  0.00     0.058 A 
ATOM     59  C   UNL A   1      44.139  34.204  30.183  1.00  0.00     0.135 A 
ATOM     60  C   UNL A   1      43.720  33.484  32.437  1.00  0.00     0.135 A 
ATOM     61  F   UNL A   1      44.321  33.947  28.878  1.00  0.00    -0.206 F 
ATOM     62  C   UNL A   1      44.252  35.522  30.613  1.00  0.00     0.059 A 
ATOM     63  C   UNL A   1      43.799  34.799  32.887  1.00  0.00     0.059 A 
ATOM     64  F   UNL A   1      43.477  32.522  33.342  1.00  0.00    -0.206 F 
ATOM     65  C   UNL A   1      44.079  35.810  31.968  1.00  0.00     0.060 A 
BRANCH  65  66
ATOM     66  S   UNL A   1      44.222  37.527  32.507  1.00  0.00     0.124 S 
ATOM     67  O   UNL A   1      45.622  37.587  32.914  1.00  0.00    -0.237 OA
ATOM     68  O   UNL A   1      43.884  38.262  31.293  1.00  0.00    -0.237 OA
ATOM     69  O   UNL A   1      43.249  37.626  33.590  1.00  0.00    -0.744 OA
ENDBRANCH  65  66
ENDBRANCH  44  58
BRANCH  45  70
ATOM     70  C   UNL A   1      42.612  23.815  27.688  1.00  0.00     0.058 A 
ATOM     71  C   UNL A   1      42.455  22.717  28.549  1.00  0.00     0.135 A 
ATOM     72  C   UNL A   1      42.578  23.570  26.306  1.00  0.00     0.135 A 
ATOM     73  F   UNL A   1      42.486  22.898  29.878  1.00  0.00    -0.206 F 
ATOM     74  C   UNL A   1      42.286  21.426  28.060  1.00  0.00     0.059 A 
ATOM     75  C   UNL A   1      42.381  22.291  25.793  1.00  0.00     0.059 A 
ATOM     76  F   UNL A   1      42.705  24.587  25.439  1.00  0.00    -0.206 F 
ATOM     77  C   UNL A   1      42.247  21.224  26.679  1.00  0.00     0.060 A 
BRANCH  77  78
ATOM     78  S   UNL A   1      41.981  19.548  26.059  1.00  0.00     0.124 S 
ATOM     79  O   UNL A   1      42.321  18.746  27.228  1.00  0.00    -0.237 OA
ATOM     80  O   UNL A   1      40.569  19.580  25.692  1.00  0.00    -0.237 OA
ATOM     81  O   UNL A   1      42.910  19.455  24.937  1.00  0.00    -0.744 OA
ENDBRANCH  77  78
ENDBRANCH  45  70
BRANCH  57  82
ATOM     82  C   UNL A   1      48.122  27.419  30.013  1.00  0.00     0.058 A 
ATOM     83  C   UNL A   1      49.069  27.736  29.026  1.00  0.00     0.135 A 
ATOM     84  C   UNL A   1      48.584  26.828  31.200  1.00  0.00     0.135 A 
ATOM     85  F   UNL A   1      48.680  28.293  27.869  1.00  0.00    -0.206 F 
ATOM     86  C   UNL A   1      50.422  27.468  29.207  1.00  0.00     0.059 A 
ATOM     87  C   UNL A   1      49.935  26.579  31.415  1.00  0.00     0.059 A 
ATOM     88  F   UNL A   1      47.720  26.513  32.179  1.00  0.00    -0.206 F 
ATOM     89  C   UNL A   1      50.846  26.896  30.408  1.00  0.00     0.060 A 
BRANCH  89  90
ATOM     90  S   UNL A   1      52.611  26.609  30.651  1.00  0.00     0.124 S 
ATOM     91  O   UNL A   1      53.045  26.280  29.296  1.00  0.00    -0.237 OA
ATOM     92  O   UNL A   1      53.067  27.895  31.169  1.00  0.00    -0.237 OA
ATOM     93  O   UNL A   1      52.650  25.506  31.606  1.00  0.00    -0.744 OA
ENDBRANCH  89  90
ENDBRANCH  57  82
ENDBRANCH  31  32
ENDBRANCH  23  26
ENDBRANCH   1  22
TORSDOF 14
ENDMDL
