MODEL 1
REMARK VINA RESULT:     -14.6      0.000      0.000
REMARK SMILES Cc1ccc(-c2cc(Cl)ccc2Cl)c(C(=O)NCCCNC(=O)c2ccc(-c3c4nc(c(-c5c(F)cc(S(=O)(=O)[O-])cc5F)c5ccc([nH]5)c(-c5c(F)cc(S(=O)(=O)[O-])cc5F)c5nc(c(-c6c(F)cc(S(=O)(=O)[O-])cc6F)c6ccc3[nH]6)C=C5)C=C4)cc2)c1
REMARK SMILES IDX 20 1 19 2 18 3 17 4 15 5 16 6 14 8 1 9 2 10 3 11 90 12 4 13
REMARK SMILES IDX 5 14 6 15 7 16 12 17 8 18 11 19 13 20 9 21 10 22 21 23 22 24
REMARK SMILES IDX 23 26 24 27 25 28 89 29 26 30 88 31 27 32 28 33 29 34 82 35
REMARK SMILES IDX 30 36 87 37 81 38 83 39 31 40 86 41 80 42 79 43 32 45 66 46
REMARK SMILES IDX 45 47 65 48 46 49 49 50 64 51 84 52 47 53 48 54 63 56 85 57
REMARK SMILES IDX 50 58 33 59 34 60 43 61 35 62 36 63 42 64 44 65 37 66 38 67
REMARK SMILES IDX 39 68 40 69 41 70 67 71 68 72 77 73 69 74 70 75 76 76 78 77
REMARK SMILES IDX 71 78 72 79 73 80 74 81 75 82 51 83 52 84 61 85 53 86 54 87
REMARK SMILES IDX 60 88 62 89 55 90 56 91 57 92 58 93 59 94
REMARK H PARENT 17 7 21 25 83 44 49 55
REMARK Flexibility Score: inf
ROOT
ATOM      1  C   UNL A   1      34.646  29.814  27.071  1.00  0.00     0.118 C 
ENDROOT
BRANCH   1   2
ATOM      2  C   UNL A   1      33.132  29.836  27.230  1.00  0.00     0.042 C 
BRANCH   2   3
ATOM      3  C   UNL A   1      32.400  30.312  25.974  1.00  0.00     0.118 C 
BRANCH   3   4
ATOM      4  N   UNL A   1      32.922  29.705  24.756  1.00  0.00    -0.352 N 
ATOM      5  C   UNL A   1      32.379  29.063  23.668  1.00  0.00     0.251 C 
ATOM      6  O   UNL A   1      33.186  28.829  22.766  1.00  0.00    -0.269 OA
ATOM      7  H   UNL A   1      33.902  29.772  24.697  1.00  0.00     0.163 HD
BRANCH   5   8
ATOM      8  C   UNL A   1      30.936  28.628  23.518  1.00  0.00     0.047 A 
ATOM      9  C   UNL A   1      27.535  30.195  22.680  1.00  0.00     0.044 C 
ATOM     10  C   UNL A   1      28.570  29.173  23.052  1.00  0.00    -0.050 A 
ATOM     11  C   UNL A   1      28.203  27.857  23.289  1.00  0.00     0.004 A 
ATOM     12  C   UNL A   1      29.922  29.535  23.165  1.00  0.00     0.018 A 
ATOM     13  C   UNL A   1      29.176  26.929  23.649  1.00  0.00     0.010 A 
ATOM     14  C   UNL A   1      30.542  27.283  23.775  1.00  0.00    -0.004 A 
BRANCH  14  15
ATOM     15  C   UNL A   1      31.452  26.193  24.191  1.00  0.00     0.003 A 
ATOM     16  C   UNL A   1      32.000  25.340  23.210  1.00  0.00     0.030 A 
ATOM     17  C   UNL A   1      31.851  25.998  25.529  1.00  0.00     0.049 A 
ATOM     18  C   UNL A   1      32.885  24.319  23.560  1.00  0.00     0.041 A 
ATOM     19  C   UNL A   1      32.751  24.981  25.872  1.00  0.00     0.023 A 
ATOM     20  Cl  UNL A   1      31.278  27.013  26.811  1.00  0.00    -0.084 Cl
ATOM     21  Cl  UNL A   1      33.526  23.286  22.343  1.00  0.00    -0.084 Cl
ATOM     22  C   UNL A   1      33.265  24.138  24.887  1.00  0.00     0.022 A 
ENDBRANCH  14  15
ENDBRANCH   5   8
ENDBRANCH   3   4
ENDBRANCH   2   3
ENDBRANCH   1   2
BRANCH   1  23
ATOM     23  N   UNL A   1      35.280  31.024  27.588  1.00  0.00    -0.352 N 
ATOM     24  C   UNL A   1      36.432  31.110  28.340  1.00  0.00     0.251 C 
ATOM     25  H   UNL A   1      34.834  31.875  27.377  1.00  0.00     0.163 HD
ATOM     26  O   UNL A   1      36.781  32.135  28.902  1.00  0.00    -0.269 OA
BRANCH  24  27
ATOM     27  C   UNL A   1      37.306  29.921  28.324  1.00  0.00     0.039 A 
ATOM     28  C   UNL A   1      37.406  29.197  29.517  1.00  0.00     0.014 A 
ATOM     29  C   UNL A   1      38.214  29.744  27.285  1.00  0.00     0.014 A 
ATOM     30  C   UNL A   1      38.521  28.398  29.738  1.00  0.00     0.010 A 
ATOM     31  C   UNL A   1      39.357  29.008  27.537  1.00  0.00     0.010 A 
ATOM     32  C   UNL A   1      39.531  28.370  28.778  1.00  0.00    -0.014 A 
BRANCH  32  33
ATOM     33  C   UNL A   1      40.839  27.766  29.007  1.00  0.00     0.031 A 
ATOM     34  C   UNL A   1      41.110  26.380  28.560  1.00  0.00     0.074 A 
ATOM     35  C   UNL A   1      41.838  28.503  29.542  1.00  0.00     0.049 A 
ATOM     36  N   UNL A   1      42.095  25.653  28.970  1.00  0.00    -0.248 NA
ATOM     37  C   UNL A   1      40.234  25.680  27.625  1.00  0.00     0.031 C 
ATOM     38  C   UNL A   1      43.266  28.208  29.495  1.00  0.00     0.029 A 
ATOM     39  N   UNL A   1      41.732  29.583  30.424  1.00  0.00    -0.354 N 
ATOM     40  C   UNL A   1      42.148  24.527  28.177  1.00  0.00     0.074 A 
ATOM     41  C   UNL A   1      40.938  24.569  27.390  1.00  0.00     0.031 C 
ATOM     42  C   UNL A   1      43.886  28.894  30.468  1.00  0.00     0.029 A 
ATOM     43  C   UNL A   1      42.856  29.524  31.273  1.00  0.00     0.049 A 
ATOM     44  H   UNL A   1      41.014  30.255  30.447  1.00  0.00     0.167 HD
ATOM     45  C   UNL A   1      43.270  23.750  28.176  1.00  0.00     0.037 A 
ATOM     46  C   UNL A   1      42.724  29.361  32.624  1.00  0.00     0.037 A 
ATOM     47  C   UNL A   1      44.244  24.218  29.160  1.00  0.00     0.049 A 
ATOM     48  C   UNL A   1      43.387  28.116  33.166  1.00  0.00     0.074 A 
ATOM     49  C   UNL A   1      45.352  25.045  29.059  1.00  0.00     0.029 A 
ATOM     50  N   UNL A   1      43.972  24.090  30.517  1.00  0.00    -0.354 N 
ATOM     51  N   UNL A   1      43.765  27.111  32.425  1.00  0.00    -0.248 NA
ATOM     52  C   UNL A   1      43.665  27.894  34.583  1.00  0.00     0.031 C 
ATOM     53  C   UNL A   1      45.708  25.466  30.363  1.00  0.00     0.029 A 
ATOM     54  C   UNL A   1      44.830  24.881  31.258  1.00  0.00     0.049 A 
ATOM     55  H   UNL A   1      43.265  23.519  30.896  1.00  0.00     0.167 HD
ATOM     56  C   UNL A   1      44.292  26.125  33.219  1.00  0.00     0.074 A 
ATOM     57  C   UNL A   1      44.231  26.675  34.561  1.00  0.00     0.031 C 
ATOM     58  C   UNL A   1      44.727  24.936  32.707  1.00  0.00     0.037 A 
BRANCH  45  59
ATOM     59  C   UNL A   1      43.591  22.777  27.060  1.00  0.00     0.058 A 
ATOM     60  C   UNL A   1      42.859  21.578  26.908  1.00  0.00     0.135 A 
ATOM     61  C   UNL A   1      44.660  22.930  26.156  1.00  0.00     0.135 A 
ATOM     62  F   UNL A   1      41.749  21.338  27.617  1.00  0.00    -0.206 F 
ATOM     63  C   UNL A   1      43.244  20.557  26.037  1.00  0.00     0.059 A 
ATOM     64  C   UNL A   1      45.101  21.901  25.315  1.00  0.00     0.059 A 
ATOM     65  F   UNL A   1      45.295  24.104  26.031  1.00  0.00    -0.206 F 
ATOM     66  C   UNL A   1      44.394  20.708  25.276  1.00  0.00     0.060 A 
BRANCH  66  67
ATOM     67  S   UNL A   1      44.949  19.326  24.258  1.00  0.00     0.124 S 
ATOM     68  O   UNL A   1      44.297  18.187  24.897  1.00  0.00    -0.237 OA
ATOM     69  O   UNL A   1      44.438  19.694  22.943  1.00  0.00    -0.237 OA
ATOM     70  O   UNL A   1      46.402  19.363  24.402  1.00  0.00    -0.744 OA
ENDBRANCH  66  67
ENDBRANCH  45  59
BRANCH  46  71
ATOM     71  C   UNL A   1      41.504  30.009  33.176  1.00  0.00     0.058 A 
ATOM     72  C   UNL A   1      41.552  31.398  33.397  1.00  0.00     0.135 A 
ATOM     73  C   UNL A   1      40.241  29.415  33.048  1.00  0.00     0.135 A 
ATOM     74  F   UNL A   1      42.737  32.014  33.545  1.00  0.00    -0.206 F 
ATOM     75  C   UNL A   1      40.414  32.191  33.314  1.00  0.00     0.059 A 
ATOM     76  C   UNL A   1      39.082  30.191  32.972  1.00  0.00     0.059 A 
ATOM     77  F   UNL A   1      40.133  28.093  32.846  1.00  0.00    -0.206 F 
ATOM     78  C   UNL A   1      39.193  31.582  33.028  1.00  0.00     0.060 A 
BRANCH  78  79
ATOM     79  S   UNL A   1      37.816  32.652  32.548  1.00  0.00     0.124 S 
ATOM     80  O   UNL A   1      38.392  33.416  31.447  1.00  0.00    -0.237 OA
ATOM     81  O   UNL A   1      36.798  31.673  32.168  1.00  0.00    -0.237 OA
ATOM     82  O   UNL A   1      37.536  33.408  33.763  1.00  0.00    -0.744 OA
ENDBRANCH  78  79
ENDBRANCH  46  71
BRANCH  58  83
ATOM     83  C   UNL A   1      45.174  23.741  33.511  1.00  0.00     0.058 A 
ATOM     84  C   UNL A   1      46.450  23.618  34.083  1.00  0.00     0.135 A 
ATOM     85  C   UNL A   1      44.245  22.730  33.857  1.00  0.00     0.135 A 
ATOM     86  F   UNL A   1      47.386  24.562  33.904  1.00  0.00    -0.206 F 
ATOM     87  C   UNL A   1      46.802  22.540  34.900  1.00  0.00     0.059 A 
ATOM     88  C   UNL A   1      44.559  21.676  34.711  1.00  0.00     0.059 A 
ATOM     89  F   UNL A   1      42.990  22.743  33.381  1.00  0.00    -0.206 F 
ATOM     90  C   UNL A   1      45.848  21.576  35.213  1.00  0.00     0.060 A 
BRANCH  90  91
ATOM     91  S   UNL A   1      46.258  20.221  36.329  1.00  0.00     0.124 S 
ATOM     92  O   UNL A   1      45.509  19.118  35.737  1.00  0.00    -0.237 OA
ATOM     93  O   UNL A   1      47.711  20.127  36.214  1.00  0.00    -0.237 OA
ATOM     94  O   UNL A   1      45.769  20.699  37.618  1.00  0.00    -0.744 OA
ENDBRANCH  90  91
ENDBRANCH  58  83
ENDBRANCH  32  33
ENDBRANCH  24  27
ENDBRANCH   1  23
TORSDOF 14
ENDMDL
MODEL 2
REMARK VINA RESULT:     -14.6      1.218      2.010
REMARK SMILES Cc1ccc(-c2cc(Cl)ccc2Cl)c(C(=O)NCCCNC(=O)c2ccc(-c3c4nc(c(-c5c(F)cc(S(=O)(=O)[O-])cc5F)c5ccc([nH]5)c(-c5c(F)cc(S(=O)(=O)[O-])cc5F)c5nc(c(-c6c(F)cc(S(=O)(=O)[O-])cc6F)c6ccc3[nH]6)C=C5)C=C4)cc2)c1
REMARK SMILES IDX 20 1 19 2 18 3 17 4 15 5 16 6 14 8 1 9 2 10 3 11 90 12 4 13
REMARK SMILES IDX 5 14 6 15 7 16 12 17 8 18 11 19 13 20 9 21 10 22 21 23 22 24
REMARK SMILES IDX 23 26 24 27 25 28 89 29 26 30 88 31 27 32 28 33 29 34 82 35
REMARK SMILES IDX 30 36 87 37 81 38 83 39 31 40 86 41 80 42 79 43 32 45 66 46
REMARK SMILES IDX 45 47 65 48 46 49 49 50 64 51 84 52 47 53 48 54 63 56 85 57
REMARK SMILES IDX 50 58 33 59 34 60 43 61 35 62 36 63 42 64 44 65 37 66 38 67
REMARK SMILES IDX 39 68 40 69 41 70 67 71 68 72 77 73 69 74 70 75 76 76 78 77
REMARK SMILES IDX 71 78 72 79 73 80 74 81 75 82 51 83 52 84 61 85 53 86 54 87
REMARK SMILES IDX 60 88 62 89 55 90 56 91 57 92 58 93 59 94
REMARK H PARENT 17 7 21 25 83 44 49 55
REMARK Flexibility Score: inf
ROOT
ATOM      1  C   UNL A   1      34.353  30.027  27.007  1.00  0.00     0.118 C 
ENDROOT
BRANCH   1   2
ATOM      2  C   UNL A   1      32.850  30.003  27.244  1.00  0.00     0.042 C 
BRANCH   2   3
ATOM      3  C   UNL A   1      32.133  28.900  26.463  1.00  0.00     0.118 C 
BRANCH   3   4
ATOM      4  N   UNL A   1      32.589  28.802  25.082  1.00  0.00    -0.352 N 
ATOM      5  C   UNL A   1      31.987  28.808  23.846  1.00  0.00     0.251 C 
ATOM      6  O   UNL A   1      32.777  28.849  22.901  1.00  0.00    -0.269 OA
ATOM      7  H   UNL A   1      33.567  28.710  25.019  1.00  0.00     0.163 HD
BRANCH   5   8
ATOM      8  C   UNL A   1      30.497  28.748  23.580  1.00  0.00     0.047 A 
ATOM      9  C   UNL A   1      27.598  31.175  22.925  1.00  0.00     0.044 C 
ATOM     10  C   UNL A   1      28.350  29.895  23.145  1.00  0.00    -0.050 A 
ATOM     11  C   UNL A   1      27.684  28.679  23.138  1.00  0.00     0.004 A 
ATOM     12  C   UNL A   1      29.738  29.911  23.360  1.00  0.00     0.018 A 
ATOM     13  C   UNL A   1      28.398  27.505  23.360  1.00  0.00     0.010 A 
ATOM     14  C   UNL A   1      29.796  27.508  23.587  1.00  0.00    -0.004 A 
BRANCH  14  15
ATOM     15  C   UNL A   1      30.410  26.184  23.834  1.00  0.00     0.003 A 
ATOM     16  C   UNL A   1      30.176  25.534  25.063  1.00  0.00     0.030 A 
ATOM     17  C   UNL A   1      31.180  25.506  22.866  1.00  0.00     0.049 A 
ATOM     18  C   UNL A   1      30.713  24.272  25.321  1.00  0.00     0.041 A 
ATOM     19  C   UNL A   1      31.704  24.233  23.126  1.00  0.00     0.023 A 
ATOM     20  Cl  UNL A   1      31.495  26.188  21.305  1.00  0.00    -0.084 Cl
ATOM     21  Cl  UNL A   1      30.421  23.510  26.835  1.00  0.00    -0.084 Cl
ATOM     22  C   UNL A   1      31.474  23.618  24.356  1.00  0.00     0.022 A 
ENDBRANCH  14  15
ENDBRANCH   5   8
ENDBRANCH   3   4
ENDBRANCH   2   3
ENDBRANCH   1   2
BRANCH   1  23
ATOM     23  N   UNL A   1      34.987  31.223  27.556  1.00  0.00    -0.352 N 
ATOM     24  C   UNL A   1      36.143  31.290  28.303  1.00  0.00     0.251 C 
ATOM     25  H   UNL A   1      34.536  32.079  27.373  1.00  0.00     0.163 HD
ATOM     26  O   UNL A   1      36.492  32.299  28.894  1.00  0.00    -0.269 OA
BRANCH  24  27
ATOM     27  C   UNL A   1      37.020  30.104  28.247  1.00  0.00     0.039 A 
ATOM     28  C   UNL A   1      37.072  29.305  29.394  1.00  0.00     0.014 A 
ATOM     29  C   UNL A   1      37.972  29.996  27.237  1.00  0.00     0.014 A 
ATOM     30  C   UNL A   1      38.180  28.493  29.608  1.00  0.00     0.010 A 
ATOM     31  C   UNL A   1      39.104  29.245  27.488  1.00  0.00     0.010 A 
ATOM     32  C   UNL A   1      39.229  28.528  28.692  1.00  0.00    -0.014 A 
BRANCH  32  33
ATOM     33  C   UNL A   1      40.528  27.911  28.936  1.00  0.00     0.031 A 
ATOM     34  C   UNL A   1      40.757  26.490  28.582  1.00  0.00     0.074 A 
ATOM     35  C   UNL A   1      41.554  28.660  29.396  1.00  0.00     0.049 A 
ATOM     36  N   UNL A   1      41.736  25.771  29.022  1.00  0.00    -0.248 NA
ATOM     37  C   UNL A   1      39.846  25.748  27.718  1.00  0.00     0.031 C 
ATOM     38  C   UNL A   1      42.975  28.328  29.341  1.00  0.00     0.029 A 
ATOM     39  N   UNL A   1      41.493  29.801  30.202  1.00  0.00    -0.354 N 
ATOM     40  C   UNL A   1      41.745  24.591  28.311  1.00  0.00     0.074 A 
ATOM     41  C   UNL A   1      40.519  24.607  27.548  1.00  0.00     0.031 C 
ATOM     42  C   UNL A   1      43.631  29.066  30.250  1.00  0.00     0.029 A 
ATOM     43  C   UNL A   1      42.633  29.775  31.029  1.00  0.00     0.049 A 
ATOM     44  H   UNL A   1      40.790  30.490  30.192  1.00  0.00     0.167 HD
ATOM     45  C   UNL A   1      42.849  23.789  28.341  1.00  0.00     0.037 A 
ATOM     46  C   UNL A   1      42.528  29.711  32.390  1.00  0.00     0.037 A 
ATOM     47  C   UNL A   1      43.855  24.302  29.268  1.00  0.00     0.049 A 
ATOM     48  C   UNL A   1      43.176  28.491  33.006  1.00  0.00     0.074 A 
ATOM     49  C   UNL A   1      44.979  25.094  29.087  1.00  0.00     0.029 A 
ATOM     50  N   UNL A   1      43.611  24.277  30.637  1.00  0.00    -0.354 N 
ATOM     51  N   UNL A   1      43.515  27.428  32.330  1.00  0.00    -0.248 NA
ATOM     52  C   UNL A   1      43.480  28.363  34.428  1.00  0.00     0.031 C 
ATOM     53  C   UNL A   1      45.373  25.597  30.349  1.00  0.00     0.029 A 
ATOM     54  C   UNL A   1      44.503  25.097  31.302  1.00  0.00     0.049 A 
ATOM     55  H   UNL A   1      42.901  23.750  31.070  1.00  0.00     0.167 HD
ATOM     56  C   UNL A   1      44.037  26.489  33.181  1.00  0.00     0.074 A 
ATOM     57  C   UNL A   1      44.018  27.132  34.481  1.00  0.00     0.031 C 
ATOM     58  C   UNL A   1      44.434  25.256  32.745  1.00  0.00     0.037 A 
BRANCH  45  59
ATOM     59  C   UNL A   1      43.123  22.733  27.290  1.00  0.00     0.058 A 
ATOM     60  C   UNL A   1      42.399  21.520  27.273  1.00  0.00     0.135 A 
ATOM     61  C   UNL A   1      44.142  22.822  26.322  1.00  0.00     0.135 A 
ATOM     62  F   UNL A   1      41.330  21.329  28.056  1.00  0.00    -0.206 F 
ATOM     63  C   UNL A   1      42.750  20.436  26.466  1.00  0.00     0.059 A 
ATOM     64  C   UNL A   1      44.551  21.733  25.543  1.00  0.00     0.059 A 
ATOM     65  F   UNL A   1      44.756  23.987  26.071  1.00  0.00    -0.206 F 
ATOM     66  C   UNL A   1      43.857  20.534  25.636  1.00  0.00     0.060 A 
BRANCH  66  67
ATOM     67  S   UNL A   1      44.375  19.080  24.703  1.00  0.00     0.124 S 
ATOM     68  O   UNL A   1      43.329  18.114  25.026  1.00  0.00    -0.237 OA
ATOM     69  O   UNL A   1      44.375  19.582  23.334  1.00  0.00    -0.237 OA
ATOM     70  O   UNL A   1      45.690  18.772  25.260  1.00  0.00    -0.744 OA
ENDBRANCH  66  67
ENDBRANCH  45  59
BRANCH  46  71
ATOM     71  C   UNL A   1      41.336  30.425  32.921  1.00  0.00     0.058 A 
ATOM     72  C   UNL A   1      40.194  29.655  33.209  1.00  0.00     0.135 A 
ATOM     73  C   UNL A   1      41.453  31.673  33.548  1.00  0.00     0.135 A 
ATOM     74  F   UNL A   1      40.025  28.459  32.620  1.00  0.00    -0.206 F 
ATOM     75  C   UNL A   1      39.300  30.020  34.208  1.00  0.00     0.059 A 
ATOM     76  C   UNL A   1      40.560  32.066  34.548  1.00  0.00     0.059 A 
ATOM     77  F   UNL A   1      42.515  32.456  33.304  1.00  0.00    -0.206 F 
ATOM     78  C   UNL A   1      39.535  31.193  34.921  1.00  0.00     0.060 A 
BRANCH  78  79
ATOM     79  S   UNL A   1      38.599  31.448  36.447  1.00  0.00     0.124 S 
ATOM     80  O   UNL A   1      38.195  30.089  36.789  1.00  0.00    -0.237 OA
ATOM     81  O   UNL A   1      39.610  32.041  37.322  1.00  0.00    -0.237 OA
ATOM     82  O   UNL A   1      37.523  32.342  36.037  1.00  0.00    -0.744 OA
ENDBRANCH  78  79
ENDBRANCH  46  71
BRANCH  58  83
ATOM     83  C   UNL A   1      44.872  24.111  33.622  1.00  0.00     0.058 A 
ATOM     84  C   UNL A   1      44.034  23.046  33.992  1.00  0.00     0.135 A 
ATOM     85  C   UNL A   1      46.231  23.982  33.999  1.00  0.00     0.135 A 
ATOM     86  F   UNL A   1      42.749  23.009  33.612  1.00  0.00    -0.206 F 
ATOM     87  C   UNL A   1      44.497  21.952  34.729  1.00  0.00     0.059 A 
ATOM     88  C   UNL A   1      46.724  22.877  34.688  1.00  0.00     0.059 A 
ATOM     89  F   UNL A   1      47.131  24.931  33.695  1.00  0.00    -0.206 F 
ATOM     90  C   UNL A   1      45.844  21.874  35.069  1.00  0.00     0.060 A 
BRANCH  90  91
ATOM     91  S   UNL A   1      46.478  20.434  35.950  1.00  0.00     0.124 S 
ATOM     92  O   UNL A   1      45.534  19.401  35.538  1.00  0.00    -0.237 OA
ATOM     93  O   UNL A   1      47.832  20.295  35.421  1.00  0.00    -0.237 OA
ATOM     94  O   UNL A   1      46.399  20.845  37.348  1.00  0.00    -0.744 OA
ENDBRANCH  90  91
ENDBRANCH  58  83
ENDBRANCH  32  33
ENDBRANCH  24  27
ENDBRANCH   1  23
TORSDOF 14
ENDMDL
MODEL 3
REMARK VINA RESULT:     -14.4      4.982     11.683
REMARK SMILES Cc1ccc(-c2cc(Cl)ccc2Cl)c(C(=O)NCCCNC(=O)c2ccc(-c3c4nc(c(-c5c(F)cc(S(=O)(=O)[O-])cc5F)c5ccc([nH]5)c(-c5c(F)cc(S(=O)(=O)[O-])cc5F)c5nc(c(-c6c(F)cc(S(=O)(=O)[O-])cc6F)c6ccc3[nH]6)C=C5)C=C4)cc2)c1
REMARK SMILES IDX 20 1 19 2 18 3 17 4 15 5 16 6 14 8 1 9 2 10 3 11 90 12 4 13
REMARK SMILES IDX 5 14 6 15 7 16 12 17 8 18 11 19 13 20 9 21 10 22 21 23 22 24
REMARK SMILES IDX 23 26 24 27 25 28 89 29 26 30 88 31 27 32 28 33 29 34 82 35
REMARK SMILES IDX 30 36 87 37 81 38 83 39 31 40 86 41 80 42 79 43 32 45 66 46
REMARK SMILES IDX 45 47 65 48 46 49 49 50 64 51 84 52 47 53 48 54 63 56 85 57
REMARK SMILES IDX 50 58 33 59 34 60 43 61 35 62 36 63 42 64 44 65 37 66 38 67
REMARK SMILES IDX 39 68 40 69 41 70 67 71 68 72 77 73 69 74 70 75 76 76 78 77
REMARK SMILES IDX 71 78 72 79 73 80 74 81 75 82 51 83 52 84 61 85 53 86 54 87
REMARK SMILES IDX 60 88 62 89 55 90 56 91 57 92 58 93 59 94
REMARK H PARENT 17 7 21 25 83 44 49 55
REMARK Flexibility Score: inf
ROOT
ATOM      1  C   UNL A   1      37.965  23.438  26.155  1.00  0.00     0.118 C 
ENDROOT
BRANCH   1   2
ATOM      2  C   UNL A   1      37.608  22.537  24.980  1.00  0.00     0.042 C 
BRANCH   2   3
ATOM      3  C   UNL A   1      36.906  21.245  25.402  1.00  0.00     0.118 C 
BRANCH   3   4
ATOM      4  N   UNL A   1      35.768  21.485  26.282  1.00  0.00    -0.352 N 
ATOM      5  C   UNL A   1      34.431  21.168  26.267  1.00  0.00     0.251 C 
ATOM      6  O   UNL A   1      33.834  21.448  27.309  1.00  0.00    -0.269 OA
ATOM      7  H   UNL A   1      36.020  22.000  27.082  1.00  0.00     0.163 HD
BRANCH   5   8
ATOM      8  C   UNL A   1      33.674  20.550  25.109  1.00  0.00     0.047 A 
ATOM      9  C   UNL A   1      33.244  17.106  23.472  1.00  0.00     0.044 C 
ATOM     10  C   UNL A   1      33.102  18.578  23.732  1.00  0.00    -0.050 A 
ATOM     11  C   UNL A   1      32.315  19.364  22.904  1.00  0.00     0.004 A 
ATOM     12  C   UNL A   1      33.761  19.177  24.818  1.00  0.00     0.018 A 
ATOM     13  C   UNL A   1      32.210  20.729  23.154  1.00  0.00     0.010 A 
ATOM     14  C   UNL A   1      32.876  21.348  24.240  1.00  0.00    -0.004 A 
BRANCH  14  15
ATOM     15  C   UNL A   1      32.689  22.811  24.360  1.00  0.00     0.003 A 
ATOM     16  C   UNL A   1      31.587  23.307  25.087  1.00  0.00     0.030 A 
ATOM     17  C   UNL A   1      33.599  23.745  23.825  1.00  0.00     0.049 A 
ATOM     18  C   UNL A   1      31.393  24.680  25.247  1.00  0.00     0.041 A 
ATOM     19  C   UNL A   1      33.407  25.121  24.001  1.00  0.00     0.023 A 
ATOM     20  Cl  UNL A   1      35.011  23.249  22.951  1.00  0.00    -0.084 Cl
ATOM     21  Cl  UNL A   1      30.033  25.257  26.129  1.00  0.00    -0.084 Cl
ATOM     22  C   UNL A   1      32.300  25.589  24.709  1.00  0.00     0.022 A 
ENDBRANCH  14  15
ENDBRANCH   5   8
ENDBRANCH   3   4
ENDBRANCH   2   3
ENDBRANCH   1   2
BRANCH   1  23
ATOM     23  N   UNL A   1      39.240  23.075  26.770  1.00  0.00    -0.352 N 
ATOM     24  C   UNL A   1      40.199  23.928  27.274  1.00  0.00     0.251 C 
ATOM     25  H   UNL A   1      39.437  22.113  26.830  1.00  0.00     0.163 HD
ATOM     26  O   UNL A   1      41.319  23.555  27.582  1.00  0.00    -0.269 OA
BRANCH  24  27
ATOM     27  C   UNL A   1      39.757  25.308  27.549  1.00  0.00     0.039 A 
ATOM     28  C   UNL A   1      40.302  26.315  26.745  1.00  0.00     0.014 A 
ATOM     29  C   UNL A   1      39.104  25.599  28.743  1.00  0.00     0.014 A 
ATOM     30  C   UNL A   1      40.331  27.623  27.218  1.00  0.00     0.010 A 
ATOM     31  C   UNL A   1      39.201  26.885  29.242  1.00  0.00     0.010 A 
ATOM     32  C   UNL A   1      39.852  27.887  28.499  1.00  0.00    -0.014 A 
BRANCH  32  33
ATOM     33  C   UNL A   1      40.053  29.160  29.185  1.00  0.00     0.031 A 
ATOM     34  C   UNL A   1      38.988  30.189  29.173  1.00  0.00     0.074 A 
ATOM     35  C   UNL A   1      41.173  29.364  29.912  1.00  0.00     0.049 A 
ATOM     36  N   UNL A   1      39.164  31.434  29.470  1.00  0.00    -0.248 NA
ATOM     37  C   UNL A   1      37.619  29.887  28.768  1.00  0.00     0.031 C 
ATOM     38  C   UNL A   1      41.376  30.378  30.942  1.00  0.00     0.029 A 
ATOM     39  N   UNL A   1      42.441  28.808  29.714  1.00  0.00    -0.354 N 
ATOM     40  C   UNL A   1      37.922  32.025  29.562  1.00  0.00     0.074 A 
ATOM     41  C   UNL A   1      36.999  31.031  29.068  1.00  0.00     0.031 C 
ATOM     42  C   UNL A   1      42.693  30.559  31.123  1.00  0.00     0.029 A 
ATOM     43  C   UNL A   1      43.378  29.787  30.103  1.00  0.00     0.049 A 
ATOM     44  H   UNL A   1      42.641  27.908  29.371  1.00  0.00     0.167 HD
ATOM     45  C   UNL A   1      37.794  33.241  30.170  1.00  0.00     0.037 A 
ATOM     46  C   UNL A   1      44.279  30.307  29.217  1.00  0.00     0.037 A 
ATOM     47  C   UNL A   1      39.095  33.788  30.547  1.00  0.00     0.049 A 
ATOM     48  C   UNL A   1      44.164  31.802  29.020  1.00  0.00     0.074 A 
ATOM     49  C   UNL A   1      39.813  33.766  31.733  1.00  0.00     0.029 A 
ATOM     50  N   UNL A   1      39.982  34.205  29.560  1.00  0.00    -0.354 N 
ATOM     51  N   UNL A   1      43.126  32.506  29.377  1.00  0.00    -0.248 NA
ATOM     52  C   UNL A   1      45.199  32.621  28.394  1.00  0.00     0.031 C 
ATOM     53  C   UNL A   1      41.154  34.111  31.443  1.00  0.00     0.029 A 
ATOM     54  C   UNL A   1      41.250  34.362  30.086  1.00  0.00     0.049 A 
ATOM     55  H   UNL A   1      39.739  34.363  28.619  1.00  0.00     0.167 HD
ATOM     56  C   UNL A   1      43.315  33.817  29.026  1.00  0.00     0.074 A 
ATOM     57  C   UNL A   1      44.640  33.843  28.437  1.00  0.00     0.031 C 
ATOM     58  C   UNL A   1      42.361  34.770  29.242  1.00  0.00     0.037 A 
BRANCH  45  59
ATOM     59  C   UNL A   1      36.470  33.756  30.697  1.00  0.00     0.058 A 
ATOM     60  C   UNL A   1      35.448  34.171  29.814  1.00  0.00     0.135 A 
ATOM     61  C   UNL A   1      36.178  33.943  32.062  1.00  0.00     0.135 A 
ATOM     62  F   UNL A   1      35.530  33.956  28.494  1.00  0.00    -0.206 F 
ATOM     63  C   UNL A   1      34.302  34.844  30.239  1.00  0.00     0.059 A 
ATOM     64  C   UNL A   1      35.065  34.665  32.511  1.00  0.00     0.059 A 
ATOM     65  F   UNL A   1      36.947  33.396  33.014  1.00  0.00    -0.206 F 
ATOM     66  C   UNL A   1      34.139  35.129  31.587  1.00  0.00     0.060 A 
BRANCH  66  67
ATOM     67  S   UNL A   1      32.721  36.116  32.101  1.00  0.00     0.124 S 
ATOM     68  O   UNL A   1      33.261  36.878  33.223  1.00  0.00    -0.237 OA
ATOM     69  O   UNL A   1      32.431  36.882  30.895  1.00  0.00    -0.237 OA
ATOM     70  O   UNL A   1      31.723  35.112  32.463  1.00  0.00    -0.744 OA
ENDBRANCH  66  67
ENDBRANCH  45  59
BRANCH  46  71
ATOM     71  C   UNL A   1      44.726  29.326  28.192  1.00  0.00     0.058 A 
ATOM     72  C   UNL A   1      45.659  28.351  28.593  1.00  0.00     0.135 A 
ATOM     73  C   UNL A   1      43.954  29.057  27.053  1.00  0.00     0.135 A 
ATOM     74  F   UNL A   1      46.436  28.567  29.667  1.00  0.00    -0.206 F 
ATOM     75  C   UNL A   1      45.700  27.093  28.004  1.00  0.00     0.059 A 
ATOM     76  C   UNL A   1      43.986  27.803  26.438  1.00  0.00     0.059 A 
ATOM     77  F   UNL A   1      43.057  29.954  26.618  1.00  0.00    -0.206 F 
ATOM     78  C   UNL A   1      44.807  26.807  26.974  1.00  0.00     0.060 A 
BRANCH  78  79
ATOM     79  S   UNL A   1      44.612  25.075  26.490  1.00  0.00     0.124 S 
ATOM     80  O   UNL A   1      43.402  25.119  25.677  1.00  0.00    -0.237 OA
ATOM     81  O   UNL A   1      45.854  24.829  25.757  1.00  0.00    -0.237 OA
ATOM     82  O   UNL A   1      44.490  24.380  27.767  1.00  0.00    -0.744 OA
ENDBRANCH  78  79
ENDBRANCH  46  71
BRANCH  58  83
ATOM     83  C   UNL A   1      42.413  36.196  28.753  1.00  0.00     0.058 A 
ATOM     84  C   UNL A   1      43.109  37.222  29.412  1.00  0.00     0.135 A 
ATOM     85  C   UNL A   1      41.869  36.536  27.491  1.00  0.00     0.135 A 
ATOM     86  F   UNL A   1      43.748  36.996  30.570  1.00  0.00    -0.206 F 
ATOM     87  C   UNL A   1      43.216  38.512  28.884  1.00  0.00     0.059 A 
ATOM     88  C   UNL A   1      42.008  37.799  26.923  1.00  0.00     0.059 A 
ATOM     89  F   UNL A   1      41.189  35.638  26.761  1.00  0.00    -0.206 F 
ATOM     90  C   UNL A   1      42.666  38.790  27.637  1.00  0.00     0.060 A 
BRANCH  90  91
ATOM     91  S   UNL A   1      42.861  40.425  26.901  1.00  0.00     0.124 S 
ATOM     92  O   UNL A   1      43.426  41.180  28.014  1.00  0.00    -0.237 OA
ATOM     93  O   UNL A   1      43.769  40.177  25.784  1.00  0.00    -0.237 OA
ATOM     94  O   UNL A   1      41.497  40.778  26.523  1.00  0.00    -0.744 OA
ENDBRANCH  90  91
ENDBRANCH  58  83
ENDBRANCH  32  33
ENDBRANCH  24  27
ENDBRANCH   1  23
TORSDOF 14
ENDMDL
