MODEL 1
REMARK VINA RESULT:     -13.0      0.000      0.000
REMARK SMILES O=C(NCCCNC(=O)c1ccccc1C[N@H+]1CCCC[C@@H]1CCn1cccn1)c1ccc(-c2c3nc(c(-c4c(F)cc(S(=O)(=O)[O-])cc4F)c4ccc([nH]4)c(-c4c(F)cc(S(=O)(=O)[O-])cc4F)c4nc(c(-c5c(F)cc(S(=O)(=O)[O-])cc5F)c5ccc2[nH]5)C=C4)C=C3)cc1
REMARK SMILES IDX 6 1 5 2 4 3 3 4 1 5 2 6 30 8 31 9 95 10 32 11 94 12 33 13
REMARK SMILES IDX 34 14 35 15 88 16 36 17 93 18 87 19 89 20 37 21 92 22 86 23
REMARK SMILES IDX 85 24 38 26 72 27 51 28 71 29 52 30 55 31 70 32 90 33 53 34
REMARK SMILES IDX 54 35 69 37 91 38 56 39 39 40 40 41 49 42 41 43 42 44 48 45
REMARK SMILES IDX 50 46 43 47 44 48 45 49 46 50 47 51 73 52 74 53 83 54 75 55
REMARK SMILES IDX 76 56 82 57 84 58 77 59 78 60 79 61 80 62 81 63 57 64 58 65
REMARK SMILES IDX 67 66 59 67 60 68 66 69 68 70 61 71 62 72 63 73 64 74 65 75
REMARK SMILES IDX 7 76 8 77 9 79 10 80 11 81 15 82 12 83 14 84 13 85 16 86
REMARK SMILES IDX 17 87 18 88 22 89 19 91 21 92 20 93 23 94 24 95 25 96 26 97
REMARK SMILES IDX 29 98 27 99 28 100
REMARK H PARENT 3 7 89 25 55 36 7 78 17 90
REMARK Flexibility Score: inf
ROOT
ATOM      1  C   UNL A   1      35.909  23.067  24.268  1.00  0.00     0.118 C 
ENDROOT
BRANCH   1   2
ATOM      2  C   UNL A   1      37.034  22.042  24.288  1.00  0.00     0.042 C 
BRANCH   2   3
ATOM      3  C   UNL A   1      37.733  21.848  25.631  1.00  0.00     0.118 C 
BRANCH   3   4
ATOM      4  N   UNL A   1      39.175  21.705  25.574  1.00  0.00    -0.352 N 
ATOM      5  O   UNL A   1      41.290  21.651  26.174  1.00  0.00    -0.269 OA
ATOM      6  C   UNL A   1      40.230  22.284  26.226  1.00  0.00     0.251 C 
ATOM      7  H   UNL A   1      39.461  21.035  24.914  1.00  0.00     0.163 HD
BRANCH   6   8
ATOM      8  C   UNL A   1      40.230  23.615  26.899  1.00  0.00     0.039 A 
ATOM      9  C   UNL A   1      39.285  24.623  26.726  1.00  0.00     0.014 A 
ATOM     10  C   UNL A   1      41.348  23.887  27.718  1.00  0.00     0.014 A 
ATOM     11  C   UNL A   1      39.497  25.889  27.286  1.00  0.00     0.010 A 
ATOM     12  C   UNL A   1      41.563  25.144  28.279  1.00  0.00     0.010 A 
ATOM     13  C   UNL A   1      40.652  26.164  28.035  1.00  0.00    -0.014 A 
BRANCH  13  14
ATOM     14  C   UNL A   1      40.754  27.455  28.726  1.00  0.00     0.031 A 
ATOM     15  C   UNL A   1      41.841  28.318  28.184  1.00  0.00     0.074 A 
ATOM     16  C   UNL A   1      39.909  27.939  29.664  1.00  0.00     0.049 A 
ATOM     17  N   UNL A   1      42.963  28.614  28.752  1.00  0.00    -0.248 NA
ATOM     18  C   UNL A   1      41.740  28.775  26.790  1.00  0.00     0.031 C 
ATOM     19  C   UNL A   1      38.631  27.384  30.110  1.00  0.00     0.029 A 
ATOM     20  N   UNL A   1      39.995  29.103  30.382  1.00  0.00    -0.354 N 
ATOM     21  C   UNL A   1      43.613  29.487  27.883  1.00  0.00     0.074 A 
ATOM     22  C   UNL A   1      42.908  29.402  26.631  1.00  0.00     0.031 C 
ATOM     23  C   UNL A   1      37.971  28.307  30.852  1.00  0.00     0.029 A 
ATOM     24  C   UNL A   1      38.828  29.465  31.056  1.00  0.00     0.049 A 
ATOM     25  H   UNL A   1      40.816  29.643  30.420  1.00  0.00     0.167 HD
ATOM     26  C   UNL A   1      44.538  30.378  28.338  1.00  0.00     0.037 A 
ATOM     27  C   UNL A   1      38.576  30.636  31.707  1.00  0.00     0.037 A 
ATOM     28  C   UNL A   1      44.987  30.026  29.663  1.00  0.00     0.049 A 
ATOM     29  C   UNL A   1      39.887  31.252  32.032  1.00  0.00     0.074 A 
ATOM     30  C   UNL A   1      45.585  28.915  30.228  1.00  0.00     0.029 A 
ATOM     31  N   UNL A   1      44.495  30.758  30.715  1.00  0.00    -0.354 N 
ATOM     32  N   UNL A   1      40.729  30.760  32.897  1.00  0.00    -0.248 NA
ATOM     33  C   UNL A   1      40.454  32.179  31.067  1.00  0.00     0.031 C 
ATOM     34  C   UNL A   1      44.983  28.789  31.515  1.00  0.00     0.029 A 
ATOM     35  C   UNL A   1      44.119  29.870  31.688  1.00  0.00     0.049 A 
ATOM     36  H   UNL A   1      44.424  31.738  30.761  1.00  0.00     0.167 HD
ATOM     37  C   UNL A   1      41.972  30.939  32.312  1.00  0.00     0.074 A 
ATOM     38  C   UNL A   1      41.748  31.896  31.230  1.00  0.00     0.031 C 
ATOM     39  C   UNL A   1      43.006  30.089  32.582  1.00  0.00     0.037 A 
BRANCH  26  40
ATOM     40  C   UNL A   1      44.756  31.763  27.768  1.00  0.00     0.058 A 
ATOM     41  C   UNL A   1      45.966  32.048  27.101  1.00  0.00     0.135 A 
ATOM     42  C   UNL A   1      43.971  32.887  28.105  1.00  0.00     0.135 A 
ATOM     43  F   UNL A   1      46.796  31.058  26.732  1.00  0.00    -0.206 F 
ATOM     44  C   UNL A   1      46.404  33.352  26.865  1.00  0.00     0.059 A 
ATOM     45  C   UNL A   1      44.363  34.194  27.831  1.00  0.00     0.059 A 
ATOM     46  F   UNL A   1      42.833  32.787  28.800  1.00  0.00    -0.206 F 
ATOM     47  C   UNL A   1      45.599  34.419  27.248  1.00  0.00     0.060 A 
BRANCH  47  48
ATOM     48  S   UNL A   1      46.204  36.101  27.028  1.00  0.00     0.124 S 
ATOM     49  O   UNL A   1      46.973  36.298  28.243  1.00  0.00    -0.237 OA
ATOM     50  O   UNL A   1      46.970  35.983  25.791  1.00  0.00    -0.237 OA
ATOM     51  O   UNL A   1      44.972  36.885  26.919  1.00  0.00    -0.744 OA
ENDBRANCH  47  48
ENDBRANCH  26  40
BRANCH  27  52
ATOM     52  C   UNL A   1      37.312  31.426  31.806  1.00  0.00     0.058 A 
ATOM     53  C   UNL A   1      36.788  31.826  33.054  1.00  0.00     0.135 A 
ATOM     54  C   UNL A   1      36.776  32.076  30.680  1.00  0.00     0.135 A 
ATOM     55  F   UNL A   1      37.247  31.275  34.188  1.00  0.00    -0.206 F 
ATOM     56  C   UNL A   1      35.839  32.850  33.178  1.00  0.00     0.059 A 
ATOM     57  C   UNL A   1      35.825  33.095  30.779  1.00  0.00     0.059 A 
ATOM     58  F   UNL A   1      37.234  31.808  29.448  1.00  0.00    -0.206 F 
ATOM     59  C   UNL A   1      35.381  33.499  32.032  1.00  0.00     0.060 A 
BRANCH  59  60
ATOM     60  S   UNL A   1      34.308  34.949  32.193  1.00  0.00     0.124 S 
ATOM     61  O   UNL A   1      33.150  34.395  32.885  1.00  0.00    -0.237 OA
ATOM     62  O   UNL A   1      35.136  35.865  32.970  1.00  0.00    -0.237 OA
ATOM     63  O   UNL A   1      34.073  35.350  30.808  1.00  0.00    -0.744 OA
ENDBRANCH  59  60
ENDBRANCH  27  52
BRANCH  39  64
ATOM     64  C   UNL A   1      42.900  29.182  33.780  1.00  0.00     0.058 A 
ATOM     65  C   UNL A   1      43.233  29.535  35.100  1.00  0.00     0.135 A 
ATOM     66  C   UNL A   1      42.316  27.921  33.582  1.00  0.00     0.135 A 
ATOM     67  F   UNL A   1      43.692  30.760  35.398  1.00  0.00    -0.206 F 
ATOM     68  C   UNL A   1      43.046  28.647  36.164  1.00  0.00     0.059 A 
ATOM     69  C   UNL A   1      42.086  27.038  34.631  1.00  0.00     0.059 A 
ATOM     70  F   UNL A   1      41.922  27.546  32.354  1.00  0.00    -0.206 F 
ATOM     71  C   UNL A   1      42.473  27.400  35.917  1.00  0.00     0.060 A 
BRANCH  71  72
ATOM     72  S   UNL A   1      42.189  26.268  37.296  1.00  0.00     0.124 S 
ATOM     73  O   UNL A   1      40.804  26.554  37.647  1.00  0.00    -0.237 OA
ATOM     74  O   UNL A   1      42.433  24.962  36.689  1.00  0.00    -0.237 OA
ATOM     75  O   UNL A   1      43.182  26.679  38.285  1.00  0.00    -0.744 OA
ENDBRANCH  71  72
ENDBRANCH  39  64
ENDBRANCH  13  14
ENDBRANCH   6   8
ENDBRANCH   3   4
ENDBRANCH   2   3
ENDBRANCH   1   2
BRANCH   1  76
ATOM     76  N   UNL A   1      35.212  23.207  22.997  1.00  0.00    -0.352 N 
ATOM     77  C   UNL A   1      33.863  23.350  22.749  1.00  0.00     0.251 C 
ATOM     78  H   UNL A   1      35.788  23.200  22.199  1.00  0.00     0.163 HD
ATOM     79  O   UNL A   1      33.472  23.514  21.595  1.00  0.00    -0.269 OA
BRANCH  77  80
ATOM     80  C   UNL A   1      32.863  23.217  23.840  1.00  0.00     0.048 A 
ATOM     81  C   UNL A   1      32.613  21.897  24.267  1.00  0.00     0.014 A 
ATOM     82  C   UNL A   1      32.198  24.300  24.445  1.00  0.00     0.019 A 
ATOM     83  C   UNL A   1      31.793  21.645  25.365  1.00  0.00     0.001 A 
ATOM     84  C   UNL A   1      31.450  24.016  25.603  1.00  0.00     0.010 A 
ATOM     85  C   UNL A   1      31.242  22.712  26.056  1.00  0.00     0.001 A 
BRANCH  82  86
ATOM     86  C   UNL A   1      32.303  25.726  23.925  1.00  0.00     0.300 C 
BRANCH  86  87
ATOM     87  N   UNL A   1      32.303  26.846  24.886  1.00  0.00    -0.329 N 
ATOM     88  C   UNL A   1      33.660  27.061  25.417  1.00  0.00     0.262 C 
ATOM     89  C   UNL A   1      31.669  28.107  24.438  1.00  0.00     0.186 C 
ATOM     90  H   UNL A   1      31.680  26.543  25.635  1.00  0.00     0.348 HD
ATOM     91  C   UNL A   1      33.658  28.034  26.593  1.00  0.00     0.062 C 
ATOM     92  C   UNL A   1      31.622  29.099  25.621  1.00  0.00     0.065 C 
ATOM     93  C   UNL A   1      33.007  29.350  26.205  1.00  0.00     0.012 C 
BRANCH  89  94
ATOM     94  C   UNL A   1      30.233  27.920  23.868  1.00  0.00     0.088 C 
BRANCH  94  95
ATOM     95  C   UNL A   1      29.989  28.473  22.452  1.00  0.00     0.150 C 
BRANCH  95  96
ATOM     96  N   UNL A   1      29.228  29.711  22.373  1.00  0.00    -0.273 N 
ATOM     97  C   UNL A   1      28.741  30.444  23.419  1.00  0.00     0.108 A 
ATOM     98  N   UNL A   1      28.987  30.294  21.182  1.00  0.00    -0.182 NA
ATOM     99  C   UNL A   1      28.046  31.494  22.864  1.00  0.00     0.042 A 
ATOM    100  C   UNL A   1      28.207  31.334  21.480  1.00  0.00     0.135 A 
ENDBRANCH  95  96
ENDBRANCH  94  95
ENDBRANCH  89  94
ENDBRANCH  86  87
ENDBRANCH  82  86
ENDBRANCH  77  80
ENDBRANCH   1  76
TORSDOF 18
ENDMDL
MODEL 2
REMARK VINA RESULT:     -12.8      2.990      9.718
REMARK SMILES O=C(NCCCNC(=O)c1ccccc1C[N@H+]1CCCC[C@@H]1CCn1cccn1)c1ccc(-c2c3nc(c(-c4c(F)cc(S(=O)(=O)[O-])cc4F)c4ccc([nH]4)c(-c4c(F)cc(S(=O)(=O)[O-])cc4F)c4nc(c(-c5c(F)cc(S(=O)(=O)[O-])cc5F)c5ccc2[nH]5)C=C4)C=C3)cc1
REMARK SMILES IDX 6 1 5 2 4 3 3 4 1 5 2 6 30 8 31 9 95 10 32 11 94 12 33 13
REMARK SMILES IDX 34 14 35 15 88 16 36 17 93 18 87 19 89 20 37 21 92 22 86 23
REMARK SMILES IDX 85 24 38 26 72 27 51 28 71 29 52 30 55 31 70 32 90 33 53 34
REMARK SMILES IDX 54 35 69 37 91 38 56 39 39 40 40 41 49 42 41 43 42 44 48 45
REMARK SMILES IDX 50 46 43 47 44 48 45 49 46 50 47 51 73 52 74 53 83 54 75 55
REMARK SMILES IDX 76 56 82 57 84 58 77 59 78 60 79 61 80 62 81 63 57 64 58 65
REMARK SMILES IDX 67 66 59 67 60 68 66 69 68 70 61 71 62 72 63 73 64 74 65 75
REMARK SMILES IDX 7 76 8 77 9 79 10 80 11 81 15 82 12 83 14 84 13 85 16 86
REMARK SMILES IDX 17 87 18 88 22 89 19 91 21 92 20 93 23 94 24 95 25 96 26 97
REMARK SMILES IDX 29 98 27 99 28 100
REMARK H PARENT 3 7 89 25 55 36 7 78 17 90
REMARK Flexibility Score: inf
ROOT
ATOM      1  C   UNL A   1      32.441  28.089  27.217  1.00  0.00     0.118 C 
ENDROOT
BRANCH   1   2
ATOM      2  C   UNL A   1      32.047  29.549  27.040  1.00  0.00     0.042 C 
BRANCH   2   3
ATOM      3  C   UNL A   1      33.199  30.527  26.830  1.00  0.00     0.118 C 
BRANCH   3   4
ATOM      4  N   UNL A   1      33.466  31.430  27.933  1.00  0.00    -0.352 N 
ATOM      5  O   UNL A   1      34.466  32.894  29.234  1.00  0.00    -0.269 OA
ATOM      6  C   UNL A   1      34.592  31.847  28.590  1.00  0.00     0.251 C 
ATOM      7  H   UNL A   1      32.647  31.837  28.293  1.00  0.00     0.163 HD
BRANCH   6   8
ATOM      8  C   UNL A   1      35.894  31.122  28.661  1.00  0.00     0.039 A 
ATOM      9  C   UNL A   1      36.076  29.748  28.525  1.00  0.00     0.014 A 
ATOM     10  C   UNL A   1      37.019  31.913  28.979  1.00  0.00     0.014 A 
ATOM     11  C   UNL A   1      37.328  29.176  28.786  1.00  0.00     0.010 A 
ATOM     12  C   UNL A   1      38.267  31.350  29.236  1.00  0.00     0.010 A 
ATOM     13  C   UNL A   1      38.418  29.971  29.175  1.00  0.00    -0.014 A 
BRANCH  13  14
ATOM     14  C   UNL A   1      39.742  29.346  29.287  1.00  0.00     0.031 A 
ATOM     15  C   UNL A   1      40.126  29.051  30.696  1.00  0.00     0.074 A 
ATOM     16  C   UNL A   1      40.528  28.927  28.269  1.00  0.00     0.049 A 
ATOM     17  N   UNL A   1      41.022  29.652  31.407  1.00  0.00    -0.248 NA
ATOM     18  C   UNL A   1      39.316  28.084  31.453  1.00  0.00     0.031 C 
ATOM     19  C   UNL A   1      40.206  28.853  26.844  1.00  0.00     0.029 A 
ATOM     20  N   UNL A   1      41.791  28.399  28.317  1.00  0.00    -0.354 N 
ATOM     21  C   UNL A   1      41.051  28.986  32.629  1.00  0.00     0.074 A 
ATOM     22  C   UNL A   1      39.870  28.164  32.665  1.00  0.00     0.031 C 
ATOM     23  C   UNL A   1      41.153  28.123  26.204  1.00  0.00     0.029 A 
ATOM     24  C   UNL A   1      42.221  27.794  27.136  1.00  0.00     0.049 A 
ATOM     25  H   UNL A   1      42.353  28.444  29.124  1.00  0.00     0.167 HD
ATOM     26  C   UNL A   1      42.168  28.994  33.412  1.00  0.00     0.037 A 
ATOM     27  C   UNL A   1      43.351  27.056  26.946  1.00  0.00     0.037 A 
ATOM     28  C   UNL A   1      43.077  30.037  33.003  1.00  0.00     0.049 A 
ATOM     29  C   UNL A   1      44.302  27.419  28.026  1.00  0.00     0.074 A 
ATOM     30  C   UNL A   1      42.994  31.411  32.877  1.00  0.00     0.029 A 
ATOM     31  N   UNL A   1      44.188  29.665  32.286  1.00  0.00    -0.354 N 
ATOM     32  N   UNL A   1      44.880  28.583  28.128  1.00  0.00    -0.248 NA
ATOM     33  C   UNL A   1      44.271  26.629  29.246  1.00  0.00     0.031 C 
ATOM     34  C   UNL A   1      43.741  31.718  31.702  1.00  0.00     0.029 A 
ATOM     35  C   UNL A   1      44.298  30.530  31.229  1.00  0.00     0.049 A 
ATOM     36  H   UNL A   1      44.792  28.916  32.493  1.00  0.00     0.167 HD
ATOM     37  C   UNL A   1      44.862  28.862  29.485  1.00  0.00     0.074 A 
ATOM     38  C   UNL A   1      44.556  27.587  30.131  1.00  0.00     0.031 C 
ATOM     39  C   UNL A   1      44.822  30.149  29.938  1.00  0.00     0.037 A 
BRANCH  26  40
ATOM     40  C   UNL A   1      42.620  27.842  34.282  1.00  0.00     0.058 A 
ATOM     41  C   UNL A   1      42.712  28.031  35.678  1.00  0.00     0.135 A 
ATOM     42  C   UNL A   1      43.244  26.677  33.787  1.00  0.00     0.135 A 
ATOM     43  F   UNL A   1      42.157  29.106  36.262  1.00  0.00    -0.206 F 
ATOM     44  C   UNL A   1      43.441  27.176  36.504  1.00  0.00     0.059 A 
ATOM     45  C   UNL A   1      43.931  25.781  34.601  1.00  0.00     0.059 A 
ATOM     46  F   UNL A   1      43.304  26.393  32.481  1.00  0.00    -0.206 F 
ATOM     47  C   UNL A   1      44.060  26.060  35.952  1.00  0.00     0.060 A 
BRANCH  47  48
ATOM     48  S   UNL A   1      45.077  25.007  37.001  1.00  0.00     0.124 S 
ATOM     49  O   UNL A   1      46.368  25.664  36.911  1.00  0.00    -0.237 OA
ATOM     50  O   UNL A   1      44.387  25.109  38.283  1.00  0.00    -0.237 OA
ATOM     51  O   UNL A   1      44.980  23.699  36.350  1.00  0.00    -0.744 OA
ENDBRANCH  47  48
ENDBRANCH  26  40
BRANCH  27  52
ATOM     52  C   UNL A   1      43.575  25.845  26.102  1.00  0.00     0.058 A 
ATOM     53  C   UNL A   1      44.797  25.631  25.427  1.00  0.00     0.135 A 
ATOM     54  C   UNL A   1      42.727  24.727  26.201  1.00  0.00     0.135 A 
ATOM     55  F   UNL A   1      45.681  26.632  25.295  1.00  0.00    -0.206 F 
ATOM     56  C   UNL A   1      45.178  24.372  24.941  1.00  0.00     0.059 A 
ATOM     57  C   UNL A   1      43.083  23.465  25.718  1.00  0.00     0.059 A 
ATOM     58  F   UNL A   1      41.562  24.804  26.862  1.00  0.00    -0.206 F 
ATOM     59  C   UNL A   1      44.322  23.286  25.115  1.00  0.00     0.060 A 
BRANCH  59  60
ATOM     60  S   UNL A   1      44.884  21.623  24.669  1.00  0.00     0.124 S 
ATOM     61  O   UNL A   1      44.137  20.788  25.604  1.00  0.00    -0.237 OA
ATOM     62  O   UNL A   1      44.487  21.524  23.269  1.00  0.00    -0.237 OA
ATOM     63  O   UNL A   1      46.326  21.681  24.900  1.00  0.00    -0.744 OA
ENDBRANCH  59  60
ENDBRANCH  27  52
BRANCH  39  64
ATOM     64  C   UNL A   1      45.161  31.262  28.982  1.00  0.00     0.058 A 
ATOM     65  C   UNL A   1      46.459  31.724  28.697  1.00  0.00     0.135 A 
ATOM     66  C   UNL A   1      44.108  31.806  28.229  1.00  0.00     0.135 A 
ATOM     67  F   UNL A   1      47.535  31.182  29.287  1.00  0.00    -0.206 F 
ATOM     68  C   UNL A   1      46.687  32.723  27.747  1.00  0.00     0.059 A 
ATOM     69  C   UNL A   1      44.317  32.773  27.253  1.00  0.00     0.059 A 
ATOM     70  F   UNL A   1      42.852  31.366  28.412  1.00  0.00    -0.206 F 
ATOM     71  C   UNL A   1      45.608  33.243  27.031  1.00  0.00     0.060 A 
BRANCH  71  72
ATOM     72  S   UNL A   1      45.905  34.503  25.772  1.00  0.00     0.124 S 
ATOM     73  O   UNL A   1      47.331  34.346  25.512  1.00  0.00    -0.237 OA
ATOM     74  O   UNL A   1      45.013  34.089  24.693  1.00  0.00    -0.237 OA
ATOM     75  O   UNL A   1      45.526  35.747  26.438  1.00  0.00    -0.744 OA
ENDBRANCH  71  72
ENDBRANCH  39  64
ENDBRANCH  13  14
ENDBRANCH   6   8
ENDBRANCH   3   4
ENDBRANCH   2   3
ENDBRANCH   1   2
BRANCH   1  76
ATOM     76  N   UNL A   1      31.344  27.133  27.158  1.00  0.00    -0.352 N 
ATOM     77  C   UNL A   1      31.007  26.245  26.158  1.00  0.00     0.251 C 
ATOM     78  H   UNL A   1      30.757  27.117  27.949  1.00  0.00     0.163 HD
ATOM     79  O   UNL A   1      30.067  25.471  26.324  1.00  0.00    -0.269 OA
BRANCH  77  80
ATOM     80  C   UNL A   1      31.701  26.269  24.844  1.00  0.00     0.048 A 
ATOM     81  C   UNL A   1      31.120  27.111  23.874  1.00  0.00     0.014 A 
ATOM     82  C   UNL A   1      32.865  25.536  24.547  1.00  0.00     0.019 A 
ATOM     83  C   UNL A   1      31.742  27.320  22.645  1.00  0.00     0.001 A 
ATOM     84  C   UNL A   1      33.512  25.840  23.335  1.00  0.00     0.010 A 
ATOM     85  C   UNL A   1      32.961  26.712  22.392  1.00  0.00     0.001 A 
BRANCH  82  86
ATOM     86  C   UNL A   1      33.448  24.495  25.491  1.00  0.00     0.300 C 
BRANCH  86  87
ATOM     87  N   UNL A   1      34.597  23.682  25.048  1.00  0.00    -0.329 N 
ATOM     88  C   UNL A   1      35.810  24.068  25.790  1.00  0.00     0.262 C 
ATOM     89  C   UNL A   1      34.400  22.215  25.018  1.00  0.00     0.186 C 
ATOM     90  H   UNL A   1      34.707  23.908  24.060  1.00  0.00     0.348 HD
ATOM     91  C   UNL A   1      37.062  23.436  25.191  1.00  0.00     0.062 C 
ATOM     92  C   UNL A   1      35.642  21.551  24.382  1.00  0.00     0.065 C 
ATOM     93  C   UNL A   1      36.923  21.925  25.116  1.00  0.00     0.012 C 
BRANCH  89  94
ATOM     94  C   UNL A   1      33.127  21.767  24.244  1.00  0.00     0.088 C 
BRANCH  94  95
ATOM     95  C   UNL A   1      32.269  20.681  24.920  1.00  0.00     0.150 C 
BRANCH  95  96
ATOM     96  N   UNL A   1      32.547  19.310  24.522  1.00  0.00    -0.273 N 
ATOM     97  C   UNL A   1      32.852  18.262  25.344  1.00  0.00     0.108 A 
ATOM     98  N   UNL A   1      32.456  18.938  23.230  1.00  0.00    -0.182 NA
ATOM     99  C   UNL A   1      33.087  17.182  24.523  1.00  0.00     0.042 A 
ATOM    100  C   UNL A   1      32.856  17.666  23.227  1.00  0.00     0.135 A 
ENDBRANCH  95  96
ENDBRANCH  94  95
ENDBRANCH  89  94
ENDBRANCH  86  87
ENDBRANCH  82  86
ENDBRANCH  77  80
ENDBRANCH   1  76
TORSDOF 18
ENDMDL
MODEL 3
REMARK VINA RESULT:     -12.6      2.953      9.836
REMARK SMILES O=C(NCCCNC(=O)c1ccccc1C[N@H+]1CCCC[C@@H]1CCn1cccn1)c1ccc(-c2c3nc(c(-c4c(F)cc(S(=O)(=O)[O-])cc4F)c4ccc([nH]4)c(-c4c(F)cc(S(=O)(=O)[O-])cc4F)c4nc(c(-c5c(F)cc(S(=O)(=O)[O-])cc5F)c5ccc2[nH]5)C=C4)C=C3)cc1
REMARK SMILES IDX 6 1 5 2 4 3 3 4 1 5 2 6 30 8 31 9 95 10 32 11 94 12 33 13
REMARK SMILES IDX 34 14 35 15 88 16 36 17 93 18 87 19 89 20 37 21 92 22 86 23
REMARK SMILES IDX 85 24 38 26 72 27 51 28 71 29 52 30 55 31 70 32 90 33 53 34
REMARK SMILES IDX 54 35 69 37 91 38 56 39 39 40 40 41 49 42 41 43 42 44 48 45
REMARK SMILES IDX 50 46 43 47 44 48 45 49 46 50 47 51 73 52 74 53 83 54 75 55
REMARK SMILES IDX 76 56 82 57 84 58 77 59 78 60 79 61 80 62 81 63 57 64 58 65
REMARK SMILES IDX 67 66 59 67 60 68 66 69 68 70 61 71 62 72 63 73 64 74 65 75
REMARK SMILES IDX 7 76 8 77 9 79 10 80 11 81 15 82 12 83 14 84 13 85 16 86
REMARK SMILES IDX 17 87 18 88 22 89 19 91 21 92 20 93 23 94 24 95 25 96 26 97
REMARK SMILES IDX 29 98 27 99 28 100
REMARK H PARENT 3 7 89 25 55 36 7 78 17 90
REMARK Flexibility Score: inf
ROOT
ATOM      1  C   UNL A   1      32.227  28.152  27.621  1.00  0.00     0.118 C 
ENDROOT
BRANCH   1   2
ATOM      2  C   UNL A   1      32.034  29.561  27.078  1.00  0.00     0.042 C 
BRANCH   2   3
ATOM      3  C   UNL A   1      33.312  30.336  26.770  1.00  0.00     0.118 C 
BRANCH   3   4
ATOM      4  N   UNL A   1      33.643  31.398  27.699  1.00  0.00    -0.352 N 
ATOM      5  O   UNL A   1      34.709  33.051  28.684  1.00  0.00    -0.269 OA
ATOM      6  C   UNL A   1      34.806  31.918  28.199  1.00  0.00     0.251 C 
ATOM      7  H   UNL A   1      32.845  31.851  28.054  1.00  0.00     0.163 HD
BRANCH   6   8
ATOM      8  C   UNL A   1      36.122  31.221  28.282  1.00  0.00     0.039 A 
ATOM      9  C   UNL A   1      36.372  29.895  27.936  1.00  0.00     0.014 A 
ATOM     10  C   UNL A   1      37.178  31.971  28.845  1.00  0.00     0.014 A 
ATOM     11  C   UNL A   1      37.613  29.316  28.225  1.00  0.00     0.010 A 
ATOM     12  C   UNL A   1      38.416  31.400  29.132  1.00  0.00     0.010 A 
ATOM     13  C   UNL A   1      38.627  30.056  28.855  1.00  0.00    -0.014 A 
BRANCH  13  14
ATOM     14  C   UNL A   1      39.957  29.450  28.997  1.00  0.00     0.031 A 
ATOM     15  C   UNL A   1      40.311  29.156  30.414  1.00  0.00     0.074 A 
ATOM     16  C   UNL A   1      40.774  29.047  27.998  1.00  0.00     0.049 A 
ATOM     17  N   UNL A   1      41.180  29.769  31.149  1.00  0.00    -0.248 NA
ATOM     18  C   UNL A   1      39.498  28.175  31.148  1.00  0.00     0.031 C 
ATOM     19  C   UNL A   1      40.488  28.973  26.565  1.00  0.00     0.029 A 
ATOM     20  N   UNL A   1      42.043  28.538  28.075  1.00  0.00    -0.354 N 
ATOM     21  C   UNL A   1      41.190  29.099  32.369  1.00  0.00     0.074 A 
ATOM     22  C   UNL A   1      40.021  28.259  32.373  1.00  0.00     0.031 C 
ATOM     23  C   UNL A   1      41.461  28.260  25.945  1.00  0.00     0.029 A 
ATOM     24  C   UNL A   1      42.511  27.944  26.903  1.00  0.00     0.049 A 
ATOM     25  H   UNL A   1      42.585  28.588  28.895  1.00  0.00     0.167 HD
ATOM     26  C   UNL A   1      42.287  29.121  33.179  1.00  0.00     0.037 A 
ATOM     27  C   UNL A   1      43.657  27.224  26.738  1.00  0.00     0.037 A 
ATOM     28  C   UNL A   1      43.190  30.179  32.796  1.00  0.00     0.049 A 
ATOM     29  C   UNL A   1      44.576  27.598  27.842  1.00  0.00     0.074 A 
ATOM     30  C   UNL A   1      43.089  31.552  32.672  1.00  0.00     0.029 A 
ATOM     31  N   UNL A   1      44.323  29.827  32.105  1.00  0.00    -0.354 N 
ATOM     32  N   UNL A   1      45.132  28.770  27.961  1.00  0.00    -0.248 NA
ATOM     33  C   UNL A   1      44.526  26.802  29.058  1.00  0.00     0.031 C 
ATOM     34  C   UNL A   1      43.859  31.874  31.517  1.00  0.00     0.029 A 
ATOM     35  C   UNL A   1      44.446  30.696  31.054  1.00  0.00     0.049 A 
ATOM     36  H   UNL A   1      44.933  29.086  32.324  1.00  0.00     0.167 HD
ATOM     37  C   UNL A   1      45.077  29.044  29.319  1.00  0.00     0.074 A 
ATOM     38  C   UNL A   1      44.775  27.761  29.953  1.00  0.00     0.031 C 
ATOM     39  C   UNL A   1      45.007  30.328  29.775  1.00  0.00     0.037 A 
BRANCH  26  40
ATOM     40  C   UNL A   1      42.735  27.973  34.056  1.00  0.00     0.058 A 
ATOM     41  C   UNL A   1      42.862  28.181  35.447  1.00  0.00     0.135 A 
ATOM     42  C   UNL A   1      43.325  26.788  33.566  1.00  0.00     0.135 A 
ATOM     43  F   UNL A   1      42.342  29.275  36.026  1.00  0.00    -0.206 F 
ATOM     44  C   UNL A   1      43.592  27.323  36.270  1.00  0.00     0.059 A 
ATOM     45  C   UNL A   1      44.012  25.891  34.378  1.00  0.00     0.059 A 
ATOM     46  F   UNL A   1      43.350  26.484  32.263  1.00  0.00    -0.206 F 
ATOM     47  C   UNL A   1      44.176  26.187  35.721  1.00  0.00     0.060 A 
BRANCH  47  48
ATOM     48  S   UNL A   1      45.195  25.129  36.763  1.00  0.00     0.124 S 
ATOM     49  O   UNL A   1      46.396  25.931  36.909  1.00  0.00    -0.237 OA
ATOM     50  O   UNL A   1      44.361  24.991  37.953  1.00  0.00    -0.237 OA
ATOM     51  O   UNL A   1      45.335  23.911  35.962  1.00  0.00    -0.744 OA
ENDBRANCH  47  48
ENDBRANCH  26  40
BRANCH  27  52
ATOM     52  C   UNL A   1      43.920  26.019  25.895  1.00  0.00     0.058 A 
ATOM     53  C   UNL A   1      45.225  25.682  25.476  1.00  0.00     0.135 A 
ATOM     54  C   UNL A   1      42.953  25.006  25.761  1.00  0.00     0.135 A 
ATOM     55  F   UNL A   1      46.220  26.576  25.580  1.00  0.00    -0.206 F 
ATOM     56  C   UNL A   1      45.560  24.402  25.013  1.00  0.00     0.059 A 
ATOM     57  C   UNL A   1      43.262  23.725  25.296  1.00  0.00     0.059 A 
ATOM     58  F   UNL A   1      41.691  25.201  26.171  1.00  0.00    -0.206 F 
ATOM     59  C   UNL A   1      44.574  23.419  24.951  1.00  0.00     0.060 A 
BRANCH  59  60
ATOM     60  S   UNL A   1      45.033  21.715  24.544  1.00  0.00     0.124 S 
ATOM     61  O   UNL A   1      46.487  21.758  24.649  1.00  0.00    -0.237 OA
ATOM     62  O   UNL A   1      44.341  20.950  25.576  1.00  0.00    -0.237 OA
ATOM     63  O   UNL A   1      44.511  21.539  23.190  1.00  0.00    -0.744 OA
ENDBRANCH  59  60
ENDBRANCH  27  52
BRANCH  39  64
ATOM     64  C   UNL A   1      45.352  31.449  28.830  1.00  0.00     0.058 A 
ATOM     65  C   UNL A   1      46.646  31.948  28.597  1.00  0.00     0.135 A 
ATOM     66  C   UNL A   1      44.315  31.962  28.035  1.00  0.00     0.135 A 
ATOM     67  F   UNL A   1      47.713  31.439  29.232  1.00  0.00    -0.206 F 
ATOM     68  C   UNL A   1      46.884  32.953  27.655  1.00  0.00     0.059 A 
ATOM     69  C   UNL A   1      44.536  32.934  27.065  1.00  0.00     0.059 A 
ATOM     70  F   UNL A   1      43.066  31.486  28.167  1.00  0.00    -0.206 F 
ATOM     71  C   UNL A   1      45.820  33.440  26.895  1.00  0.00     0.060 A 
BRANCH  71  72
ATOM     72  S   UNL A   1      46.132  34.707  25.646  1.00  0.00     0.124 S 
ATOM     73  O   UNL A   1      45.160  34.366  24.614  1.00  0.00    -0.237 OA
ATOM     74  O   UNL A   1      45.872  35.944  26.378  1.00  0.00    -0.237 OA
ATOM     75  O   UNL A   1      47.530  34.492  25.282  1.00  0.00    -0.744 OA
ENDBRANCH  71  72
ENDBRANCH  39  64
ENDBRANCH  13  14
ENDBRANCH   6   8
ENDBRANCH   3   4
ENDBRANCH   2   3
ENDBRANCH   1   2
BRANCH   1  76
ATOM     76  N   UNL A   1      31.122  27.233  27.387  1.00  0.00    -0.352 N 
ATOM     77  C   UNL A   1      30.887  26.401  26.312  1.00  0.00     0.251 C 
ATOM     78  H   UNL A   1      30.444  27.201  28.099  1.00  0.00     0.163 HD
ATOM     79  O   UNL A   1      29.915  25.649  26.328  1.00  0.00    -0.269 OA
BRANCH  77  80
ATOM     80  C   UNL A   1      31.736  26.462  25.094  1.00  0.00     0.048 A 
ATOM     81  C   UNL A   1      31.224  27.252  24.045  1.00  0.00     0.014 A 
ATOM     82  C   UNL A   1      32.976  25.810  24.956  1.00  0.00     0.019 A 
ATOM     83  C   UNL A   1      31.978  27.493  22.899  1.00  0.00     0.001 A 
ATOM     84  C   UNL A   1      33.746  26.147  23.827  1.00  0.00     0.010 A 
ATOM     85  C   UNL A   1      33.258  26.970  22.809  1.00  0.00     0.001 A 
BRANCH  82  86
ATOM     86  C   UNL A   1      33.506  24.821  25.983  1.00  0.00     0.300 C 
BRANCH  86  87
ATOM     87  N   UNL A   1      33.415  23.374  25.706  1.00  0.00    -0.329 N 
ATOM     88  C   UNL A   1      32.178  23.074  24.965  1.00  0.00     0.262 C 
ATOM     89  C   UNL A   1      34.604  22.739  25.093  1.00  0.00     0.186 C 
ATOM     90  H   UNL A   1      33.385  22.936  26.626  1.00  0.00     0.348 HD
ATOM     91  C   UNL A   1      31.921  21.573  24.881  1.00  0.00     0.062 C 
ATOM     92  C   UNL A   1      34.385  21.211  25.028  1.00  0.00     0.065 C 
ATOM     93  C   UNL A   1      33.112  20.854  24.271  1.00  0.00     0.012 C 
BRANCH  89  94
ATOM     94  C   UNL A   1      35.933  23.035  25.847  1.00  0.00     0.088 C 
BRANCH  94  95
ATOM     95  C   UNL A   1      37.228  22.601  25.134  1.00  0.00     0.150 C 
BRANCH  95  96
ATOM     96  N   UNL A   1      38.426  22.559  25.957  1.00  0.00    -0.273 N 
ATOM     97  C   UNL A   1      38.846  23.509  26.845  1.00  0.00     0.108 A 
ATOM     98  N   UNL A   1      39.228  21.476  25.947  1.00  0.00    -0.182 NA
ATOM     99  C   UNL A   1      40.050  23.065  27.345  1.00  0.00     0.042 A 
ATOM    100  C   UNL A   1      40.249  21.819  26.733  1.00  0.00     0.135 A 
ENDBRANCH  95  96
ENDBRANCH  94  95
ENDBRANCH  89  94
ENDBRANCH  86  87
ENDBRANCH  82  86
ENDBRANCH  77  80
ENDBRANCH   1  76
TORSDOF 18
ENDMDL
