MODEL 1
REMARK VINA RESULT:      -8.2      0.000      0.000
REMARK SMILES CCCn1c(N2CCC[C@@H](C)C2)c(/C=C2/SC(=S)N(CC(=O)NCCCNC(=O)c3ccc(-c4c5nc(c(-c6c(F)cc(S(=O)(=O)[O-])cc6F)c6ccc([nH]6)c(-c6c(F)cc(S(=O)(=O)[O-])cc6F)c6nc(c(-c7c(F)cc(S(=O)(=O)[O-])cc7F)c7ccc4[nH]7)C=C6)C=C5)cc3)C2=O)c(C)c(C#N)c1=O
REMARK SMILES IDX 24 1 23 2 21 3 22 4 20 6 19 7 14 8 15 9 16 10 96 11 17 12
REMARK SMILES IDX 97 13 18 14 13 15 4 16 5 17 103 18 100 19 104 20 98 21 99 22
REMARK SMILES IDX 3 23 2 24 1 25 6 26 7 27 12 28 8 29 10 30 9 31 11 32 101 33
REMARK SMILES IDX 102 34 25 35 26 36 27 37 28 38 29 40 30 41 31 42 95 43 32 44
REMARK SMILES IDX 94 45 33 46 34 47 35 48 88 49 36 50 93 51 87 52 89 53 37 54
REMARK SMILES IDX 92 55 86 56 85 57 38 59 72 60 51 61 71 62 52 63 55 64 70 65
REMARK SMILES IDX 90 66 53 67 54 68 69 70 91 71 56 72 39 73 40 74 49 75 41 76
REMARK SMILES IDX 42 77 48 78 50 79 43 80 44 81 45 82 46 83 47 84 73 85 74 86
REMARK SMILES IDX 83 87 75 88 76 89 82 90 84 91 77 92 78 93 79 94 80 95 81 96
REMARK SMILES IDX 57 97 58 98 67 99 59 100 60 101 66 102 68 103 61 104 62 105
REMARK SMILES IDX 63 106 64 107 65 108
REMARK H PARENT 23 5 27 39 89 58 55 69
REMARK Flexibility Score: inf
ROOT
ATOM      1  C   UNL A   1      49.359  27.724  32.974  1.00  0.00     0.117 C 
ENDROOT
BRANCH   1   2
ATOM      2  N   UNL A   1      49.503  26.668  31.992  1.00  0.00    -0.354 N 
ATOM      3  C   UNL A   1      48.688  26.313  30.959  1.00  0.00     0.240 C 
ATOM      4  O   UNL A   1      49.165  25.574  30.094  1.00  0.00    -0.273 OA
ATOM      5  H   UNL A   1      50.317  26.123  32.085  1.00  0.00     0.163 HD
BRANCH   3   6
ATOM      6  C   UNL A   1      47.280  26.903  30.805  1.00  0.00     0.227 C 
BRANCH   6   7
ATOM      7  N   UNL A   1      46.208  25.915  30.934  1.00  0.00    -0.283 N 
ATOM      8  C   UNL A   1      43.849  24.290  33.185  1.00  0.00     0.033 C 
ATOM      9  C   UNL A   1      44.657  24.632  32.168  1.00  0.00     0.081 C 
ATOM     10  S   UNL A   1      44.489  24.028  30.566  1.00  0.00    -0.054 SA
ATOM     11  C   UNL A   1      45.780  25.605  32.211  1.00  0.00     0.266 C 
ATOM     12  C   UNL A   1      45.729  25.104  29.928  1.00  0.00     0.148 C 
ATOM     13  O   UNL A   1      46.276  26.044  33.244  1.00  0.00    -0.268 OA
ATOM     14  S   UNL A   1      46.209  25.039  28.332  1.00  0.00    -0.052 S 
BRANCH   8  15
ATOM     15  C   UNL A   1      43.880  24.871  34.536  1.00  0.00     0.021 A 
ATOM     16  N   UNL A   1      44.593  24.864  36.827  1.00  0.00    -0.293 N 
ATOM     17  C   UNL A   1      44.627  24.287  35.535  1.00  0.00     0.119 A 
ATOM     18  C   UNL A   1      43.759  25.929  37.156  1.00  0.00     0.270 A 
ATOM     19  C   UNL A   1      43.133  26.642  36.038  1.00  0.00     0.121 A 
ATOM     20  O   UNL A   1      43.506  26.282  38.306  1.00  0.00    -0.268 OA
ATOM     21  C   UNL A   1      43.091  26.085  34.818  1.00  0.00    -0.017 A 
ATOM     22  C   UNL A   1      42.201  26.647  33.727  1.00  0.00     0.047 C 
BRANCH  16  23
ATOM     23  C   UNL A   1      45.393  24.336  37.937  1.00  0.00     0.127 C 
BRANCH  23  24
ATOM     24  C   UNL A   1      46.651  25.157  38.280  1.00  0.00     0.019 C 
ATOM     25  C   UNL A   1      47.977  24.437  38.072  1.00  0.00     0.006 C 
ENDBRANCH  23  24
ENDBRANCH  16  23
BRANCH  17  26
ATOM     26  N   UNL A   1      45.373  23.105  35.313  1.00  0.00    -0.357 N 
ATOM     27  C   UNL A   1      44.680  21.819  35.095  1.00  0.00     0.118 C 
ATOM     28  C   UNL A   1      46.751  23.121  34.800  1.00  0.00     0.121 C 
ATOM     29  C   UNL A   1      45.467  20.675  35.738  1.00  0.00     0.022 C 
ATOM     30  C   UNL A   1      47.587  22.014  35.448  1.00  0.00     0.005 C 
ATOM     31  C   UNL A   1      46.916  20.646  35.261  1.00  0.00     0.007 C 
ATOM     32  C   UNL A   1      48.995  22.004  34.853  1.00  0.00     0.009 C 
ENDBRANCH  17  26
BRANCH  19  33
ATOM     33  C   UNL A   1      42.359  27.915  36.336  1.00  0.00     0.105 C 
ATOM     34  N   UNL A   1      41.715  28.971  36.582  1.00  0.00    -0.192 NA
ENDBRANCH  19  33
ENDBRANCH   8  15
ENDBRANCH   6   7
ENDBRANCH   3   6
ENDBRANCH   1   2
BRANCH   1  35
ATOM     35  C   UNL A   1      50.272  27.531  34.178  1.00  0.00     0.042 C 
BRANCH  35  36
ATOM     36  C   UNL A   1      49.575  26.895  35.382  1.00  0.00     0.118 C 
BRANCH  36  37
ATOM     37  N   UNL A   1      49.794  27.653  36.605  1.00  0.00    -0.352 N 
ATOM     38  C   UNL A   1      49.153  28.778  37.062  1.00  0.00     0.251 C 
ATOM     39  H   UNL A   1      50.506  27.309  37.191  1.00  0.00     0.163 HD
ATOM     40  O   UNL A   1      49.622  29.406  38.007  1.00  0.00    -0.269 OA
BRANCH  38  41
ATOM     41  C   UNL A   1      47.908  29.238  36.411  1.00  0.00     0.039 A 
ATOM     42  C   UNL A   1      46.702  28.612  36.734  1.00  0.00     0.014 A 
ATOM     43  C   UNL A   1      47.939  30.261  35.458  1.00  0.00     0.014 A 
ATOM     44  C   UNL A   1      45.515  29.049  36.141  1.00  0.00     0.010 A 
ATOM     45  C   UNL A   1      46.749  30.727  34.903  1.00  0.00     0.010 A 
ATOM     46  C   UNL A   1      45.528  30.123  35.236  1.00  0.00    -0.014 A 
BRANCH  46  47
ATOM     47  C   UNL A   1      44.276  30.604  34.603  1.00  0.00     0.031 A 
ATOM     48  C   UNL A   1      43.881  30.089  33.248  1.00  0.00     0.074 A 
ATOM     49  C   UNL A   1      43.517  31.523  35.230  1.00  0.00     0.049 A 
ATOM     50  N   UNL A   1      42.855  30.420  32.507  1.00  0.00    -0.248 NA
ATOM     51  C   UNL A   1      44.763  29.078  32.639  1.00  0.00     0.031 C 
ATOM     52  C   UNL A   1      43.806  32.104  36.543  1.00  0.00     0.029 A 
ATOM     53  N   UNL A   1      42.350  32.133  34.847  1.00  0.00    -0.354 N 
ATOM     54  C   UNL A   1      42.960  29.653  31.354  1.00  0.00     0.074 A 
ATOM     55  C   UNL A   1      44.179  28.881  31.465  1.00  0.00     0.031 C 
ATOM     56  C   UNL A   1      42.831  32.972  36.862  1.00  0.00     0.029 A 
ATOM     57  C   UNL A   1      41.866  33.032  35.767  1.00  0.00     0.049 A 
ATOM     58  H   UNL A   1      41.901  31.944  33.991  1.00  0.00     0.167 HD
ATOM     59  C   UNL A   1      42.103  29.577  30.307  1.00  0.00     0.037 A 
ATOM     60  C   UNL A   1      40.771  33.816  35.729  1.00  0.00     0.037 A 
ATOM     61  C   UNL A   1      40.889  30.342  30.201  1.00  0.00     0.049 A 
ATOM     62  C   UNL A   1      39.864  33.755  34.529  1.00  0.00     0.074 A 
ATOM     63  C   UNL A   1      39.946  30.324  29.188  1.00  0.00     0.029 A 
ATOM     64  N   UNL A   1      40.446  31.260  31.143  1.00  0.00    -0.354 N 
ATOM     65  N   UNL A   1      39.965  33.005  33.458  1.00  0.00    -0.248 NA
ATOM     66  C   UNL A   1      38.697  34.650  34.531  1.00  0.00     0.031 C 
ATOM     67  C   UNL A   1      38.951  31.256  29.501  1.00  0.00     0.029 A 
ATOM     68  C   UNL A   1      39.253  31.825  30.728  1.00  0.00     0.049 A 
ATOM     69  H   UNL A   1      40.913  31.477  31.982  1.00  0.00     0.167 HD
ATOM     70  C   UNL A   1      38.861  33.315  32.672  1.00  0.00     0.074 A 
ATOM     71  C   UNL A   1      38.102  34.317  33.393  1.00  0.00     0.031 C 
ATOM     72  C   UNL A   1      38.507  32.816  31.462  1.00  0.00     0.037 A 
BRANCH  59  73
ATOM     73  C   UNL A   1      42.437  28.616  29.204  1.00  0.00     0.058 A 
ATOM     74  C   UNL A   1      41.848  27.343  29.146  1.00  0.00     0.135 A 
ATOM     75  C   UNL A   1      43.311  28.982  28.168  1.00  0.00     0.135 A 
ATOM     76  F   UNL A   1      41.019  26.937  30.121  1.00  0.00    -0.206 F 
ATOM     77  C   UNL A   1      42.124  26.460  28.108  1.00  0.00     0.059 A 
ATOM     78  C   UNL A   1      43.585  28.123  27.106  1.00  0.00     0.059 A 
ATOM     79  F   UNL A   1      43.904  30.186  28.177  1.00  0.00    -0.206 F 
ATOM     80  C   UNL A   1      42.993  26.860  27.090  1.00  0.00     0.060 A 
BRANCH  80  81
ATOM     81  S   UNL A   1      43.319  25.708  25.740  1.00  0.00     0.124 S 
ATOM     82  O   UNL A   1      44.637  26.149  25.293  1.00  0.00    -0.237 OA
ATOM     83  O   UNL A   1      43.279  24.416  26.418  1.00  0.00    -0.237 OA
ATOM     84  O   UNL A   1      42.225  25.957  24.807  1.00  0.00    -0.744 OA
ENDBRANCH  80  81
ENDBRANCH  59  73
BRANCH  60  85
ATOM     85  C   UNL A   1      40.453  34.707  36.875  1.00  0.00     0.058 A 
ATOM     86  C   UNL A   1      41.006  35.994  36.957  1.00  0.00     0.135 A 
ATOM     87  C   UNL A   1      39.594  34.298  37.906  1.00  0.00     0.135 A 
ATOM     88  F   UNL A   1      41.840  36.427  36.000  1.00  0.00    -0.206 F 
ATOM     89  C   UNL A   1      40.727  36.841  38.025  1.00  0.00     0.059 A 
ATOM     90  C   UNL A   1      39.283  35.134  38.973  1.00  0.00     0.059 A 
ATOM     91  F   UNL A   1      39.027  33.082  37.866  1.00  0.00    -0.206 F 
ATOM     92  C   UNL A   1      39.861  36.402  39.029  1.00  0.00     0.060 A 
BRANCH  92  93
ATOM     93  S   UNL A   1      39.467  37.526  40.385  1.00  0.00     0.124 S 
ATOM     94  O   UNL A   1      38.653  38.529  39.710  1.00  0.00    -0.237 OA
ATOM     95  O   UNL A   1      38.763  36.649  41.315  1.00  0.00    -0.237 OA
ATOM     96  O   UNL A   1      40.782  37.977  40.837  1.00  0.00    -0.744 OA
ENDBRANCH  92  93
ENDBRANCH  60  85
BRANCH  72  97
ATOM     97  C   UNL A   1      37.234  33.323  30.846  1.00  0.00     0.058 A 
ATOM     98  C   UNL A   1      37.247  34.147  29.712  1.00  0.00     0.135 A 
ATOM     99  C   UNL A   1      35.988  32.914  31.349  1.00  0.00     0.135 A 
ATOM    100  F   UNL A   1      38.413  34.571  29.198  1.00  0.00    -0.206 F 
ATOM    101  C   UNL A   1      36.067  34.560  29.103  1.00  0.00     0.059 A 
ATOM    102  C   UNL A   1      34.796  33.295  30.741  1.00  0.00     0.059 A 
ATOM    103  F   UNL A   1      35.922  32.117  32.428  1.00  0.00    -0.206 F 
ATOM    104  C   UNL A   1      34.847  34.124  29.621  1.00  0.00     0.060 A 
BRANCH 104 105
ATOM    105  S   UNL A   1      33.325  34.626  28.788  1.00  0.00     0.124 S 
ATOM    106  O   UNL A   1      33.711  35.914  28.223  1.00  0.00    -0.237 OA
ATOM    107  O   UNL A   1      33.126  33.546  27.827  1.00  0.00    -0.237 OA
ATOM    108  O   UNL A   1      32.347  34.683  29.871  1.00  0.00    -0.744 OA
ENDBRANCH 104 105
ENDBRANCH  72  97
ENDBRANCH  46  47
ENDBRANCH  38  41
ENDBRANCH  36  37
ENDBRANCH  35  36
ENDBRANCH   1  35
TORSDOF 19
ENDMDL
MODEL 2
REMARK VINA RESULT:      -7.9      6.666     14.560
REMARK SMILES CCCn1c(N2CCC[C@@H](C)C2)c(/C=C2/SC(=S)N(CC(=O)NCCCNC(=O)c3ccc(-c4c5nc(c(-c6c(F)cc(S(=O)(=O)[O-])cc6F)c6ccc([nH]6)c(-c6c(F)cc(S(=O)(=O)[O-])cc6F)c6nc(c(-c7c(F)cc(S(=O)(=O)[O-])cc7F)c7ccc4[nH]7)C=C6)C=C5)cc3)C2=O)c(C)c(C#N)c1=O
REMARK SMILES IDX 24 1 23 2 21 3 22 4 20 6 19 7 14 8 15 9 16 10 96 11 17 12
REMARK SMILES IDX 97 13 18 14 13 15 4 16 5 17 103 18 100 19 104 20 98 21 99 22
REMARK SMILES IDX 3 23 2 24 1 25 6 26 7 27 12 28 8 29 10 30 9 31 11 32 101 33
REMARK SMILES IDX 102 34 25 35 26 36 27 37 28 38 29 40 30 41 31 42 95 43 32 44
REMARK SMILES IDX 94 45 33 46 34 47 35 48 88 49 36 50 93 51 87 52 89 53 37 54
REMARK SMILES IDX 92 55 86 56 85 57 38 59 72 60 51 61 71 62 52 63 55 64 70 65
REMARK SMILES IDX 90 66 53 67 54 68 69 70 91 71 56 72 39 73 40 74 49 75 41 76
REMARK SMILES IDX 42 77 48 78 50 79 43 80 44 81 45 82 46 83 47 84 73 85 74 86
REMARK SMILES IDX 83 87 75 88 76 89 82 90 84 91 77 92 78 93 79 94 80 95 81 96
REMARK SMILES IDX 57 97 58 98 67 99 59 100 60 101 66 102 68 103 61 104 62 105
REMARK SMILES IDX 63 106 64 107 65 108
REMARK H PARENT 23 5 27 39 89 58 55 69
REMARK Flexibility Score: inf
ROOT
ATOM      1  C   UNL A   1      40.746  33.849  30.304  1.00  0.00     0.117 C 
ENDROOT
BRANCH   1   2
ATOM      2  N   UNL A   1      41.791  33.605  31.278  1.00  0.00    -0.354 N 
ATOM      3  C   UNL A   1      41.786  33.771  32.631  1.00  0.00     0.240 C 
ATOM      4  O   UNL A   1      42.689  33.223  33.268  1.00  0.00    -0.273 OA
ATOM      5  H   UNL A   1      42.636  33.265  30.904  1.00  0.00     0.163 HD
BRANCH   3   6
ATOM      6  C   UNL A   1      40.641  34.497  33.348  1.00  0.00     0.227 C 
BRANCH   6   7
ATOM      7  N   UNL A   1      39.565  33.609  33.792  1.00  0.00    -0.283 N 
ATOM      8  C   UNL A   1      36.212  32.354  33.120  1.00  0.00     0.033 C 
ATOM      9  C   UNL A   1      37.387  32.705  33.666  1.00  0.00     0.081 C 
ATOM     10  S   UNL A   1      38.034  31.990  35.090  1.00  0.00    -0.054 SA
ATOM     11  C   UNL A   1      38.352  33.705  33.135  1.00  0.00     0.266 C 
ATOM     12  C   UNL A   1      39.569  32.839  34.934  1.00  0.00     0.148 C 
ATOM     13  O   UNL A   1      38.090  34.521  32.259  1.00  0.00    -0.268 OA
ATOM     14  S   UNL A   1      40.771  32.696  36.082  1.00  0.00    -0.052 S 
BRANCH   8  15
ATOM     15  C   UNL A   1      35.678  32.850  31.842  1.00  0.00     0.021 A 
ATOM     16  N   UNL A   1      35.511  32.783  29.449  1.00  0.00    -0.293 N 
ATOM     17  C   UNL A   1      36.023  32.244  30.655  1.00  0.00     0.119 A 
ATOM     18  C   UNL A   1      34.765  33.957  29.405  1.00  0.00     0.270 A 
ATOM     19  C   UNL A   1      34.258  34.461  30.685  1.00  0.00     0.121 A 
ATOM     20  O   UNL A   1      34.532  34.592  28.378  1.00  0.00    -0.268 OA
ATOM     21  C   UNL A   1      34.775  34.017  31.841  1.00  0.00    -0.017 A 
ATOM     22  C   UNL A   1      34.495  34.724  33.152  1.00  0.00     0.047 C 
BRANCH  16  23
ATOM     23  C   UNL A   1      35.787  32.173  28.144  1.00  0.00     0.127 C 
BRANCH  23  24
ATOM     24  C   UNL A   1      34.787  31.086  27.710  1.00  0.00     0.019 C 
ATOM     25  C   UNL A   1      35.406  29.758  27.291  1.00  0.00     0.006 C 
ENDBRANCH  23  24
ENDBRANCH  16  23
BRANCH  17  26
ATOM     26  N   UNL A   1      36.910  31.142  30.610  1.00  0.00    -0.357 N 
ATOM     27  C   UNL A   1      36.399  29.769  30.801  1.00  0.00     0.118 C 
ATOM     28  C   UNL A   1      38.203  31.192  29.912  1.00  0.00     0.121 C 
ATOM     29  C   UNL A   1      37.416  28.926  31.573  1.00  0.00     0.022 C 
ATOM     30  C   UNL A   1      39.264  30.392  30.672  1.00  0.00     0.005 C 
ATOM     31  C   UNL A   1      38.790  28.951  30.910  1.00  0.00     0.007 C 
ATOM     32  C   UNL A   1      40.582  30.400  29.898  1.00  0.00     0.009 C 
ENDBRANCH  17  26
BRANCH  19  33
ATOM     33  C   UNL A   1      33.294  35.636  30.668  1.00  0.00     0.105 C 
ATOM     34  N   UNL A   1      32.495  36.611  30.656  1.00  0.00    -0.192 NA
ENDBRANCH  19  33
ENDBRANCH   8  15
ENDBRANCH   6   7
ENDBRANCH   3   6
ENDBRANCH   1   2
BRANCH   1  35
ATOM     35  C   UNL A   1      40.924  35.175  29.574  1.00  0.00     0.042 C 
BRANCH  35  36
ATOM     36  C   UNL A   1      40.748  35.071  28.059  1.00  0.00     0.118 C 
BRANCH  36  37
ATOM     37  N   UNL A   1      41.209  36.268  27.370  1.00  0.00    -0.352 N 
ATOM     38  C   UNL A   1      42.467  36.588  26.922  1.00  0.00     0.251 C 
ATOM     39  H   UNL A   1      40.517  36.948  27.202  1.00  0.00     0.163 HD
ATOM     40  O   UNL A   1      42.712  37.736  26.563  1.00  0.00    -0.269 OA
BRANCH  38  41
ATOM     41  C   UNL A   1      43.524  35.557  26.883  1.00  0.00     0.039 A 
ATOM     42  C   UNL A   1      43.708  34.817  25.712  1.00  0.00     0.014 A 
ATOM     43  C   UNL A   1      44.308  35.297  28.012  1.00  0.00     0.014 A 
ATOM     44  C   UNL A   1      44.717  33.852  25.654  1.00  0.00     0.010 A 
ATOM     45  C   UNL A   1      45.344  34.368  27.937  1.00  0.00     0.010 A 
ATOM     46  C   UNL A   1      45.554  33.635  26.760  1.00  0.00    -0.014 A 
BRANCH  46  47
ATOM     47  C   UNL A   1      46.634  32.620  26.713  1.00  0.00     0.031 A 
ATOM     48  C   UNL A   1      48.051  33.049  26.453  1.00  0.00     0.074 A 
ATOM     49  C   UNL A   1      46.336  31.316  26.871  1.00  0.00     0.049 A 
ATOM     50  N   UNL A   1      49.125  32.314  26.326  1.00  0.00    -0.248 NA
ATOM     51  C   UNL A   1      48.289  34.495  26.303  1.00  0.00     0.031 C 
ATOM     52  C   UNL A   1      44.997  30.779  27.118  1.00  0.00     0.029 A 
ATOM     53  N   UNL A   1      47.140  30.204  26.844  1.00  0.00    -0.354 N 
ATOM     54  C   UNL A   1      50.166  33.205  26.094  1.00  0.00     0.074 A 
ATOM     55  C   UNL A   1      49.587  34.530  26.040  1.00  0.00     0.031 C 
ATOM     56  C   UNL A   1      45.074  29.443  27.238  1.00  0.00     0.029 A 
ATOM     57  C   UNL A   1      46.462  29.026  27.047  1.00  0.00     0.049 A 
ATOM     58  H   UNL A   1      48.112  30.247  26.693  1.00  0.00     0.167 HD
ATOM     59  C   UNL A   1      51.489  32.944  25.965  1.00  0.00     0.037 A 
ATOM     60  C   UNL A   1      46.909  27.755  27.074  1.00  0.00     0.037 A 
ATOM     61  C   UNL A   1      52.062  31.626  26.023  1.00  0.00     0.049 A 
ATOM     62  C   UNL A   1      48.376  27.487  26.871  1.00  0.00     0.074 A 
ATOM     63  C   UNL A   1      53.392  31.260  25.920  1.00  0.00     0.029 A 
ATOM     64  N   UNL A   1      51.339  30.456  26.207  1.00  0.00    -0.354 N 
ATOM     65  N   UNL A   1      49.350  28.343  26.678  1.00  0.00    -0.248 NA
ATOM     66  C   UNL A   1      48.805  26.080  26.887  1.00  0.00     0.031 C 
ATOM     67  C   UNL A   1      53.471  29.867  26.006  1.00  0.00     0.029 A 
ATOM     68  C   UNL A   1      52.193  29.367  26.203  1.00  0.00     0.049 A 
ATOM     69  H   UNL A   1      50.362  30.408  26.321  1.00  0.00     0.167 HD
ATOM     70  C   UNL A   1      50.510  27.583  26.577  1.00  0.00     0.074 A 
ATOM     71  C   UNL A   1      50.117  26.198  26.737  1.00  0.00     0.031 C 
ATOM     72  C   UNL A   1      51.785  27.994  26.372  1.00  0.00     0.037 A 
BRANCH  59  73
ATOM     73  C   UNL A   1      52.411  34.113  25.770  1.00  0.00     0.058 A 
ATOM     74  C   UNL A   1      52.982  34.779  26.866  1.00  0.00     0.135 A 
ATOM     75  C   UNL A   1      52.770  34.543  24.482  1.00  0.00     0.135 A 
ATOM     76  F   UNL A   1      52.658  34.419  28.118  1.00  0.00    -0.206 F 
ATOM     77  C   UNL A   1      53.865  35.838  26.695  1.00  0.00     0.059 A 
ATOM     78  C   UNL A   1      53.670  35.587  24.286  1.00  0.00     0.059 A 
ATOM     79  F   UNL A   1      52.249  33.943  23.400  1.00  0.00    -0.206 F 
ATOM     80  C   UNL A   1      54.205  36.234  25.399  1.00  0.00     0.060 A 
BRANCH  80  81
ATOM     81  S   UNL A   1      55.372  37.597  25.199  1.00  0.00     0.124 S 
ATOM     82  O   UNL A   1      56.325  37.027  24.251  1.00  0.00    -0.237 OA
ATOM     83  O   UNL A   1      54.520  38.661  24.677  1.00  0.00    -0.237 OA
ATOM     84  O   UNL A   1      55.881  37.811  26.549  1.00  0.00    -0.744 OA
ENDBRANCH  80  81
ENDBRANCH  59  73
BRANCH  60  85
ATOM     85  C   UNL A   1      45.962  26.638  27.330  1.00  0.00     0.058 A 
ATOM     86  C   UNL A   1      45.333  25.974  26.267  1.00  0.00     0.135 A 
ATOM     87  C   UNL A   1      45.671  26.209  28.634  1.00  0.00     0.135 A 
ATOM     88  F   UNL A   1      45.574  26.354  25.003  1.00  0.00    -0.206 F 
ATOM     89  C   UNL A   1      44.439  24.931  26.485  1.00  0.00     0.059 A 
ATOM     90  C   UNL A   1      44.796  25.155  28.877  1.00  0.00     0.059 A 
ATOM     91  F   UNL A   1      46.259  26.801  29.685  1.00  0.00    -0.206 F 
ATOM     92  C   UNL A   1      44.178  24.527  27.796  1.00  0.00     0.060 A 
BRANCH  92  93
ATOM     93  S   UNL A   1      43.053  23.141  28.067  1.00  0.00     0.124 S 
ATOM     94  O   UNL A   1      43.394  22.745  29.427  1.00  0.00    -0.237 OA
ATOM     95  O   UNL A   1      41.747  23.768  27.891  1.00  0.00    -0.237 OA
ATOM     96  O   UNL A   1      43.431  22.195  27.019  1.00  0.00    -0.744 OA
ENDBRANCH  92  93
ENDBRANCH  60  85
BRANCH  72  97
ATOM     97  C   UNL A   1      52.857  26.943  26.328  1.00  0.00     0.058 A 
ATOM     98  C   UNL A   1      53.321  26.419  25.114  1.00  0.00     0.135 A 
ATOM     99  C   UNL A   1      53.481  26.514  27.512  1.00  0.00     0.135 A 
ATOM    100  F   UNL A   1      52.752  26.792  23.956  1.00  0.00    -0.206 F 
ATOM    101  C   UNL A   1      54.360  25.495  25.072  1.00  0.00     0.059 A 
ATOM    102  C   UNL A   1      54.537  25.609  27.492  1.00  0.00     0.059 A 
ATOM    103  F   UNL A   1      53.079  26.992  28.700  1.00  0.00    -0.206 F 
ATOM    104  C   UNL A   1      54.966  25.101  26.266  1.00  0.00     0.060 A 
BRANCH 104 105
ATOM    105  S   UNL A   1      56.347  23.941  26.192  1.00  0.00     0.124 S 
ATOM    106  O   UNL A   1      56.732  24.031  24.789  1.00  0.00    -0.237 OA
ATOM    107  O   UNL A   1      57.289  24.517  27.147  1.00  0.00    -0.237 OA
ATOM    108  O   UNL A   1      55.749  22.673  26.599  1.00  0.00    -0.744 OA
ENDBRANCH 104 105
ENDBRANCH  72  97
ENDBRANCH  46  47
ENDBRANCH  38  41
ENDBRANCH  36  37
ENDBRANCH  35  36
ENDBRANCH   1  35
TORSDOF 19
ENDMDL
MODEL 3
REMARK VINA RESULT:      -7.4      7.642     14.718
REMARK SMILES CCCn1c(N2CCC[C@@H](C)C2)c(/C=C2/SC(=S)N(CC(=O)NCCCNC(=O)c3ccc(-c4c5nc(c(-c6c(F)cc(S(=O)(=O)[O-])cc6F)c6ccc([nH]6)c(-c6c(F)cc(S(=O)(=O)[O-])cc6F)c6nc(c(-c7c(F)cc(S(=O)(=O)[O-])cc7F)c7ccc4[nH]7)C=C6)C=C5)cc3)C2=O)c(C)c(C#N)c1=O
REMARK SMILES IDX 24 1 23 2 21 3 22 4 20 6 19 7 14 8 15 9 16 10 96 11 17 12
REMARK SMILES IDX 97 13 18 14 13 15 4 16 5 17 103 18 100 19 104 20 98 21 99 22
REMARK SMILES IDX 3 23 2 24 1 25 6 26 7 27 12 28 8 29 10 30 9 31 11 32 101 33
REMARK SMILES IDX 102 34 25 35 26 36 27 37 28 38 29 40 30 41 31 42 95 43 32 44
REMARK SMILES IDX 94 45 33 46 34 47 35 48 88 49 36 50 93 51 87 52 89 53 37 54
REMARK SMILES IDX 92 55 86 56 85 57 38 59 72 60 51 61 71 62 52 63 55 64 70 65
REMARK SMILES IDX 90 66 53 67 54 68 69 70 91 71 56 72 39 73 40 74 49 75 41 76
REMARK SMILES IDX 42 77 48 78 50 79 43 80 44 81 45 82 46 83 47 84 73 85 74 86
REMARK SMILES IDX 83 87 75 88 76 89 82 90 84 91 77 92 78 93 79 94 80 95 81 96
REMARK SMILES IDX 57 97 58 98 67 99 59 100 60 101 66 102 68 103 61 104 62 105
REMARK SMILES IDX 63 106 64 107 65 108
REMARK H PARENT 23 5 27 39 89 58 55 69
REMARK Flexibility Score: inf
ROOT
ATOM      1  C   UNL A   1      43.625  39.011  27.842  1.00  0.00     0.117 C 
ENDROOT
BRANCH   1   2
ATOM      2  N   UNL A   1      44.421  39.274  26.661  1.00  0.00    -0.354 N 
ATOM      3  C   UNL A   1      44.644  40.442  25.994  1.00  0.00     0.240 C 
ATOM      4  O   UNL A   1      45.584  40.463  25.195  1.00  0.00    -0.273 OA
ATOM      5  H   UNL A   1      44.873  38.486  26.281  1.00  0.00     0.163 HD
BRANCH   3   6
ATOM      6  C   UNL A   1      43.848  41.713  26.310  1.00  0.00     0.227 C 
BRANCH   6   7
ATOM      7  N   UNL A   1      44.651  42.778  26.913  1.00  0.00    -0.283 N 
ATOM      8  C   UNL A   1      46.083  44.114  29.985  1.00  0.00     0.033 C 
ATOM      9  C   UNL A   1      45.607  43.923  28.744  1.00  0.00     0.081 C 
ATOM     10  S   UNL A   1      46.010  44.916  27.399  1.00  0.00    -0.054 SA
ATOM     11  C   UNL A   1      44.713  42.823  28.293  1.00  0.00     0.266 C 
ATOM     12  C   UNL A   1      45.178  43.867  26.254  1.00  0.00     0.148 C 
ATOM     13  O   UNL A   1      44.093  42.082  29.049  1.00  0.00    -0.268 OA
ATOM     14  S   UNL A   1      45.065  44.252  24.635  1.00  0.00    -0.052 S 
BRANCH   8  15
ATOM     15  C   UNL A   1      45.862  43.223  31.134  1.00  0.00     0.021 A 
ATOM     16  N   UNL A   1      46.399  41.287  32.445  1.00  0.00    -0.293 N 
ATOM     17  C   UNL A   1      46.677  42.133  31.345  1.00  0.00     0.119 A 
ATOM     18  C   UNL A   1      45.280  41.447  33.257  1.00  0.00     0.270 A 
ATOM     19  C   UNL A   1      44.553  42.714  33.129  1.00  0.00     0.121 A 
ATOM     20  O   UNL A   1      44.865  40.596  34.042  1.00  0.00    -0.268 OA
ATOM     21  C   UNL A   1      44.747  43.501  32.060  1.00  0.00    -0.017 A 
ATOM     22  C   UNL A   1      43.807  44.648  31.746  1.00  0.00     0.047 C 
BRANCH  16  23
ATOM     23  C   UNL A   1      47.243  40.132  32.771  1.00  0.00     0.127 C 
BRANCH  23  24
ATOM     24  C   UNL A   1      48.267  40.371  33.896  1.00  0.00     0.019 C 
ATOM     25  C   UNL A   1      49.302  39.269  34.082  1.00  0.00     0.006 C 
ENDBRANCH  23  24
ENDBRANCH  16  23
BRANCH  17  26
ATOM     26  N   UNL A   1      47.738  41.815  30.464  1.00  0.00    -0.357 N 
ATOM     27  C   UNL A   1      49.126  42.183  30.810  1.00  0.00     0.118 C 
ATOM     28  C   UNL A   1      47.650  40.730  29.475  1.00  0.00     0.121 C 
ATOM     29  C   UNL A   1      49.898  42.588  29.552  1.00  0.00     0.022 C 
ATOM     30  C   UNL A   1      48.378  41.110  28.183  1.00  0.00     0.005 C 
ATOM     31  C   UNL A   1      49.830  41.510  28.475  1.00  0.00     0.007 C 
ATOM     32  C   UNL A   1      48.333  39.945  27.193  1.00  0.00     0.009 C 
ENDBRANCH  17  26
BRANCH  19  33
ATOM     33  C   UNL A   1      43.435  43.008  34.115  1.00  0.00     0.105 C 
ATOM     34  N   UNL A   1      42.506  43.251  34.932  1.00  0.00    -0.192 NA
ENDBRANCH  19  33
ENDBRANCH   8  15
ENDBRANCH   6   7
ENDBRANCH   3   6
ENDBRANCH   1   2
BRANCH   1  35
ATOM     35  C   UNL A   1      44.476  38.820  29.091  1.00  0.00     0.042 C 
BRANCH  35  36
ATOM     36  C   UNL A   1      45.170  37.460  29.159  1.00  0.00     0.118 C 
BRANCH  36  37
ATOM     37  N   UNL A   1      46.618  37.578  29.069  1.00  0.00    -0.352 N 
ATOM     38  C   UNL A   1      47.574  36.593  29.006  1.00  0.00     0.251 C 
ATOM     39  H   UNL A   1      46.964  38.499  29.052  1.00  0.00     0.163 HD
ATOM     40  O   UNL A   1      48.757  36.881  29.159  1.00  0.00    -0.269 OA
BRANCH  38  41
ATOM     41  C   UNL A   1      47.176  35.191  28.765  1.00  0.00     0.039 A 
ATOM     42  C   UNL A   1      47.175  34.292  29.834  1.00  0.00     0.014 A 
ATOM     43  C   UNL A   1      46.838  34.757  27.478  1.00  0.00     0.014 A 
ATOM     44  C   UNL A   1      46.783  32.967  29.625  1.00  0.00     0.010 A 
ATOM     45  C   UNL A   1      46.402  33.448  27.281  1.00  0.00     0.010 A 
ATOM     46  C   UNL A   1      46.374  32.542  28.351  1.00  0.00    -0.014 A 
BRANCH  46  47
ATOM     47  C   UNL A   1      45.948  31.142  28.113  1.00  0.00     0.031 A 
ATOM     48  C   UNL A   1      44.509  30.756  28.312  1.00  0.00     0.074 A 
ATOM     49  C   UNL A   1      46.857  30.216  27.751  1.00  0.00     0.049 A 
ATOM     50  N   UNL A   1      43.948  29.580  28.203  1.00  0.00    -0.248 NA
ATOM     51  C   UNL A   1      43.581  31.833  28.696  1.00  0.00     0.031 C 
ATOM     52  C   UNL A   1      48.283  30.470  27.539  1.00  0.00     0.029 A 
ATOM     53  N   UNL A   1      46.718  28.874  27.502  1.00  0.00    -0.354 N 
ATOM     54  C   UNL A   1      42.604  29.775  28.492  1.00  0.00     0.074 A 
ATOM     55  C   UNL A   1      42.442  31.171  28.838  1.00  0.00     0.031 C 
ATOM     56  C   UNL A   1      48.884  29.325  27.174  1.00  0.00     0.029 A 
ATOM     57  C   UNL A   1      47.893  28.250  27.156  1.00  0.00     0.049 A 
ATOM     58  H   UNL A   1      45.857  28.402  27.567  1.00  0.00     0.167 HD
ATOM     59  C   UNL A   1      41.590  28.878  28.447  1.00  0.00     0.037 A 
ATOM     60  C   UNL A   1      48.142  26.960  26.859  1.00  0.00     0.037 A 
ATOM     61  C   UNL A   1      41.753  27.492  28.099  1.00  0.00     0.049 A 
ATOM     62  C   UNL A   1      47.008  25.971  26.872  1.00  0.00     0.074 A 
ATOM     63  C   UNL A   1      40.785  26.507  28.010  1.00  0.00     0.029 A 
ATOM     64  N   UNL A   1      42.963  26.894  27.778  1.00  0.00    -0.354 N 
ATOM     65  N   UNL A   1      45.737  26.177  27.123  1.00  0.00    -0.248 NA
ATOM     66  C   UNL A   1      47.340  24.572  26.563  1.00  0.00     0.031 C 
ATOM     67  C   UNL A   1      41.414  25.305  27.668  1.00  0.00     0.029 A 
ATOM     68  C   UNL A   1      42.768  25.550  27.505  1.00  0.00     0.049 A 
ATOM     69  H   UNL A   1      43.831  27.356  27.749  1.00  0.00     0.167 HD
ATOM     70  C   UNL A   1      45.115  24.943  26.976  1.00  0.00     0.074 A 
ATOM     71  C   UNL A   1      46.146  23.995  26.608  1.00  0.00     0.031 C 
ATOM     72  C   UNL A   1      43.807  24.623  27.132  1.00  0.00     0.037 A 
BRANCH  59  73
ATOM     73  C   UNL A   1      40.208  29.375  28.762  1.00  0.00     0.058 A 
ATOM     74  C   UNL A   1      39.818  29.651  30.081  1.00  0.00     0.135 A 
ATOM     75  C   UNL A   1      39.281  29.627  27.738  1.00  0.00     0.135 A 
ATOM     76  F   UNL A   1      40.661  29.411  31.099  1.00  0.00    -0.206 F 
ATOM     77  C   UNL A   1      38.553  30.146  30.378  1.00  0.00     0.059 A 
ATOM     78  C   UNL A   1      38.016  30.143  28.008  1.00  0.00     0.059 A 
ATOM     79  F   UNL A   1      39.602  29.376  26.458  1.00  0.00    -0.206 F 
ATOM     80  C   UNL A   1      37.659  30.392  29.334  1.00  0.00     0.060 A 
BRANCH  80  81
ATOM     81  S   UNL A   1      36.031  31.056  29.739  1.00  0.00     0.124 S 
ATOM     82  O   UNL A   1      36.246  32.488  29.554  1.00  0.00    -0.237 OA
ATOM     83  O   UNL A   1      35.177  30.411  28.746  1.00  0.00    -0.237 OA
ATOM     84  O   UNL A   1      35.820  30.626  31.117  1.00  0.00    -0.744 OA
ENDBRANCH  80  81
ENDBRANCH  59  73
BRANCH  60  85
ATOM     85  C   UNL A   1      49.518  26.531  26.497  1.00  0.00     0.058 A 
ATOM     86  C   UNL A   1      49.959  26.586  25.166  1.00  0.00     0.135 A 
ATOM     87  C   UNL A   1      50.419  26.065  27.465  1.00  0.00     0.135 A 
ATOM     88  F   UNL A   1      49.130  27.017  24.203  1.00  0.00    -0.206 F 
ATOM     89  C   UNL A   1      51.240  26.182  24.805  1.00  0.00     0.059 A 
ATOM     90  C   UNL A   1      51.713  25.675  27.132  1.00  0.00     0.059 A 
ATOM     91  F   UNL A   1      50.052  26.008  28.755  1.00  0.00    -0.206 F 
ATOM     92  C   UNL A   1      52.112  25.730  25.797  1.00  0.00     0.060 A 
BRANCH  92  93
ATOM     93  S   UNL A   1      53.789  25.255  25.325  1.00  0.00     0.124 S 
ATOM     94  O   UNL A   1      53.534  24.299  24.254  1.00  0.00    -0.237 OA
ATOM     95  O   UNL A   1      54.366  26.532  24.919  1.00  0.00    -0.237 OA
ATOM     96  O   UNL A   1      54.336  24.693  26.558  1.00  0.00    -0.744 OA
ENDBRANCH  92  93
ENDBRANCH  60  85
BRANCH  72  97
ATOM     97  C   UNL A   1      43.405  23.196  26.885  1.00  0.00     0.058 A 
ATOM     98  C   UNL A   1      43.335  22.669  25.588  1.00  0.00     0.135 A 
ATOM     99  C   UNL A   1      43.164  22.328  27.963  1.00  0.00     0.135 A 
ATOM    100  F   UNL A   1      43.549  23.461  24.524  1.00  0.00    -0.206 F 
ATOM    101  C   UNL A   1      43.029  21.331  25.364  1.00  0.00     0.059 A 
ATOM    102  C   UNL A   1      42.880  20.981  27.763  1.00  0.00     0.059 A 
ATOM    103  F   UNL A   1      43.228  22.782  29.224  1.00  0.00    -0.206 F 
ATOM    104  C   UNL A   1      42.809  20.494  26.459  1.00  0.00     0.060 A 
BRANCH 104 105
ATOM    105  S   UNL A   1      42.463  18.748  26.155  1.00  0.00     0.124 S 
ATOM    106  O   UNL A   1      43.444  18.428  25.124  1.00  0.00    -0.237 OA
ATOM    107  O   UNL A   1      42.703  18.150  27.465  1.00  0.00    -0.237 OA
ATOM    108  O   UNL A   1      41.070  18.748  25.718  1.00  0.00    -0.744 OA
ENDBRANCH 104 105
ENDBRANCH  72  97
ENDBRANCH  46  47
ENDBRANCH  38  41
ENDBRANCH  36  37
ENDBRANCH  35  36
ENDBRANCH   1  35
TORSDOF 19
ENDMDL
