MODEL 1
REMARK VINA RESULT:     -13.9      0.000      0.000
REMARK SMILES COc1cc(C)c(S(=O)(=O)Nc2cc(C(=O)NCCCNC(=O)c3ccc(-c4c5nc(c(-c6c(F)cc(S(=O)(=O)[O-])cc6F)c6ccc([nH]6)c(-c6c(F)cc(S(=O)(=O)[O-])cc6F)c6nc(c(-c7c(F)cc(S(=O)(=O)[O-])cc7F)c7ccc4[nH]7)C=C6)C=C5)cc3)ccc2F)cc1OC
REMARK SMILES IDX 18 1 17 2 15 3 16 4 14 6 12 7 13 8 92 9 91 10 93 11 90 12
REMARK SMILES IDX 11 13 8 15 9 16 10 17 7 18 3 19 4 20 95 21 5 22 94 23 6 24
REMARK SMILES IDX 2 25 1 26 96 27 97 28 19 29 20 30 21 31 22 32 23 34 24 35
REMARK SMILES IDX 25 36 89 37 26 38 88 39 27 40 28 41 29 42 82 43 30 44 87 45
REMARK SMILES IDX 81 46 83 47 31 48 86 49 80 50 79 51 32 53 66 54 45 55 65 56
REMARK SMILES IDX 46 57 49 58 64 59 84 60 47 61 48 62 63 64 85 65 50 66 33 67
REMARK SMILES IDX 34 68 43 69 35 70 36 71 42 72 44 73 37 74 38 75 39 76 40 77
REMARK SMILES IDX 41 78 67 79 68 80 77 81 69 82 70 83 76 84 78 85 71 86 72 87
REMARK SMILES IDX 73 88 74 89 75 90 51 91 52 92 61 93 53 94 54 95 60 96 62 97
REMARK SMILES IDX 55 98 56 99 57 100 58 101 59 102
REMARK H PARENT 17 5 11 14 21 33 83 52 49 63
REMARK Flexibility Score: inf
ROOT
ATOM      1  C   UNL A   1      32.150  29.925  26.219  1.00  0.00     0.118 C 
ENDROOT
BRANCH   1   2
ATOM      2  N   UNL A   1      31.578  30.125  24.892  1.00  0.00    -0.352 N 
ATOM      3  C   UNL A   1      30.962  29.279  24.002  1.00  0.00     0.251 C 
ATOM      4  O   UNL A   1      30.446  29.776  22.999  1.00  0.00    -0.269 OA
ATOM      5  H   UNL A   1      31.648  31.053  24.569  1.00  0.00     0.163 HD
BRANCH   3   6
ATOM      6  C   UNL A   1      30.840  27.801  24.189  1.00  0.00     0.042 A 
ATOM      7  C   UNL A   1      31.096  25.496  23.466  1.00  0.00     0.085 A 
ATOM      8  C   UNL A   1      31.106  26.860  23.197  1.00  0.00     0.043 A 
ATOM      9  C   UNL A   1      30.690  25.044  24.719  1.00  0.00     0.147 A 
ATOM     10  C   UNL A   1      30.347  25.951  25.715  1.00  0.00     0.042 A 
ATOM     11  F   UNL A   1      30.648  23.730  24.978  1.00  0.00    -0.205 F 
ATOM     12  C   UNL A   1      30.440  27.325  25.454  1.00  0.00     0.017 A 
BRANCH   7  13
ATOM     13  N   UNL A   1      31.517  24.604  22.428  1.00  0.00    -0.277 N 
ATOM     14  H   UNL A   1      30.928  24.441  21.656  1.00  0.00     0.180 HD
BRANCH  13  15
ATOM     15  S   UNL A   1      33.035  23.819  22.518  1.00  0.00     0.262 S 
ATOM     16  O   UNL A   1      33.879  24.751  23.238  1.00  0.00    -0.201 OA
ATOM     17  O   UNL A   1      33.385  23.465  21.156  1.00  0.00    -0.201 OA
BRANCH  15  18
ATOM     18  C   UNL A   1      32.951  22.296  23.464  1.00  0.00     0.094 A 
ATOM     19  C   UNL A   1      33.077  19.934  25.053  1.00  0.00     0.161 A 
ATOM     20  C   UNL A   1      32.400  19.958  23.830  1.00  0.00     0.055 A 
ATOM     21  C   UNL A   1      33.779  21.083  25.436  1.00  0.00     0.162 A 
ATOM     22  C   UNL A   1      32.398  21.096  22.985  1.00  0.00    -0.027 A 
ATOM     23  C   UNL A   1      33.651  22.265  24.684  1.00  0.00     0.073 A 
ATOM     24  C   UNL A   1      31.814  20.876  21.622  1.00  0.00     0.046 C 
BRANCH  19  25
ATOM     25  O   UNL A   1      33.106  18.847  25.882  1.00  0.00    -0.493 OA
ATOM     26  C   UNL A   1      32.443  17.659  25.474  1.00  0.00     0.278 C 
ENDBRANCH  19  25
BRANCH  21  27
ATOM     27  O   UNL A   1      34.623  21.214  26.506  1.00  0.00    -0.493 OA
ATOM     28  C   UNL A   1      34.659  22.474  27.170  1.00  0.00     0.278 C 
ENDBRANCH  21  27
ENDBRANCH  15  18
ENDBRANCH  13  15
ENDBRANCH   7  13
ENDBRANCH   3   6
ENDBRANCH   1   2
BRANCH   1  29
ATOM     29  C   UNL A   1      33.647  29.609  26.191  1.00  0.00     0.042 C 
BRANCH  29  30
ATOM     30  C   UNL A   1      34.259  29.560  27.576  1.00  0.00     0.118 C 
BRANCH  30  31
ATOM     31  N   UNL A   1      34.925  30.806  27.951  1.00  0.00    -0.352 N 
ATOM     32  C   UNL A   1      36.236  30.948  28.380  1.00  0.00     0.251 C 
ATOM     33  H   UNL A   1      34.389  31.629  27.894  1.00  0.00     0.163 HD
ATOM     34  O   UNL A   1      36.719  32.014  28.710  1.00  0.00    -0.269 OA
BRANCH  32  35
ATOM     35  C   UNL A   1      37.047  29.715  28.358  1.00  0.00     0.039 A 
ATOM     36  C   UNL A   1      37.261  29.065  29.578  1.00  0.00     0.014 A 
ATOM     37  C   UNL A   1      37.875  29.505  27.259  1.00  0.00     0.014 A 
ATOM     38  C   UNL A   1      38.429  28.329  29.755  1.00  0.00     0.010 A 
ATOM     39  C   UNL A   1      39.080  28.867  27.476  1.00  0.00     0.010 A 
ATOM     40  C   UNL A   1      39.377  28.312  28.732  1.00  0.00    -0.014 A 
BRANCH  40  41
ATOM     41  C   UNL A   1      40.736  27.806  28.896  1.00  0.00     0.031 A 
ATOM     42  C   UNL A   1      41.056  26.419  28.487  1.00  0.00     0.074 A 
ATOM     43  C   UNL A   1      41.734  28.606  29.335  1.00  0.00     0.049 A 
ATOM     44  N   UNL A   1      42.083  25.760  28.908  1.00  0.00    -0.248 NA
ATOM     45  C   UNL A   1      40.213  25.652  27.576  1.00  0.00     0.031 C 
ATOM     46  C   UNL A   1      43.169  28.348  29.246  1.00  0.00     0.029 A 
ATOM     47  N   UNL A   1      41.637  29.739  30.144  1.00  0.00    -0.354 N 
ATOM     48  C   UNL A   1      42.194  24.633  28.132  1.00  0.00     0.074 A 
ATOM     49  C   UNL A   1      40.981  24.584  27.348  1.00  0.00     0.031 C 
ATOM     50  C   UNL A   1      43.805  29.102  30.154  1.00  0.00     0.029 A 
ATOM     51  C   UNL A   1      42.795  29.767  30.953  1.00  0.00     0.049 A 
ATOM     52  H   UNL A   1      40.903  30.394  30.149  1.00  0.00     0.167 HD
ATOM     53  C   UNL A   1      43.351  23.915  28.132  1.00  0.00     0.037 A 
ATOM     54  C   UNL A   1      42.691  29.683  32.314  1.00  0.00     0.037 A 
ATOM     55  C   UNL A   1      44.330  24.437  29.078  1.00  0.00     0.049 A 
ATOM     56  C   UNL A   1      43.288  28.427  32.918  1.00  0.00     0.074 A 
ATOM     57  C   UNL A   1      45.450  25.248  28.976  1.00  0.00     0.029 A 
ATOM     58  N   UNL A   1      44.036  24.375  30.428  1.00  0.00    -0.354 N 
ATOM     59  N   UNL A   1      43.905  27.499  32.240  1.00  0.00    -0.248 NA
ATOM     60  C   UNL A   1      43.165  28.082  34.336  1.00  0.00     0.031 C 
ATOM     61  C   UNL A   1      45.808  25.685  30.284  1.00  0.00     0.029 A 
ATOM     62  C   UNL A   1      44.907  25.140  31.179  1.00  0.00     0.049 A 
ATOM     63  H   UNL A   1      43.296  23.848  30.808  1.00  0.00     0.167 HD
ATOM     64  C   UNL A   1      44.166  26.432  33.061  1.00  0.00     0.074 A 
ATOM     65  C   UNL A   1      43.713  26.856  34.372  1.00  0.00     0.031 C 
ATOM     66  C   UNL A   1      44.684  25.254  32.610  1.00  0.00     0.037 A 
BRANCH  53  67
ATOM     67  C   UNL A   1      43.634  22.895  27.061  1.00  0.00     0.058 A 
ATOM     68  C   UNL A   1      42.946  21.667  27.033  1.00  0.00     0.135 A 
ATOM     69  C   UNL A   1      44.636  23.050  26.083  1.00  0.00     0.135 A 
ATOM     70  F   UNL A   1      41.924  21.417  27.861  1.00  0.00    -0.206 F 
ATOM     71  C   UNL A   1      43.303  20.628  26.175  1.00  0.00     0.059 A 
ATOM     72  C   UNL A   1      45.052  22.004  25.255  1.00  0.00     0.059 A 
ATOM     73  F   UNL A   1      45.246  24.233  25.905  1.00  0.00    -0.206 F 
ATOM     74  C   UNL A   1      44.383  20.788  25.317  1.00  0.00     0.060 A 
BRANCH  74  75
ATOM     75  S   UNL A   1      44.919  19.380  24.326  1.00  0.00     0.124 S 
ATOM     76  O   UNL A   1      44.471  19.752  22.987  1.00  0.00    -0.237 OA
ATOM     77  O   UNL A   1      46.361  19.396  24.541  1.00  0.00    -0.237 OA
ATOM     78  O   UNL A   1      44.203  18.256  24.924  1.00  0.00    -0.744 OA
ENDBRANCH  74  75
ENDBRANCH  53  67
BRANCH  54  79
ATOM     79  C   UNL A   1      41.508  30.426  32.828  1.00  0.00     0.058 A 
ATOM     80  C   UNL A   1      40.352  29.673  33.119  1.00  0.00     0.135 A 
ATOM     81  C   UNL A   1      41.642  31.679  33.440  1.00  0.00     0.135 A 
ATOM     82  F   UNL A   1      40.170  28.469  32.550  1.00  0.00    -0.206 F 
ATOM     83  C   UNL A   1      39.466  30.062  34.112  1.00  0.00     0.059 A 
ATOM     84  C   UNL A   1      40.749  32.099  34.426  1.00  0.00     0.059 A 
ATOM     85  F   UNL A   1      42.722  32.438  33.200  1.00  0.00    -0.206 F 
ATOM     86  C   UNL A   1      39.709  31.247  34.802  1.00  0.00     0.060 A 
BRANCH  86  87
ATOM     87  S   UNL A   1      38.770  31.541  36.319  1.00  0.00     0.124 S 
ATOM     88  O   UNL A   1      39.811  32.016  37.223  1.00  0.00    -0.237 OA
ATOM     89  O   UNL A   1      37.802  32.540  35.867  1.00  0.00    -0.237 OA
ATOM     90  O   UNL A   1      38.217  30.228  36.626  1.00  0.00    -0.744 OA
ENDBRANCH  86  87
ENDBRANCH  54  79
BRANCH  66  91
ATOM     91  C   UNL A   1      45.015  24.098  33.509  1.00  0.00     0.058 A 
ATOM     92  C   UNL A   1      46.335  23.811  33.895  1.00  0.00     0.135 A 
ATOM     93  C   UNL A   1      44.034  23.159  33.892  1.00  0.00     0.135 A 
ATOM     94  F   UNL A   1      47.343  24.623  33.538  1.00  0.00    -0.206 F 
ATOM     95  C   UNL A   1      46.659  22.677  34.641  1.00  0.00     0.059 A 
ATOM     96  C   UNL A   1      44.341  21.997  34.595  1.00  0.00     0.059 A 
ATOM     97  F   UNL A   1      42.736  23.355  33.617  1.00  0.00    -0.206 F 
ATOM     98  C   UNL A   1      45.655  21.773  34.982  1.00  0.00     0.060 A 
BRANCH  98  99
ATOM     99  S   UNL A   1      46.073  20.285  35.911  1.00  0.00     0.124 S 
ATOM    100  O   UNL A   1      47.518  20.184  35.722  1.00  0.00    -0.237 OA
ATOM    101  O   UNL A   1      45.638  20.651  37.255  1.00  0.00    -0.237 OA
ATOM    102  O   UNL A   1      45.288  19.246  35.254  1.00  0.00    -0.744 OA
ENDBRANCH  98  99
ENDBRANCH  66  91
ENDBRANCH  40  41
ENDBRANCH  32  35
ENDBRANCH  30  31
ENDBRANCH  29  30
ENDBRANCH   1  29
TORSDOF 18
ENDMDL
MODEL 2
REMARK VINA RESULT:     -12.6      2.026      2.930
REMARK SMILES COc1cc(C)c(S(=O)(=O)Nc2cc(C(=O)NCCCNC(=O)c3ccc(-c4c5nc(c(-c6c(F)cc(S(=O)(=O)[O-])cc6F)c6ccc([nH]6)c(-c6c(F)cc(S(=O)(=O)[O-])cc6F)c6nc(c(-c7c(F)cc(S(=O)(=O)[O-])cc7F)c7ccc4[nH]7)C=C6)C=C5)cc3)ccc2F)cc1OC
REMARK SMILES IDX 18 1 17 2 15 3 16 4 14 6 12 7 13 8 92 9 91 10 93 11 90 12
REMARK SMILES IDX 11 13 8 15 9 16 10 17 7 18 3 19 4 20 95 21 5 22 94 23 6 24
REMARK SMILES IDX 2 25 1 26 96 27 97 28 19 29 20 30 21 31 22 32 23 34 24 35
REMARK SMILES IDX 25 36 89 37 26 38 88 39 27 40 28 41 29 42 82 43 30 44 87 45
REMARK SMILES IDX 81 46 83 47 31 48 86 49 80 50 79 51 32 53 66 54 45 55 65 56
REMARK SMILES IDX 46 57 49 58 64 59 84 60 47 61 48 62 63 64 85 65 50 66 33 67
REMARK SMILES IDX 34 68 43 69 35 70 36 71 42 72 44 73 37 74 38 75 39 76 40 77
REMARK SMILES IDX 41 78 67 79 68 80 77 81 69 82 70 83 76 84 78 85 71 86 72 87
REMARK SMILES IDX 73 88 74 89 75 90 51 91 52 92 61 93 53 94 54 95 60 96 62 97
REMARK SMILES IDX 55 98 56 99 57 100 58 101 59 102
REMARK H PARENT 17 5 11 14 21 33 83 52 49 63
REMARK Flexibility Score: inf
ROOT
ATOM      1  C   UNL A   1      33.811  29.873  27.270  1.00  0.00     0.118 C 
ENDROOT
BRANCH   1   2
ATOM      2  N   UNL A   1      32.754  28.963  27.697  1.00  0.00    -0.352 N 
ATOM      3  C   UNL A   1      31.777  28.278  27.015  1.00  0.00     0.251 C 
ATOM      4  O   UNL A   1      31.104  27.459  27.642  1.00  0.00    -0.269 OA
ATOM      5  H   UNL A   1      32.736  28.809  28.669  1.00  0.00     0.163 HD
BRANCH   3   6
ATOM      6  C   UNL A   1      31.504  28.432  25.552  1.00  0.00     0.042 A 
ATOM      7  C   UNL A   1      31.329  27.591  23.280  1.00  0.00     0.085 A 
ATOM      8  C   UNL A   1      31.719  27.434  24.605  1.00  0.00     0.043 A 
ATOM      9  C   UNL A   1      30.825  28.817  22.851  1.00  0.00     0.147 A 
ATOM     10  C   UNL A   1      30.663  29.863  23.753  1.00  0.00     0.042 A 
ATOM     11  F   UNL A   1      30.475  28.988  21.569  1.00  0.00    -0.205 F 
ATOM     12  C   UNL A   1      30.985  29.663  25.102  1.00  0.00     0.017 A 
BRANCH   7  13
ATOM     13  N   UNL A   1      31.457  26.466  22.404  1.00  0.00    -0.277 N 
ATOM     14  H   UNL A   1      30.651  26.061  22.009  1.00  0.00     0.180 HD
BRANCH  13  15
ATOM     15  S   UNL A   1      32.998  25.819  22.036  1.00  0.00     0.262 S 
ATOM     16  O   UNL A   1      33.902  26.943  22.179  1.00  0.00    -0.201 OA
ATOM     17  O   UNL A   1      32.868  25.186  20.738  1.00  0.00    -0.201 OA
BRANCH  15  18
ATOM     18  C   UNL A   1      33.493  24.552  23.206  1.00  0.00     0.094 A 
ATOM     19  C   UNL A   1      34.042  22.411  25.005  1.00  0.00     0.161 A 
ATOM     20  C   UNL A   1      34.430  23.724  25.290  1.00  0.00     0.055 A 
ATOM     21  C   UNL A   1      33.286  22.187  23.848  1.00  0.00     0.162 A 
ATOM     22  C   UNL A   1      34.092  24.815  24.451  1.00  0.00    -0.027 A 
ATOM     23  C   UNL A   1      33.084  23.234  22.930  1.00  0.00     0.073 A 
ATOM     24  C   UNL A   1      34.392  26.170  25.016  1.00  0.00     0.046 C 
BRANCH  19  25
ATOM     25  O   UNL A   1      34.344  21.342  25.802  1.00  0.00    -0.493 OA
ATOM     26  C   UNL A   1      34.214  21.481  27.209  1.00  0.00     0.278 C 
ENDBRANCH  19  25
BRANCH  21  27
ATOM     27  O   UNL A   1      32.683  21.017  23.471  1.00  0.00    -0.493 OA
ATOM     28  C   UNL A   1      31.960  21.011  22.244  1.00  0.00     0.278 C 
ENDBRANCH  21  27
ENDBRANCH  15  18
ENDBRANCH  13  15
ENDBRANCH   7  13
ENDBRANCH   3   6
ENDBRANCH   1   2
BRANCH   1  29
ATOM     29  C   UNL A   1      33.439  31.349  27.430  1.00  0.00     0.042 C 
BRANCH  29  30
ATOM     30  C   UNL A   1      34.602  32.195  27.906  1.00  0.00     0.118 C 
BRANCH  30  31
ATOM     31  N   UNL A   1      34.527  32.520  29.330  1.00  0.00    -0.352 N 
ATOM     32  C   UNL A   1      35.255  31.932  30.353  1.00  0.00     0.251 C 
ATOM     33  H   UNL A   1      33.894  33.228  29.589  1.00  0.00     0.163 HD
ATOM     34  O   UNL A   1      35.118  32.228  31.524  1.00  0.00    -0.269 OA
BRANCH  32  35
ATOM     35  C   UNL A   1      36.267  30.947  29.926  1.00  0.00     0.039 A 
ATOM     36  C   UNL A   1      36.488  29.848  30.763  1.00  0.00     0.014 A 
ATOM     37  C   UNL A   1      37.209  31.354  28.985  1.00  0.00     0.014 A 
ATOM     38  C   UNL A   1      37.748  29.256  30.782  1.00  0.00     0.010 A 
ATOM     39  C   UNL A   1      38.484  30.835  29.087  1.00  0.00     0.010 A 
ATOM     40  C   UNL A   1      38.767  29.815  30.010  1.00  0.00    -0.014 A 
BRANCH  40  41
ATOM     41  C   UNL A   1      40.174  29.454  30.145  1.00  0.00     0.031 A 
ATOM     42  C   UNL A   1      40.666  28.185  29.561  1.00  0.00     0.074 A 
ATOM     43  C   UNL A   1      41.062  30.298  30.718  1.00  0.00     0.049 A 
ATOM     44  N   UNL A   1      41.759  27.600  29.920  1.00  0.00    -0.248 NA
ATOM     45  C   UNL A   1      39.934  27.457  28.529  1.00  0.00     0.031 C 
ATOM     46  C   UNL A   1      42.519  30.226  30.639  1.00  0.00     0.029 A 
ATOM     47  N   UNL A   1      40.818  31.289  31.670  1.00  0.00    -0.354 N 
ATOM     48  C   UNL A   1      42.016  26.611  29.003  1.00  0.00     0.074 A 
ATOM     49  C   UNL A   1      40.829  26.529  28.183  1.00  0.00     0.031 C 
ATOM     50  C   UNL A   1      43.046  30.917  31.660  1.00  0.00     0.029 A 
ATOM     51  C   UNL A   1      41.952  31.342  32.511  1.00  0.00     0.049 A 
ATOM     52  H   UNL A   1      40.009  31.846  31.742  1.00  0.00     0.167 HD
ATOM     53  C   UNL A   1      43.252  26.042  28.940  1.00  0.00     0.037 A 
ATOM     54  C   UNL A   1      41.840  31.059  33.843  1.00  0.00     0.037 A 
ATOM     55  C   UNL A   1      44.147  26.541  29.978  1.00  0.00     0.049 A 
ATOM     56  C   UNL A   1      42.576  29.810  34.290  1.00  0.00     0.074 A 
ATOM     57  C   UNL A   1      45.162  27.484  30.021  1.00  0.00     0.029 A 
ATOM     58  N   UNL A   1      43.844  26.258  31.297  1.00  0.00    -0.354 N 
ATOM     59  N   UNL A   1      43.310  29.064  33.511  1.00  0.00    -0.248 NA
ATOM     60  C   UNL A   1      42.476  29.261  35.644  1.00  0.00     0.031 C 
ATOM     61  C   UNL A   1      45.446  27.776  31.387  1.00  0.00     0.029 A 
ATOM     62  C   UNL A   1      44.606  27.010  32.171  1.00  0.00     0.049 A 
ATOM     63  H   UNL A   1      43.168  25.600  31.580  1.00  0.00     0.167 HD
ATOM     64  C   UNL A   1      43.687  27.932  34.188  1.00  0.00     0.074 A 
ATOM     65  C   UNL A   1      43.168  28.115  35.529  1.00  0.00     0.031 C 
ATOM     66  C   UNL A   1      44.350  26.897  33.597  1.00  0.00     0.037 A 
BRANCH  53  67
ATOM     67  C   UNL A   1      43.671  25.221  27.751  1.00  0.00     0.058 A 
ATOM     68  C   UNL A   1      43.597  23.815  27.780  1.00  0.00     0.135 A 
ATOM     69  C   UNL A   1      44.231  25.773  26.581  1.00  0.00     0.135 A 
ATOM     70  F   UNL A   1      43.023  23.165  28.800  1.00  0.00    -0.206 F 
ATOM     71  C   UNL A   1      44.141  23.014  26.777  1.00  0.00     0.059 A 
ATOM     72  C   UNL A   1      44.836  24.993  25.593  1.00  0.00     0.059 A 
ATOM     73  F   UNL A   1      44.205  27.098  26.366  1.00  0.00    -0.206 F 
ATOM     74  C   UNL A   1      44.795  23.609  25.706  1.00  0.00     0.060 A 
BRANCH  74  75
ATOM     75  S   UNL A   1      45.622  22.552  24.501  1.00  0.00     0.124 S 
ATOM     76  O   UNL A   1      46.562  23.475  23.870  1.00  0.00    -0.237 OA
ATOM     77  O   UNL A   1      46.214  21.530  25.357  1.00  0.00    -0.237 OA
ATOM     78  O   UNL A   1      44.529  22.103  23.642  1.00  0.00    -0.744 OA
ENDBRANCH  74  75
ENDBRANCH  53  67
BRANCH  54  79
ATOM     79  C   UNL A   1      40.569  31.578  34.417  1.00  0.00     0.058 A 
ATOM     80  C   UNL A   1      39.519  30.655  34.599  1.00  0.00     0.135 A 
ATOM     81  C   UNL A   1      40.536  32.759  35.171  1.00  0.00     0.135 A 
ATOM     82  F   UNL A   1      39.498  29.512  33.892  1.00  0.00    -0.206 F 
ATOM     83  C   UNL A   1      38.586  30.808  35.613  1.00  0.00     0.059 A 
ATOM     84  C   UNL A   1      39.593  32.943  36.182  1.00  0.00     0.059 A 
ATOM     85  F   UNL A   1      41.509  33.673  35.040  1.00  0.00    -0.206 F 
ATOM     86  C   UNL A   1      38.671  31.926  36.439  1.00  0.00     0.060 A 
BRANCH  86  87
ATOM     87  S   UNL A   1      37.697  31.920  37.961  1.00  0.00     0.124 S 
ATOM     88  O   UNL A   1      37.241  30.536  38.014  1.00  0.00    -0.237 OA
ATOM     89  O   UNL A   1      38.704  32.306  38.948  1.00  0.00    -0.237 OA
ATOM     90  O   UNL A   1      36.665  32.916  37.698  1.00  0.00    -0.744 OA
ENDBRANCH  86  87
ENDBRANCH  54  79
BRANCH  66  91
ATOM     91  C   UNL A   1      44.806  25.675  34.341  1.00  0.00     0.058 A 
ATOM     92  C   UNL A   1      43.897  24.729  34.844  1.00  0.00     0.135 A 
ATOM     93  C   UNL A   1      46.159  25.492  34.696  1.00  0.00     0.135 A 
ATOM     94  F   UNL A   1      42.583  24.845  34.597  1.00  0.00    -0.206 F 
ATOM     95  C   UNL A   1      44.309  23.650  35.627  1.00  0.00     0.059 A 
ATOM     96  C   UNL A   1      46.586  24.450  35.514  1.00  0.00     0.059 A 
ATOM     97  F   UNL A   1      47.118  26.309  34.234  1.00  0.00    -0.206 F 
ATOM     98  C   UNL A   1      45.656  23.522  35.960  1.00  0.00     0.060 A 
BRANCH  98  99
ATOM     99  S   UNL A   1      46.189  22.152  37.006  1.00  0.00     0.124 S 
ATOM    100  O   UNL A   1      45.545  21.001  36.379  1.00  0.00    -0.237 OA
ATOM    101  O   UNL A   1      47.639  22.222  36.857  1.00  0.00    -0.237 OA
ATOM    102  O   UNL A   1      45.670  22.511  38.321  1.00  0.00    -0.744 OA
ENDBRANCH  98  99
ENDBRANCH  66  91
ENDBRANCH  40  41
ENDBRANCH  32  35
ENDBRANCH  30  31
ENDBRANCH  29  30
ENDBRANCH   1  29
TORSDOF 18
ENDMDL
MODEL 3
REMARK VINA RESULT:     -12.2      1.598      2.331
REMARK SMILES COc1cc(C)c(S(=O)(=O)Nc2cc(C(=O)NCCCNC(=O)c3ccc(-c4c5nc(c(-c6c(F)cc(S(=O)(=O)[O-])cc6F)c6ccc([nH]6)c(-c6c(F)cc(S(=O)(=O)[O-])cc6F)c6nc(c(-c7c(F)cc(S(=O)(=O)[O-])cc7F)c7ccc4[nH]7)C=C6)C=C5)cc3)ccc2F)cc1OC
REMARK SMILES IDX 18 1 17 2 15 3 16 4 14 6 12 7 13 8 92 9 91 10 93 11 90 12
REMARK SMILES IDX 11 13 8 15 9 16 10 17 7 18 3 19 4 20 95 21 5 22 94 23 6 24
REMARK SMILES IDX 2 25 1 26 96 27 97 28 19 29 20 30 21 31 22 32 23 34 24 35
REMARK SMILES IDX 25 36 89 37 26 38 88 39 27 40 28 41 29 42 82 43 30 44 87 45
REMARK SMILES IDX 81 46 83 47 31 48 86 49 80 50 79 51 32 53 66 54 45 55 65 56
REMARK SMILES IDX 46 57 49 58 64 59 84 60 47 61 48 62 63 64 85 65 50 66 33 67
REMARK SMILES IDX 34 68 43 69 35 70 36 71 42 72 44 73 37 74 38 75 39 76 40 77
REMARK SMILES IDX 41 78 67 79 68 80 77 81 69 82 70 83 76 84 78 85 71 86 72 87
REMARK SMILES IDX 73 88 74 89 75 90 51 91 52 92 61 93 53 94 54 95 60 96 62 97
REMARK SMILES IDX 55 98 56 99 57 100 58 101 59 102
REMARK H PARENT 17 5 11 14 21 33 83 52 49 63
REMARK Flexibility Score: inf
ROOT
ATOM      1  C   UNL A   1      32.672  29.730  26.942  1.00  0.00     0.118 C 
ENDROOT
BRANCH   1   2
ATOM      2  N   UNL A   1      31.719  29.865  25.846  1.00  0.00    -0.352 N 
ATOM      3  C   UNL A   1      31.449  29.094  24.741  1.00  0.00     0.251 C 
ATOM      4  O   UNL A   1      30.471  29.395  24.055  1.00  0.00    -0.269 OA
ATOM      5  H   UNL A   1      31.155  30.669  25.911  1.00  0.00     0.163 HD
BRANCH   3   6
ATOM      6  C   UNL A   1      32.241  27.892  24.337  1.00  0.00     0.042 A 
ATOM      7  C   UNL A   1      33.137  25.664  24.703  1.00  0.00     0.085 A 
ATOM      8  C   UNL A   1      32.502  26.808  25.172  1.00  0.00     0.043 A 
ATOM      9  C   UNL A   1      33.638  25.638  23.404  1.00  0.00     0.147 A 
ATOM     10  C   UNL A   1      33.461  26.729  22.561  1.00  0.00     0.042 A 
ATOM     11  F   UNL A   1      34.278  24.550  22.953  1.00  0.00    -0.205 F 
ATOM     12  C   UNL A   1      32.748  27.844  23.023  1.00  0.00     0.017 A 
BRANCH   7  13
ATOM     13  N   UNL A   1      33.240  24.542  25.588  1.00  0.00    -0.277 N 
ATOM     14  H   UNL A   1      33.945  24.527  26.275  1.00  0.00     0.180 HD
BRANCH  13  15
ATOM     15  S   UNL A   1      32.151  23.229  25.461  1.00  0.00     0.262 S 
ATOM     16  O   UNL A   1      31.297  23.578  24.343  1.00  0.00    -0.201 OA
ATOM     17  O   UNL A   1      31.557  23.073  26.774  1.00  0.00    -0.201 OA
BRANCH  15  18
ATOM     18  C   UNL A   1      32.990  21.693  25.063  1.00  0.00     0.094 A 
ATOM     19  C   UNL A   1      34.073  19.132  24.440  1.00  0.00     0.161 A 
ATOM     20  C   UNL A   1      34.767  20.045  25.240  1.00  0.00     0.055 A 
ATOM     21  C   UNL A   1      32.779  19.473  24.028  1.00  0.00     0.162 A 
ATOM     22  C   UNL A   1      34.210  21.288  25.632  1.00  0.00    -0.027 A 
ATOM     23  C   UNL A   1      32.283  20.765  24.277  1.00  0.00     0.073 A 
ATOM     24  C   UNL A   1      34.995  22.040  26.664  1.00  0.00     0.046 C 
BRANCH  19  25
ATOM     25  O   UNL A   1      34.581  17.922  24.057  1.00  0.00    -0.493 OA
ATOM     26  C   UNL A   1      34.400  16.803  24.912  1.00  0.00     0.278 C 
ENDBRANCH  19  25
BRANCH  21  27
ATOM     27  O   UNL A   1      31.883  18.668  23.378  1.00  0.00    -0.493 OA
ATOM     28  C   UNL A   1      32.235  18.198  22.080  1.00  0.00     0.278 C 
ENDBRANCH  21  27
ENDBRANCH  15  18
ENDBRANCH  13  15
ENDBRANCH   7  13
ENDBRANCH   3   6
ENDBRANCH   1   2
BRANCH   1  29
ATOM     29  C   UNL A   1      33.346  31.051  27.322  1.00  0.00     0.042 C 
BRANCH  29  30
ATOM     30  C   UNL A   1      34.792  30.869  27.737  1.00  0.00     0.118 C 
BRANCH  30  31
ATOM     31  N   UNL A   1      35.105  31.512  29.012  1.00  0.00    -0.352 N 
ATOM     32  C   UNL A   1      36.083  31.126  29.917  1.00  0.00     0.251 C 
ATOM     33  H   UNL A   1      34.567  32.300  29.255  1.00  0.00     0.163 HD
ATOM     34  O   UNL A   1      36.268  31.687  30.979  1.00  0.00    -0.269 OA
BRANCH  32  35
ATOM     35  C   UNL A   1      36.942  30.007  29.482  1.00  0.00     0.039 A 
ATOM     36  C   UNL A   1      37.153  28.967  30.394  1.00  0.00     0.014 A 
ATOM     37  C   UNL A   1      37.803  30.231  28.411  1.00  0.00     0.014 A 
ATOM     38  C   UNL A   1      38.344  28.250  30.336  1.00  0.00     0.010 A 
ATOM     39  C   UNL A   1      39.026  29.591  28.427  1.00  0.00     0.010 A 
ATOM     40  C   UNL A   1      39.316  28.630  29.409  1.00  0.00    -0.014 A 
BRANCH  40  41
ATOM     41  C   UNL A   1      40.689  28.137  29.429  1.00  0.00     0.031 A 
ATOM     42  C   UNL A   1      40.978  26.754  28.985  1.00  0.00     0.074 A 
ATOM     43  C   UNL A   1      41.719  28.946  29.762  1.00  0.00     0.049 A 
ATOM     44  N   UNL A   1      42.050  26.104  29.294  1.00  0.00    -0.248 NA
ATOM     45  C   UNL A   1      40.051  25.980  28.165  1.00  0.00     0.031 C 
ATOM     46  C   UNL A   1      43.140  28.703  29.523  1.00  0.00     0.029 A 
ATOM     47  N   UNL A   1      41.697  30.077  30.580  1.00  0.00    -0.354 N 
ATOM     48  C   UNL A   1      42.090  24.979  28.509  1.00  0.00     0.074 A 
ATOM     49  C   UNL A   1      40.802  24.920  27.856  1.00  0.00     0.031 C 
ATOM     50  C   UNL A   1      43.860  29.462  30.362  1.00  0.00     0.029 A 
ATOM     51  C   UNL A   1      42.933  30.116  31.264  1.00  0.00     0.049 A 
ATOM     52  H   UNL A   1      40.961  30.725  30.664  1.00  0.00     0.167 HD
ATOM     53  C   UNL A   1      43.248  24.273  28.385  1.00  0.00     0.037 A 
ATOM     54  C   UNL A   1      42.973  30.029  32.627  1.00  0.00     0.037 A 
ATOM     55  C   UNL A   1      44.315  24.804  29.224  1.00  0.00     0.049 A 
ATOM     56  C   UNL A   1      43.643  28.778  33.162  1.00  0.00     0.074 A 
ATOM     57  C   UNL A   1      45.410  25.626  29.008  1.00  0.00     0.029 A 
ATOM     58  N   UNL A   1      44.165  24.737  30.597  1.00  0.00    -0.354 N 
ATOM     59  N   UNL A   1      44.194  27.856  32.421  1.00  0.00    -0.248 NA
ATOM     60  C   UNL A   1      43.672  28.430  34.585  1.00  0.00     0.031 C 
ATOM     61  C   UNL A   1      45.899  26.065  30.272  1.00  0.00     0.029 A 
ATOM     62  C   UNL A   1      45.103  25.510  31.255  1.00  0.00     0.049 A 
ATOM     63  H   UNL A   1      43.474  24.202  31.052  1.00  0.00     0.167 HD
ATOM     64  C   UNL A   1      44.550  26.791  33.208  1.00  0.00     0.074 A 
ATOM     65  C   UNL A   1      44.234  27.209  34.560  1.00  0.00     0.031 C 
ATOM     66  C   UNL A   1      45.029  25.619  32.702  1.00  0.00     0.037 A 
BRANCH  53  67
ATOM     67  C   UNL A   1      43.426  23.258  27.288  1.00  0.00     0.058 A 
ATOM     68  C   UNL A   1      42.695  22.055  27.290  1.00  0.00     0.135 A 
ATOM     69  C   UNL A   1      44.370  23.390  26.250  1.00  0.00     0.135 A 
ATOM     70  F   UNL A   1      41.719  21.830  28.178  1.00  0.00    -0.206 F 
ATOM     71  C   UNL A   1      42.960  21.015  26.401  1.00  0.00     0.059 A 
ATOM     72  C   UNL A   1      44.696  22.341  25.387  1.00  0.00     0.059 A 
ATOM     73  F   UNL A   1      45.009  24.553  26.046  1.00  0.00    -0.206 F 
ATOM     74  C   UNL A   1      43.989  21.149  25.478  1.00  0.00     0.060 A 
BRANCH  74  75
ATOM     75  S   UNL A   1      44.412  19.736  24.441  1.00  0.00     0.124 S 
ATOM     76  O   UNL A   1      45.658  19.268  25.044  1.00  0.00    -0.237 OA
ATOM     77  O   UNL A   1      43.253  18.870  24.628  1.00  0.00    -0.237 OA
ATOM     78  O   UNL A   1      44.555  20.324  23.112  1.00  0.00    -0.744 OA
ENDBRANCH  74  75
ENDBRANCH  53  67
BRANCH  54  79
ATOM     79  C   UNL A   1      41.843  30.758  33.264  1.00  0.00     0.058 A 
ATOM     80  C   UNL A   1      42.042  32.123  33.559  1.00  0.00     0.135 A 
ATOM     81  C   UNL A   1      40.523  30.300  33.155  1.00  0.00     0.135 A 
ATOM     82  F   UNL A   1      43.288  32.610  33.685  1.00  0.00    -0.206 F 
ATOM     83  C   UNL A   1      40.989  33.025  33.558  1.00  0.00     0.059 A 
ATOM     84  C   UNL A   1      39.449  31.188  33.174  1.00  0.00     0.059 A 
ATOM     85  F   UNL A   1      40.275  29.012  32.876  1.00  0.00    -0.206 F 
ATOM     86  C   UNL A   1      39.703  32.555  33.302  1.00  0.00     0.060 A 
BRANCH  86  87
ATOM     87  S   UNL A   1      38.421  33.776  32.940  1.00  0.00     0.124 S 
ATOM     88  O   UNL A   1      38.942  34.960  33.614  1.00  0.00    -0.237 OA
ATOM     89  O   UNL A   1      38.452  33.800  31.479  1.00  0.00    -0.237 OA
ATOM     90  O   UNL A   1      37.226  33.187  33.531  1.00  0.00    -0.744 OA
ENDBRANCH  86  87
ENDBRANCH  54  79
BRANCH  66  91
ATOM     91  C   UNL A   1      45.464  24.465  33.559  1.00  0.00     0.058 A 
ATOM     92  C   UNL A   1      46.783  24.344  34.027  1.00  0.00     0.135 A 
ATOM     93  C   UNL A   1      44.607  23.374  33.814  1.00  0.00     0.135 A 
ATOM     94  F   UNL A   1      47.683  25.311  33.793  1.00  0.00    -0.206 F 
ATOM     95  C   UNL A   1      47.218  23.220  34.732  1.00  0.00     0.059 A 
ATOM     96  C   UNL A   1      45.032  22.224  34.473  1.00  0.00     0.059 A 
ATOM     97  F   UNL A   1      43.316  23.402  33.451  1.00  0.00    -0.206 F 
ATOM     98  C   UNL A   1      46.336  22.163  34.946  1.00  0.00     0.060 A 
BRANCH  98  99
ATOM     99  S   UNL A   1      46.903  20.691  35.820  1.00  0.00     0.124 S 
ATOM    100  O   UNL A   1      47.648  21.253  36.944  1.00  0.00    -0.237 OA
ATOM    101  O   UNL A   1      45.637  20.051  36.160  1.00  0.00    -0.237 OA
ATOM    102  O   UNL A   1      47.714  19.999  34.824  1.00  0.00    -0.744 OA
ENDBRANCH  98  99
ENDBRANCH  66  91
ENDBRANCH  40  41
ENDBRANCH  32  35
ENDBRANCH  30  31
ENDBRANCH  29  30
ENDBRANCH   1  29
TORSDOF 18
ENDMDL
