MODEL 1
REMARK VINA RESULT:     -11.3      0.000      0.000
REMARK SMILES O=C(Cc1ccccc1F)NC[C@@H]1CC[C@@H](C(=O)NCCCNC(=O)c2ccc(-c3c4nc(c(-c5c(F)cc(S(=O)(=O)[O-])cc5F)c5ccc([nH]5)c(-c5c(F)cc(S(=O)(=O)[O-])cc5F)c5nc(c(-c6c(F)cc(S(=O)(=O)[O-])cc6F)c6ccc3[nH]6)C=C5)C=C4)cc2)O1
REMARK SMILES IDX 20 1 19 2 17 3 18 4 16 6 13 7 14 8 92 9 15 10 12 11 11 12
REMARK SMILES IDX 1 13 2 14 3 16 4 17 5 18 9 19 6 20 8 21 10 22 7 23 21 24
REMARK SMILES IDX 22 25 23 26 24 27 25 29 26 30 27 31 91 32 28 33 90 34 29 35
REMARK SMILES IDX 30 36 31 37 84 38 32 39 89 40 83 41 85 42 33 43 88 44 82 45
REMARK SMILES IDX 81 46 34 48 68 49 47 50 67 51 48 52 51 53 66 54 86 55 49 56
REMARK SMILES IDX 50 57 65 59 87 60 52 61 35 62 36 63 45 64 37 65 38 66 44 67
REMARK SMILES IDX 46 68 39 69 40 70 41 71 42 72 43 73 69 74 70 75 79 76 71 77
REMARK SMILES IDX 72 78 78 79 80 80 73 81 74 82 75 83 76 84 77 85 53 86 54 87
REMARK SMILES IDX 63 88 55 89 56 90 62 91 64 92 57 93 58 94 59 95 60 96 61 97
REMARK H PARENT 19 5 11 15 23 28 85 47 51 58
REMARK Flexibility Score: inf
ROOT
ATOM      1  C   UNL A   1      34.128  33.763  27.833  1.00  0.00     0.117 C 
ENDROOT
BRANCH   1   2
ATOM      2  N   UNL A   1      33.970  35.200  27.957  1.00  0.00    -0.354 N 
ATOM      3  C   UNL A   1      33.403  35.955  28.939  1.00  0.00     0.249 C 
ATOM      4  O   UNL A   1      33.386  37.180  28.770  1.00  0.00    -0.272 OA
ATOM      5  H   UNL A   1      34.336  35.718  27.204  1.00  0.00     0.163 HD
BRANCH   3   6
ATOM      6  C   UNL A   1      32.890  35.349  30.263  1.00  0.00     0.207 C 
ATOM      7  C   UNL A   1      33.999  34.926  32.264  1.00  0.00     0.138 C 
ATOM      8  C   UNL A   1      32.842  35.846  32.596  1.00  0.00     0.037 C 
ATOM      9  O   UNL A   1      33.703  34.408  30.957  1.00  0.00    -0.363 OA
ATOM     10  C   UNL A   1      32.582  36.478  31.249  1.00  0.00     0.045 C 
BRANCH   7  11
ATOM     11  C   UNL A   1      34.289  33.804  33.262  1.00  0.00     0.147 C 
BRANCH  11  12
ATOM     12  N   UNL A   1      35.597  33.207  33.091  1.00  0.00    -0.353 N 
ATOM     13  O   UNL A   1      36.806  34.982  33.908  1.00  0.00    -0.275 OA
ATOM     14  C   UNL A   1      36.765  33.853  33.435  1.00  0.00     0.224 C 
ATOM     15  H   UNL A   1      35.654  32.300  32.712  1.00  0.00     0.163 HD
BRANCH  14  16
ATOM     16  C   UNL A   1      38.028  33.059  33.132  1.00  0.00     0.138 C 
BRANCH  16  17
ATOM     17  C   UNL A   1      38.786  33.573  31.932  1.00  0.00    -0.003 A 
ATOM     18  C   UNL A   1      38.108  33.935  30.759  1.00  0.00     0.007 A 
ATOM     19  C   UNL A   1      40.174  33.725  31.974  1.00  0.00     0.126 A 
ATOM     20  C   UNL A   1      38.808  34.459  29.670  1.00  0.00     0.001 A 
ATOM     21  C   UNL A   1      40.880  34.238  30.889  1.00  0.00     0.039 A 
ATOM     22  F   UNL A   1      40.851  33.402  33.085  1.00  0.00    -0.207 F 
ATOM     23  C   UNL A   1      40.193  34.611  29.734  1.00  0.00     0.003 A 
ENDBRANCH  16  17
ENDBRANCH  14  16
ENDBRANCH  11  12
ENDBRANCH   7  11
ENDBRANCH   3   6
ENDBRANCH   1   2
BRANCH   1  24
ATOM     24  C   UNL A   1      35.547  33.300  28.143  1.00  0.00     0.042 C 
BRANCH  24  25
ATOM     25  C   UNL A   1      35.640  31.807  28.449  1.00  0.00     0.118 C 
BRANCH  25  26
ATOM     26  N   UNL A   1      35.498  31.525  29.875  1.00  0.00    -0.352 N 
ATOM     27  C   UNL A   1      36.270  30.763  30.713  1.00  0.00     0.251 C 
ATOM     28  H   UNL A   1      34.722  31.951  30.305  1.00  0.00     0.163 HD
ATOM     29  O   UNL A   1      35.836  30.478  31.832  1.00  0.00    -0.269 OA
BRANCH  27  30
ATOM     30  C   UNL A   1      37.601  30.283  30.293  1.00  0.00     0.039 A 
ATOM     31  C   UNL A   1      37.960  30.376  28.944  1.00  0.00     0.014 A 
ATOM     32  C   UNL A   1      38.480  29.701  31.210  1.00  0.00     0.014 A 
ATOM     33  C   UNL A   1      39.222  29.944  28.530  1.00  0.00     0.010 A 
ATOM     34  C   UNL A   1      39.763  29.339  30.810  1.00  0.00     0.010 A 
ATOM     35  C   UNL A   1      40.148  29.454  29.466  1.00  0.00    -0.014 A 
BRANCH  35  36
ATOM     36  C   UNL A   1      41.522  29.063  29.062  1.00  0.00     0.031 A 
ATOM     37  C   UNL A   1      42.618  30.095  29.022  1.00  0.00     0.074 A 
ATOM     38  C   UNL A   1      41.764  27.797  28.668  1.00  0.00     0.049 A 
ATOM     39  N   UNL A   1      43.849  29.971  28.597  1.00  0.00    -0.248 NA
ATOM     40  C   UNL A   1      42.283  31.449  29.496  1.00  0.00     0.031 C 
ATOM     41  C   UNL A   1      40.771  26.722  28.621  1.00  0.00     0.029 A 
ATOM     42  N   UNL A   1      42.916  27.202  28.217  1.00  0.00    -0.354 N 
ATOM     43  C   UNL A   1      44.428  31.226  28.737  1.00  0.00     0.074 A 
ATOM     44  C   UNL A   1      43.405  32.111  29.248  1.00  0.00     0.031 C 
ATOM     45  C   UNL A   1      41.358  25.596  28.182  1.00  0.00     0.029 A 
ATOM     46  C   UNL A   1      42.757  25.877  27.877  1.00  0.00     0.049 A 
ATOM     47  H   UNL A   1      43.774  27.677  28.142  1.00  0.00     0.167 HD
ATOM     48  C   UNL A   1      45.704  31.598  28.484  1.00  0.00     0.037 A 
ATOM     49  C   UNL A   1      43.635  24.992  27.365  1.00  0.00     0.037 A 
ATOM     50  C   UNL A   1      46.730  30.701  28.019  1.00  0.00     0.049 A 
ATOM     51  C   UNL A   1      45.049  25.434  27.103  1.00  0.00     0.074 A 
ATOM     52  C   UNL A   1      48.068  30.972  27.796  1.00  0.00     0.029 A 
ATOM     53  N   UNL A   1      46.536  29.362  27.718  1.00  0.00    -0.354 N 
ATOM     54  N   UNL A   1      45.591  26.614  27.290  1.00  0.00    -0.248 NA
ATOM     55  C   UNL A   1      45.974  24.428  26.562  1.00  0.00     0.031 C 
ATOM     56  C   UNL A   1      48.677  29.807  27.323  1.00  0.00     0.029 A 
ATOM     57  C   UNL A   1      47.728  28.798  27.295  1.00  0.00     0.049 A 
ATOM     58  H   UNL A   1      45.679  28.883  27.792  1.00  0.00     0.167 HD
ATOM     59  C   UNL A   1      46.923  26.485  26.912  1.00  0.00     0.074 A 
ATOM     60  C   UNL A   1      47.110  25.109  26.499  1.00  0.00     0.031 C 
ATOM     61  C   UNL A   1      47.901  27.422  26.903  1.00  0.00     0.037 A 
BRANCH  48  62
ATOM     62  C   UNL A   1      46.094  33.028  28.730  1.00  0.00     0.058 A 
ATOM     63  C   UNL A   1      46.044  33.971  27.691  1.00  0.00     0.135 A 
ATOM     64  C   UNL A   1      46.634  33.436  29.960  1.00  0.00     0.135 A 
ATOM     65  F   UNL A   1      45.527  33.636  26.497  1.00  0.00    -0.206 F 
ATOM     66  C   UNL A   1      46.547  35.258  27.851  1.00  0.00     0.059 A 
ATOM     67  C   UNL A   1      47.123  34.725  30.150  1.00  0.00     0.059 A 
ATOM     68  F   UNL A   1      46.684  32.579  30.992  1.00  0.00    -0.206 F 
ATOM     69  C   UNL A   1      47.096  35.621  29.082  1.00  0.00     0.060 A 
BRANCH  69  70
ATOM     70  S   UNL A   1      47.775  37.284  29.266  1.00  0.00     0.124 S 
ATOM     71  O   UNL A   1      49.204  37.015  29.378  1.00  0.00    -0.237 OA
ATOM     72  O   UNL A   1      47.342  37.928  28.028  1.00  0.00    -0.237 OA
ATOM     73  O   UNL A   1      47.130  37.781  30.478  1.00  0.00    -0.744 OA
ENDBRANCH  69  70
ENDBRANCH  48  62
BRANCH  49  74
ATOM     74  C   UNL A   1      43.205  23.598  27.075  1.00  0.00     0.058 A 
ATOM     75  C   UNL A   1      43.012  22.666  28.105  1.00  0.00     0.135 A 
ATOM     76  C   UNL A   1      42.979  23.172  25.758  1.00  0.00     0.135 A 
ATOM     77  F   UNL A   1      43.226  23.019  29.383  1.00  0.00    -0.206 F 
ATOM     78  C   UNL A   1      42.621  21.358  27.841  1.00  0.00     0.059 A 
ATOM     79  C   UNL A   1      42.561  21.875  25.470  1.00  0.00     0.059 A 
ATOM     80  F   UNL A   1      43.140  24.030  24.739  1.00  0.00    -0.206 F 
ATOM     81  C   UNL A   1      42.396  20.972  26.519  1.00  0.00     0.060 A 
BRANCH  81  82
ATOM     82  S   UNL A   1      41.858  19.279  26.196  1.00  0.00     0.124 S 
ATOM     83  O   UNL A   1      42.178  18.625  27.462  1.00  0.00    -0.237 OA
ATOM     84  O   UNL A   1      40.437  19.455  25.914  1.00  0.00    -0.237 OA
ATOM     85  O   UNL A   1      42.675  18.876  25.056  1.00  0.00    -0.744 OA
ENDBRANCH  81  82
ENDBRANCH  49  74
BRANCH  61  86
ATOM     86  C   UNL A   1      49.273  26.999  26.462  1.00  0.00     0.058 A 
ATOM     87  C   UNL A   1      49.651  27.106  25.115  1.00  0.00     0.135 A 
ATOM     88  C   UNL A   1      50.179  26.405  27.354  1.00  0.00     0.135 A 
ATOM     89  F   UNL A   1      48.818  27.663  24.221  1.00  0.00    -0.206 F 
ATOM     90  C   UNL A   1      50.871  26.618  24.661  1.00  0.00     0.059 A 
ATOM     91  C   UNL A   1      51.416  25.932  26.927  1.00  0.00     0.059 A 
ATOM     92  F   UNL A   1      49.867  26.290  28.655  1.00  0.00    -0.206 F 
ATOM     93  C   UNL A   1      51.745  26.027  25.575  1.00  0.00     0.060 A 
BRANCH  93  94
ATOM     94  S   UNL A   1      53.325  25.399  24.970  1.00  0.00     0.124 S 
ATOM     95  O   UNL A   1      53.231  25.678  23.541  1.00  0.00    -0.237 OA
ATOM     96  O   UNL A   1      54.285  26.208  25.714  1.00  0.00    -0.237 OA
ATOM     97  O   UNL A   1      53.292  23.985  25.338  1.00  0.00    -0.744 OA
ENDBRANCH  93  94
ENDBRANCH  61  86
ENDBRANCH  35  36
ENDBRANCH  27  30
ENDBRANCH  25  26
ENDBRANCH  24  25
ENDBRANCH   1  24
TORSDOF 17
ENDMDL
MODEL 2
REMARK VINA RESULT:     -11.2      5.493     13.696
REMARK SMILES O=C(Cc1ccccc1F)NC[C@@H]1CC[C@@H](C(=O)NCCCNC(=O)c2ccc(-c3c4nc(c(-c5c(F)cc(S(=O)(=O)[O-])cc5F)c5ccc([nH]5)c(-c5c(F)cc(S(=O)(=O)[O-])cc5F)c5nc(c(-c6c(F)cc(S(=O)(=O)[O-])cc6F)c6ccc3[nH]6)C=C5)C=C4)cc2)O1
REMARK SMILES IDX 20 1 19 2 17 3 18 4 16 6 13 7 14 8 92 9 15 10 12 11 11 12
REMARK SMILES IDX 1 13 2 14 3 16 4 17 5 18 9 19 6 20 8 21 10 22 7 23 21 24
REMARK SMILES IDX 22 25 23 26 24 27 25 29 26 30 27 31 91 32 28 33 90 34 29 35
REMARK SMILES IDX 30 36 31 37 84 38 32 39 89 40 83 41 85 42 33 43 88 44 82 45
REMARK SMILES IDX 81 46 34 48 68 49 47 50 67 51 48 52 51 53 66 54 86 55 49 56
REMARK SMILES IDX 50 57 65 59 87 60 52 61 35 62 36 63 45 64 37 65 38 66 44 67
REMARK SMILES IDX 46 68 39 69 40 70 41 71 42 72 43 73 69 74 70 75 79 76 71 77
REMARK SMILES IDX 72 78 78 79 80 80 73 81 74 82 75 83 76 84 77 85 53 86 54 87
REMARK SMILES IDX 63 88 55 89 56 90 62 91 64 92 57 93 58 94 59 95 60 96 61 97
REMARK H PARENT 19 5 11 15 23 28 85 47 51 58
REMARK Flexibility Score: inf
ROOT
ATOM      1  C   UNL A   1      41.305  20.547  26.507  1.00  0.00     0.117 C 
ENDROOT
BRANCH   1   2
ATOM      2  N   UNL A   1      41.821  19.223  26.800  1.00  0.00    -0.354 N 
ATOM      3  C   UNL A   1      42.816  18.502  26.213  1.00  0.00     0.249 C 
ATOM      4  O   UNL A   1      43.032  17.369  26.661  1.00  0.00    -0.272 OA
ATOM      5  H   UNL A   1      41.376  18.769  27.552  1.00  0.00     0.163 HD
BRANCH   3   6
ATOM      6  C   UNL A   1      43.722  19.081  25.106  1.00  0.00     0.207 C 
ATOM      7  C   UNL A   1      45.081  20.970  25.096  1.00  0.00     0.138 C 
ATOM      8  C   UNL A   1      45.977  19.789  24.782  1.00  0.00     0.037 C 
ATOM      9  O   UNL A   1      43.743  20.490  24.892  1.00  0.00    -0.363 OA
ATOM     10  C   UNL A   1      45.169  18.653  25.361  1.00  0.00     0.045 C 
BRANCH   7  11
ATOM     11  C   UNL A   1      45.344  22.257  24.312  1.00  0.00     0.147 C 
BRANCH  11  12
ATOM     12  N   UNL A   1      45.015  23.457  25.052  1.00  0.00    -0.353 N 
ATOM     13  O   UNL A   1      46.844  23.417  26.443  1.00  0.00    -0.275 OA
ATOM     14  C   UNL A   1      45.805  23.948  26.070  1.00  0.00     0.224 C 
ATOM     15  H   UNL A   1      44.192  23.944  24.817  1.00  0.00     0.163 HD
BRANCH  14  16
ATOM     16  C   UNL A   1      45.251  25.197  26.739  1.00  0.00     0.138 C 
BRANCH  16  17
ATOM     17  C   UNL A   1      45.056  25.044  28.228  1.00  0.00    -0.003 A 
ATOM     18  C   UNL A   1      44.198  24.059  28.739  1.00  0.00     0.007 A 
ATOM     19  C   UNL A   1      45.746  25.859  29.128  1.00  0.00     0.126 A 
ATOM     20  C   UNL A   1      44.061  23.887  30.118  1.00  0.00     0.001 A 
ATOM     21  C   UNL A   1      45.607  25.699  30.504  1.00  0.00     0.039 A 
ATOM     22  F   UNL A   1      46.585  26.801  28.673  1.00  0.00    -0.207 F 
ATOM     23  C   UNL A   1      44.765  24.706  31.001  1.00  0.00     0.003 A 
ENDBRANCH  16  17
ENDBRANCH  14  16
ENDBRANCH  11  12
ENDBRANCH   7  11
ENDBRANCH   3   6
ENDBRANCH   1   2
BRANCH   1  24
ATOM     24  C   UNL A   1      41.791  21.598  27.497  1.00  0.00     0.042 C 
BRANCH  24  25
ATOM     25  C   UNL A   1      40.976  22.889  27.453  1.00  0.00     0.118 C 
BRANCH  25  26
ATOM     26  N   UNL A   1      41.372  23.755  26.345  1.00  0.00    -0.352 N 
ATOM     27  C   UNL A   1      41.414  25.121  26.255  1.00  0.00     0.251 C 
ATOM     28  H   UNL A   1      41.656  23.279  25.531  1.00  0.00     0.163 HD
ATOM     29  O   UNL A   1      41.562  25.644  25.147  1.00  0.00    -0.269 OA
BRANCH  27  30
ATOM     30  C   UNL A   1      41.282  25.967  27.458  1.00  0.00     0.039 A 
ATOM     31  C   UNL A   1      42.216  26.984  27.677  1.00  0.00     0.014 A 
ATOM     32  C   UNL A   1      40.270  25.736  28.393  1.00  0.00     0.014 A 
ATOM     33  C   UNL A   1      42.097  27.806  28.800  1.00  0.00     0.010 A 
ATOM     34  C   UNL A   1      40.109  26.601  29.472  1.00  0.00     0.010 A 
ATOM     35  C   UNL A   1      41.021  27.644  29.689  1.00  0.00    -0.014 A 
BRANCH  35  36
ATOM     36  C   UNL A   1      40.829  28.556  30.845  1.00  0.00     0.031 A 
ATOM     37  C   UNL A   1      39.764  29.619  30.798  1.00  0.00     0.074 A 
ATOM     38  C   UNL A   1      41.659  28.469  31.904  1.00  0.00     0.049 A 
ATOM     39  N   UNL A   1      39.514  30.571  31.658  1.00  0.00    -0.248 NA
ATOM     40  C   UNL A   1      38.879  29.631  29.620  1.00  0.00     0.031 C 
ATOM     41  C   UNL A   1      42.756  27.510  32.042  1.00  0.00     0.029 A 
ATOM     42  N   UNL A   1      41.719  29.207  33.060  1.00  0.00    -0.354 N 
ATOM     43  C   UNL A   1      38.460  31.301  31.123  1.00  0.00     0.074 A 
ATOM     44  C   UNL A   1      38.141  30.709  29.843  1.00  0.00     0.031 C 
ATOM     45  C   UNL A   1      43.371  27.707  33.220  1.00  0.00     0.029 A 
ATOM     46  C   UNL A   1      42.738  28.831  33.904  1.00  0.00     0.049 A 
ATOM     47  H   UNL A   1      41.092  29.937  33.265  1.00  0.00     0.167 HD
ATOM     48  C   UNL A   1      37.806  32.355  31.662  1.00  0.00     0.037 A 
ATOM     49  C   UNL A   1      43.131  29.342  35.087  1.00  0.00     0.037 A 
ATOM     50  C   UNL A   1      38.098  32.910  32.958  1.00  0.00     0.049 A 
ATOM     51  C   UNL A   1      42.376  30.508  35.666  1.00  0.00     0.074 A 
ATOM     52  C   UNL A   1      37.446  33.937  33.617  1.00  0.00     0.029 A 
ATOM     53  N   UNL A   1      39.118  32.481  33.794  1.00  0.00    -0.354 N 
ATOM     54  N   UNL A   1      41.348  31.153  35.167  1.00  0.00    -0.248 NA
ATOM     55  C   UNL A   1      42.830  31.018  36.968  1.00  0.00     0.031 C 
ATOM     56  C   UNL A   1      38.094  34.156  34.836  1.00  0.00     0.029 A 
ATOM     57  C   UNL A   1      39.122  33.234  34.956  1.00  0.00     0.049 A 
ATOM     58  H   UNL A   1      39.746  31.751  33.591  1.00  0.00     0.167 HD
ATOM     59  C   UNL A   1      41.020  32.127  36.102  1.00  0.00     0.074 A 
ATOM     60  C   UNL A   1      41.948  31.979  37.205  1.00  0.00     0.031 C 
ATOM     61  C   UNL A   1      40.042  33.063  36.051  1.00  0.00     0.037 A 
BRANCH  48  62
ATOM     62  C   UNL A   1      36.678  32.972  30.883  1.00  0.00     0.058 A 
ATOM     63  C   UNL A   1      36.941  33.893  29.856  1.00  0.00     0.135 A 
ATOM     64  C   UNL A   1      35.339  32.745  31.235  1.00  0.00     0.135 A 
ATOM     65  F   UNL A   1      38.204  34.140  29.474  1.00  0.00    -0.206 F 
ATOM     66  C   UNL A   1      35.916  34.594  29.229  1.00  0.00     0.059 A 
ATOM     67  C   UNL A   1      34.296  33.418  30.606  1.00  0.00     0.059 A 
ATOM     68  F   UNL A   1      35.033  31.857  32.194  1.00  0.00    -0.206 F 
ATOM     69  C   UNL A   1      34.596  34.358  29.620  1.00  0.00     0.060 A 
BRANCH  69  70
ATOM     70  S   UNL A   1      33.279  35.298  28.819  1.00  0.00     0.124 S 
ATOM     71  O   UNL A   1      32.515  35.780  29.965  1.00  0.00    -0.237 OA
ATOM     72  O   UNL A   1      34.032  36.311  28.084  1.00  0.00    -0.237 OA
ATOM     73  O   UNL A   1      32.609  34.303  27.989  1.00  0.00    -0.744 OA
ENDBRANCH  69  70
ENDBRANCH  48  62
BRANCH  49  74
ATOM     74  C   UNL A   1      44.288  28.749  35.809  1.00  0.00     0.058 A 
ATOM     75  C   UNL A   1      44.113  27.720  36.747  1.00  0.00     0.135 A 
ATOM     76  C   UNL A   1      45.595  29.201  35.574  1.00  0.00     0.135 A 
ATOM     77  F   UNL A   1      42.881  27.258  37.018  1.00  0.00    -0.206 F 
ATOM     78  C   UNL A   1      45.188  27.168  37.434  1.00  0.00     0.059 A 
ATOM     79  C   UNL A   1      46.691  28.647  36.229  1.00  0.00     0.059 A 
ATOM     80  F   UNL A   1      45.814  30.177  34.678  1.00  0.00    -0.206 F 
ATOM     81  C   UNL A   1      46.475  27.638  37.166  1.00  0.00     0.060 A 
BRANCH  81  82
ATOM     82  S   UNL A   1      47.865  26.887  38.043  1.00  0.00     0.124 S 
ATOM     83  O   UNL A   1      48.830  26.710  36.962  1.00  0.00    -0.237 OA
ATOM     84  O   UNL A   1      48.196  27.910  39.028  1.00  0.00    -0.237 OA
ATOM     85  O   UNL A   1      47.296  25.658  38.586  1.00  0.00    -0.744 OA
ENDBRANCH  81  82
ENDBRANCH  49  74
BRANCH  61  86
ATOM     86  C   UNL A   1      39.893  33.988  37.226  1.00  0.00     0.058 A 
ATOM     87  C   UNL A   1      39.017  33.670  38.274  1.00  0.00     0.135 A 
ATOM     88  C   UNL A   1      40.549  35.229  37.268  1.00  0.00     0.135 A 
ATOM     89  F   UNL A   1      38.362  32.498  38.277  1.00  0.00    -0.206 F 
ATOM     90  C   UNL A   1      38.776  34.560  39.315  1.00  0.00     0.059 A 
ATOM     91  C   UNL A   1      40.342  36.125  38.313  1.00  0.00     0.059 A 
ATOM     92  F   UNL A   1      41.405  35.573  36.293  1.00  0.00    -0.206 F 
ATOM     93  C   UNL A   1      39.440  35.788  39.323  1.00  0.00     0.060 A 
BRANCH  93  94
ATOM     94  S   UNL A   1      39.117  36.931  40.681  1.00  0.00     0.124 S 
ATOM     95  O   UNL A   1      38.468  36.061  41.656  1.00  0.00    -0.237 OA
ATOM     96  O   UNL A   1      40.459  37.385  41.029  1.00  0.00    -0.237 OA
ATOM     97  O   UNL A   1      38.259  37.946  40.074  1.00  0.00    -0.744 OA
ENDBRANCH  93  94
ENDBRANCH  61  86
ENDBRANCH  35  36
ENDBRANCH  27  30
ENDBRANCH  25  26
ENDBRANCH  24  25
ENDBRANCH   1  24
TORSDOF 17
ENDMDL
MODEL 3
REMARK VINA RESULT:     -11.1      4.322     12.292
REMARK SMILES O=C(Cc1ccccc1F)NC[C@@H]1CC[C@@H](C(=O)NCCCNC(=O)c2ccc(-c3c4nc(c(-c5c(F)cc(S(=O)(=O)[O-])cc5F)c5ccc([nH]5)c(-c5c(F)cc(S(=O)(=O)[O-])cc5F)c5nc(c(-c6c(F)cc(S(=O)(=O)[O-])cc6F)c6ccc3[nH]6)C=C5)C=C4)cc2)O1
REMARK SMILES IDX 20 1 19 2 17 3 18 4 16 6 13 7 14 8 92 9 15 10 12 11 11 12
REMARK SMILES IDX 1 13 2 14 3 16 4 17 5 18 9 19 6 20 8 21 10 22 7 23 21 24
REMARK SMILES IDX 22 25 23 26 24 27 25 29 26 30 27 31 91 32 28 33 90 34 29 35
REMARK SMILES IDX 30 36 31 37 84 38 32 39 89 40 83 41 85 42 33 43 88 44 82 45
REMARK SMILES IDX 81 46 34 48 68 49 47 50 67 51 48 52 51 53 66 54 86 55 49 56
REMARK SMILES IDX 50 57 65 59 87 60 52 61 35 62 36 63 45 64 37 65 38 66 44 67
REMARK SMILES IDX 46 68 39 69 40 70 41 71 42 72 43 73 69 74 70 75 79 76 71 77
REMARK SMILES IDX 72 78 78 79 80 80 73 81 74 82 75 83 76 84 77 85 53 86 54 87
REMARK SMILES IDX 63 88 55 89 56 90 62 91 64 92 57 93 58 94 59 95 60 96 61 97
REMARK H PARENT 19 5 11 15 23 28 85 47 51 58
REMARK Flexibility Score: inf
ROOT
ATOM      1  C   UNL A   1      42.196  19.690  27.375  1.00  0.00     0.117 C 
ENDROOT
BRANCH   1   2
ATOM      2  N   UNL A   1      43.053  18.907  26.505  1.00  0.00    -0.354 N 
ATOM      3  C   UNL A   1      43.874  19.285  25.486  1.00  0.00     0.249 C 
ATOM      4  O   UNL A   1      44.480  18.388  24.888  1.00  0.00    -0.272 OA
ATOM      5  H   UNL A   1      43.038  17.939  26.680  1.00  0.00     0.163 HD
BRANCH   3   6
ATOM      6  C   UNL A   1      44.140  20.764  25.135  1.00  0.00     0.207 C 
ATOM      7  C   UNL A   1      45.769  22.235  25.910  1.00  0.00     0.138 C 
ATOM      8  C   UNL A   1      45.922  22.172  24.404  1.00  0.00     0.037 C 
ATOM      9  O   UNL A   1      44.473  21.676  26.179  1.00  0.00    -0.363 OA
ATOM     10  C   UNL A   1      45.267  20.844  24.104  1.00  0.00     0.045 C 
BRANCH   7  11
ATOM     11  C   UNL A   1      45.935  23.610  26.559  1.00  0.00     0.147 C 
BRANCH  11  12
ATOM     12  N   UNL A   1      44.849  24.520  26.262  1.00  0.00    -0.353 N 
ATOM     13  O   UNL A   1      45.984  25.788  24.718  1.00  0.00    -0.275 OA
ATOM     14  C   UNL A   1      44.963  25.548  25.351  1.00  0.00     0.224 C 
ATOM     15  H   UNL A   1      43.992  24.399  26.732  1.00  0.00     0.163 HD
BRANCH  14  16
ATOM     16  C   UNL A   1      43.713  26.408  25.224  1.00  0.00     0.138 C 
BRANCH  16  17
ATOM     17  C   UNL A   1      43.746  27.645  26.088  1.00  0.00    -0.003 A 
ATOM     18  C   UNL A   1      44.796  27.858  26.993  1.00  0.00     0.007 A 
ATOM     19  C   UNL A   1      42.748  28.617  25.984  1.00  0.00     0.126 A 
ATOM     20  C   UNL A   1      44.850  29.029  27.752  1.00  0.00     0.001 A 
ATOM     21  C   UNL A   1      42.790  29.782  26.745  1.00  0.00     0.039 A 
ATOM     22  F   UNL A   1      41.738  28.452  25.118  1.00  0.00    -0.207 F 
ATOM     23  C   UNL A   1      43.848  29.991  27.628  1.00  0.00     0.003 A 
ENDBRANCH  16  17
ENDBRANCH  14  16
ENDBRANCH  11  12
ENDBRANCH   7  11
ENDBRANCH   3   6
ENDBRANCH   1   2
BRANCH   1  24
ATOM     24  C   UNL A   1      40.878  20.072  26.712  1.00  0.00     0.042 C 
BRANCH  24  25
ATOM     25  C   UNL A   1      40.727  21.576  26.496  1.00  0.00     0.118 C 
BRANCH  25  26
ATOM     26  N   UNL A   1      39.508  21.910  25.764  1.00  0.00    -0.352 N 
ATOM     27  C   UNL A   1      38.679  22.996  25.864  1.00  0.00     0.251 C 
ATOM     28  H   UNL A   1      39.238  21.247  25.089  1.00  0.00     0.163 HD
ATOM     29  O   UNL A   1      37.579  22.963  25.307  1.00  0.00    -0.269 OA
BRANCH  27  30
ATOM     30  C   UNL A   1      39.083  24.193  26.628  1.00  0.00     0.039 A 
ATOM     31  C   UNL A   1      38.580  24.375  27.920  1.00  0.00     0.014 A 
ATOM     32  C   UNL A   1      39.920  25.160  26.063  1.00  0.00     0.014 A 
ATOM     33  C   UNL A   1      38.966  25.491  28.665  1.00  0.00     0.010 A 
ATOM     34  C   UNL A   1      40.361  26.233  26.832  1.00  0.00     0.010 A 
ATOM     35  C   UNL A   1      39.887  26.413  28.140  1.00  0.00    -0.014 A 
BRANCH  35  36
ATOM     36  C   UNL A   1      40.373  27.563  28.942  1.00  0.00     0.031 A 
ATOM     37  C   UNL A   1      41.705  27.487  29.641  1.00  0.00     0.074 A 
ATOM     38  C   UNL A   1      39.585  28.646  29.096  1.00  0.00     0.049 A 
ATOM     39  N   UNL A   1      42.249  28.341  30.468  1.00  0.00    -0.248 NA
ATOM     40  C   UNL A   1      42.521  26.285  29.401  1.00  0.00     0.031 C 
ATOM     41  C   UNL A   1      38.255  28.814  28.505  1.00  0.00     0.029 A 
ATOM     42  N   UNL A   1      39.778  29.804  29.807  1.00  0.00    -0.354 N 
ATOM     43  C   UNL A   1      43.457  27.776  30.858  1.00  0.00     0.074 A 
ATOM     44  C   UNL A   1      43.551  26.487  30.210  1.00  0.00     0.031 C 
ATOM     45  C   UNL A   1      37.759  30.010  28.864  1.00  0.00     0.029 A 
ATOM     46  C   UNL A   1      38.715  30.677  29.743  1.00  0.00     0.049 A 
ATOM     47  H   UNL A   1      40.599  29.992  30.316  1.00  0.00     0.167 HD
ATOM     48  C   UNL A   1      44.410  28.298  31.664  1.00  0.00     0.037 A 
ATOM     49  C   UNL A   1      38.525  31.871  30.336  1.00  0.00     0.037 A 
ATOM     50  C   UNL A   1      44.331  29.603  32.269  1.00  0.00     0.049 A 
ATOM     51  C   UNL A   1      39.607  32.430  31.220  1.00  0.00     0.074 A 
ATOM     52  C   UNL A   1      45.277  30.244  33.049  1.00  0.00     0.029 A 
ATOM     53  N   UNL A   1      43.253  30.467  32.154  1.00  0.00    -0.354 N 
ATOM     54  N   UNL A   1      40.766  31.902  31.535  1.00  0.00    -0.248 NA
ATOM     55  C   UNL A   1      39.361  33.744  31.829  1.00  0.00     0.031 C 
ATOM     56  C   UNL A   1      44.756  31.481  33.439  1.00  0.00     0.029 A 
ATOM     57  C   UNL A   1      43.504  31.629  32.863  1.00  0.00     0.049 A 
ATOM     58  H   UNL A   1      42.431  30.281  31.645  1.00  0.00     0.167 HD
ATOM     59  C   UNL A   1      41.394  32.829  32.359  1.00  0.00     0.074 A 
ATOM     60  C   UNL A   1      40.495  33.957  32.482  1.00  0.00     0.031 C 
ATOM     61  C   UNL A   1      42.605  32.751  32.962  1.00  0.00     0.037 A 
BRANCH  48  62
ATOM     62  C   UNL A   1      45.649  27.488  31.926  1.00  0.00     0.058 A 
ATOM     63  C   UNL A   1      45.668  26.524  32.946  1.00  0.00     0.135 A 
ATOM     64  C   UNL A   1      46.850  27.752  31.249  1.00  0.00     0.135 A 
ATOM     65  F   UNL A   1      44.544  26.225  33.618  1.00  0.00    -0.206 F 
ATOM     66  C   UNL A   1      46.843  25.875  33.311  1.00  0.00     0.059 A 
ATOM     67  C   UNL A   1      48.032  27.099  31.582  1.00  0.00     0.059 A 
ATOM     68  F   UNL A   1      46.879  28.648  30.251  1.00  0.00    -0.206 F 
ATOM     69  C   UNL A   1      48.023  26.179  32.630  1.00  0.00     0.060 A 
BRANCH  69  70
ATOM     70  S   UNL A   1      49.547  25.352  33.136  1.00  0.00     0.124 S 
ATOM     71  O   UNL A   1      49.087  24.531  34.251  1.00  0.00    -0.237 OA
ATOM     72  O   UNL A   1      49.918  24.629  31.923  1.00  0.00    -0.237 OA
ATOM     73  O   UNL A   1      50.430  26.458  33.492  1.00  0.00    -0.744 OA
ENDBRANCH  69  70
ENDBRANCH  48  62
BRANCH  49  74
ATOM     74  C   UNL A   1      37.264  32.625  30.107  1.00  0.00     0.058 A 
ATOM     75  C   UNL A   1      36.119  32.384  30.882  1.00  0.00     0.135 A 
ATOM     76  C   UNL A   1      37.179  33.604  29.106  1.00  0.00     0.135 A 
ATOM     77  F   UNL A   1      36.143  31.450  31.847  1.00  0.00    -0.206 F 
ATOM     78  C   UNL A   1      34.933  33.077  30.667  1.00  0.00     0.059 A 
ATOM     79  C   UNL A   1      36.011  34.331  28.888  1.00  0.00     0.059 A 
ATOM     80  F   UNL A   1      38.250  33.878  28.345  1.00  0.00    -0.206 F 
ATOM     81  C   UNL A   1      34.890  34.051  29.667  1.00  0.00     0.060 A 
BRANCH  81  82
ATOM     82  S   UNL A   1      33.351  34.965  29.423  1.00  0.00     0.124 S 
ATOM     83  O   UNL A   1      33.850  36.258  28.965  1.00  0.00    -0.237 OA
ATOM     84  O   UNL A   1      32.668  34.156  28.420  1.00  0.00    -0.237 OA
ATOM     85  O   UNL A   1      32.742  34.960  30.750  1.00  0.00    -0.744 OA
ENDBRANCH  81  82
ENDBRANCH  49  74
BRANCH  61  86
ATOM     86  C   UNL A   1      43.053  33.921  33.790  1.00  0.00     0.058 A 
ATOM     87  C   UNL A   1      43.744  34.989  33.196  1.00  0.00     0.135 A 
ATOM     88  C   UNL A   1      42.880  33.943  35.183  1.00  0.00     0.135 A 
ATOM     89  F   UNL A   1      43.940  35.012  31.868  1.00  0.00    -0.206 F 
ATOM     90  C   UNL A   1      44.268  36.028  33.957  1.00  0.00     0.059 A 
ATOM     91  C   UNL A   1      43.374  34.985  35.961  1.00  0.00     0.059 A 
ATOM     92  F   UNL A   1      42.217  32.949  35.795  1.00  0.00    -0.206 F 
ATOM     93  C   UNL A   1      44.083  36.014  35.340  1.00  0.00     0.060 A 
BRANCH  93  94
ATOM     94  S   UNL A   1      44.769  37.371  36.312  1.00  0.00     0.124 S 
ATOM     95  O   UNL A   1      45.265  38.264  35.271  1.00  0.00    -0.237 OA
ATOM     96  O   UNL A   1      43.602  37.843  37.051  1.00  0.00    -0.237 OA
ATOM     97  O   UNL A   1      45.794  36.722  37.125  1.00  0.00    -0.744 OA
ENDBRANCH  93  94
ENDBRANCH  61  86
ENDBRANCH  35  36
ENDBRANCH  27  30
ENDBRANCH  25  26
ENDBRANCH  24  25
ENDBRANCH   1  24
TORSDOF 17
ENDMDL
