MODEL 1
REMARK VINA RESULT:     -11.2      0.000      0.000
REMARK SMILES CC[C@@](C)(NS(=O)(=O)c1ccc(F)c(F)c1)C(=O)NCCCNC(=O)c1ccc(-c2c3nc(c(-c4c(F)cc(S(=O)(=O)[O-])cc4F)c4ccc([nH]4)c(-c4c(F)cc(S(=O)(=O)[O-])cc4F)c4nc(c(-c5c(F)cc(S(=O)(=O)[O-])cc5F)c5ccc2[nH]5)C=C4)C=C3)cc1
REMARK SMILES IDX 21 1 20 2 19 3 17 4 18 5 3 7 4 8 2 9 1 10 5 11 6 13 7 14
REMARK SMILES IDX 8 15 9 16 10 17 16 18 11 19 14 20 12 21 15 22 13 23 22 24
REMARK SMILES IDX 23 25 24 26 25 28 26 29 27 30 91 31 28 32 90 33 29 34 30 35
REMARK SMILES IDX 31 36 84 37 32 38 89 39 83 40 85 41 33 42 88 43 82 44 81 45
REMARK SMILES IDX 34 47 68 48 47 49 67 50 48 51 51 52 66 53 86 54 49 55 50 56
REMARK SMILES IDX 65 58 87 59 52 60 35 61 36 62 45 63 37 64 38 65 44 66 46 67
REMARK SMILES IDX 39 68 40 69 41 70 42 71 43 72 69 73 70 74 79 75 71 76 72 77
REMARK SMILES IDX 78 78 80 79 73 80 74 81 75 82 76 83 77 84 53 85 54 86 63 87
REMARK SMILES IDX 55 88 56 89 62 90 64 91 57 92 58 93 59 94 60 95 61 96
REMARK H PARENT 19 6 5 12 23 27 85 46 51 57
REMARK Flexibility Score: inf
ROOT
ATOM      1  C   UNL A   1      37.904  23.295  25.760  1.00  0.00     0.042 C 
ENDROOT
BRANCH   1   2
ATOM      2  C   UNL A   1      36.448  23.792  25.539  1.00  0.00     0.117 C 
BRANCH   2   3
ATOM      3  N   UNL A   1      35.761  23.713  24.246  1.00  0.00    -0.354 N 
ATOM      4  C   UNL A   1      34.551  24.083  23.715  1.00  0.00     0.241 C 
ATOM      5  O   UNL A   1      34.533  24.094  22.474  1.00  0.00    -0.273 OA
ATOM      6  H   UNL A   1      36.326  23.271  23.570  1.00  0.00     0.163 HD
BRANCH   4   7
ATOM      7  C   UNL A   1      33.230  24.370  24.486  1.00  0.00     0.108 C 
ATOM      8  C   UNL A   1      31.990  24.160  23.612  1.00  0.00     0.040 C 
BRANCH   7   9
ATOM      9  C   UNL A   1      33.065  23.422  25.752  1.00  0.00     0.030 C 
ATOM     10  C   UNL A   1      32.936  21.915  25.568  1.00  0.00     0.006 C 
ENDBRANCH   7   9
BRANCH   7  11
ATOM     11  N   UNL A   1      33.149  25.700  25.135  1.00  0.00    -0.196 NA
ATOM     12  H   UNL A   1      34.104  25.879  25.446  1.00  0.00     0.142 HD
BRANCH  11  13
ATOM     13  S   UNL A   1      32.642  27.163  24.543  1.00  0.00     0.241 S 
ATOM     14  O   UNL A   1      33.314  27.360  23.279  1.00  0.00    -0.207 OA
ATOM     15  O   UNL A   1      31.201  27.085  24.594  1.00  0.00    -0.207 OA
BRANCH  13  16
ATOM     16  C   UNL A   1      33.131  28.470  25.641  1.00  0.00     0.085 A 
ATOM     17  C   UNL A   1      34.202  28.349  26.521  1.00  0.00     0.025 A 
ATOM     18  C   UNL A   1      32.298  29.584  25.747  1.00  0.00     0.064 A 
ATOM     19  C   UNL A   1      34.457  29.381  27.441  1.00  0.00     0.044 A 
ATOM     20  C   UNL A   1      32.570  30.620  26.621  1.00  0.00     0.160 A 
ATOM     21  C   UNL A   1      33.648  30.519  27.474  1.00  0.00     0.158 A 
ATOM     22  F   UNL A   1      31.774  31.699  26.625  1.00  0.00    -0.204 F 
ATOM     23  F   UNL A   1      33.908  31.503  28.346  1.00  0.00    -0.204 F 
ENDBRANCH  13  16
ENDBRANCH  11  13
ENDBRANCH   7  11
ENDBRANCH   4   7
ENDBRANCH   2   3
ENDBRANCH   1   2
BRANCH   1  24
ATOM     24  C   UNL A   1      38.990  23.979  26.612  1.00  0.00     0.118 C 
BRANCH  24  25
ATOM     25  N   UNL A   1      40.279  24.187  25.991  1.00  0.00    -0.352 N 
ATOM     26  C   UNL A   1      41.205  25.160  26.320  1.00  0.00     0.251 C 
ATOM     27  H   UNL A   1      40.521  23.575  25.259  1.00  0.00     0.163 HD
ATOM     28  O   UNL A   1      42.197  25.325  25.616  1.00  0.00    -0.269 OA
BRANCH  26  29
ATOM     29  C   UNL A   1      40.983  26.046  27.491  1.00  0.00     0.039 A 
ATOM     30  C   UNL A   1      41.829  27.141  27.682  1.00  0.00     0.014 A 
ATOM     31  C   UNL A   1      39.996  25.761  28.440  1.00  0.00     0.014 A 
ATOM     32  C   UNL A   1      41.662  27.972  28.798  1.00  0.00     0.010 A 
ATOM     33  C   UNL A   1      39.812  26.612  29.543  1.00  0.00     0.010 A 
ATOM     34  C   UNL A   1      40.642  27.729  29.736  1.00  0.00    -0.014 A 
BRANCH  34  35
ATOM     35  C   UNL A   1      40.453  28.661  30.889  1.00  0.00     0.031 A 
ATOM     36  C   UNL A   1      41.304  28.550  32.131  1.00  0.00     0.074 A 
ATOM     37  C   UNL A   1      39.519  29.632  30.813  1.00  0.00     0.049 A 
ATOM     38  N   UNL A   1      41.328  29.324  33.189  1.00  0.00    -0.248 NA
ATOM     39  C   UNL A   1      42.239  27.418  32.198  1.00  0.00     0.031 C 
ATOM     40  C   UNL A   1      38.603  29.826  29.686  1.00  0.00     0.029 A 
ATOM     41  N   UNL A   1      39.187  30.642  31.683  1.00  0.00    -0.354 N 
ATOM     42  C   UNL A   1      42.283  28.778  34.042  1.00  0.00     0.074 A 
ATOM     43  C   UNL A   1      42.777  27.578  33.401  1.00  0.00     0.031 C 
ATOM     44  C   UNL A   1      37.839  30.905  29.920  1.00  0.00     0.029 A 
ATOM     45  C   UNL A   1      38.185  31.466  31.223  1.00  0.00     0.049 A 
ATOM     46  H   UNL A   1      39.625  30.765  32.557  1.00  0.00     0.167 HD
ATOM     47  C   UNL A   1      42.724  29.244  35.238  1.00  0.00     0.037 A 
ATOM     48  C   UNL A   1      37.609  32.552  31.779  1.00  0.00     0.037 A 
ATOM     49  C   UNL A   1      42.227  30.441  35.875  1.00  0.00     0.049 A 
ATOM     50  C   UNL A   1      38.105  33.042  33.115  1.00  0.00     0.074 A 
ATOM     51  C   UNL A   1      42.635  31.017  37.066  1.00  0.00     0.029 A 
ATOM     52  N   UNL A   1      41.204  31.240  35.380  1.00  0.00    -0.354 N 
ATOM     53  N   UNL A   1      39.059  32.553  33.871  1.00  0.00    -0.248 NA
ATOM     54  C   UNL A   1      37.454  34.238  33.667  1.00  0.00     0.031 C 
ATOM     55  C   UNL A   1      41.824  32.129  37.319  1.00  0.00     0.029 A 
ATOM     56  C   UNL A   1      40.953  32.286  36.254  1.00  0.00     0.049 A 
ATOM     57  H   UNL A   1      40.728  31.085  34.532  1.00  0.00     0.167 HD
ATOM     58  C   UNL A   1      39.143  33.398  34.974  1.00  0.00     0.074 A 
ATOM     59  C   UNL A   1      38.154  34.437  34.776  1.00  0.00     0.031 C 
ATOM     60  C   UNL A   1      39.965  33.319  36.049  1.00  0.00     0.037 A 
BRANCH  47  61
ATOM     61  C   UNL A   1      43.798  28.457  35.948  1.00  0.00     0.058 A 
ATOM     62  C   UNL A   1      43.487  27.409  36.828  1.00  0.00     0.135 A 
ATOM     63  C   UNL A   1      45.157  28.724  35.710  1.00  0.00     0.135 A 
ATOM     64  F   UNL A   1      42.207  27.111  37.100  1.00  0.00    -0.206 F 
ATOM     65  C   UNL A   1      44.481  26.677  37.474  1.00  0.00     0.059 A 
ATOM     66  C   UNL A   1      46.168  27.985  36.321  1.00  0.00     0.059 A 
ATOM     67  F   UNL A   1      45.518  29.710  34.873  1.00  0.00    -0.206 F 
ATOM     68  C   UNL A   1      45.820  26.974  37.215  1.00  0.00     0.060 A 
BRANCH  68  69
ATOM     69  S   UNL A   1      47.095  26.014  38.059  1.00  0.00     0.124 S 
ATOM     70  O   UNL A   1      48.015  27.063  38.487  1.00  0.00    -0.237 OA
ATOM     71  O   UNL A   1      46.339  25.361  39.124  1.00  0.00    -0.237 OA
ATOM     72  O   UNL A   1      47.599  25.125  37.017  1.00  0.00    -0.744 OA
ENDBRANCH  68  69
ENDBRANCH  47  61
BRANCH  48  73
ATOM     73  C   UNL A   1      36.513  33.264  31.064  1.00  0.00     0.058 A 
ATOM     74  C   UNL A   1      35.181  33.179  31.497  1.00  0.00     0.135 A 
ATOM     75  C   UNL A   1      36.777  34.052  29.931  1.00  0.00     0.135 A 
ATOM     76  F   UNL A   1      34.871  32.431  32.568  1.00  0.00    -0.206 F 
ATOM     77  C   UNL A   1      34.149  33.831  30.828  1.00  0.00     0.059 A 
ATOM     78  C   UNL A   1      35.768  34.738  29.262  1.00  0.00     0.059 A 
ATOM     79  F   UNL A   1      38.034  34.179  29.480  1.00  0.00    -0.206 F 
ATOM     80  C   UNL A   1      34.454  34.613  29.713  1.00  0.00     0.060 A 
BRANCH  80  81
ATOM     81  S   UNL A   1      33.116  35.495  28.879  1.00  0.00     0.124 S 
ATOM     82  O   UNL A   1      32.492  34.425  28.109  1.00  0.00    -0.237 OA
ATOM     83  O   UNL A   1      32.341  36.008  30.006  1.00  0.00    -0.237 OA
ATOM     84  O   UNL A   1      33.817  36.509  28.097  1.00  0.00    -0.744 OA
ENDBRANCH  80  81
ENDBRANCH  48  73
BRANCH  60  85
ATOM     85  C   UNL A   1      39.858  34.409  37.084  1.00  0.00     0.058 A 
ATOM     86  C   UNL A   1      40.521  35.638  36.942  1.00  0.00     0.135 A 
ATOM     87  C   UNL A   1      39.049  34.231  38.220  1.00  0.00     0.135 A 
ATOM     88  F   UNL A   1      41.311  35.860  35.879  1.00  0.00    -0.206 F 
ATOM     89  C   UNL A   1      40.416  36.639  37.903  1.00  0.00     0.059 A 
ATOM     90  C   UNL A   1      38.902  35.230  39.178  1.00  0.00     0.059 A 
ATOM     91  F   UNL A   1      38.382  33.081  38.403  1.00  0.00    -0.206 F 
ATOM     92  C   UNL A   1      39.603  36.425  39.019  1.00  0.00     0.060 A 
BRANCH  92  93
ATOM     93  S   UNL A   1      39.462  37.737  40.251  1.00  0.00     0.124 S 
ATOM     94  O   UNL A   1      38.478  38.618  39.631  1.00  0.00    -0.237 OA
ATOM     95  O   UNL A   1      39.009  37.010  41.432  1.00  0.00    -0.237 OA
ATOM     96  O   UNL A   1      40.818  38.273  40.333  1.00  0.00    -0.744 OA
ENDBRANCH  92  93
ENDBRANCH  60  85
ENDBRANCH  34  35
ENDBRANCH  26  29
ENDBRANCH  24  25
ENDBRANCH   1  24
TORSDOF 17
ENDMDL
MODEL 2
REMARK VINA RESULT:     -10.9      5.256      6.807
REMARK SMILES CC[C@@](C)(NS(=O)(=O)c1ccc(F)c(F)c1)C(=O)NCCCNC(=O)c1ccc(-c2c3nc(c(-c4c(F)cc(S(=O)(=O)[O-])cc4F)c4ccc([nH]4)c(-c4c(F)cc(S(=O)(=O)[O-])cc4F)c4nc(c(-c5c(F)cc(S(=O)(=O)[O-])cc5F)c5ccc2[nH]5)C=C4)C=C3)cc1
REMARK SMILES IDX 21 1 20 2 19 3 17 4 18 5 3 7 4 8 2 9 1 10 5 11 6 13 7 14
REMARK SMILES IDX 8 15 9 16 10 17 16 18 11 19 14 20 12 21 15 22 13 23 22 24
REMARK SMILES IDX 23 25 24 26 25 28 26 29 27 30 91 31 28 32 90 33 29 34 30 35
REMARK SMILES IDX 31 36 84 37 32 38 89 39 83 40 85 41 33 42 88 43 82 44 81 45
REMARK SMILES IDX 34 47 68 48 47 49 67 50 48 51 51 52 66 53 86 54 49 55 50 56
REMARK SMILES IDX 65 58 87 59 52 60 35 61 36 62 45 63 37 64 38 65 44 66 46 67
REMARK SMILES IDX 39 68 40 69 41 70 42 71 43 72 69 73 70 74 79 75 71 76 72 77
REMARK SMILES IDX 78 78 80 79 73 80 74 81 75 82 76 83 77 84 53 85 54 86 63 87
REMARK SMILES IDX 55 88 56 89 62 90 64 91 57 92 58 93 59 94 60 95 61 96
REMARK H PARENT 19 6 5 12 23 27 85 46 51 57
REMARK Flexibility Score: inf
ROOT
ATOM      1  C   UNL A   1      34.853  23.539  26.491  1.00  0.00     0.042 C 
ENDROOT
BRANCH   1   2
ATOM      2  C   UNL A   1      33.583  24.340  26.086  1.00  0.00     0.117 C 
BRANCH   2   3
ATOM      3  N   UNL A   1      33.595  25.407  25.081  1.00  0.00    -0.354 N 
ATOM      4  C   UNL A   1      32.852  26.518  24.773  1.00  0.00     0.241 C 
ATOM      5  O   UNL A   1      33.431  27.310  24.011  1.00  0.00    -0.273 OA
ATOM      6  H   UNL A   1      34.344  25.294  24.452  1.00  0.00     0.163 HD
BRANCH   4   7
ATOM      7  C   UNL A   1      31.380  26.813  25.180  1.00  0.00     0.108 C 
ATOM      8  C   UNL A   1      30.483  25.577  25.050  1.00  0.00     0.040 C 
BRANCH   7   9
ATOM      9  C   UNL A   1      31.269  27.305  26.688  1.00  0.00     0.030 C 
ATOM     10  C   UNL A   1      31.735  28.703  27.072  1.00  0.00     0.006 C 
ENDBRANCH   7   9
BRANCH   7  11
ATOM     11  N   UNL A   1      30.743  27.953  24.479  1.00  0.00    -0.196 NA
ATOM     12  H   UNL A   1      31.526  28.556  24.230  1.00  0.00     0.142 HD
BRANCH  11  13
ATOM     13  S   UNL A   1      29.770  27.990  23.138  1.00  0.00     0.241 S 
ATOM     14  O   UNL A   1      30.554  27.480  22.036  1.00  0.00    -0.207 OA
ATOM     15  O   UNL A   1      28.569  27.303  23.551  1.00  0.00    -0.207 OA
BRANCH  13  16
ATOM     16  C   UNL A   1      29.308  29.663  22.762  1.00  0.00     0.085 A 
ATOM     17  C   UNL A   1      29.399  30.693  23.694  1.00  0.00     0.025 A 
ATOM     18  C   UNL A   1      28.664  29.910  21.550  1.00  0.00     0.064 A 
ATOM     19  C   UNL A   1      28.905  31.967  23.362  1.00  0.00     0.044 A 
ATOM     20  C   UNL A   1      28.216  31.171  21.203  1.00  0.00     0.160 A 
ATOM     21  C   UNL A   1      28.331  32.202  22.110  1.00  0.00     0.158 A 
ATOM     22  F   UNL A   1      27.671  31.362  19.993  1.00  0.00    -0.204 F 
ATOM     23  F   UNL A   1      27.876  33.423  21.800  1.00  0.00    -0.204 F 
ENDBRANCH  13  16
ENDBRANCH  11  13
ENDBRANCH   7  11
ENDBRANCH   4   7
ENDBRANCH   2   3
ENDBRANCH   1   2
BRANCH   1  24
ATOM     24  C   UNL A   1      36.293  23.790  26.003  1.00  0.00     0.118 C 
BRANCH  24  25
ATOM     25  N   UNL A   1      37.179  22.649  25.955  1.00  0.00    -0.352 N 
ATOM     26  C   UNL A   1      38.540  22.651  26.197  1.00  0.00     0.251 C 
ATOM     27  H   UNL A   1      36.771  21.782  25.725  1.00  0.00     0.163 HD
ATOM     28  O   UNL A   1      39.203  21.641  25.976  1.00  0.00    -0.269 OA
BRANCH  26  29
ATOM     29  C   UNL A   1      39.218  23.883  26.674  1.00  0.00     0.039 A 
ATOM     30  C   UNL A   1      39.226  24.165  28.043  1.00  0.00     0.014 A 
ATOM     31  C   UNL A   1      39.780  24.796  25.777  1.00  0.00     0.014 A 
ATOM     32  C   UNL A   1      39.828  25.339  28.515  1.00  0.00     0.010 A 
ATOM     33  C   UNL A   1      40.410  25.958  26.255  1.00  0.00     0.010 A 
ATOM     34  C   UNL A   1      40.444  26.244  27.630  1.00  0.00    -0.014 A 
BRANCH  34  35
ATOM     35  C   UNL A   1      41.124  27.462  28.165  1.00  0.00     0.031 A 
ATOM     36  C   UNL A   1      42.623  27.622  28.077  1.00  0.00     0.074 A 
ATOM     37  C   UNL A   1      40.386  28.446  28.719  1.00  0.00     0.049 A 
ATOM     38  N   UNL A   1      43.366  28.647  28.417  1.00  0.00    -0.248 NA
ATOM     39  C   UNL A   1      43.384  26.481  27.550  1.00  0.00     0.031 C 
ATOM     40  C   UNL A   1      38.933  28.402  28.902  1.00  0.00     0.029 A 
ATOM     41  N   UNL A   1      40.742  29.675  29.221  1.00  0.00    -0.354 N 
ATOM     42  C   UNL A   1      44.679  28.278  28.139  1.00  0.00     0.074 A 
ATOM     43  C   UNL A   1      44.634  26.916  27.653  1.00  0.00     0.031 C 
ATOM     44  C   UNL A   1      38.521  29.559  29.442  1.00  0.00     0.029 A 
ATOM     45  C   UNL A   1      39.677  30.421  29.674  1.00  0.00     0.049 A 
ATOM     46  H   UNL A   1      41.673  29.993  29.254  1.00  0.00     0.167 HD
ATOM     47  C   UNL A   1      45.814  29.012  28.258  1.00  0.00     0.037 A 
ATOM     48  C   UNL A   1      39.630  31.656  30.212  1.00  0.00     0.037 A 
ATOM     49  C   UNL A   1      45.855  30.370  28.747  1.00  0.00     0.049 A 
ATOM     50  C   UNL A   1      40.906  32.446  30.349  1.00  0.00     0.074 A 
ATOM     51  C   UNL A   1      46.949  31.211  28.868  1.00  0.00     0.029 A 
ATOM     52  N   UNL A   1      44.755  31.083  29.206  1.00  0.00    -0.354 N 
ATOM     53  N   UNL A   1      42.127  32.106  30.012  1.00  0.00    -0.248 NA
ATOM     54  C   UNL A   1      40.795  33.793  30.926  1.00  0.00     0.031 C 
ATOM     55  C   UNL A   1      46.521  32.408  29.451  1.00  0.00     0.029 A 
ATOM     56  C   UNL A   1      45.150  32.341  29.634  1.00  0.00     0.049 A 
ATOM     57  H   UNL A   1      43.831  30.744  29.224  1.00  0.00     0.167 HD
ATOM     58  C   UNL A   1      42.926  33.206  30.309  1.00  0.00     0.074 A 
ATOM     59  C   UNL A   1      42.045  34.228  30.836  1.00  0.00     0.031 C 
ATOM     60  C   UNL A   1      44.265  33.354  30.157  1.00  0.00     0.037 A 
BRANCH  47  61
ATOM     61  C   UNL A   1      47.117  28.363  27.858  1.00  0.00     0.058 A 
ATOM     62  C   UNL A   1      47.646  28.505  26.565  1.00  0.00     0.135 A 
ATOM     63  C   UNL A   1      47.868  27.629  28.791  1.00  0.00     0.135 A 
ATOM     64  F   UNL A   1      46.972  29.189  25.629  1.00  0.00    -0.206 F 
ATOM     65  C   UNL A   1      48.854  27.913  26.202  1.00  0.00     0.059 A 
ATOM     66  C   UNL A   1      49.093  27.054  28.458  1.00  0.00     0.059 A 
ATOM     67  F   UNL A   1      47.417  27.464  30.045  1.00  0.00    -0.206 F 
ATOM     68  C   UNL A   1      49.570  27.189  27.156  1.00  0.00     0.060 A 
BRANCH  68  69
ATOM     69  S   UNL A   1      51.135  26.431  26.667  1.00  0.00     0.124 S 
ATOM     70  O   UNL A   1      51.030  25.116  27.292  1.00  0.00    -0.237 OA
ATOM     71  O   UNL A   1      51.047  26.447  25.209  1.00  0.00    -0.237 OA
ATOM     72  O   UNL A   1      52.139  27.319  27.241  1.00  0.00    -0.744 OA
ENDBRANCH  68  69
ENDBRANCH  47  61
BRANCH  48  73
ATOM     73  C   UNL A   1      38.325  32.234  30.644  1.00  0.00     0.058 A 
ATOM     74  C   UNL A   1      37.862  32.091  31.961  1.00  0.00     0.135 A 
ATOM     75  C   UNL A   1      37.515  32.947  29.745  1.00  0.00     0.135 A 
ATOM     76  F   UNL A   1      38.592  31.409  32.858  1.00  0.00    -0.206 F 
ATOM     77  C   UNL A   1      36.639  32.616  32.368  1.00  0.00     0.059 A 
ATOM     78  C   UNL A   1      36.303  33.508  30.136  1.00  0.00     0.059 A 
ATOM     79  F   UNL A   1      37.914  33.125  28.476  1.00  0.00    -0.206 F 
ATOM     80  C   UNL A   1      35.868  33.328  31.448  1.00  0.00     0.060 A 
BRANCH  80  81
ATOM     81  S   UNL A   1      34.305  34.049  31.999  1.00  0.00     0.124 S 
ATOM     82  O   UNL A   1      33.655  32.901  32.622  1.00  0.00    -0.237 OA
ATOM     83  O   UNL A   1      34.757  35.099  32.906  1.00  0.00    -0.237 OA
ATOM     84  O   UNL A   1      33.697  34.521  30.758  1.00  0.00    -0.744 OA
ENDBRANCH  80  81
ENDBRANCH  48  73
BRANCH  60  85
ATOM     85  C   UNL A   1      44.861  34.687  30.533  1.00  0.00     0.058 A 
ATOM     86  C   UNL A   1      45.354  34.944  31.822  1.00  0.00     0.135 A 
ATOM     87  C   UNL A   1      44.972  35.710  29.575  1.00  0.00     0.135 A 
ATOM     88  F   UNL A   1      45.270  34.005  32.778  1.00  0.00    -0.206 F 
ATOM     89  C   UNL A   1      45.903  36.178  32.160  1.00  0.00     0.059 A 
ATOM     90  C   UNL A   1      45.547  36.940  29.881  1.00  0.00     0.059 A 
ATOM     91  F   UNL A   1      44.528  35.517  28.324  1.00  0.00    -0.206 F 
ATOM     92  C   UNL A   1      45.994  37.170  31.181  1.00  0.00     0.060 A 
BRANCH  92  93
ATOM     93  S   UNL A   1      46.723  38.761  31.628  1.00  0.00     0.124 S 
ATOM     94  O   UNL A   1      46.357  39.586  30.481  1.00  0.00    -0.237 OA
ATOM     95  O   UNL A   1      46.041  39.075  32.880  1.00  0.00    -0.237 OA
ATOM     96  O   UNL A   1      48.146  38.460  31.754  1.00  0.00    -0.744 OA
ENDBRANCH  92  93
ENDBRANCH  60  85
ENDBRANCH  34  35
ENDBRANCH  26  29
ENDBRANCH  24  25
ENDBRANCH   1  24
TORSDOF 17
ENDMDL
MODEL 3
REMARK VINA RESULT:     -10.9      2.497      8.913
REMARK SMILES CC[C@@](C)(NS(=O)(=O)c1ccc(F)c(F)c1)C(=O)NCCCNC(=O)c1ccc(-c2c3nc(c(-c4c(F)cc(S(=O)(=O)[O-])cc4F)c4ccc([nH]4)c(-c4c(F)cc(S(=O)(=O)[O-])cc4F)c4nc(c(-c5c(F)cc(S(=O)(=O)[O-])cc5F)c5ccc2[nH]5)C=C4)C=C3)cc1
REMARK SMILES IDX 21 1 20 2 19 3 17 4 18 5 3 7 4 8 2 9 1 10 5 11 6 13 7 14
REMARK SMILES IDX 8 15 9 16 10 17 16 18 11 19 14 20 12 21 15 22 13 23 22 24
REMARK SMILES IDX 23 25 24 26 25 28 26 29 27 30 91 31 28 32 90 33 29 34 30 35
REMARK SMILES IDX 31 36 84 37 32 38 89 39 83 40 85 41 33 42 88 43 82 44 81 45
REMARK SMILES IDX 34 47 68 48 47 49 67 50 48 51 51 52 66 53 86 54 49 55 50 56
REMARK SMILES IDX 65 58 87 59 52 60 35 61 36 62 45 63 37 64 38 65 44 66 46 67
REMARK SMILES IDX 39 68 40 69 41 70 42 71 43 72 69 73 70 74 79 75 71 76 72 77
REMARK SMILES IDX 78 78 80 79 73 80 74 81 75 82 76 83 77 84 53 85 54 86 63 87
REMARK SMILES IDX 55 88 56 89 62 90 64 91 57 92 58 93 59 94 60 95 61 96
REMARK H PARENT 19 6 5 12 23 27 85 46 51 57
REMARK Flexibility Score: inf
ROOT
ATOM      1  C   UNL A   1      31.790  31.842  26.758  1.00  0.00     0.042 C 
ENDROOT
BRANCH   1   2
ATOM      2  C   UNL A   1      31.894  30.418  26.142  1.00  0.00     0.117 C 
BRANCH   2   3
ATOM      3  N   UNL A   1      31.239  30.038  24.887  1.00  0.00    -0.354 N 
ATOM      4  C   UNL A   1      31.055  28.901  24.142  1.00  0.00     0.241 C 
ATOM      5  O   UNL A   1      30.152  28.998  23.296  1.00  0.00    -0.273 OA
ATOM      6  H   UNL A   1      30.812  30.816  24.459  1.00  0.00     0.163 HD
BRANCH   4   7
ATOM      7  C   UNL A   1      31.907  27.599  24.182  1.00  0.00     0.108 C 
ATOM      8  C   UNL A   1      31.751  26.764  22.906  1.00  0.00     0.040 C 
BRANCH   7   9
ATOM      9  C   UNL A   1      33.458  27.909  24.341  1.00  0.00     0.030 C 
ATOM     10  C   UNL A   1      34.090  27.955  25.726  1.00  0.00     0.006 C 
ENDBRANCH   7   9
BRANCH   7  11
ATOM     11  N   UNL A   1      31.685  26.730  25.362  1.00  0.00    -0.196 NA
ATOM     12  H   UNL A   1      30.745  26.975  25.673  1.00  0.00     0.142 HD
BRANCH  11  13
ATOM     13  S   UNL A   1      31.738  25.081  25.517  1.00  0.00     0.241 S 
ATOM     14  O   UNL A   1      31.855  24.795  26.929  1.00  0.00    -0.207 OA
ATOM     15  O   UNL A   1      30.587  24.618  24.777  1.00  0.00    -0.207 OA
BRANCH  13  16
ATOM     16  C   UNL A   1      33.176  24.435  24.699  1.00  0.00     0.085 A 
ATOM     17  C   UNL A   1      33.103  23.725  23.504  1.00  0.00     0.025 A 
ATOM     18  C   UNL A   1      34.394  24.487  25.375  1.00  0.00     0.064 A 
ATOM     19  C   UNL A   1      34.269  23.143  22.977  1.00  0.00     0.044 A 
ATOM     20  C   UNL A   1      35.552  23.954  24.839  1.00  0.00     0.160 A 
ATOM     21  C   UNL A   1      35.491  23.276  23.641  1.00  0.00     0.158 A 
ATOM     22  F   UNL A   1      36.708  24.100  25.502  1.00  0.00    -0.204 F 
ATOM     23  F   UNL A   1      36.599  22.729  23.123  1.00  0.00    -0.204 F 
ENDBRANCH  13  16
ENDBRANCH  11  13
ENDBRANCH   7  11
ENDBRANCH   4   7
ENDBRANCH   2   3
ENDBRANCH   1   2
BRANCH   1  24
ATOM     24  C   UNL A   1      32.948  32.686  27.323  1.00  0.00     0.118 C 
BRANCH  24  25
ATOM     25  N   UNL A   1      32.633  34.029  27.756  1.00  0.00    -0.352 N 
ATOM     26  C   UNL A   1      33.256  34.736  28.768  1.00  0.00     0.251 C 
ATOM     27  H   UNL A   1      31.900  34.485  27.282  1.00  0.00     0.163 HD
ATOM     28  O   UNL A   1      32.794  35.812  29.137  1.00  0.00    -0.269 OA
BRANCH  26  29
ATOM     29  C   UNL A   1      34.452  34.180  29.450  1.00  0.00     0.039 A 
ATOM     30  C   UNL A   1      34.274  33.367  30.572  1.00  0.00     0.014 A 
ATOM     31  C   UNL A   1      35.745  34.514  29.036  1.00  0.00     0.014 A 
ATOM     32  C   UNL A   1      35.387  32.858  31.255  1.00  0.00     0.010 A 
ATOM     33  C   UNL A   1      36.859  33.979  29.704  1.00  0.00     0.010 A 
ATOM     34  C   UNL A   1      36.696  33.143  30.821  1.00  0.00    -0.014 A 
BRANCH  34  35
ATOM     35  C   UNL A   1      37.864  32.545  31.536  1.00  0.00     0.031 A 
ATOM     36  C   UNL A   1      38.313  33.072  32.877  1.00  0.00     0.074 A 
ATOM     37  C   UNL A   1      38.518  31.502  30.983  1.00  0.00     0.049 A 
ATOM     38  N   UNL A   1      39.254  32.620  33.670  1.00  0.00    -0.248 NA
ATOM     39  C   UNL A   1      37.625  34.266  33.387  1.00  0.00     0.031 C 
ATOM     40  C   UNL A   1      38.211  30.920  29.674  1.00  0.00     0.029 A 
ATOM     41  N   UNL A   1      39.562  30.738  31.445  1.00  0.00    -0.354 N 
ATOM     42  C   UNL A   1      39.266  33.468  34.774  1.00  0.00     0.074 A 
ATOM     43  C   UNL A   1      38.274  34.492  34.522  1.00  0.00     0.031 C 
ATOM     44  C   UNL A   1      39.024  29.875  29.455  1.00  0.00     0.029 A 
ATOM     45  C   UNL A   1      39.932  29.725  30.589  1.00  0.00     0.049 A 
ATOM     46  H   UNL A   1      40.006  30.900  32.309  1.00  0.00     0.167 HD
ATOM     47  C   UNL A   1      40.017  33.390  35.901  1.00  0.00     0.037 A 
ATOM     48  C   UNL A   1      40.887  28.780  30.700  1.00  0.00     0.037 A 
ATOM     49  C   UNL A   1      41.007  32.368  36.147  1.00  0.00     0.049 A 
ATOM     50  C   UNL A   1      41.719  28.721  31.955  1.00  0.00     0.074 A 
ATOM     51  C   UNL A   1      41.791  32.179  37.273  1.00  0.00     0.029 A 
ATOM     52  N   UNL A   1      41.357  31.368  35.249  1.00  0.00    -0.354 N 
ATOM     53  N   UNL A   1      41.664  29.489  33.018  1.00  0.00    -0.248 NA
ATOM     54  C   UNL A   1      42.734  27.662  32.032  1.00  0.00     0.031 C 
ATOM     55  C   UNL A   1      42.653  31.103  37.034  1.00  0.00     0.029 A 
ATOM     56  C   UNL A   1      42.362  30.578  35.786  1.00  0.00     0.049 A 
ATOM     57  H   UNL A   1      40.950  31.239  34.362  1.00  0.00     0.167 HD
ATOM     58  C   UNL A   1      42.616  28.987  33.901  1.00  0.00     0.074 A 
ATOM     59  C   UNL A   1      43.218  27.840  33.253  1.00  0.00     0.031 C 
ATOM     60  C   UNL A   1      42.957  29.436  35.134  1.00  0.00     0.037 A 
BRANCH  47  61
ATOM     61  C   UNL A   1      39.806  34.442  36.962  1.00  0.00     0.058 A 
ATOM     62  C   UNL A   1      39.003  34.204  38.090  1.00  0.00     0.135 A 
ATOM     63  C   UNL A   1      40.451  35.688  36.875  1.00  0.00     0.135 A 
ATOM     64  F   UNL A   1      38.357  33.036  38.226  1.00  0.00    -0.206 F 
ATOM     65  C   UNL A   1      38.818  35.174  39.072  1.00  0.00     0.059 A 
ATOM     66  C   UNL A   1      40.305  36.661  37.862  1.00  0.00     0.059 A 
ATOM     67  F   UNL A   1      41.237  35.971  35.824  1.00  0.00    -0.206 F 
ATOM     68  C   UNL A   1      39.473  36.400  38.949  1.00  0.00     0.060 A 
BRANCH  68  69
ATOM     69  S   UNL A   1      39.223  37.644  40.234  1.00  0.00     0.124 S 
ATOM     70  O   UNL A   1      38.807  36.818  41.363  1.00  0.00    -0.237 OA
ATOM     71  O   UNL A   1      40.548  38.247  40.346  1.00  0.00    -0.237 OA
ATOM     72  O   UNL A   1      38.190  38.509  39.676  1.00  0.00    -0.744 OA
ENDBRANCH  68  69
ENDBRANCH  47  61
BRANCH  48  73
ATOM     73  C   UNL A   1      41.095  27.795  29.601  1.00  0.00     0.058 A 
ATOM     74  C   UNL A   1      42.202  27.880  28.743  1.00  0.00     0.135 A 
ATOM     75  C   UNL A   1      40.190  26.742  29.389  1.00  0.00     0.135 A 
ATOM     76  F   UNL A   1      43.092  28.873  28.894  1.00  0.00    -0.206 F 
ATOM     77  C   UNL A   1      42.397  26.972  27.706  1.00  0.00     0.059 A 
ATOM     78  C   UNL A   1      40.378  25.804  28.378  1.00  0.00     0.059 A 
ATOM     79  F   UNL A   1      39.120  26.605  30.187  1.00  0.00    -0.206 F 
ATOM     80  C   UNL A   1      41.480  25.934  27.535  1.00  0.00     0.060 A 
BRANCH  80  81
ATOM     81  S   UNL A   1      41.768  24.731  26.217  1.00  0.00     0.124 S 
ATOM     82  O   UNL A   1      41.641  25.563  25.026  1.00  0.00    -0.237 OA
ATOM     83  O   UNL A   1      43.113  24.256  26.526  1.00  0.00    -0.237 OA
ATOM     84  O   UNL A   1      40.704  23.752  26.418  1.00  0.00    -0.744 OA
ENDBRANCH  80  81
ENDBRANCH  48  73
BRANCH  60  85
ATOM     85  C   UNL A   1      44.009  28.662  35.886  1.00  0.00     0.058 A 
ATOM     86  C   UNL A   1      43.683  27.591  36.732  1.00  0.00     0.135 A 
ATOM     87  C   UNL A   1      45.370  28.977  35.727  1.00  0.00     0.135 A 
ATOM     88  F   UNL A   1      42.399  27.249  36.925  1.00  0.00    -0.206 F 
ATOM     89  C   UNL A   1      44.662  26.882  37.422  1.00  0.00     0.059 A 
ATOM     90  C   UNL A   1      46.369  28.261  36.381  1.00  0.00     0.059 A 
ATOM     91  F   UNL A   1      45.743  29.983  34.922  1.00  0.00    -0.206 F 
ATOM     92  C   UNL A   1      46.003  27.226  37.239  1.00  0.00     0.060 A 
BRANCH  92  93
ATOM     93  S   UNL A   1      47.265  26.288  38.128  1.00  0.00     0.124 S 
ATOM     94  O   UNL A   1      47.883  25.527  37.047  1.00  0.00    -0.237 OA
ATOM     95  O   UNL A   1      48.086  27.344  38.711  1.00  0.00    -0.237 OA
ATOM     96  O   UNL A   1      46.492  25.501  39.086  1.00  0.00    -0.744 OA
ENDBRANCH  92  93
ENDBRANCH  60  85
ENDBRANCH  34  35
ENDBRANCH  26  29
ENDBRANCH  24  25
ENDBRANCH   1  24
TORSDOF 17
ENDMDL
