MODEL 1
REMARK VINA RESULT:     -12.3      0.000      0.000
REMARK SMILES COc1ccc([C@@H]2CC[NH2+][C@H]2C(=O)NCCCNC(=O)c2ccc(-c3c4nc(c(-c5c(F)cc(S(=O)(=O)[O-])cc5F)c5ccc([nH]5)c(-c5c(F)cc(S(=O)(=O)[O-])cc5F)c5nc(c(-c6c(F)cc(S(=O)(=O)[O-])cc6F)c6ccc3[nH]6)C=C5)C=C4)cc2)c2ccccc12
REMARK SMILES IDX 16 1 15 2 14 3 12 4 13 5 11 7 7 8 8 9 9 10 10 11 6 14 3 15
REMARK SMILES IDX 4 16 92 17 5 18 87 19 91 20 88 21 90 22 89 23 2 24 1 25
REMARK SMILES IDX 17 26 18 27 19 28 20 30 21 31 22 32 86 33 23 34 85 35 24 36
REMARK SMILES IDX 25 37 26 38 79 39 27 40 84 41 78 42 80 43 28 44 83 45 77 46
REMARK SMILES IDX 76 47 29 49 63 50 42 51 62 52 43 53 46 54 61 55 81 56 44 57
REMARK SMILES IDX 45 58 60 60 82 61 47 62 30 63 31 64 40 65 32 66 33 67 39 68
REMARK SMILES IDX 41 69 34 70 35 71 36 72 37 73 38 74 64 75 65 76 74 77 66 78
REMARK SMILES IDX 67 79 73 80 75 81 68 82 69 83 70 84 71 85 72 86 48 87 49 88
REMARK SMILES IDX 58 89 50 90 51 91 57 92 59 93 52 94 53 95 54 96 55 97 56 98
REMARK H PARENT 14 6 10 12 10 13 18 29 80 48 46 59
REMARK Flexibility Score: inf
ROOT
ATOM      1  C   UNL A   1      37.371  23.140  25.747  1.00  0.00     0.042 C 
ENDROOT
BRANCH   1   2
ATOM      2  C   UNL A   1      36.733  23.575  24.433  1.00  0.00     0.118 C 
BRANCH   2   3
ATOM      3  N   UNL A   1      35.604  22.744  24.061  1.00  0.00    -0.351 N 
ATOM      4  C   UNL A   1      34.306  22.713  24.475  1.00  0.00     0.278 C 
ATOM      5  O   UNL A   1      33.593  21.841  23.967  1.00  0.00    -0.268 OA
ATOM      6  H   UNL A   1      35.818  22.070  23.375  1.00  0.00     0.163 HD
BRANCH   4   7
ATOM      7  C   UNL A   1      33.723  23.684  25.525  1.00  0.00     0.280 C 
ATOM      8  C   UNL A   1      32.503  24.471  25.020  1.00  0.00     0.094 C 
ATOM      9  C   UNL A   1      31.343  23.974  25.887  1.00  0.00     0.076 C 
ATOM     10  C   UNL A   1      31.982  23.359  27.122  1.00  0.00     0.262 C 
ATOM     11  N   UNL A   1      33.357  22.989  26.786  1.00  0.00    -0.335 N 
ATOM     12  H   UNL A   1      33.423  21.980  26.656  1.00  0.00     0.346 HD
ATOM     13  H   UNL A   1      33.992  23.260  27.537  1.00  0.00     0.346 HD
BRANCH   8  14
ATOM     14  C   UNL A   1      32.650  25.994  25.137  1.00  0.00    -0.030 A 
ATOM     15  C   UNL A   1      32.980  28.759  25.590  1.00  0.00     0.126 A 
ATOM     16  C   UNL A   1      33.863  27.850  26.162  1.00  0.00     0.047 A 
ATOM     17  C   UNL A   1      31.904  28.312  24.791  1.00  0.00     0.024 A 
ATOM     18  C   UNL A   1      33.706  26.492  25.928  1.00  0.00     0.009 A 
ATOM     19  C   UNL A   1      31.734  26.918  24.541  1.00  0.00    -0.011 A 
ATOM     20  C   UNL A   1      30.993  29.234  24.229  1.00  0.00     0.012 A 
ATOM     21  C   UNL A   1      30.649  26.542  23.709  1.00  0.00     0.009 A 
ATOM     22  C   UNL A   1      29.936  28.824  23.422  1.00  0.00     0.001 A 
ATOM     23  C   UNL A   1      29.767  27.477  23.157  1.00  0.00     0.001 A 
BRANCH  15  24
ATOM     24  O   UNL A   1      33.090  30.110  25.835  1.00  0.00    -0.496 OA
ATOM     25  C   UNL A   1      33.002  30.454  27.215  1.00  0.00     0.278 C 
ENDBRANCH  15  24
ENDBRANCH   8  14
ENDBRANCH   4   7
ENDBRANCH   2   3
ENDBRANCH   1   2
BRANCH   1  26
ATOM     26  C   UNL A   1      38.241  24.218  26.384  1.00  0.00     0.118 C 
BRANCH  26  27
ATOM     27  N   UNL A   1      39.662  23.957  26.191  1.00  0.00    -0.352 N 
ATOM     28  C   UNL A   1      40.758  24.654  26.626  1.00  0.00     0.251 C 
ATOM     29  H   UNL A   1      39.866  23.152  25.663  1.00  0.00     0.163 HD
ATOM     30  O   UNL A   1      41.862  24.395  26.139  1.00  0.00    -0.269 OA
BRANCH  28  31
ATOM     31  C   UNL A   1      40.634  25.704  27.659  1.00  0.00     0.039 A 
ATOM     32  C   UNL A   1      39.603  25.611  28.598  1.00  0.00     0.014 A 
ATOM     33  C   UNL A   1      41.495  26.805  27.674  1.00  0.00     0.014 A 
ATOM     34  C   UNL A   1      39.472  26.591  29.584  1.00  0.00     0.010 A 
ATOM     35  C   UNL A   1      41.413  27.738  28.705  1.00  0.00     0.010 A 
ATOM     36  C   UNL A   1      40.395  27.647  29.664  1.00  0.00    -0.014 A 
BRANCH  36  37
ATOM     37  C   UNL A   1      40.307  28.669  30.737  1.00  0.00     0.031 A 
ATOM     38  C   UNL A   1      41.183  28.563  31.956  1.00  0.00     0.074 A 
ATOM     39  C   UNL A   1      39.394  29.656  30.641  1.00  0.00     0.049 A 
ATOM     40  N   UNL A   1      41.201  29.312  33.028  1.00  0.00    -0.248 NA
ATOM     41  C   UNL A   1      42.149  27.452  31.986  1.00  0.00     0.031 C 
ATOM     42  C   UNL A   1      38.457  29.835  29.529  1.00  0.00     0.029 A 
ATOM     43  N   UNL A   1      39.097  30.688  31.494  1.00  0.00    -0.354 N 
ATOM     44  C   UNL A   1      42.165  28.757  33.863  1.00  0.00     0.074 A 
ATOM     45  C   UNL A   1      42.672  27.578  33.197  1.00  0.00     0.031 C 
ATOM     46  C   UNL A   1      37.708  30.926  29.757  1.00  0.00     0.029 A 
ATOM     47  C   UNL A   1      38.083  31.501  31.045  1.00  0.00     0.049 A 
ATOM     48  H   UNL A   1      39.566  30.833  32.347  1.00  0.00     0.167 HD
ATOM     49  C   UNL A   1      42.604  29.205  35.063  1.00  0.00     0.037 A 
ATOM     50  C   UNL A   1      37.516  32.584  31.610  1.00  0.00     0.037 A 
ATOM     51  C   UNL A   1      42.113  30.395  35.708  1.00  0.00     0.049 A 
ATOM     52  C   UNL A   1      38.024  33.064  32.942  1.00  0.00     0.074 A 
ATOM     53  C   UNL A   1      42.527  30.963  36.900  1.00  0.00     0.029 A 
ATOM     54  N   UNL A   1      41.101  31.204  35.211  1.00  0.00    -0.354 N 
ATOM     55  N   UNL A   1      38.972  32.557  33.693  1.00  0.00    -0.248 NA
ATOM     56  C   UNL A   1      37.390  34.265  33.501  1.00  0.00     0.031 C 
ATOM     57  C   UNL A   1      41.739  32.093  37.143  1.00  0.00     0.029 A 
ATOM     58  C   UNL A   1      40.865  32.256  36.080  1.00  0.00     0.049 A 
ATOM     59  H   UNL A   1      40.619  31.052  34.366  1.00  0.00     0.167 HD
ATOM     60  C   UNL A   1      39.066  33.392  34.801  1.00  0.00     0.074 A 
ATOM     61  C   UNL A   1      38.087  34.443  34.614  1.00  0.00     0.031 C 
ATOM     62  C   UNL A   1      39.889  33.298  35.875  1.00  0.00     0.037 A 
BRANCH  49  63
ATOM     63  C   UNL A   1      43.679  28.408  35.754  1.00  0.00     0.058 A 
ATOM     64  C   UNL A   1      43.365  27.376  36.653  1.00  0.00     0.135 A 
ATOM     65  C   UNL A   1      45.036  28.656  35.491  1.00  0.00     0.135 A 
ATOM     66  F   UNL A   1      42.084  27.106  36.953  1.00  0.00    -0.206 F 
ATOM     67  C   UNL A   1      44.358  26.639  37.291  1.00  0.00     0.059 A 
ATOM     68  C   UNL A   1      46.045  27.912  36.097  1.00  0.00     0.059 A 
ATOM     69  F   UNL A   1      45.393  29.630  34.640  1.00  0.00    -0.206 F 
ATOM     70  C   UNL A   1      45.696  26.916  37.006  1.00  0.00     0.060 A 
BRANCH  70  71
ATOM     71  S   UNL A   1      46.971  25.948  37.841  1.00  0.00     0.124 S 
ATOM     72  O   UNL A   1      48.178  26.687  37.482  1.00  0.00    -0.237 OA
ATOM     73  O   UNL A   1      46.567  26.038  39.240  1.00  0.00    -0.237 OA
ATOM     74  O   UNL A   1      46.843  24.625  37.238  1.00  0.00    -0.744 OA
ENDBRANCH  70  71
ENDBRANCH  49  63
BRANCH  50  75
ATOM     75  C   UNL A   1      36.427  33.306  30.901  1.00  0.00     0.058 A 
ATOM     76  C   UNL A   1      35.097  33.202  31.334  1.00  0.00     0.135 A 
ATOM     77  C   UNL A   1      36.691  34.124  29.792  1.00  0.00     0.135 A 
ATOM     78  F   UNL A   1      34.792  32.427  32.386  1.00  0.00    -0.206 F 
ATOM     79  C   UNL A   1      34.064  33.871  30.685  1.00  0.00     0.059 A 
ATOM     80  C   UNL A   1      35.680  34.824  29.142  1.00  0.00     0.059 A 
ATOM     81  F   UNL A   1      37.950  34.271  29.350  1.00  0.00    -0.206 F 
ATOM     82  C   UNL A   1      34.367  34.683  29.590  1.00  0.00     0.060 A 
BRANCH  82  83
ATOM     83  S   UNL A   1      33.027  35.587  28.787  1.00  0.00     0.124 S 
ATOM     84  O   UNL A   1      32.290  36.100  29.935  1.00  0.00    -0.237 OA
ATOM     85  O   UNL A   1      33.754  36.579  28.000  1.00  0.00    -0.237 OA
ATOM     86  O   UNL A   1      32.348  34.556  28.007  1.00  0.00    -0.744 OA
ENDBRANCH  82  83
ENDBRANCH  50  75
BRANCH  62  87
ATOM     87  C   UNL A   1      39.790  34.379  36.915  1.00  0.00     0.058 A 
ATOM     88  C   UNL A   1      38.946  34.255  38.028  1.00  0.00     0.135 A 
ATOM     89  C   UNL A   1      40.587  35.532  36.818  1.00  0.00     0.135 A 
ATOM     90  F   UNL A   1      38.160  33.174  38.164  1.00  0.00    -0.206 F 
ATOM     91  C   UNL A   1      38.874  35.250  38.998  1.00  0.00     0.059 A 
ATOM     92  C   UNL A   1      40.550  36.526  37.790  1.00  0.00     0.059 A 
ATOM     93  F   UNL A   1      41.419  35.693  35.778  1.00  0.00    -0.206 F 
ATOM     94  C   UNL A   1      39.681  36.382  38.870  1.00  0.00     0.060 A 
BRANCH  94  95
ATOM     95  S   UNL A   1      39.600  37.652  40.150  1.00  0.00     0.124 S 
ATOM     96  O   UNL A   1      40.951  38.200  40.107  1.00  0.00    -0.237 OA
ATOM     97  O   UNL A   1      38.543  38.529  39.655  1.00  0.00    -0.237 OA
ATOM     98  O   UNL A   1      39.265  36.897  41.355  1.00  0.00    -0.744 OA
ENDBRANCH  94  95
ENDBRANCH  62  87
ENDBRANCH  36  37
ENDBRANCH  28  31
ENDBRANCH  26  27
ENDBRANCH   1  26
TORSDOF 15
ENDMDL
MODEL 2
REMARK VINA RESULT:     -12.3      4.882     10.604
REMARK SMILES COc1ccc([C@@H]2CC[NH2+][C@H]2C(=O)NCCCNC(=O)c2ccc(-c3c4nc(c(-c5c(F)cc(S(=O)(=O)[O-])cc5F)c5ccc([nH]5)c(-c5c(F)cc(S(=O)(=O)[O-])cc5F)c5nc(c(-c6c(F)cc(S(=O)(=O)[O-])cc6F)c6ccc3[nH]6)C=C5)C=C4)cc2)c2ccccc12
REMARK SMILES IDX 16 1 15 2 14 3 12 4 13 5 11 7 7 8 8 9 9 10 10 11 6 14 3 15
REMARK SMILES IDX 4 16 92 17 5 18 87 19 91 20 88 21 90 22 89 23 2 24 1 25
REMARK SMILES IDX 17 26 18 27 19 28 20 30 21 31 22 32 86 33 23 34 85 35 24 36
REMARK SMILES IDX 25 37 26 38 79 39 27 40 84 41 78 42 80 43 28 44 83 45 77 46
REMARK SMILES IDX 76 47 29 49 63 50 42 51 62 52 43 53 46 54 61 55 81 56 44 57
REMARK SMILES IDX 45 58 60 60 82 61 47 62 30 63 31 64 40 65 32 66 33 67 39 68
REMARK SMILES IDX 41 69 34 70 35 71 36 72 37 73 38 74 64 75 65 76 74 77 66 78
REMARK SMILES IDX 67 79 73 80 75 81 68 82 69 83 70 84 71 85 72 86 48 87 49 88
REMARK SMILES IDX 58 89 50 90 51 91 57 92 59 93 52 94 53 95 54 96 55 97 56 98
REMARK H PARENT 14 6 10 12 10 13 18 29 80 48 46 59
REMARK Flexibility Score: inf
ROOT
ATOM      1  C   UNL A   1      33.542  27.990  25.586  1.00  0.00     0.042 C 
ENDROOT
BRANCH   1   2
ATOM      2  C   UNL A   1      32.151  27.550  25.145  1.00  0.00     0.118 C 
BRANCH   2   3
ATOM      3  N   UNL A   1      32.128  27.069  23.777  1.00  0.00    -0.351 N 
ATOM      4  C   UNL A   1      31.944  25.832  23.237  1.00  0.00     0.278 C 
ATOM      5  O   UNL A   1      32.014  25.758  22.005  1.00  0.00    -0.268 OA
ATOM      6  H   UNL A   1      32.273  27.776  23.106  1.00  0.00     0.163 HD
BRANCH   4   7
ATOM      7  C   UNL A   1      31.675  24.565  24.081  1.00  0.00     0.280 C 
ATOM      8  C   UNL A   1      32.827  24.208  25.034  1.00  0.00     0.094 C 
ATOM      9  C   UNL A   1      32.235  24.395  26.434  1.00  0.00     0.076 C 
ATOM     10  C   UNL A   1      30.726  24.340  26.256  1.00  0.00     0.262 C 
ATOM     11  N   UNL A   1      30.419  24.675  24.866  1.00  0.00    -0.335 N 
ATOM     12  H   UNL A   1      30.058  25.627  24.811  1.00  0.00     0.346 HD
ATOM     13  H   UNL A   1      29.713  24.040  24.495  1.00  0.00     0.346 HD
BRANCH   8  14
ATOM     14  C   UNL A   1      33.362  22.781  24.860  1.00  0.00    -0.030 A 
ATOM     15  C   UNL A   1      34.157  20.080  24.680  1.00  0.00     0.126 A 
ATOM     16  C   UNL A   1      32.809  20.414  24.619  1.00  0.00     0.047 A 
ATOM     17  C   UNL A   1      35.140  21.082  24.847  1.00  0.00     0.024 A 
ATOM     18  C   UNL A   1      32.422  21.744  24.695  1.00  0.00     0.009 A 
ATOM     19  C   UNL A   1      34.753  22.453  24.924  1.00  0.00    -0.011 A 
ATOM     20  C   UNL A   1      36.508  20.740  24.934  1.00  0.00     0.012 A 
ATOM     21  C   UNL A   1      35.793  23.407  25.065  1.00  0.00     0.009 A 
ATOM     22  C   UNL A   1      37.499  21.707  25.078  1.00  0.00     0.001 A 
ATOM     23  C   UNL A   1      37.142  23.042  25.138  1.00  0.00     0.001 A 
BRANCH  15  24
ATOM     24  O   UNL A   1      34.568  18.766  24.645  1.00  0.00    -0.496 OA
ATOM     25  C   UNL A   1      33.675  17.901  23.950  1.00  0.00     0.278 C 
ENDBRANCH  15  24
ENDBRANCH   8  14
ENDBRANCH   4   7
ENDBRANCH   2   3
ENDBRANCH   1   2
BRANCH   1  26
ATOM     26  C   UNL A   1      33.652  28.239  27.085  1.00  0.00     0.118 C 
BRANCH  26  27
ATOM     27  N   UNL A   1      33.531  29.654  27.414  1.00  0.00    -0.352 N 
ATOM     28  C   UNL A   1      34.397  30.490  28.069  1.00  0.00     0.251 C 
ATOM     29  H   UNL A   1      32.693  30.077  27.118  1.00  0.00     0.163 HD
ATOM     30  O   UNL A   1      33.989  31.587  28.458  1.00  0.00    -0.269 OA
BRANCH  28  31
ATOM     31  C   UNL A   1      35.799  30.093  28.316  1.00  0.00     0.039 A 
ATOM     32  C   UNL A   1      36.707  30.116  27.252  1.00  0.00     0.014 A 
ATOM     33  C   UNL A   1      36.212  29.649  29.575  1.00  0.00     0.014 A 
ATOM     34  C   UNL A   1      38.037  29.748  27.467  1.00  0.00     0.010 A 
ATOM     35  C   UNL A   1      37.555  29.360  29.806  1.00  0.00     0.010 A 
ATOM     36  C   UNL A   1      38.479  29.397  28.753  1.00  0.00    -0.014 A 
BRANCH  36  37
ATOM     37  C   UNL A   1      39.900  29.056  29.015  1.00  0.00     0.031 A 
ATOM     38  C   UNL A   1      40.831  30.089  29.590  1.00  0.00     0.074 A 
ATOM     39  C   UNL A   1      40.364  27.837  28.675  1.00  0.00     0.049 A 
ATOM     40  N   UNL A   1      42.116  30.005  29.819  1.00  0.00    -0.248 NA
ATOM     41  C   UNL A   1      40.247  31.397  29.927  1.00  0.00     0.031 C 
ATOM     42  C   UNL A   1      39.567  26.769  28.067  1.00  0.00     0.029 A 
ATOM     43  N   UNL A   1      41.618  27.293  28.784  1.00  0.00    -0.354 N 
ATOM     44  C   UNL A   1      42.496  31.249  30.312  1.00  0.00     0.074 A 
ATOM     45  C   UNL A   1      41.316  32.086  30.299  1.00  0.00     0.031 C 
ATOM     46  C   UNL A   1      40.346  25.691  27.880  1.00  0.00     0.029 A 
ATOM     47  C   UNL A   1      41.702  26.003  28.318  1.00  0.00     0.049 A 
ATOM     48  H   UNL A   1      42.386  27.782  29.160  1.00  0.00     0.167 HD
ATOM     49  C   UNL A   1      43.710  31.648  30.759  1.00  0.00     0.037 A 
ATOM     50  C   UNL A   1      42.756  25.166  28.248  1.00  0.00     0.037 A 
ATOM     51  C   UNL A   1      44.874  30.800  30.794  1.00  0.00     0.049 A 
ATOM     52  C   UNL A   1      44.094  25.631  28.753  1.00  0.00     0.074 A 
ATOM     53  C   UNL A   1      46.138  31.092  31.274  1.00  0.00     0.029 A 
ATOM     54  N   UNL A   1      44.914  29.492  30.334  1.00  0.00    -0.354 N 
ATOM     55  N   UNL A   1      44.423  26.794  29.264  1.00  0.00    -0.248 NA
ATOM     56  C   UNL A   1      45.203  24.671  28.678  1.00  0.00     0.031 C 
ATOM     57  C   UNL A   1      46.953  29.974  31.070  1.00  0.00     0.029 A 
ATOM     58  C   UNL A   1      46.184  28.969  30.504  1.00  0.00     0.049 A 
ATOM     59  H   UNL A   1      44.151  29.007  29.943  1.00  0.00     0.167 HD
ATOM     60  C   UNL A   1      45.769  26.696  29.596  1.00  0.00     0.074 A 
ATOM     61  C   UNL A   1      46.189  25.356  29.238  1.00  0.00     0.031 C 
ATOM     62  C   UNL A   1      46.584  27.629  30.147  1.00  0.00     0.037 A 
BRANCH  49  63
ATOM     63  C   UNL A   1      43.840  33.063  31.256  1.00  0.00     0.058 A 
ATOM     64  C   UNL A   1      44.268  34.101  30.413  1.00  0.00     0.135 A 
ATOM     65  C   UNL A   1      43.503  33.392  32.579  1.00  0.00     0.135 A 
ATOM     66  F   UNL A   1      44.618  33.841  29.143  1.00  0.00    -0.206 F 
ATOM     67  C   UNL A   1      44.387  35.410  30.872  1.00  0.00     0.059 A 
ATOM     68  C   UNL A   1      43.588  34.699  33.051  1.00  0.00     0.059 A 
ATOM     69  F   UNL A   1      43.088  32.439  33.428  1.00  0.00    -0.206 F 
ATOM     70  C   UNL A   1      44.045  35.698  32.194  1.00  0.00     0.060 A 
BRANCH  70  71
ATOM     71  S   UNL A   1      44.204  37.401  32.772  1.00  0.00     0.124 S 
ATOM     72  O   UNL A   1      43.903  38.150  31.556  1.00  0.00    -0.237 OA
ATOM     73  O   UNL A   1      43.194  37.470  33.824  1.00  0.00    -0.237 OA
ATOM     74  O   UNL A   1      45.587  37.477  33.231  1.00  0.00    -0.744 OA
ENDBRANCH  70  71
ENDBRANCH  49  63
BRANCH  50  75
ATOM     75  C   UNL A   1      42.578  23.793  27.705  1.00  0.00     0.058 A 
ATOM     76  C   UNL A   1      42.454  22.692  28.565  1.00  0.00     0.135 A 
ATOM     77  C   UNL A   1      42.510  23.555  26.324  1.00  0.00     0.135 A 
ATOM     78  F   UNL A   1      42.517  22.868  29.894  1.00  0.00    -0.206 F 
ATOM     79  C   UNL A   1      42.284  21.401  28.076  1.00  0.00     0.059 A 
ATOM     80  C   UNL A   1      42.315  22.277  25.811  1.00  0.00     0.059 A 
ATOM     81  F   UNL A   1      42.605  24.578  25.460  1.00  0.00    -0.206 F 
ATOM     82  C   UNL A   1      42.214  21.204  26.696  1.00  0.00     0.060 A 
BRANCH  82  83
ATOM     83  S   UNL A   1      41.942  19.531  26.074  1.00  0.00     0.124 S 
ATOM     84  O   UNL A   1      42.816  19.507  24.907  1.00  0.00    -0.237 OA
ATOM     85  O   UNL A   1      42.364  18.710  27.205  1.00  0.00    -0.237 OA
ATOM     86  O   UNL A   1      40.509  19.507  25.793  1.00  0.00    -0.744 OA
ENDBRANCH  82  83
ENDBRANCH  50  75
BRANCH  62  87
ATOM     87  C   UNL A   1      48.004  27.224  30.430  1.00  0.00     0.058 A 
ATOM     88  C   UNL A   1      49.041  27.494  29.525  1.00  0.00     0.135 A 
ATOM     89  C   UNL A   1      48.335  26.598  31.643  1.00  0.00     0.135 A 
ATOM     90  F   UNL A   1      48.776  28.084  28.349  1.00  0.00    -0.206 F 
ATOM     91  C   UNL A   1      50.356  27.135  29.802  1.00  0.00     0.059 A 
ATOM     92  C   UNL A   1      49.647  26.255  31.951  1.00  0.00     0.059 A 
ATOM     93  F   UNL A   1      47.381  26.328  32.547  1.00  0.00    -0.206 F 
ATOM     94  C   UNL A   1      50.649  26.516  31.018  1.00  0.00     0.060 A 
BRANCH  94  95
ATOM     95  S   UNL A   1      52.364  26.080  31.377  1.00  0.00     0.124 S 
ATOM     96  O   UNL A   1      52.764  27.168  32.263  1.00  0.00    -0.237 OA
ATOM     97  O   UNL A   1      52.230  24.768  32.003  1.00  0.00    -0.237 OA
ATOM     98  O   UNL A   1      52.995  26.077  30.060  1.00  0.00    -0.744 OA
ENDBRANCH  94  95
ENDBRANCH  62  87
ENDBRANCH  36  37
ENDBRANCH  28  31
ENDBRANCH  26  27
ENDBRANCH   1  26
TORSDOF 15
ENDMDL
MODEL 3
REMARK VINA RESULT:     -12.2      4.876     10.482
REMARK SMILES COc1ccc([C@@H]2CC[NH2+][C@H]2C(=O)NCCCNC(=O)c2ccc(-c3c4nc(c(-c5c(F)cc(S(=O)(=O)[O-])cc5F)c5ccc([nH]5)c(-c5c(F)cc(S(=O)(=O)[O-])cc5F)c5nc(c(-c6c(F)cc(S(=O)(=O)[O-])cc6F)c6ccc3[nH]6)C=C5)C=C4)cc2)c2ccccc12
REMARK SMILES IDX 16 1 15 2 14 3 12 4 13 5 11 7 7 8 8 9 9 10 10 11 6 14 3 15
REMARK SMILES IDX 4 16 92 17 5 18 87 19 91 20 88 21 90 22 89 23 2 24 1 25
REMARK SMILES IDX 17 26 18 27 19 28 20 30 21 31 22 32 86 33 23 34 85 35 24 36
REMARK SMILES IDX 25 37 26 38 79 39 27 40 84 41 78 42 80 43 28 44 83 45 77 46
REMARK SMILES IDX 76 47 29 49 63 50 42 51 62 52 43 53 46 54 61 55 81 56 44 57
REMARK SMILES IDX 45 58 60 60 82 61 47 62 30 63 31 64 40 65 32 66 33 67 39 68
REMARK SMILES IDX 41 69 34 70 35 71 36 72 37 73 38 74 64 75 65 76 74 77 66 78
REMARK SMILES IDX 67 79 73 80 75 81 68 82 69 83 70 84 71 85 72 86 48 87 49 88
REMARK SMILES IDX 58 89 50 90 51 91 57 92 59 93 52 94 53 95 54 96 55 97 56 98
REMARK H PARENT 14 6 10 12 10 13 18 29 80 48 46 59
REMARK Flexibility Score: inf
ROOT
ATOM      1  C   UNL A   1      32.243  27.608  27.010  1.00  0.00     0.042 C 
ENDROOT
BRANCH   1   2
ATOM      2  C   UNL A   1      31.509  28.173  25.800  1.00  0.00     0.118 C 
BRANCH   2   3
ATOM      3  N   UNL A   1      30.666  27.186  25.151  1.00  0.00    -0.351 N 
ATOM      4  C   UNL A   1      30.939  26.156  24.302  1.00  0.00     0.278 C 
ATOM      5  O   UNL A   1      29.966  25.509  23.900  1.00  0.00    -0.268 OA
ATOM      6  H   UNL A   1      29.710  27.279  25.367  1.00  0.00     0.163 HD
BRANCH   4   7
ATOM      7  C   UNL A   1      32.365  25.793  23.834  1.00  0.00     0.280 C 
ATOM      8  C   UNL A   1      32.497  24.343  23.339  1.00  0.00     0.094 C 
ATOM      9  C   UNL A   1      32.814  24.476  21.848  1.00  0.00     0.076 C 
ATOM     10  C   UNL A   1      33.342  25.889  21.661  1.00  0.00     0.262 C 
ATOM     11  N   UNL A   1      32.854  26.708  22.770  1.00  0.00    -0.335 N 
ATOM     12  H   UNL A   1      32.091  27.305  22.451  1.00  0.00     0.346 HD
ATOM     13  H   UNL A   1      33.601  27.302  23.130  1.00  0.00     0.346 HD
BRANCH   8  14
ATOM     14  C   UNL A   1      33.588  23.536  24.055  1.00  0.00    -0.030 A 
ATOM     15  C   UNL A   1      35.762  22.201  25.259  1.00  0.00     0.126 A 
ATOM     16  C   UNL A   1      35.777  23.586  25.139  1.00  0.00     0.047 A 
ATOM     17  C   UNL A   1      34.672  21.447  24.769  1.00  0.00     0.024 A 
ATOM     18  C   UNL A   1      34.701  24.241  24.558  1.00  0.00     0.009 A 
ATOM     19  C   UNL A   1      33.559  22.111  24.171  1.00  0.00    -0.011 A 
ATOM     20  C   UNL A   1      34.668  20.037  24.870  1.00  0.00     0.012 A 
ATOM     21  C   UNL A   1      32.488  21.294  23.726  1.00  0.00     0.009 A 
ATOM     22  C   UNL A   1      33.599  19.272  24.414  1.00  0.00     0.001 A 
ATOM     23  C   UNL A   1      32.506  19.901  23.846  1.00  0.00     0.001 A 
BRANCH  15  24
ATOM     24  O   UNL A   1      36.831  21.521  25.799  1.00  0.00    -0.496 OA
ATOM     25  C   UNL A   1      38.074  22.206  25.670  1.00  0.00     0.278 C 
ENDBRANCH  15  24
ENDBRANCH   8  14
ENDBRANCH   4   7
ENDBRANCH   2   3
ENDBRANCH   1   2
BRANCH   1  26
ATOM     26  C   UNL A   1      33.613  28.236  27.236  1.00  0.00     0.118 C 
BRANCH  26  27
ATOM     27  N   UNL A   1      33.523  29.672  27.469  1.00  0.00    -0.352 N 
ATOM     28  C   UNL A   1      34.412  30.533  28.056  1.00  0.00     0.251 C 
ATOM     29  H   UNL A   1      32.690  30.091  27.152  1.00  0.00     0.163 HD
ATOM     30  O   UNL A   1      34.030  31.663  28.373  1.00  0.00    -0.269 OA
BRANCH  28  31
ATOM     31  C   UNL A   1      35.809  30.126  28.316  1.00  0.00     0.039 A 
ATOM     32  C   UNL A   1      36.729  30.155  27.264  1.00  0.00     0.014 A 
ATOM     33  C   UNL A   1      36.204  29.668  29.577  1.00  0.00     0.014 A 
ATOM     34  C   UNL A   1      38.055  29.778  27.491  1.00  0.00     0.010 A 
ATOM     35  C   UNL A   1      37.542  29.370  29.821  1.00  0.00     0.010 A 
ATOM     36  C   UNL A   1      38.479  29.412  28.779  1.00  0.00    -0.014 A 
BRANCH  36  37
ATOM     37  C   UNL A   1      39.895  29.061  29.054  1.00  0.00     0.031 A 
ATOM     38  C   UNL A   1      40.826  30.085  29.646  1.00  0.00     0.074 A 
ATOM     39  C   UNL A   1      40.355  27.841  28.713  1.00  0.00     0.049 A 
ATOM     40  N   UNL A   1      42.108  29.992  29.889  1.00  0.00    -0.248 NA
ATOM     41  C   UNL A   1      40.246  31.395  29.985  1.00  0.00     0.031 C 
ATOM     42  C   UNL A   1      39.559  26.781  28.090  1.00  0.00     0.029 A 
ATOM     43  N   UNL A   1      41.605  27.289  28.832  1.00  0.00    -0.354 N 
ATOM     44  C   UNL A   1      42.490  31.231  30.394  1.00  0.00     0.074 A 
ATOM     45  C   UNL A   1      41.315  32.075  30.372  1.00  0.00     0.031 C 
ATOM     46  C   UNL A   1      40.333  25.700  27.906  1.00  0.00     0.029 A 
ATOM     47  C   UNL A   1      41.687  26.001  28.360  1.00  0.00     0.049 A 
ATOM     48  H   UNL A   1      42.372  27.771  29.220  1.00  0.00     0.167 HD
ATOM     49  C   UNL A   1      43.701  31.619  30.857  1.00  0.00     0.037 A 
ATOM     50  C   UNL A   1      42.736  25.158  28.297  1.00  0.00     0.037 A 
ATOM     51  C   UNL A   1      44.859  30.765  30.900  1.00  0.00     0.049 A 
ATOM     52  C   UNL A   1      44.071  25.612  28.819  1.00  0.00     0.074 A 
ATOM     53  C   UNL A   1      46.120  31.046  31.396  1.00  0.00     0.029 A 
ATOM     54  N   UNL A   1      44.896  29.459  30.432  1.00  0.00    -0.354 N 
ATOM     55  N   UNL A   1      44.401  26.770  29.341  1.00  0.00    -0.248 NA
ATOM     56  C   UNL A   1      45.175  24.646  28.751  1.00  0.00     0.031 C 
ATOM     57  C   UNL A   1      46.930  29.924  31.194  1.00  0.00     0.029 A 
ATOM     58  C   UNL A   1      46.162  28.927  30.614  1.00  0.00     0.049 A 
ATOM     59  H   UNL A   1      44.136  28.980  30.030  1.00  0.00     0.167 HD
ATOM     60  C   UNL A   1      45.743  26.662  29.688  1.00  0.00     0.074 A 
ATOM     61  C   UNL A   1      46.159  25.321  29.327  1.00  0.00     0.031 C 
ATOM     62  C   UNL A   1      46.557  27.587  30.253  1.00  0.00     0.037 A 
BRANCH  49  63
ATOM     63  C   UNL A   1      43.834  33.031  31.363  1.00  0.00     0.058 A 
ATOM     64  C   UNL A   1      43.514  33.370  32.687  1.00  0.00     0.135 A 
ATOM     65  C   UNL A   1      44.314  34.051  30.525  1.00  0.00     0.135 A 
ATOM     66  F   UNL A   1      43.035  32.438  33.528  1.00  0.00    -0.206 F 
ATOM     67  C   UNL A   1      43.637  34.674  33.156  1.00  0.00     0.059 A 
ATOM     68  C   UNL A   1      44.471  35.357  30.980  1.00  0.00     0.059 A 
ATOM     69  F   UNL A   1      44.635  33.783  29.250  1.00  0.00    -0.206 F 
ATOM     70  C   UNL A   1      44.115  35.662  32.293  1.00  0.00     0.060 A 
BRANCH  70  71
ATOM     71  S   UNL A   1      44.271  37.349  32.916  1.00  0.00     0.124 S 
ATOM     72  O   UNL A   1      43.378  37.315  34.071  1.00  0.00    -0.237 OA
ATOM     73  O   UNL A   1      45.695  37.441  33.220  1.00  0.00    -0.237 OA
ATOM     74  O   UNL A   1      43.818  38.168  31.797  1.00  0.00    -0.744 OA
ENDBRANCH  70  71
ENDBRANCH  49  63
BRANCH  50  75
ATOM     75  C   UNL A   1      42.556  23.790  27.744  1.00  0.00     0.058 A 
ATOM     76  C   UNL A   1      42.400  22.686  28.596  1.00  0.00     0.135 A 
ATOM     77  C   UNL A   1      42.517  23.558  26.361  1.00  0.00     0.135 A 
ATOM     78  F   UNL A   1      42.436  22.856  29.927  1.00  0.00    -0.206 F 
ATOM     79  C   UNL A   1      42.228  21.399  28.098  1.00  0.00     0.059 A 
ATOM     80  C   UNL A   1      42.320  22.284  25.838  1.00  0.00     0.059 A 
ATOM     81  F   UNL A   1      42.642  24.583  25.504  1.00  0.00    -0.206 F 
ATOM     82  C   UNL A   1      42.187  21.208  26.716  1.00  0.00     0.060 A 
BRANCH  82  83
ATOM     83  S   UNL A   1      41.912  19.541  26.080  1.00  0.00     0.124 S 
ATOM     84  O   UNL A   1      42.772  19.531  24.903  1.00  0.00    -0.237 OA
ATOM     85  O   UNL A   1      42.348  18.710  27.198  1.00  0.00    -0.237 OA
ATOM     86  O   UNL A   1      40.476  19.517  25.815  1.00  0.00    -0.744 OA
ENDBRANCH  82  83
ENDBRANCH  50  75
BRANCH  62  87
ATOM     87  C   UNL A   1      47.972  27.171  30.550  1.00  0.00     0.058 A 
ATOM     88  C   UNL A   1      48.996  27.316  29.602  1.00  0.00     0.135 A 
ATOM     89  C   UNL A   1      48.312  26.664  31.814  1.00  0.00     0.135 A 
ATOM     90  F   UNL A   1      48.721  27.790  28.376  1.00  0.00    -0.206 F 
ATOM     91  C   UNL A   1      50.306  26.949  29.889  1.00  0.00     0.059 A 
ATOM     92  C   UNL A   1      49.621  26.316  32.131  1.00  0.00     0.059 A 
ATOM     93  F   UNL A   1      47.370  26.516  32.759  1.00  0.00    -0.206 F 
ATOM     94  C   UNL A   1      50.608  26.450  31.158  1.00  0.00     0.060 A 
BRANCH  94  95
ATOM     95  S   UNL A   1      52.318  26.003  31.527  1.00  0.00     0.124 S 
ATOM     96  O   UNL A   1      52.672  27.002  32.531  1.00  0.00    -0.237 OA
ATOM     97  O   UNL A   1      52.187  24.633  32.013  1.00  0.00    -0.237 OA
ATOM     98  O   UNL A   1      52.990  26.142  30.238  1.00  0.00    -0.744 OA
ENDBRANCH  94  95
ENDBRANCH  62  87
ENDBRANCH  36  37
ENDBRANCH  28  31
ENDBRANCH  26  27
ENDBRANCH   1  26
TORSDOF 15
ENDMDL
