MODEL 1
REMARK VINA RESULT:     -12.6      0.000      0.000
REMARK SMILES CC(C)CCc1cc2c(cc1Cl)C=C(C(=O)NCCCNC(=O)c1ccc(-c3c4nc(c(-c5c(F)cc(S(=O)(=O)[O-])cc5F)c5ccc([nH]5)c(-c5c(F)cc(S(=O)(=O)[O-])cc5F)c5nc(c(-c6c(F)cc(S(=O)(=O)[O-])cc6F)c6ccc3[nH]6)C=C5)C=C4)cc1)[C@@H](C(F)(F)F)O2
REMARK SMILES IDX 19 1 18 2 17 3 15 4 16 5 14 7 6 8 7 9 11 10 8 11 10 12 12 13
REMARK SMILES IDX 9 14 95 15 13 16 90 17 5 18 4 19 2 20 1 21 3 22 91 23 92 24
REMARK SMILES IDX 93 25 94 26 20 27 21 28 22 29 23 31 24 32 25 33 89 34 26 35
REMARK SMILES IDX 88 36 27 37 28 38 29 39 82 40 30 41 87 42 81 43 83 44 31 45
REMARK SMILES IDX 86 46 80 47 79 48 32 50 66 51 45 52 65 53 46 54 49 55 64 56
REMARK SMILES IDX 84 57 47 58 48 59 63 61 85 62 50 63 33 64 34 65 43 66 35 67
REMARK SMILES IDX 36 68 42 69 44 70 37 71 38 72 39 73 40 74 41 75 67 76 68 77
REMARK SMILES IDX 77 78 69 79 70 80 76 81 78 82 71 83 72 84 73 85 74 86 75 87
REMARK SMILES IDX 51 88 52 89 61 90 53 91 54 92 60 93 62 94 55 95 56 96 57 97
REMARK SMILES IDX 58 98 59 99
REMARK H PARENT 17 6 21 30 83 49 49 60
REMARK Flexibility Score: inf
ROOT
ATOM      1  C   UNL A   1      39.304  22.126  26.524  1.00  0.00     0.042 C 
ENDROOT
BRANCH   1   2
ATOM      2  C   UNL A   1      38.112  22.654  25.744  1.00  0.00     0.118 C 
BRANCH   2   3
ATOM      3  N   UNL A   1      36.908  21.887  26.018  1.00  0.00    -0.352 N 
ATOM      4  C   UNL A   1      35.583  22.019  25.789  1.00  0.00     0.251 C 
ATOM      5  O   UNL A   1      34.880  21.100  26.223  1.00  0.00    -0.270 OA
ATOM      6  H   UNL A   1      37.112  21.051  26.496  1.00  0.00     0.163 HD
BRANCH   4   7
ATOM      7  C   UNL A   1      34.952  23.150  25.057  1.00  0.00     0.067 C 
ATOM      8  C   UNL A   1      32.762  27.516  23.800  1.00  0.00    -0.026 A 
ATOM      9  C   UNL A   1      33.408  26.487  23.079  1.00  0.00     0.052 A 
ATOM     10  C   UNL A   1      32.744  27.403  25.203  1.00  0.00     0.045 A 
ATOM     11  C   UNL A   1      34.017  25.420  23.732  1.00  0.00     0.128 A 
ATOM     12  C   UNL A   1      33.455  26.382  25.854  1.00  0.00     0.032 A 
ATOM     13  Cl  UNL A   1      31.805  28.405  26.250  1.00  0.00    -0.084 Cl
ATOM     14  C   UNL A   1      34.089  25.387  25.120  1.00  0.00     0.019 A 
ATOM     15  O   UNL A   1      34.508  24.398  22.965  1.00  0.00    -0.475 OA
ATOM     16  C   UNL A   1      34.778  24.280  25.768  1.00  0.00     0.025 C 
ATOM     17  C   UNL A   1      34.467  23.099  23.633  1.00  0.00     0.314 C 
BRANCH   8  18
ATOM     18  C   UNL A   1      32.086  28.570  22.942  1.00  0.00     0.037 C 
BRANCH  18  19
ATOM     19  C   UNL A   1      30.674  28.371  22.379  1.00  0.00     0.008 C 
BRANCH  19  20
ATOM     20  C   UNL A   1      29.570  28.116  23.422  1.00  0.00    -0.017 C 
ATOM     21  C   UNL A   1      28.227  28.704  22.995  1.00  0.00     0.007 C 
ATOM     22  C   UNL A   1      29.431  26.610  23.662  1.00  0.00     0.007 C 
ENDBRANCH  19  20
ENDBRANCH  18  19
ENDBRANCH   8  18
BRANCH  17  23
ATOM     23  C   UNL A   1      33.054  22.478  23.519  1.00  0.00     0.429 C 
ATOM     24  F   UNL A   1      32.301  22.803  24.598  1.00  0.00    -0.167 F 
ATOM     25  F   UNL A   1      32.380  22.922  22.430  1.00  0.00    -0.167 F 
ATOM     26  F   UNL A   1      33.069  21.129  23.431  1.00  0.00    -0.167 F 
ENDBRANCH  17  23
ENDBRANCH   4   7
ENDBRANCH   2   3
ENDBRANCH   1   2
BRANCH   1  27
ATOM     27  C   UNL A   1      40.151  23.242  27.117  1.00  0.00     0.118 C 
BRANCH  27  28
ATOM     28  N   UNL A   1      40.746  24.088  26.085  1.00  0.00    -0.352 N 
ATOM     29  C   UNL A   1      41.035  25.433  26.098  1.00  0.00     0.251 C 
ATOM     30  H   UNL A   1      40.977  23.622  25.248  1.00  0.00     0.163 HD
ATOM     31  O   UNL A   1      41.323  26.004  25.056  1.00  0.00    -0.269 OA
BRANCH  29  32
ATOM     32  C   UNL A   1      40.982  26.177  27.374  1.00  0.00     0.039 A 
ATOM     33  C   UNL A   1      39.916  25.980  28.250  1.00  0.00     0.014 A 
ATOM     34  C   UNL A   1      41.996  27.085  27.691  1.00  0.00     0.014 A 
ATOM     35  C   UNL A   1      39.756  26.831  29.333  1.00  0.00     0.010 A 
ATOM     36  C   UNL A   1      41.892  27.859  28.851  1.00  0.00     0.010 A 
ATOM     37  C   UNL A   1      40.745  27.774  29.656  1.00  0.00    -0.014 A 
BRANCH  37  38
ATOM     38  C   UNL A   1      40.537  28.648  30.838  1.00  0.00     0.031 A 
ATOM     39  C   UNL A   1      41.483  28.599  32.009  1.00  0.00     0.074 A 
ATOM     40  C   UNL A   1      39.548  29.566  30.799  1.00  0.00     0.049 A 
ATOM     41  N   UNL A   1      41.472  29.315  33.104  1.00  0.00    -0.248 NA
ATOM     42  C   UNL A   1      42.583  27.622  31.949  1.00  0.00     0.031 C 
ATOM     43  C   UNL A   1      38.588  29.723  29.701  1.00  0.00     0.029 A 
ATOM     44  N   UNL A   1      39.214  30.570  31.670  1.00  0.00    -0.354 N 
ATOM     45  C   UNL A   1      42.549  28.871  33.864  1.00  0.00     0.074 A 
ATOM     46  C   UNL A   1      43.174  27.798  33.124  1.00  0.00     0.031 C 
ATOM     47  C   UNL A   1      37.842  30.815  29.919  1.00  0.00     0.029 A 
ATOM     48  C   UNL A   1      38.205  31.385  31.210  1.00  0.00     0.049 A 
ATOM     49  H   UNL A   1      39.654  30.696  32.542  1.00  0.00     0.167 HD
ATOM     50  C   UNL A   1      42.985  29.331  35.061  1.00  0.00     0.037 A 
ATOM     51  C   UNL A   1      37.630  32.465  31.769  1.00  0.00     0.037 A 
ATOM     52  C   UNL A   1      42.370  30.418  35.778  1.00  0.00     0.049 A 
ATOM     53  C   UNL A   1      38.093  32.907  33.127  1.00  0.00     0.074 A 
ATOM     54  C   UNL A   1      42.720  30.942  37.011  1.00  0.00     0.029 A 
ATOM     55  N   UNL A   1      41.292  31.159  35.320  1.00  0.00    -0.354 N 
ATOM     56  N   UNL A   1      39.082  32.441  33.850  1.00  0.00    -0.248 NA
ATOM     57  C   UNL A   1      37.346  34.004  33.757  1.00  0.00     0.031 C 
ATOM     58  C   UNL A   1      41.835  31.982  37.310  1.00  0.00     0.029 A 
ATOM     59  C   UNL A   1      40.958  32.130  36.248  1.00  0.00     0.049 A 
ATOM     60  H   UNL A   1      40.831  31.016  34.462  1.00  0.00     0.167 HD
ATOM     61  C   UNL A   1      39.082  33.193  35.018  1.00  0.00     0.074 A 
ATOM     62  C   UNL A   1      38.010  34.160  34.894  1.00  0.00     0.031 C 
ATOM     63  C   UNL A   1      39.891  33.088  36.100  1.00  0.00     0.037 A 
BRANCH  50  64
ATOM     64  C   UNL A   1      44.189  28.671  35.676  1.00  0.00     0.058 A 
ATOM     65  C   UNL A   1      44.059  27.575  36.542  1.00  0.00     0.135 A 
ATOM     66  C   UNL A   1      45.486  29.087  35.335  1.00  0.00     0.135 A 
ATOM     67  F   UNL A   1      42.841  27.151  36.917  1.00  0.00    -0.206 F 
ATOM     68  C   UNL A   1      45.172  26.918  37.054  1.00  0.00     0.059 A 
ATOM     69  C   UNL A   1      46.614  28.430  35.819  1.00  0.00     0.059 A 
ATOM     70  F   UNL A   1      45.667  30.133  34.513  1.00  0.00    -0.206 F 
ATOM     71  C   UNL A   1      46.447  27.348  36.682  1.00  0.00     0.060 A 
BRANCH  71  72
ATOM     72  S   UNL A   1      47.878  26.460  37.332  1.00  0.00     0.124 S 
ATOM     73  O   UNL A   1      48.728  27.561  37.773  1.00  0.00    -0.237 OA
ATOM     74  O   UNL A   1      47.286  25.652  38.393  1.00  0.00    -0.237 OA
ATOM     75  O   UNL A   1      48.369  25.713  36.178  1.00  0.00    -0.744 OA
ENDBRANCH  71  72
ENDBRANCH  50  64
BRANCH  51  76
ATOM     76  C   UNL A   1      36.547  33.192  31.056  1.00  0.00     0.058 A 
ATOM     77  C   UNL A   1      35.209  33.071  31.462  1.00  0.00     0.135 A 
ATOM     78  C   UNL A   1      36.822  34.020  29.956  1.00  0.00     0.135 A 
ATOM     79  F   UNL A   1      34.894  32.287  32.504  1.00  0.00    -0.206 F 
ATOM     80  C   UNL A   1      34.183  33.731  30.796  1.00  0.00     0.059 A 
ATOM     81  C   UNL A   1      35.817  34.714  29.292  1.00  0.00     0.059 A 
ATOM     82  F   UNL A   1      38.087  34.182  29.536  1.00  0.00    -0.206 F 
ATOM     83  C   UNL A   1      34.498  34.550  29.710  1.00  0.00     0.060 A 
BRANCH  83  84
ATOM     84  S   UNL A   1      33.163  35.426  28.868  1.00  0.00     0.124 S 
ATOM     85  O   UNL A   1      32.543  34.347  28.105  1.00  0.00    -0.237 OA
ATOM     86  O   UNL A   1      32.383  35.947  29.986  1.00  0.00    -0.237 OA
ATOM     87  O   UNL A   1      33.867  36.434  28.079  1.00  0.00    -0.744 OA
ENDBRANCH  83  84
ENDBRANCH  51  76
BRANCH  63  88
ATOM     88  C   UNL A   1      39.659  34.048  37.229  1.00  0.00     0.058 A 
ATOM     89  C   UNL A   1      38.937  33.668  38.371  1.00  0.00     0.135 A 
ATOM     90  C   UNL A   1      40.220  35.334  37.198  1.00  0.00     0.135 A 
ATOM     91  F   UNL A   1      38.374  32.452  38.442  1.00  0.00    -0.206 F 
ATOM     92  C   UNL A   1      38.772  34.537  39.443  1.00  0.00     0.059 A 
ATOM     93  C   UNL A   1      40.087  36.210  38.269  1.00  0.00     0.059 A 
ATOM     94  F   UNL A   1      40.924  35.739  36.129  1.00  0.00    -0.206 F 
ATOM     95  C   UNL A   1      39.357  35.804  39.385  1.00  0.00     0.060 A 
BRANCH  95  96
ATOM     96  S   UNL A   1      39.179  36.899  40.809  1.00  0.00     0.124 S 
ATOM     97  O   UNL A   1      40.571  37.200  41.125  1.00  0.00    -0.237 OA
ATOM     98  O   UNL A   1      38.401  38.004  40.257  1.00  0.00    -0.237 OA
ATOM     99  O   UNL A   1      38.477  36.074  41.788  1.00  0.00    -0.744 OA
ENDBRANCH  95  96
ENDBRANCH  63  88
ENDBRANCH  37  38
ENDBRANCH  29  32
ENDBRANCH  27  28
ENDBRANCH   1  27
TORSDOF 17
ENDMDL
MODEL 2
REMARK VINA RESULT:     -12.6      1.181      2.019
REMARK SMILES CC(C)CCc1cc2c(cc1Cl)C=C(C(=O)NCCCNC(=O)c1ccc(-c3c4nc(c(-c5c(F)cc(S(=O)(=O)[O-])cc5F)c5ccc([nH]5)c(-c5c(F)cc(S(=O)(=O)[O-])cc5F)c5nc(c(-c6c(F)cc(S(=O)(=O)[O-])cc6F)c6ccc3[nH]6)C=C5)C=C4)cc1)[C@@H](C(F)(F)F)O2
REMARK SMILES IDX 19 1 18 2 17 3 15 4 16 5 14 7 6 8 7 9 11 10 8 11 10 12 12 13
REMARK SMILES IDX 9 14 95 15 13 16 90 17 5 18 4 19 2 20 1 21 3 22 91 23 92 24
REMARK SMILES IDX 93 25 94 26 20 27 21 28 22 29 23 31 24 32 25 33 89 34 26 35
REMARK SMILES IDX 88 36 27 37 28 38 29 39 82 40 30 41 87 42 81 43 83 44 31 45
REMARK SMILES IDX 86 46 80 47 79 48 32 50 66 51 45 52 65 53 46 54 49 55 64 56
REMARK SMILES IDX 84 57 47 58 48 59 63 61 85 62 50 63 33 64 34 65 43 66 35 67
REMARK SMILES IDX 36 68 42 69 44 70 37 71 38 72 39 73 40 74 41 75 67 76 68 77
REMARK SMILES IDX 77 78 69 79 70 80 76 81 78 82 71 83 72 84 73 85 74 86 75 87
REMARK SMILES IDX 51 88 52 89 61 90 53 91 54 92 60 93 62 94 55 95 56 96 57 97
REMARK SMILES IDX 58 98 59 99
REMARK H PARENT 17 6 21 30 83 49 49 60
REMARK Flexibility Score: inf
ROOT
ATOM      1  C   UNL A   1      40.329  22.093  27.205  1.00  0.00     0.042 C 
ENDROOT
BRANCH   1   2
ATOM      2  C   UNL A   1      39.084  22.607  26.501  1.00  0.00     0.118 C 
BRANCH   2   3
ATOM      3  N   UNL A   1      38.314  21.523  25.915  1.00  0.00    -0.352 N 
ATOM      4  C   UNL A   1      37.042  21.332  25.497  1.00  0.00     0.251 C 
ATOM      5  O   UNL A   1      36.797  20.204  25.058  1.00  0.00    -0.270 OA
ATOM      6  H   UNL A   1      38.862  20.715  25.788  1.00  0.00     0.163 HD
BRANCH   4   7
ATOM      7  C   UNL A   1      35.973  22.366  25.516  1.00  0.00     0.067 C 
ATOM      8  C   UNL A   1      31.722  24.957  26.324  1.00  0.00    -0.026 A 
ATOM      9  C   UNL A   1      33.013  25.291  25.855  1.00  0.00     0.052 A 
ATOM     10  C   UNL A   1      31.515  23.631  26.746  1.00  0.00     0.045 A 
ATOM     11  C   UNL A   1      34.038  24.351  25.834  1.00  0.00     0.128 A 
ATOM     12  C   UNL A   1      32.583  22.722  26.822  1.00  0.00     0.032 A 
ATOM     13  Cl  UNL A   1      29.970  22.953  27.112  1.00  0.00    -0.084 Cl
ATOM     14  C   UNL A   1      33.845  23.079  26.363  1.00  0.00     0.019 A 
ATOM     15  O   UNL A   1      35.222  24.711  25.248  1.00  0.00    -0.475 OA
ATOM     16  C   UNL A   1      34.956  22.138  26.368  1.00  0.00     0.025 C 
ATOM     17  C   UNL A   1      35.933  23.588  24.638  1.00  0.00     0.314 C 
BRANCH   8  18
ATOM     18  C   UNL A   1      30.697  26.071  26.217  1.00  0.00     0.037 C 
BRANCH  18  19
ATOM     19  C   UNL A   1      29.908  26.324  24.928  1.00  0.00     0.008 C 
BRANCH  19  20
ATOM     20  C   UNL A   1      30.502  27.382  23.980  1.00  0.00    -0.017 C 
ATOM     21  C   UNL A   1      29.430  28.057  23.126  1.00  0.00     0.007 C 
ATOM     22  C   UNL A   1      31.261  28.432  24.795  1.00  0.00     0.007 C 
ENDBRANCH  19  20
ENDBRANCH  18  19
ENDBRANCH   8  18
BRANCH  17  23
ATOM     23  C   UNL A   1      35.356  23.281  23.236  1.00  0.00     0.429 C 
ATOM     24  F   UNL A   1      36.347  22.952  22.373  1.00  0.00    -0.167 F 
ATOM     25  F   UNL A   1      34.493  22.235  23.249  1.00  0.00    -0.167 F 
ATOM     26  F   UNL A   1      34.681  24.322  22.696  1.00  0.00    -0.167 F 
ENDBRANCH  17  23
ENDBRANCH   4   7
ENDBRANCH   2   3
ENDBRANCH   1   2
BRANCH   1  27
ATOM     27  C   UNL A   1      41.298  23.212  27.558  1.00  0.00     0.118 C 
BRANCH  27  28
ATOM     28  N   UNL A   1      41.683  23.995  26.387  1.00  0.00    -0.352 N 
ATOM     29  C   UNL A   1      41.536  25.340  26.131  1.00  0.00     0.251 C 
ATOM     30  H   UNL A   1      42.117  23.481  25.667  1.00  0.00     0.163 HD
ATOM     31  O   UNL A   1      41.715  25.768  25.000  1.00  0.00    -0.269 OA
BRANCH  29  32
ATOM     32  C   UNL A   1      41.147  26.251  27.227  1.00  0.00     0.039 A 
ATOM     33  C   UNL A   1      41.778  27.486  27.363  1.00  0.00     0.014 A 
ATOM     34  C   UNL A   1      40.154  25.865  28.132  1.00  0.00     0.014 A 
ATOM     35  C   UNL A   1      41.569  28.238  28.509  1.00  0.00     0.010 A 
ATOM     36  C   UNL A   1      39.858  26.686  29.224  1.00  0.00     0.010 A 
ATOM     37  C   UNL A   1      40.599  27.856  29.449  1.00  0.00    -0.014 A 
BRANCH  37  38
ATOM     38  C   UNL A   1      40.397  28.707  30.650  1.00  0.00     0.031 A 
ATOM     39  C   UNL A   1      41.340  28.624  31.821  1.00  0.00     0.074 A 
ATOM     40  C   UNL A   1      39.415  29.633  30.630  1.00  0.00     0.049 A 
ATOM     41  N   UNL A   1      41.334  29.315  32.931  1.00  0.00    -0.248 NA
ATOM     42  C   UNL A   1      42.432  27.639  31.740  1.00  0.00     0.031 C 
ATOM     43  C   UNL A   1      38.458  29.822  29.534  1.00  0.00     0.029 A 
ATOM     44  N   UNL A   1      39.089  30.621  31.522  1.00  0.00    -0.354 N 
ATOM     45  C   UNL A   1      42.406  28.847  33.683  1.00  0.00     0.074 A 
ATOM     46  C   UNL A   1      43.023  27.785  32.920  1.00  0.00     0.031 C 
ATOM     47  C   UNL A   1      37.721  30.915  29.775  1.00  0.00     0.029 A 
ATOM     48  C   UNL A   1      38.087  31.454  31.079  1.00  0.00     0.049 A 
ATOM     49  H   UNL A   1      39.528  30.724  32.397  1.00  0.00     0.167 HD
ATOM     50  C   UNL A   1      42.844  29.276  34.889  1.00  0.00     0.037 A 
ATOM     51  C   UNL A   1      37.520  32.526  31.660  1.00  0.00     0.037 A 
ATOM     52  C   UNL A   1      42.238  30.352  35.629  1.00  0.00     0.049 A 
ATOM     53  C   UNL A   1      37.985  32.935  33.028  1.00  0.00     0.074 A 
ATOM     54  C   UNL A   1      42.590  30.846  36.874  1.00  0.00     0.029 A 
ATOM     55  N   UNL A   1      41.166  31.112  35.187  1.00  0.00    -0.354 N 
ATOM     56  N   UNL A   1      38.969  32.444  33.742  1.00  0.00    -0.248 NA
ATOM     57  C   UNL A   1      37.247  34.024  33.681  1.00  0.00     0.031 C 
ATOM     58  C   UNL A   1      41.714  31.888  37.195  1.00  0.00     0.029 A 
ATOM     59  C   UNL A   1      40.839  32.066  36.135  1.00  0.00     0.049 A 
ATOM     60  H   UNL A   1      40.706  30.992  34.325  1.00  0.00     0.167 HD
ATOM     61  C   UNL A   1      38.974  33.171  34.926  1.00  0.00     0.074 A 
ATOM     62  C   UNL A   1      37.910  34.149  34.822  1.00  0.00     0.031 C 
ATOM     63  C   UNL A   1      39.781  33.035  36.007  1.00  0.00     0.037 A 
BRANCH  50  64
ATOM     64  C   UNL A   1      44.042  28.594  35.491  1.00  0.00     0.058 A 
ATOM     65  C   UNL A   1      45.343  29.065  35.262  1.00  0.00     0.135 A 
ATOM     66  C   UNL A   1      43.883  27.508  36.368  1.00  0.00     0.135 A 
ATOM     67  F   UNL A   1      45.552  30.087  34.416  1.00  0.00    -0.206 F 
ATOM     68  C   UNL A   1      46.446  28.482  35.875  1.00  0.00     0.059 A 
ATOM     69  C   UNL A   1      44.971  26.922  37.010  1.00  0.00     0.059 A 
ATOM     70  F   UNL A   1      42.660  27.015  36.619  1.00  0.00    -0.206 F 
ATOM     71  C   UNL A   1      46.250  27.414  36.753  1.00  0.00     0.060 A 
BRANCH  71  72
ATOM     72  S   UNL A   1      47.693  26.692  37.564  1.00  0.00     0.124 S 
ATOM     73  O   UNL A   1      48.355  27.882  38.092  1.00  0.00    -0.237 OA
ATOM     74  O   UNL A   1      47.084  25.813  38.556  1.00  0.00    -0.237 OA
ATOM     75  O   UNL A   1      48.394  26.016  36.476  1.00  0.00    -0.744 OA
ENDBRANCH  71  72
ENDBRANCH  50  64
BRANCH  51  76
ATOM     76  C   UNL A   1      36.444  33.277  30.962  1.00  0.00     0.058 A 
ATOM     77  C   UNL A   1      36.742  34.135  29.892  1.00  0.00     0.135 A 
ATOM     78  C   UNL A   1      35.099  33.155  31.345  1.00  0.00     0.135 A 
ATOM     79  F   UNL A   1      38.013  34.290  29.492  1.00  0.00    -0.206 F 
ATOM     80  C   UNL A   1      35.750  34.857  29.240  1.00  0.00     0.059 A 
ATOM     81  C   UNL A   1      34.085  33.844  30.689  1.00  0.00     0.059 A 
ATOM     82  F   UNL A   1      34.758  32.335  32.353  1.00  0.00    -0.206 F 
ATOM     83  C   UNL A   1      34.422  34.705  29.647  1.00  0.00     0.060 A 
BRANCH  83  84
ATOM     84  S   UNL A   1      33.137  35.625  28.776  1.00  0.00     0.124 S 
ATOM     85  O   UNL A   1      32.498  34.568  28.000  1.00  0.00    -0.237 OA
ATOM     86  O   UNL A   1      32.352  36.174  29.877  1.00  0.00    -0.237 OA
ATOM     87  O   UNL A   1      33.892  36.608  28.003  1.00  0.00    -0.744 OA
ENDBRANCH  83  84
ENDBRANCH  51  76
BRANCH  63  88
ATOM     88  C   UNL A   1      39.555  33.973  37.156  1.00  0.00     0.058 A 
ATOM     89  C   UNL A   1      38.839  33.570  38.294  1.00  0.00     0.135 A 
ATOM     90  C   UNL A   1      40.117  35.258  37.148  1.00  0.00     0.135 A 
ATOM     91  F   UNL A   1      38.276  32.353  38.343  1.00  0.00    -0.206 F 
ATOM     92  C   UNL A   1      38.680  34.417  39.384  1.00  0.00     0.059 A 
ATOM     93  C   UNL A   1      39.990  36.113  38.237  1.00  0.00     0.059 A 
ATOM     94  F   UNL A   1      40.815  35.685  36.084  1.00  0.00    -0.206 F 
ATOM     95  C   UNL A   1      39.265  35.685  39.349  1.00  0.00     0.060 A 
BRANCH  95  96
ATOM     96  S   UNL A   1      39.096  36.751  40.795  1.00  0.00     0.124 S 
ATOM     97  O   UNL A   1      40.478  36.850  41.252  1.00  0.00    -0.237 OA
ATOM     98  O   UNL A   1      38.529  37.967  40.222  1.00  0.00    -0.237 OA
ATOM     99  O   UNL A   1      38.198  36.000  41.668  1.00  0.00    -0.744 OA
ENDBRANCH  95  96
ENDBRANCH  63  88
ENDBRANCH  37  38
ENDBRANCH  29  32
ENDBRANCH  27  28
ENDBRANCH   1  27
TORSDOF 17
ENDMDL
MODEL 3
REMARK VINA RESULT:     -12.5      6.622     11.696
REMARK SMILES CC(C)CCc1cc2c(cc1Cl)C=C(C(=O)NCCCNC(=O)c1ccc(-c3c4nc(c(-c5c(F)cc(S(=O)(=O)[O-])cc5F)c5ccc([nH]5)c(-c5c(F)cc(S(=O)(=O)[O-])cc5F)c5nc(c(-c6c(F)cc(S(=O)(=O)[O-])cc6F)c6ccc3[nH]6)C=C5)C=C4)cc1)[C@@H](C(F)(F)F)O2
REMARK SMILES IDX 19 1 18 2 17 3 15 4 16 5 14 7 6 8 7 9 11 10 8 11 10 12 12 13
REMARK SMILES IDX 9 14 95 15 13 16 90 17 5 18 4 19 2 20 1 21 3 22 91 23 92 24
REMARK SMILES IDX 93 25 94 26 20 27 21 28 22 29 23 31 24 32 25 33 89 34 26 35
REMARK SMILES IDX 88 36 27 37 28 38 29 39 82 40 30 41 87 42 81 43 83 44 31 45
REMARK SMILES IDX 86 46 80 47 79 48 32 50 66 51 45 52 65 53 46 54 49 55 64 56
REMARK SMILES IDX 84 57 47 58 48 59 63 61 85 62 50 63 33 64 34 65 43 66 35 67
REMARK SMILES IDX 36 68 42 69 44 70 37 71 38 72 39 73 40 74 41 75 67 76 68 77
REMARK SMILES IDX 77 78 69 79 70 80 76 81 78 82 71 83 72 84 73 85 74 86 75 87
REMARK SMILES IDX 51 88 52 89 61 90 53 91 54 92 60 93 62 94 55 95 56 96 57 97
REMARK SMILES IDX 58 98 59 99
REMARK H PARENT 17 6 21 30 83 49 49 60
REMARK Flexibility Score: inf
ROOT
ATOM      1  C   UNL A   1      35.422  32.281  27.750  1.00  0.00     0.042 C 
ENDROOT
BRANCH   1   2
ATOM      2  C   UNL A   1      34.546  31.044  27.866  1.00  0.00     0.118 C 
BRANCH   2   3
ATOM      3  N   UNL A   1      33.294  31.204  27.148  1.00  0.00    -0.352 N 
ATOM      4  C   UNL A   1      32.550  30.472  26.289  1.00  0.00     0.251 C 
ATOM      5  O   UNL A   1      31.515  31.017  25.891  1.00  0.00    -0.270 OA
ATOM      6  H   UNL A   1      32.876  32.076  27.336  1.00  0.00     0.163 HD
BRANCH   4   7
ATOM      7  C   UNL A   1      32.883  29.095  25.832  1.00  0.00     0.067 C 
ATOM      8  C   UNL A   1      33.834  24.978  23.078  1.00  0.00    -0.026 A 
ATOM      9  C   UNL A   1      34.055  25.343  24.426  1.00  0.00     0.052 A 
ATOM     10  C   UNL A   1      33.290  25.960  22.228  1.00  0.00     0.045 A 
ATOM     11  C   UNL A   1      33.764  26.624  24.883  1.00  0.00     0.128 A 
ATOM     12  C   UNL A   1      33.104  27.278  22.674  1.00  0.00     0.032 A 
ATOM     13  Cl  UNL A   1      32.714  25.655  20.629  1.00  0.00    -0.084 Cl
ATOM     14  C   UNL A   1      33.337  27.612  24.003  1.00  0.00     0.019 A 
ATOM     15  O   UNL A   1      33.882  26.864  26.226  1.00  0.00    -0.475 OA
ATOM     16  C   UNL A   1      33.091  28.954  24.509  1.00  0.00     0.025 C 
ATOM     17  C   UNL A   1      32.953  27.881  26.718  1.00  0.00     0.314 C 
BRANCH   8  18
ATOM     18  C   UNL A   1      34.134  23.527  22.752  1.00  0.00     0.037 C 
BRANCH  18  19
ATOM     19  C   UNL A   1      34.253  22.460  23.847  1.00  0.00     0.008 C 
BRANCH  19  20
ATOM     20  C   UNL A   1      35.666  22.245  24.418  1.00  0.00    -0.017 C 
ATOM     21  C   UNL A   1      35.906  20.795  24.832  1.00  0.00     0.007 C 
ATOM     22  C   UNL A   1      36.708  22.673  23.380  1.00  0.00     0.007 C 
ENDBRANCH  19  20
ENDBRANCH  18  19
ENDBRANCH   8  18
BRANCH  17  23
ATOM     23  C   UNL A   1      31.559  27.261  26.972  1.00  0.00     0.429 C 
ATOM     24  F   UNL A   1      30.970  27.834  28.049  1.00  0.00    -0.167 F 
ATOM     25  F   UNL A   1      30.713  27.444  25.927  1.00  0.00    -0.167 F 
ATOM     26  F   UNL A   1      31.600  25.928  27.196  1.00  0.00    -0.167 F 
ENDBRANCH  17  23
ENDBRANCH   4   7
ENDBRANCH   2   3
ENDBRANCH   1   2
BRANCH   1  27
ATOM     27  C   UNL A   1      36.225  32.544  29.015  1.00  0.00     0.118 C 
BRANCH  27  28
ATOM     28  N   UNL A   1      35.889  31.606  30.084  1.00  0.00    -0.352 N 
ATOM     29  C   UNL A   1      36.587  30.520  30.561  1.00  0.00     0.251 C 
ATOM     30  H   UNL A   1      35.030  31.779  30.534  1.00  0.00     0.163 HD
ATOM     31  O   UNL A   1      36.036  29.723  31.307  1.00  0.00    -0.269 OA
BRANCH  29  32
ATOM     32  C   UNL A   1      37.992  30.319  30.152  1.00  0.00     0.039 A 
ATOM     33  C   UNL A   1      38.302  30.081  28.814  1.00  0.00     0.014 A 
ATOM     34  C   UNL A   1      39.006  30.358  31.113  1.00  0.00     0.014 A 
ATOM     35  C   UNL A   1      39.583  29.679  28.470  1.00  0.00     0.010 A 
ATOM     36  C   UNL A   1      40.323  30.071  30.740  1.00  0.00     0.010 A 
ATOM     37  C   UNL A   1      40.614  29.680  29.424  1.00  0.00    -0.014 A 
BRANCH  37  38
ATOM     38  C   UNL A   1      41.975  29.262  29.001  1.00  0.00     0.031 A 
ATOM     39  C   UNL A   1      42.238  27.856  28.529  1.00  0.00     0.074 A 
ATOM     40  C   UNL A   1      42.950  30.193  28.945  1.00  0.00     0.049 A 
ATOM     41  N   UNL A   1      43.354  27.332  28.092  1.00  0.00    -0.248 NA
ATOM     42  C   UNL A   1      41.107  26.913  28.550  1.00  0.00     0.031 C 
ATOM     43  C   UNL A   1      42.800  31.595  29.350  1.00  0.00     0.029 A 
ATOM     44  N   UNL A   1      44.237  30.125  28.478  1.00  0.00    -0.354 N 
ATOM     45  C   UNL A   1      43.065  26.004  27.797  1.00  0.00     0.074 A 
ATOM     46  C   UNL A   1      41.677  25.788  28.138  1.00  0.00     0.031 C 
ATOM     47  C   UNL A   1      43.912  32.270  29.027  1.00  0.00     0.029 A 
ATOM     48  C   UNL A   1      44.887  31.338  28.474  1.00  0.00     0.049 A 
ATOM     49  H   UNL A   1      44.657  29.287  28.175  1.00  0.00     0.167 HD
ATOM     50  C   UNL A   1      43.880  25.058  27.273  1.00  0.00     0.037 A 
ATOM     51  C   UNL A   1      46.131  31.662  28.080  1.00  0.00     0.037 A 
ATOM     52  C   UNL A   1      45.255  25.290  26.912  1.00  0.00     0.049 A 
ATOM     53  C   UNL A   1      47.031  30.577  27.566  1.00  0.00     0.074 A 
ATOM     54  C   UNL A   1      46.173  24.391  26.398  1.00  0.00     0.029 A 
ATOM     55  N   UNL A   1      45.903  26.512  27.010  1.00  0.00    -0.354 N 
ATOM     56  N   UNL A   1      46.752  29.315  27.341  1.00  0.00    -0.248 NA
ATOM     57  C   UNL A   1      48.422  30.950  27.275  1.00  0.00     0.031 C 
ATOM     58  C   UNL A   1      47.385  25.063  26.210  1.00  0.00     0.029 A 
ATOM     59  C   UNL A   1      47.211  26.388  26.573  1.00  0.00     0.049 A 
ATOM     60  H   UNL A   1      45.495  27.344  27.340  1.00  0.00     0.167 HD
ATOM     61  C   UNL A   1      47.930  28.745  26.875  1.00  0.00     0.074 A 
ATOM     62  C   UNL A   1      48.918  29.804  26.828  1.00  0.00     0.031 C 
ATOM     63  C   UNL A   1      48.175  27.459  26.527  1.00  0.00     0.037 A 
BRANCH  50  64
ATOM     64  C   UNL A   1      43.314  23.683  27.046  1.00  0.00     0.058 A 
ATOM     65  C   UNL A   1      43.019  23.219  25.755  1.00  0.00     0.135 A 
ATOM     66  C   UNL A   1      43.140  22.794  28.118  1.00  0.00     0.135 A 
ATOM     67  F   UNL A   1      43.148  24.036  24.697  1.00  0.00    -0.206 F 
ATOM     68  C   UNL A   1      42.565  21.923  25.535  1.00  0.00     0.059 A 
ATOM     69  C   UNL A   1      42.707  21.485  27.919  1.00  0.00     0.059 A 
ATOM     70  F   UNL A   1      43.404  23.188  29.374  1.00  0.00    -0.206 F 
ATOM     71  C   UNL A   1      42.418  21.061  26.623  1.00  0.00     0.060 A 
BRANCH  71  72
ATOM     72  S   UNL A   1      41.859  19.372  26.311  1.00  0.00     0.124 S 
ATOM     73  O   UNL A   1      40.412  19.554  26.232  1.00  0.00    -0.237 OA
ATOM     74  O   UNL A   1      42.526  19.051  25.055  1.00  0.00    -0.237 OA
ATOM     75  O   UNL A   1      42.334  18.634  27.478  1.00  0.00    -0.744 OA
ENDBRANCH  71  72
ENDBRANCH  50  64
BRANCH  51  76
ATOM     76  C   UNL A   1      46.604  33.069  28.169  1.00  0.00     0.058 A 
ATOM     77  C   UNL A   1      47.227  33.547  29.331  1.00  0.00     0.135 A 
ATOM     78  C   UNL A   1      46.444  33.963  27.099  1.00  0.00     0.135 A 
ATOM     79  F   UNL A   1      47.398  32.733  30.383  1.00  0.00    -0.206 F 
ATOM     80  C   UNL A   1      47.660  34.865  29.437  1.00  0.00     0.059 A 
ATOM     81  C   UNL A   1      46.894  35.277  27.168  1.00  0.00     0.059 A 
ATOM     82  F   UNL A   1      45.867  33.552  25.958  1.00  0.00    -0.206 F 
ATOM     83  C   UNL A   1      47.488  35.723  28.348  1.00  0.00     0.060 A 
BRANCH  83  84
ATOM     84  S   UNL A   1      48.078  37.423  28.483  1.00  0.00     0.124 S 
ATOM     85  O   UNL A   1      47.932  37.669  29.913  1.00  0.00    -0.237 OA
ATOM     86  O   UNL A   1      49.446  37.314  27.988  1.00  0.00    -0.237 OA
ATOM     87  O   UNL A   1      47.164  38.165  27.618  1.00  0.00    -0.744 OA
ENDBRANCH  83  84
ENDBRANCH  51  76
BRANCH  63  88
ATOM     88  C   UNL A   1      49.559  27.127  26.051  1.00  0.00     0.058 A 
ATOM     89  C   UNL A   1      50.543  26.667  26.938  1.00  0.00     0.135 A 
ATOM     90  C   UNL A   1      49.881  27.205  24.687  1.00  0.00     0.135 A 
ATOM     91  F   UNL A   1      50.284  26.585  28.253  1.00  0.00    -0.206 F 
ATOM     92  C   UNL A   1      51.807  26.302  26.490  1.00  0.00     0.059 A 
ATOM     93  C   UNL A   1      51.131  26.823  24.214  1.00  0.00     0.059 A 
ATOM     94  F   UNL A   1      48.969  27.633  23.800  1.00  0.00    -0.206 F 
ATOM     95  C   UNL A   1      52.089  26.377  25.124  1.00  0.00     0.060 A 
BRANCH  95  96
ATOM     96  S   UNL A   1      53.717  25.848  24.551  1.00  0.00     0.124 S 
ATOM     97  O   UNL A   1      53.671  26.224  23.142  1.00  0.00    -0.237 OA
ATOM     98  O   UNL A   1      54.613  26.637  25.389  1.00  0.00    -0.237 OA
ATOM     99  O   UNL A   1      53.721  24.412  24.819  1.00  0.00    -0.744 OA
ENDBRANCH  95  96
ENDBRANCH  63  88
ENDBRANCH  37  38
ENDBRANCH  29  32
ENDBRANCH  27  28
ENDBRANCH   1  27
TORSDOF 17
ENDMDL
