MODEL 1
REMARK VINA RESULT:     -11.7      0.000      0.000
REMARK SMILES COc1ccc(F)c(Nc2ccc(C(=O)NCCCNC(=O)c3ccc(-c4c5nc(c(-c6c(F)cc(S(=O)(=O)[O-])cc6F)c6ccc([nH]6)c(-c6c(F)cc(S(=O)(=O)[O-])cc6F)c6nc(c(-c7c(F)cc(S(=O)(=O)[O-])cc7F)c7ccc4[nH]7)C=C6)C=C5)cc3)cc2)c1
REMARK SMILES IDX 18 1 17 2 16 3 14 4 15 5 13 7 10 8 11 9 90 10 12 11 89 12
REMARK SMILES IDX 9 13 8 15 3 16 4 17 91 18 5 19 6 20 7 21 2 22 1 23 19 24
REMARK SMILES IDX 20 25 21 26 22 28 23 29 24 30 88 31 25 32 87 33 26 34 27 35
REMARK SMILES IDX 28 36 81 37 29 38 86 39 80 40 82 41 30 42 85 43 79 44 78 45
REMARK SMILES IDX 31 47 65 48 44 49 64 50 45 51 48 52 63 53 83 54 46 55 47 56
REMARK SMILES IDX 62 58 84 59 49 60 32 61 33 62 42 63 34 64 35 65 41 66 43 67
REMARK SMILES IDX 36 68 37 69 38 70 39 71 40 72 66 73 67 74 76 75 68 76 69 77
REMARK SMILES IDX 75 78 77 79 70 80 71 81 72 82 73 83 74 84 50 85 51 86 60 87
REMARK SMILES IDX 52 88 53 89 59 90 61 91 54 92 55 93 56 94 57 95 58 96
REMARK H PARENT 16 6 9 14 20 27 82 46 48 57
REMARK Flexibility Score: inf
ROOT
ATOM      1  C   UNL A   1      32.998  27.991  25.750  1.00  0.00     0.042 C 
ENDROOT
BRANCH   1   2
ATOM      2  C   UNL A   1      33.299  29.030  24.669  1.00  0.00     0.118 C 
BRANCH   2   3
ATOM      3  N   UNL A   1      32.112  29.337  23.890  1.00  0.00    -0.352 N 
ATOM      4  C   UNL A   1      31.354  28.583  23.029  1.00  0.00     0.251 C 
ATOM      5  O   UNL A   1      30.339  29.097  22.559  1.00  0.00    -0.269 OA
ATOM      6  H   UNL A   1      31.790  30.261  23.999  1.00  0.00     0.163 HD
BRANCH   4   7
ATOM      7  C   UNL A   1      31.665  27.165  22.701  1.00  0.00     0.039 A 
ATOM      8  C   UNL A   1      32.193  24.424  22.305  1.00  0.00     0.038 A 
ATOM      9  C   UNL A   1      31.071  24.826  23.031  1.00  0.00     0.027 A 
ATOM     10  C   UNL A   1      33.002  25.400  21.719  1.00  0.00     0.027 A 
ATOM     11  C   UNL A   1      30.817  26.186  23.239  1.00  0.00     0.016 A 
ATOM     12  C   UNL A   1      32.721  26.760  21.884  1.00  0.00     0.016 A 
BRANCH   8  13
ATOM     13  N   UNL A   1      32.525  23.067  22.219  1.00  0.00    -0.353 N 
ATOM     14  H   UNL A   1      32.373  22.643  21.344  1.00  0.00     0.167 HD
BRANCH  13  15
ATOM     15  C   UNL A   1      33.049  22.229  23.223  1.00  0.00     0.078 A 
ATOM     16  C   UNL A   1      32.872  20.333  24.744  1.00  0.00     0.121 A 
ATOM     17  C   UNL A   1      34.134  20.613  25.267  1.00  0.00     0.049 A 
ATOM     18  C   UNL A   1      32.339  21.131  23.727  1.00  0.00     0.075 A 
ATOM     19  C   UNL A   1      34.851  21.708  24.785  1.00  0.00     0.045 A 
ATOM     20  C   UNL A   1      34.307  22.502  23.778  1.00  0.00     0.146 A 
ATOM     21  F   UNL A   1      35.019  23.543  23.320  1.00  0.00    -0.205 F 
BRANCH  16  22
ATOM     22  O   UNL A   1      32.120  19.250  25.113  1.00  0.00    -0.497 OA
ATOM     23  C   UNL A   1      32.330  18.101  24.298  1.00  0.00     0.278 C 
ENDBRANCH  16  22
ENDBRANCH  13  15
ENDBRANCH   8  13
ENDBRANCH   4   7
ENDBRANCH   2   3
ENDBRANCH   1   2
BRANCH   1  24
ATOM     24  C   UNL A   1      33.646  28.309  27.096  1.00  0.00     0.118 C 
BRANCH  24  25
ATOM     25  N   UNL A   1      33.519  29.718  27.441  1.00  0.00    -0.352 N 
ATOM     26  C   UNL A   1      34.397  30.546  28.095  1.00  0.00     0.251 C 
ATOM     27  H   UNL A   1      32.674  30.140  27.163  1.00  0.00     0.163 HD
ATOM     28  O   UNL A   1      34.010  31.646  28.479  1.00  0.00    -0.269 OA
BRANCH  26  29
ATOM     29  C   UNL A   1      35.793  30.123  28.349  1.00  0.00     0.039 A 
ATOM     30  C   UNL A   1      36.702  30.136  27.288  1.00  0.00     0.014 A 
ATOM     31  C   UNL A   1      36.199  29.670  29.609  1.00  0.00     0.014 A 
ATOM     32  C   UNL A   1      38.028  29.747  27.501  1.00  0.00     0.010 A 
ATOM     33  C   UNL A   1      37.534  29.343  29.835  1.00  0.00     0.010 A 
ATOM     34  C   UNL A   1      38.462  29.374  28.783  1.00  0.00    -0.014 A 
BRANCH  34  35
ATOM     35  C   UNL A   1      39.882  29.023  29.041  1.00  0.00     0.031 A 
ATOM     36  C   UNL A   1      40.820  30.037  29.636  1.00  0.00     0.074 A 
ATOM     37  C   UNL A   1      40.338  27.804  28.691  1.00  0.00     0.049 A 
ATOM     38  N   UNL A   1      42.104  29.937  29.867  1.00  0.00    -0.248 NA
ATOM     39  C   UNL A   1      40.245  31.342  30.000  1.00  0.00     0.031 C 
ATOM     40  C   UNL A   1      39.533  26.747  28.074  1.00  0.00     0.029 A 
ATOM     41  N   UNL A   1      41.589  27.248  28.795  1.00  0.00    -0.354 N 
ATOM     42  C   UNL A   1      42.492  31.164  30.393  1.00  0.00     0.074 A 
ATOM     43  C   UNL A   1      41.318  32.009  30.403  1.00  0.00     0.031 C 
ATOM     44  C   UNL A   1      40.302  25.664  27.880  1.00  0.00     0.029 A 
ATOM     45  C   UNL A   1      41.663  25.960  28.320  1.00  0.00     0.049 A 
ATOM     46  H   UNL A   1      42.361  27.727  29.175  1.00  0.00     0.167 HD
ATOM     47  C   UNL A   1      43.711  31.542  30.847  1.00  0.00     0.037 A 
ATOM     48  C   UNL A   1      42.708  25.114  28.239  1.00  0.00     0.037 A 
ATOM     49  C   UNL A   1      44.869  30.685  30.859  1.00  0.00     0.049 A 
ATOM     50  C   UNL A   1      44.054  25.560  28.738  1.00  0.00     0.074 A 
ATOM     51  C   UNL A   1      46.136  30.962  31.343  1.00  0.00     0.029 A 
ATOM     52  N   UNL A   1      44.903  29.388  30.368  1.00  0.00    -0.354 N 
ATOM     53  N   UNL A   1      44.394  26.711  29.268  1.00  0.00    -0.248 NA
ATOM     54  C   UNL A   1      45.159  24.597  28.630  1.00  0.00     0.031 C 
ATOM     55  C   UNL A   1      46.946  29.845  31.110  1.00  0.00     0.029 A 
ATOM     56  C   UNL A   1      46.173  28.857  30.521  1.00  0.00     0.049 A 
ATOM     57  H   UNL A   1      44.137  28.916  29.969  1.00  0.00     0.167 HD
ATOM     58  C   UNL A   1      45.746  26.605  29.572  1.00  0.00     0.074 A 
ATOM     59  C   UNL A   1      46.160  25.273  29.179  1.00  0.00     0.031 C 
ATOM     60  C   UNL A   1      46.570  27.529  30.124  1.00  0.00     0.037 A 
BRANCH  47  61
ATOM     61  C   UNL A   1      43.858  32.937  31.386  1.00  0.00     0.058 A 
ATOM     62  C   UNL A   1      43.594  33.218  32.736  1.00  0.00     0.135 A 
ATOM     63  C   UNL A   1      44.201  34.013  30.550  1.00  0.00     0.135 A 
ATOM     64  F   UNL A   1      43.267  32.227  33.581  1.00  0.00    -0.206 F 
ATOM     65  C   UNL A   1      43.653  34.515  33.236  1.00  0.00     0.059 A 
ATOM     66  C   UNL A   1      44.291  35.315  31.033  1.00  0.00     0.059 A 
ATOM     67  F   UNL A   1      44.484  33.798  29.255  1.00  0.00    -0.206 F 
ATOM     68  C   UNL A   1      44.000  35.558  32.375  1.00  0.00     0.060 A 
BRANCH  68  69
ATOM     69  S   UNL A   1      44.105  37.231  33.045  1.00  0.00     0.124 S 
ATOM     70  O   UNL A   1      43.052  37.218  34.053  1.00  0.00    -0.237 OA
ATOM     71  O   UNL A   1      45.473  37.274  33.553  1.00  0.00    -0.237 OA
ATOM     72  O   UNL A   1      43.854  38.077  31.882  1.00  0.00    -0.744 OA
ENDBRANCH  68  69
ENDBRANCH  47  61
BRANCH  48  73
ATOM     73  C   UNL A   1      42.506  23.748  27.688  1.00  0.00     0.058 A 
ATOM     74  C   UNL A   1      42.342  22.638  28.530  1.00  0.00     0.135 A 
ATOM     75  C   UNL A   1      42.523  23.522  26.304  1.00  0.00     0.135 A 
ATOM     76  F   UNL A   1      42.329  22.798  29.863  1.00  0.00    -0.206 F 
ATOM     77  C   UNL A   1      42.230  21.348  28.021  1.00  0.00     0.059 A 
ATOM     78  C   UNL A   1      42.389  22.244  25.769  1.00  0.00     0.059 A 
ATOM     79  F   UNL A   1      42.664  24.556  25.459  1.00  0.00    -0.206 F 
ATOM     80  C   UNL A   1      42.263  21.161  26.638  1.00  0.00     0.060 A 
BRANCH  80  81
ATOM     81  S   UNL A   1      42.146  19.477  25.997  1.00  0.00     0.124 S 
ATOM     82  O   UNL A   1      40.711  19.358  25.755  1.00  0.00    -0.237 OA
ATOM     83  O   UNL A   1      42.988  19.542  24.807  1.00  0.00    -0.237 OA
ATOM     84  O   UNL A   1      42.667  18.663  27.090  1.00  0.00    -0.744 OA
ENDBRANCH  80  81
ENDBRANCH  48  73
BRANCH  60  85
ATOM     85  C   UNL A   1      48.002  27.137  30.353  1.00  0.00     0.058 A 
ATOM     86  C   UNL A   1      48.402  26.580  31.578  1.00  0.00     0.135 A 
ATOM     87  C   UNL A   1      48.993  27.390  29.392  1.00  0.00     0.135 A 
ATOM     88  F   UNL A   1      47.494  26.321  32.533  1.00  0.00    -0.206 F 
ATOM     89  C   UNL A   1      49.737  26.304  31.850  1.00  0.00     0.059 A 
ATOM     90  C   UNL A   1      50.332  27.101  29.633  1.00  0.00     0.059 A 
ATOM     91  F   UNL A   1      48.660  27.912  28.200  1.00  0.00    -0.206 F 
ATOM     92  C   UNL A   1      50.697  26.574  30.872  1.00  0.00     0.060 A 
BRANCH  92  93
ATOM     93  S   UNL A   1      52.426  26.208  31.240  1.00  0.00     0.124 S 
ATOM     94  O   UNL A   1      52.324  24.903  31.887  1.00  0.00    -0.237 OA
ATOM     95  O   UNL A   1      53.034  26.213  29.913  1.00  0.00    -0.237 OA
ATOM     96  O   UNL A   1      52.827  27.309  32.111  1.00  0.00    -0.744 OA
ENDBRANCH  92  93
ENDBRANCH  60  85
ENDBRANCH  34  35
ENDBRANCH  26  29
ENDBRANCH  24  25
ENDBRANCH   1  24
TORSDOF 16
ENDMDL
MODEL 2
REMARK VINA RESULT:     -11.7      3.773      6.666
REMARK SMILES COc1ccc(F)c(Nc2ccc(C(=O)NCCCNC(=O)c3ccc(-c4c5nc(c(-c6c(F)cc(S(=O)(=O)[O-])cc6F)c6ccc([nH]6)c(-c6c(F)cc(S(=O)(=O)[O-])cc6F)c6nc(c(-c7c(F)cc(S(=O)(=O)[O-])cc7F)c7ccc4[nH]7)C=C6)C=C5)cc3)cc2)c1
REMARK SMILES IDX 18 1 17 2 16 3 14 4 15 5 13 7 10 8 11 9 90 10 12 11 89 12
REMARK SMILES IDX 9 13 8 15 3 16 4 17 91 18 5 19 6 20 7 21 2 22 1 23 19 24
REMARK SMILES IDX 20 25 21 26 22 28 23 29 24 30 88 31 25 32 87 33 26 34 27 35
REMARK SMILES IDX 28 36 81 37 29 38 86 39 80 40 82 41 30 42 85 43 79 44 78 45
REMARK SMILES IDX 31 47 65 48 44 49 64 50 45 51 48 52 63 53 83 54 46 55 47 56
REMARK SMILES IDX 62 58 84 59 49 60 32 61 33 62 42 63 34 64 35 65 41 66 43 67
REMARK SMILES IDX 36 68 37 69 38 70 39 71 40 72 66 73 67 74 76 75 68 76 69 77
REMARK SMILES IDX 75 78 77 79 70 80 71 81 72 82 73 83 74 84 50 85 51 86 60 87
REMARK SMILES IDX 52 88 53 89 59 90 61 91 54 92 55 93 56 94 57 95 58 96
REMARK H PARENT 16 6 9 14 20 27 82 46 48 57
REMARK Flexibility Score: inf
ROOT
ATOM      1  C   UNL A   1      33.528  33.835  28.117  1.00  0.00     0.042 C 
ENDROOT
BRANCH   1   2
ATOM      2  C   UNL A   1      34.076  35.136  28.704  1.00  0.00     0.118 C 
BRANCH   2   3
ATOM      3  N   UNL A   1      33.156  35.704  29.674  1.00  0.00    -0.352 N 
ATOM      4  C   UNL A   1      33.121  35.662  31.045  1.00  0.00     0.251 C 
ATOM      5  O   UNL A   1      32.245  36.311  31.617  1.00  0.00    -0.269 OA
ATOM      6  H   UNL A   1      32.417  36.214  29.272  1.00  0.00     0.163 HD
BRANCH   4   7
ATOM      7  C   UNL A   1      34.129  34.934  31.863  1.00  0.00     0.039 A 
ATOM      8  C   UNL A   1      35.865  33.394  33.465  1.00  0.00     0.038 A 
ATOM      9  C   UNL A   1      34.958  32.768  32.610  1.00  0.00     0.027 A 
ATOM     10  C   UNL A   1      35.947  34.789  33.457  1.00  0.00     0.027 A 
ATOM     11  C   UNL A   1      34.088  33.532  31.825  1.00  0.00     0.016 A 
ATOM     12  C   UNL A   1      35.111  35.552  32.636  1.00  0.00     0.016 A 
BRANCH   8  13
ATOM     13  N   UNL A   1      36.634  32.633  34.353  1.00  0.00    -0.353 N 
ATOM     14  H   UNL A   1      36.245  32.494  35.247  1.00  0.00     0.167 HD
BRANCH  13  15
ATOM     15  C   UNL A   1      37.893  32.041  34.135  1.00  0.00     0.078 A 
ATOM     16  C   UNL A   1      39.293  30.196  33.374  1.00  0.00     0.121 A 
ATOM     17  C   UNL A   1      40.441  30.885  33.763  1.00  0.00     0.049 A 
ATOM     18  C   UNL A   1      38.032  30.772  33.553  1.00  0.00     0.075 A 
ATOM     19  C   UNL A   1      40.322  32.143  34.353  1.00  0.00     0.045 A 
ATOM     20  C   UNL A   1      39.060  32.705  34.535  1.00  0.00     0.146 A 
ATOM     21  F   UNL A   1      38.968  33.922  35.093  1.00  0.00    -0.205 F 
BRANCH  16  22
ATOM     22  O   UNL A   1      39.313  28.984  32.738  1.00  0.00    -0.497 OA
ATOM     23  C   UNL A   1      40.535  28.269  32.904  1.00  0.00     0.278 C 
ENDBRANCH  16  22
ENDBRANCH  13  15
ENDBRANCH   8  13
ENDBRANCH   4   7
ENDBRANCH   2   3
ENDBRANCH   1   2
BRANCH   1  24
ATOM     24  C   UNL A   1      34.480  32.651  28.271  1.00  0.00     0.118 C 
BRANCH  24  25
ATOM     25  N   UNL A   1      33.797  31.377  28.095  1.00  0.00    -0.352 N 
ATOM     26  C   UNL A   1      34.313  30.113  27.957  1.00  0.00     0.251 C 
ATOM     27  H   UNL A   1      32.814  31.432  28.071  1.00  0.00     0.163 HD
ATOM     28  O   UNL A   1      33.575  29.200  27.602  1.00  0.00    -0.269 OA
BRANCH  26  29
ATOM     29  C   UNL A   1      35.746  29.846  28.218  1.00  0.00     0.039 A 
ATOM     30  C   UNL A   1      36.135  29.482  29.510  1.00  0.00     0.014 A 
ATOM     31  C   UNL A   1      36.710  29.998  27.217  1.00  0.00     0.014 A 
ATOM     32  C   UNL A   1      37.481  29.219  29.785  1.00  0.00     0.010 A 
ATOM     33  C   UNL A   1      38.041  29.675  27.475  1.00  0.00     0.010 A 
ATOM     34  C   UNL A   1      38.441  29.286  28.763  1.00  0.00    -0.014 A 
BRANCH  34  35
ATOM     35  C   UNL A   1      39.863  28.943  29.022  1.00  0.00     0.031 A 
ATOM     36  C   UNL A   1      40.794  29.963  29.620  1.00  0.00     0.074 A 
ATOM     37  C   UNL A   1      40.327  27.728  28.671  1.00  0.00     0.049 A 
ATOM     38  N   UNL A   1      42.078  29.871  29.852  1.00  0.00    -0.248 NA
ATOM     39  C   UNL A   1      40.210  31.264  29.984  1.00  0.00     0.031 C 
ATOM     40  C   UNL A   1      39.530  26.667  28.052  1.00  0.00     0.029 A 
ATOM     41  N   UNL A   1      41.581  27.180  28.776  1.00  0.00    -0.354 N 
ATOM     42  C   UNL A   1      42.457  31.099  30.380  1.00  0.00     0.074 A 
ATOM     43  C   UNL A   1      41.279  31.937  30.390  1.00  0.00     0.031 C 
ATOM     44  C   UNL A   1      40.306  25.589  27.857  1.00  0.00     0.029 A 
ATOM     45  C   UNL A   1      41.664  25.893  28.299  1.00  0.00     0.049 A 
ATOM     46  H   UNL A   1      42.349  27.663  29.158  1.00  0.00     0.167 HD
ATOM     47  C   UNL A   1      43.673  31.484  30.836  1.00  0.00     0.037 A 
ATOM     48  C   UNL A   1      42.715  25.053  28.219  1.00  0.00     0.037 A 
ATOM     49  C   UNL A   1      44.837  30.635  30.848  1.00  0.00     0.049 A 
ATOM     50  C   UNL A   1      44.057  25.508  28.720  1.00  0.00     0.074 A 
ATOM     51  C   UNL A   1      46.102  30.919  31.334  1.00  0.00     0.029 A 
ATOM     52  N   UNL A   1      44.880  29.339  30.355  1.00  0.00    -0.354 N 
ATOM     53  N   UNL A   1      44.389  26.660  29.252  1.00  0.00    -0.248 NA
ATOM     54  C   UNL A   1      45.168  24.552  28.612  1.00  0.00     0.031 C 
ATOM     55  C   UNL A   1      46.919  29.808  31.100  1.00  0.00     0.029 A 
ATOM     56  C   UNL A   1      46.153  28.815  30.510  1.00  0.00     0.049 A 
ATOM     57  H   UNL A   1      44.117  28.862  29.955  1.00  0.00     0.167 HD
ATOM     58  C   UNL A   1      45.741  26.562  29.557  1.00  0.00     0.074 A 
ATOM     59  C   UNL A   1      46.164  25.233  29.163  1.00  0.00     0.031 C 
ATOM     60  C   UNL A   1      46.559  27.491  30.111  1.00  0.00     0.037 A 
BRANCH  47  61
ATOM     61  C   UNL A   1      43.811  32.880  31.376  1.00  0.00     0.058 A 
ATOM     62  C   UNL A   1      44.064  33.961  30.517  1.00  0.00     0.135 A 
ATOM     63  C   UNL A   1      43.755  33.141  32.755  1.00  0.00     0.135 A 
ATOM     64  F   UNL A   1      44.123  33.770  29.189  1.00  0.00    -0.206 F 
ATOM     65  C   UNL A   1      44.268  35.248  31.005  1.00  0.00     0.059 A 
ATOM     66  C   UNL A   1      43.931  34.424  33.265  1.00  0.00     0.059 A 
ATOM     67  F   UNL A   1      43.496  32.147  33.620  1.00  0.00    -0.206 F 
ATOM     68  C   UNL A   1      44.202  35.469  32.382  1.00  0.00     0.060 A 
BRANCH  68  69
ATOM     69  S   UNL A   1      44.437  37.150  32.999  1.00  0.00     0.124 S 
ATOM     70  O   UNL A   1      44.007  37.951  31.859  1.00  0.00    -0.237 OA
ATOM     71  O   UNL A   1      43.558  37.176  34.164  1.00  0.00    -0.237 OA
ATOM     72  O   UNL A   1      45.864  37.201  33.303  1.00  0.00    -0.744 OA
ENDBRANCH  68  69
ENDBRANCH  47  61
BRANCH  48  73
ATOM     73  C   UNL A   1      42.522  23.687  27.666  1.00  0.00     0.058 A 
ATOM     74  C   UNL A   1      42.365  22.575  28.507  1.00  0.00     0.135 A 
ATOM     75  C   UNL A   1      42.541  23.463  26.281  1.00  0.00     0.135 A 
ATOM     76  F   UNL A   1      42.350  22.733  29.840  1.00  0.00    -0.206 F 
ATOM     77  C   UNL A   1      42.262  21.285  27.996  1.00  0.00     0.059 A 
ATOM     78  C   UNL A   1      42.416  22.185  25.745  1.00  0.00     0.059 A 
ATOM     79  F   UNL A   1      42.676  24.498  25.438  1.00  0.00    -0.206 F 
ATOM     80  C   UNL A   1      42.297  21.100  26.613  1.00  0.00     0.060 A 
BRANCH  80  81
ATOM     81  S   UNL A   1      42.191  19.416  25.970  1.00  0.00     0.124 S 
ATOM     82  O   UNL A   1      42.699  18.642  27.098  1.00  0.00    -0.237 OA
ATOM     83  O   UNL A   1      40.763  19.281  25.698  1.00  0.00    -0.237 OA
ATOM     84  O   UNL A   1      43.052  19.449  24.792  1.00  0.00    -0.744 OA
ENDBRANCH  80  81
ENDBRANCH  48  73
BRANCH  60  85
ATOM     85  C   UNL A   1      47.994  27.108  30.341  1.00  0.00     0.058 A 
ATOM     86  C   UNL A   1      48.389  26.523  31.555  1.00  0.00     0.135 A 
ATOM     87  C   UNL A   1      48.989  27.395  29.395  1.00  0.00     0.135 A 
ATOM     88  F   UNL A   1      47.477  26.230  32.495  1.00  0.00    -0.206 F 
ATOM     89  C   UNL A   1      49.725  26.254  31.830  1.00  0.00     0.059 A 
ATOM     90  C   UNL A   1      50.329  27.114  29.639  1.00  0.00     0.059 A 
ATOM     91  F   UNL A   1      48.660  27.945  28.215  1.00  0.00    -0.206 F 
ATOM     92  C   UNL A   1      50.690  26.559  30.868  1.00  0.00     0.060 A 
BRANCH  92  93
ATOM     93  S   UNL A   1      52.419  26.201  31.240  1.00  0.00     0.124 S 
ATOM     94  O   UNL A   1      53.022  26.219  29.911  1.00  0.00    -0.237 OA
ATOM     95  O   UNL A   1      52.785  27.309  32.117  1.00  0.00    -0.237 OA
ATOM     96  O   UNL A   1      52.362  24.892  31.885  1.00  0.00    -0.744 OA
ENDBRANCH  92  93
ENDBRANCH  60  85
ENDBRANCH  34  35
ENDBRANCH  26  29
ENDBRANCH  24  25
ENDBRANCH   1  24
TORSDOF 16
ENDMDL
MODEL 3
REMARK VINA RESULT:     -11.6      4.857     10.744
REMARK SMILES COc1ccc(F)c(Nc2ccc(C(=O)NCCCNC(=O)c3ccc(-c4c5nc(c(-c6c(F)cc(S(=O)(=O)[O-])cc6F)c6ccc([nH]6)c(-c6c(F)cc(S(=O)(=O)[O-])cc6F)c6nc(c(-c7c(F)cc(S(=O)(=O)[O-])cc7F)c7ccc4[nH]7)C=C6)C=C5)cc3)cc2)c1
REMARK SMILES IDX 18 1 17 2 16 3 14 4 15 5 13 7 10 8 11 9 90 10 12 11 89 12
REMARK SMILES IDX 9 13 8 15 3 16 4 17 91 18 5 19 6 20 7 21 2 22 1 23 19 24
REMARK SMILES IDX 20 25 21 26 22 28 23 29 24 30 88 31 25 32 87 33 26 34 27 35
REMARK SMILES IDX 28 36 81 37 29 38 86 39 80 40 82 41 30 42 85 43 79 44 78 45
REMARK SMILES IDX 31 47 65 48 44 49 64 50 45 51 48 52 63 53 83 54 46 55 47 56
REMARK SMILES IDX 62 58 84 59 49 60 32 61 33 62 42 63 34 64 35 65 41 66 43 67
REMARK SMILES IDX 36 68 37 69 38 70 39 71 40 72 66 73 67 74 76 75 68 76 69 77
REMARK SMILES IDX 75 78 77 79 70 80 71 81 72 82 73 83 74 84 50 85 51 86 60 87
REMARK SMILES IDX 52 88 53 89 59 90 61 91 54 92 55 93 56 94 57 95 58 96
REMARK H PARENT 16 6 9 14 20 27 82 46 48 57
REMARK Flexibility Score: inf
ROOT
ATOM      1  C   UNL A   1      40.414  22.075  27.501  1.00  0.00     0.042 C 
ENDROOT
BRANCH   1   2
ATOM      2  C   UNL A   1      39.373  22.369  26.420  1.00  0.00     0.118 C 
BRANCH   2   3
ATOM      3  N   UNL A   1      39.011  21.162  25.696  1.00  0.00    -0.352 N 
ATOM      4  C   UNL A   1      37.860  20.784  25.052  1.00  0.00     0.251 C 
ATOM      5  O   UNL A   1      37.865  19.711  24.450  1.00  0.00    -0.269 OA
ATOM      6  H   UNL A   1      39.726  20.487  25.662  1.00  0.00     0.163 HD
BRANCH   4   7
ATOM      7  C   UNL A   1      36.644  21.640  24.991  1.00  0.00     0.039 A 
ATOM      8  C   UNL A   1      34.481  23.439  24.791  1.00  0.00     0.038 A 
ATOM      9  C   UNL A   1      35.446  23.385  23.785  1.00  0.00     0.027 A 
ATOM     10  C   UNL A   1      34.567  22.538  25.857  1.00  0.00     0.027 A 
ATOM     11  C   UNL A   1      36.526  22.503  23.891  1.00  0.00     0.016 A 
ATOM     12  C   UNL A   1      35.620  21.621  25.938  1.00  0.00     0.016 A 
BRANCH   8  13
ATOM     13  N   UNL A   1      33.482  24.418  24.756  1.00  0.00    -0.353 N 
ATOM     14  H   UNL A   1      32.558  24.086  24.681  1.00  0.00     0.167 HD
BRANCH  13  15
ATOM     15  C   UNL A   1      33.627  25.818  24.815  1.00  0.00     0.078 A 
ATOM     16  C   UNL A   1      33.724  27.916  26.053  1.00  0.00     0.121 A 
ATOM     17  C   UNL A   1      33.875  28.629  24.865  1.00  0.00     0.049 A 
ATOM     18  C   UNL A   1      33.608  26.523  26.027  1.00  0.00     0.075 A 
ATOM     19  C   UNL A   1      33.886  27.947  23.648  1.00  0.00     0.045 A 
ATOM     20  C   UNL A   1      33.759  26.559  23.633  1.00  0.00     0.146 A 
ATOM     21  F   UNL A   1      33.784  25.921  22.453  1.00  0.00    -0.205 F 
BRANCH  16  22
ATOM     22  O   UNL A   1      33.759  28.491  27.295  1.00  0.00    -0.497 OA
ATOM     23  C   UNL A   1      34.941  29.246  27.544  1.00  0.00     0.278 C 
ENDBRANCH  16  22
ENDBRANCH  13  15
ENDBRANCH   8  13
ENDBRANCH   4   7
ENDBRANCH   2   3
ENDBRANCH   1   2
BRANCH   1  24
ATOM     24  C   UNL A   1      41.548  23.096  27.546  1.00  0.00     0.118 C 
BRANCH  24  25
ATOM     25  N   UNL A   1      41.598  23.908  26.339  1.00  0.00    -0.352 N 
ATOM     26  C   UNL A   1      41.343  25.245  26.166  1.00  0.00     0.251 C 
ATOM     27  H   UNL A   1      41.855  23.423  25.521  1.00  0.00     0.163 HD
ATOM     28  O   UNL A   1      41.231  25.692  25.029  1.00  0.00    -0.269 OA
BRANCH  26  29
ATOM     29  C   UNL A   1      41.191  26.146  27.332  1.00  0.00     0.039 A 
ATOM     30  C   UNL A   1      42.139  27.153  27.530  1.00  0.00     0.014 A 
ATOM     31  C   UNL A   1      40.154  25.975  28.254  1.00  0.00     0.014 A 
ATOM     32  C   UNL A   1      42.018  28.021  28.619  1.00  0.00     0.010 A 
ATOM     33  C   UNL A   1      39.998  26.878  29.304  1.00  0.00     0.010 A 
ATOM     34  C   UNL A   1      40.930  27.908  29.500  1.00  0.00    -0.014 A 
BRANCH  34  35
ATOM     35  C   UNL A   1      40.749  28.863  30.622  1.00  0.00     0.031 A 
ATOM     36  C   UNL A   1      41.611  28.766  31.851  1.00  0.00     0.074 A 
ATOM     37  C   UNL A   1      39.772  29.790  30.555  1.00  0.00     0.049 A 
ATOM     38  N   UNL A   1      41.554  29.463  32.957  1.00  0.00    -0.248 NA
ATOM     39  C   UNL A   1      42.662  27.735  31.846  1.00  0.00     0.031 C 
ATOM     40  C   UNL A   1      38.849  29.961  29.430  1.00  0.00     0.029 A 
ATOM     41  N   UNL A   1      39.385  30.755  31.450  1.00  0.00    -0.354 N 
ATOM     42  C   UNL A   1      42.550  28.952  33.780  1.00  0.00     0.074 A 
ATOM     43  C   UNL A   1      43.166  27.855  33.067  1.00  0.00     0.031 C 
ATOM     44  C   UNL A   1      38.022  30.986  29.692  1.00  0.00     0.029 A 
ATOM     45  C   UNL A   1      38.327  31.519  31.016  1.00  0.00     0.049 A 
ATOM     46  H   UNL A   1      39.824  30.889  32.321  1.00  0.00     0.167 HD
ATOM     47  C   UNL A   1      42.931  29.375  35.009  1.00  0.00     0.037 A 
ATOM     48  C   UNL A   1      37.671  32.531  31.618  1.00  0.00     0.037 A 
ATOM     49  C   UNL A   1      42.330  30.486  35.703  1.00  0.00     0.049 A 
ATOM     50  C   UNL A   1      38.104  32.974  32.987  1.00  0.00     0.074 A 
ATOM     51  C   UNL A   1      42.678  31.021  36.931  1.00  0.00     0.029 A 
ATOM     52  N   UNL A   1      41.261  31.233  35.230  1.00  0.00    -0.354 N 
ATOM     53  N   UNL A   1      39.074  32.505  33.735  1.00  0.00    -0.248 NA
ATOM     54  C   UNL A   1      37.357  34.084  33.596  1.00  0.00     0.031 C 
ATOM     55  C   UNL A   1      41.796  32.067  37.218  1.00  0.00     0.029 A 
ATOM     56  C   UNL A   1      40.925  32.214  36.149  1.00  0.00     0.049 A 
ATOM     57  H   UNL A   1      40.809  31.088  34.368  1.00  0.00     0.167 HD
ATOM     58  C   UNL A   1      39.065  33.271  34.895  1.00  0.00     0.074 A 
ATOM     59  C   UNL A   1      38.001  34.244  34.745  1.00  0.00     0.031 C 
ATOM     60  C   UNL A   1      39.864  33.175  35.986  1.00  0.00     0.037 A 
BRANCH  47  61
ATOM     61  C   UNL A   1      44.061  28.648  35.684  1.00  0.00     0.058 A 
ATOM     62  C   UNL A   1      43.804  27.617  36.601  1.00  0.00     0.135 A 
ATOM     63  C   UNL A   1      45.399  29.015  35.470  1.00  0.00     0.135 A 
ATOM     64  F   UNL A   1      42.543  27.222  36.840  1.00  0.00    -0.206 F 
ATOM     65  C   UNL A   1      44.833  26.983  37.291  1.00  0.00     0.059 A 
ATOM     66  C   UNL A   1      46.446  28.378  36.129  1.00  0.00     0.059 A 
ATOM     67  F   UNL A   1      45.702  29.981  34.588  1.00  0.00    -0.206 F 
ATOM     68  C   UNL A   1      46.152  27.372  37.050  1.00  0.00     0.060 A 
BRANCH  68  69
ATOM     69  S   UNL A   1      47.479  26.518  37.927  1.00  0.00     0.124 S 
ATOM     70  O   UNL A   1      48.264  25.973  36.827  1.00  0.00    -0.237 OA
ATOM     71  O   UNL A   1      48.100  27.605  38.678  1.00  0.00    -0.237 OA
ATOM     72  O   UNL A   1      46.767  25.536  38.741  1.00  0.00    -0.744 OA
ENDBRANCH  68  69
ENDBRANCH  47  61
BRANCH  48  73
ATOM     73  C   UNL A   1      36.554  33.207  30.907  1.00  0.00     0.058 A 
ATOM     74  C   UNL A   1      36.796  34.121  29.870  1.00  0.00     0.135 A 
ATOM     75  C   UNL A   1      35.222  32.987  31.287  1.00  0.00     0.135 A 
ATOM     76  F   UNL A   1      38.054  34.376  29.475  1.00  0.00    -0.206 F 
ATOM     77  C   UNL A   1      35.759  34.815  29.255  1.00  0.00     0.059 A 
ATOM     78  C   UNL A   1      34.166  33.650  30.671  1.00  0.00     0.059 A 
ATOM     79  F   UNL A   1      34.942  32.111  32.266  1.00  0.00    -0.206 F 
ATOM     80  C   UNL A   1      34.447  34.578  29.669  1.00  0.00     0.060 A 
BRANCH  80  81
ATOM     81  S   UNL A   1      33.117  35.509  28.877  1.00  0.00     0.124 S 
ATOM     82  O   UNL A   1      32.414  36.051  30.036  1.00  0.00    -0.237 OA
ATOM     83  O   UNL A   1      33.857  36.476  28.072  1.00  0.00    -0.237 OA
ATOM     84  O   UNL A   1      32.394  34.490  28.124  1.00  0.00    -0.744 OA
ENDBRANCH  80  81
ENDBRANCH  48  73
BRANCH  60  85
ATOM     85  C   UNL A   1      39.635  34.151  37.105  1.00  0.00     0.058 A 
ATOM     86  C   UNL A   1      40.325  35.374  37.136  1.00  0.00     0.135 A 
ATOM     87  C   UNL A   1      38.799  33.841  38.188  1.00  0.00     0.135 A 
ATOM     88  F   UNL A   1      41.140  35.717  36.125  1.00  0.00    -0.206 F 
ATOM     89  C   UNL A   1      40.207  36.247  38.211  1.00  0.00     0.059 A 
ATOM     90  C   UNL A   1      38.648  34.710  39.264  1.00  0.00     0.059 A 
ATOM     91  F   UNL A   1      38.109  32.689  38.200  1.00  0.00    -0.206 F 
ATOM     92  C   UNL A   1      39.370  35.903  39.274  1.00  0.00     0.060 A 
BRANCH  92  93
ATOM     93  S   UNL A   1      39.227  37.050  40.661  1.00  0.00     0.124 S 
ATOM     94  O   UNL A   1      38.693  36.187  41.710  1.00  0.00    -0.237 OA
ATOM     95  O   UNL A   1      40.607  37.491  40.844  1.00  0.00    -0.237 OA
ATOM     96  O   UNL A   1      38.310  38.071  40.162  1.00  0.00    -0.744 OA
ENDBRANCH  92  93
ENDBRANCH  60  85
ENDBRANCH  34  35
ENDBRANCH  26  29
ENDBRANCH  24  25
ENDBRANCH   1  24
TORSDOF 16
ENDMDL
