MODEL 1
REMARK VINA RESULT:     -11.8      0.000      0.000
REMARK SMILES O=C(NCCCNC(=O)c1c(F)cccc1N[C@H]1CCCc2ccccc21)c1ccc(-c2c3nc(c(-c4c(F)cc(S(=O)(=O)[O-])cc4F)c4ccc([nH]4)c(-c4c(F)cc(S(=O)(=O)[O-])cc4F)c4nc(c(-c5c(F)cc(S(=O)(=O)[O-])cc5F)c5ccc2[nH]5)C=C4)C=C3)cc1
REMARK SMILES IDX 4 1 3 2 1 3 2 4 28 6 29 7 93 8 30 9 92 10 31 11 32 12 33 13
REMARK SMILES IDX 86 14 34 15 91 16 85 17 87 18 35 19 90 20 84 21 83 22 36 24
REMARK SMILES IDX 70 25 49 26 69 27 50 28 53 29 68 30 88 31 51 32 52 33 67 35
REMARK SMILES IDX 89 36 54 37 37 38 38 39 47 40 39 41 40 42 46 43 48 44 41 45
REMARK SMILES IDX 42 46 43 47 44 48 45 49 71 50 72 51 81 52 73 53 74 54 80 55
REMARK SMILES IDX 82 56 75 57 76 58 77 59 78 60 79 61 55 62 56 63 65 64 57 65
REMARK SMILES IDX 58 66 64 67 66 68 59 69 60 70 61 71 62 72 63 73 5 74 6 75
REMARK SMILES IDX 7 76 8 77 9 79 10 80 11 81 16 82 12 83 13 84 15 85 14 86
REMARK SMILES IDX 17 87 18 89 19 90 27 91 20 92 22 93 26 94 21 95 23 96 25 97
REMARK SMILES IDX 24 98
REMARK H PARENT 3 5 87 23 53 34 7 78 17 88
REMARK Flexibility Score: inf
ROOT
ATOM      1  C   UNL A   1      33.671  28.221  27.259  1.00  0.00     0.118 C 
ENDROOT
BRANCH   1   2
ATOM      2  N   UNL A   1      33.530  29.649  27.510  1.00  0.00    -0.352 N 
ATOM      3  O   UNL A   1      34.019  31.676  28.348  1.00  0.00    -0.269 OA
ATOM      4  C   UNL A   1      34.413  30.548  28.053  1.00  0.00     0.251 C 
ATOM      5  H   UNL A   1      32.661  30.030  27.248  1.00  0.00     0.163 HD
BRANCH   4   6
ATOM      6  C   UNL A   1      35.820  30.169  28.308  1.00  0.00     0.039 A 
ATOM      7  C   UNL A   1      36.804  30.343  27.331  1.00  0.00     0.014 A 
ATOM      8  C   UNL A   1      36.169  29.668  29.565  1.00  0.00     0.014 A 
ATOM      9  C   UNL A   1      38.098  29.886  27.557  1.00  0.00     0.010 A 
ATOM     10  C   UNL A   1      37.490  29.292  29.822  1.00  0.00     0.010 A 
ATOM     11  C   UNL A   1      38.460  29.373  28.811  1.00  0.00    -0.014 A 
BRANCH  11  12
ATOM     12  C   UNL A   1      39.869  28.992  29.083  1.00  0.00     0.031 A 
ATOM     13  C   UNL A   1      40.836  29.981  29.669  1.00  0.00     0.074 A 
ATOM     14  C   UNL A   1      40.278  27.747  28.770  1.00  0.00     0.049 A 
ATOM     15  N   UNL A   1      42.116  29.841  29.900  1.00  0.00    -0.248 NA
ATOM     16  C   UNL A   1      40.301  31.301  30.036  1.00  0.00     0.031 C 
ATOM     17  C   UNL A   1      39.425  26.702  28.200  1.00  0.00     0.029 A 
ATOM     18  N   UNL A   1      41.508  27.149  28.880  1.00  0.00    -0.354 N 
ATOM     19  C   UNL A   1      42.546  31.058  30.411  1.00  0.00     0.074 A 
ATOM     20  C   UNL A   1      41.393  31.933  30.441  1.00  0.00     0.031 C 
ATOM     21  C   UNL A   1      40.150  25.589  28.028  1.00  0.00     0.029 A 
ATOM     22  C   UNL A   1      41.532  25.859  28.407  1.00  0.00     0.049 A 
ATOM     23  H   UNL A   1      42.296  27.601  29.259  1.00  0.00     0.167 HD
ATOM     24  C   UNL A   1      43.790  31.409  30.819  1.00  0.00     0.037 A 
ATOM     25  C   UNL A   1      42.555  24.995  28.258  1.00  0.00     0.037 A 
ATOM     26  C   UNL A   1      44.924  30.519  30.793  1.00  0.00     0.049 A 
ATOM     27  C   UNL A   1      43.934  25.416  28.672  1.00  0.00     0.074 A 
ATOM     28  C   UNL A   1      46.213  30.761  31.235  1.00  0.00     0.029 A 
ATOM     29  N   UNL A   1      44.912  29.228  30.284  1.00  0.00    -0.354 N 
ATOM     30  N   UNL A   1      44.319  26.558  29.191  1.00  0.00    -0.248 NA
ATOM     31  C   UNL A   1      45.019  24.446  28.479  1.00  0.00     0.031 C 
ATOM     32  C   UNL A   1      46.994  29.642  30.937  1.00  0.00     0.029 A 
ATOM     33  C   UNL A   1      46.180  28.675  30.366  1.00  0.00     0.049 A 
ATOM     34  H   UNL A   1      44.120  28.772  29.918  1.00  0.00     0.167 HD
ATOM     35  C   UNL A   1      45.686  26.440  29.401  1.00  0.00     0.074 A 
ATOM     36  C   UNL A   1      46.063  25.112  28.956  1.00  0.00     0.031 C 
ATOM     37  C   UNL A   1      46.545  27.350  29.922  1.00  0.00     0.037 A 
BRANCH  24  38
ATOM     38  C   UNL A   1      44.005  32.821  31.296  1.00  0.00     0.058 A 
ATOM     39  C   UNL A   1      43.748  33.162  32.634  1.00  0.00     0.135 A 
ATOM     40  C   UNL A   1      44.424  33.845  30.431  1.00  0.00     0.135 A 
ATOM     41  F   UNL A   1      43.344  32.225  33.506  1.00  0.00    -0.206 F 
ATOM     42  C   UNL A   1      43.901  34.465  33.098  1.00  0.00     0.059 A 
ATOM     43  C   UNL A   1      44.612  35.149  30.880  1.00  0.00     0.059 A 
ATOM     44  F   UNL A   1      44.697  33.574  29.144  1.00  0.00    -0.206 F 
ATOM     45  C   UNL A   1      44.340  35.452  32.215  1.00  0.00     0.060 A 
BRANCH  45  46
ATOM     46  S   UNL A   1      44.610  37.120  32.851  1.00  0.00     0.124 S 
ATOM     47  O   UNL A   1      46.049  37.280  32.676  1.00  0.00    -0.237 OA
ATOM     48  O   UNL A   1      43.767  37.924  31.971  1.00  0.00    -0.237 OA
ATOM     49  O   UNL A   1      44.149  37.032  34.233  1.00  0.00    -0.744 OA
ENDBRANCH  45  46
ENDBRANCH  24  38
BRANCH  25  50
ATOM     50  C   UNL A   1      42.275  23.652  27.689  1.00  0.00     0.058 A 
ATOM     51  C   UNL A   1      42.179  22.521  28.518  1.00  0.00     0.135 A 
ATOM     52  C   UNL A   1      42.233  23.453  26.302  1.00  0.00     0.135 A 
ATOM     53  F   UNL A   1      42.228  22.658  29.852  1.00  0.00    -0.206 F 
ATOM     54  C   UNL A   1      42.109  21.237  27.991  1.00  0.00     0.059 A 
ATOM     55  C   UNL A   1      42.138  22.179  25.751  1.00  0.00     0.059 A 
ATOM     56  F   UNL A   1      42.310  24.505  25.472  1.00  0.00    -0.206 F 
ATOM     57  C   UNL A   1      42.106  21.075  26.604  1.00  0.00     0.060 A 
BRANCH  57  58
ATOM     58  S   UNL A   1      42.105  19.396  25.941  1.00  0.00     0.124 S 
ATOM     59  O   UNL A   1      40.690  19.205  25.635  1.00  0.00    -0.237 OA
ATOM     60  O   UNL A   1      42.993  19.523  24.791  1.00  0.00    -0.237 OA
ATOM     61  O   UNL A   1      42.621  18.596  27.046  1.00  0.00    -0.744 OA
ENDBRANCH  57  58
ENDBRANCH  25  50
BRANCH  37  62
ATOM     62  C   UNL A   1      47.990  26.960  30.066  1.00  0.00     0.058 A 
ATOM     63  C   UNL A   1      48.441  26.355  31.251  1.00  0.00     0.135 A 
ATOM     64  C   UNL A   1      48.946  27.318  29.104  1.00  0.00     0.135 A 
ATOM     65  F   UNL A   1      47.566  25.994  32.202  1.00  0.00    -0.206 F 
ATOM     66  C   UNL A   1      49.796  26.164  31.497  1.00  0.00     0.059 A 
ATOM     67  C   UNL A   1      50.305  27.113  29.319  1.00  0.00     0.059 A 
ATOM     68  F   UNL A   1      48.563  27.884  27.949  1.00  0.00    -0.206 F 
ATOM     69  C   UNL A   1      50.722  26.562  30.532  1.00  0.00     0.060 A 
BRANCH  69  70
ATOM     70  S   UNL A   1      52.478  26.364  30.898  1.00  0.00     0.124 S 
ATOM     71  O   UNL A   1      52.481  25.149  31.706  1.00  0.00    -0.237 OA
ATOM     72  O   UNL A   1      53.058  26.240  29.564  1.00  0.00    -0.237 OA
ATOM     73  O   UNL A   1      52.818  27.592  31.610  1.00  0.00    -0.744 OA
ENDBRANCH  69  70
ENDBRANCH  37  62
ENDBRANCH  11  12
ENDBRANCH   4   6
ENDBRANCH   1   2
BRANCH   1  74
ATOM     74  C   UNL A   1      34.353  27.919  25.933  1.00  0.00     0.042 C 
BRANCH  74  75
ATOM     75  C   UNL A   1      33.649  28.501  24.717  1.00  0.00     0.118 C 
BRANCH  75  76
ATOM     76  N   UNL A   1      33.784  27.667  23.529  1.00  0.00    -0.352 N 
ATOM     77  C   UNL A   1      33.188  26.465  23.225  1.00  0.00     0.256 C 
ATOM     78  H   UNL A   1      34.393  28.017  22.840  1.00  0.00     0.163 HD
ATOM     79  O   UNL A   1      33.512  25.871  22.199  1.00  0.00    -0.269 OA
BRANCH  77  80
ATOM     80  C   UNL A   1      32.203  25.858  24.146  1.00  0.00     0.098 A 
ATOM     81  C   UNL A   1      30.911  26.393  24.200  1.00  0.00     0.138 A 
ATOM     82  C   UNL A   1      32.551  24.735  24.931  1.00  0.00     0.050 A 
ATOM     83  F   UNL A   1      30.538  27.380  23.371  1.00  0.00    -0.206 F 
ATOM     84  C   UNL A   1      29.985  25.933  25.125  1.00  0.00     0.040 A 
ATOM     85  C   UNL A   1      31.618  24.333  25.903  1.00  0.00     0.027 A 
ATOM     86  C   UNL A   1      30.351  24.920  26.001  1.00  0.00     0.005 A 
BRANCH  82  87
ATOM     87  N   UNL A   1      33.771  24.087  24.769  1.00  0.00    -0.377 N 
ATOM     88  H   UNL A   1      34.423  24.501  24.159  1.00  0.00     0.161 HD
BRANCH  87  89
ATOM     89  C   UNL A   1      34.173  22.843  25.430  1.00  0.00     0.110 C 
ATOM     90  C   UNL A   1      33.622  21.638  24.642  1.00  0.00     0.030 C 
ATOM     91  C   UNL A   1      35.697  22.781  25.560  1.00  0.00    -0.023 A 
ATOM     92  C   UNL A   1      34.233  20.336  25.137  1.00  0.00     0.007 C 
ATOM     93  C   UNL A   1      36.413  21.588  25.310  1.00  0.00    -0.043 A 
ATOM     94  C   UNL A   1      36.411  23.908  26.005  1.00  0.00     0.006 A 
ATOM     95  C   UNL A   1      35.726  20.329  24.844  1.00  0.00     0.036 C 
ATOM     96  C   UNL A   1      37.810  21.569  25.448  1.00  0.00     0.004 A 
ATOM     97  C   UNL A   1      37.799  23.871  26.151  1.00  0.00     0.000 A 
ATOM     98  C   UNL A   1      38.499  22.704  25.865  1.00  0.00     0.000 A 
ENDBRANCH  87  89
ENDBRANCH  82  87
ENDBRANCH  77  80
ENDBRANCH  75  76
ENDBRANCH  74  75
ENDBRANCH   1  74
TORSDOF 15
ENDMDL
MODEL 2
REMARK VINA RESULT:     -11.8      0.796      1.433
REMARK SMILES O=C(NCCCNC(=O)c1c(F)cccc1N[C@H]1CCCc2ccccc21)c1ccc(-c2c3nc(c(-c4c(F)cc(S(=O)(=O)[O-])cc4F)c4ccc([nH]4)c(-c4c(F)cc(S(=O)(=O)[O-])cc4F)c4nc(c(-c5c(F)cc(S(=O)(=O)[O-])cc5F)c5ccc2[nH]5)C=C4)C=C3)cc1
REMARK SMILES IDX 4 1 3 2 1 3 2 4 28 6 29 7 93 8 30 9 92 10 31 11 32 12 33 13
REMARK SMILES IDX 86 14 34 15 91 16 85 17 87 18 35 19 90 20 84 21 83 22 36 24
REMARK SMILES IDX 70 25 49 26 69 27 50 28 53 29 68 30 88 31 51 32 52 33 67 35
REMARK SMILES IDX 89 36 54 37 37 38 38 39 47 40 39 41 40 42 46 43 48 44 41 45
REMARK SMILES IDX 42 46 43 47 44 48 45 49 71 50 72 51 81 52 73 53 74 54 80 55
REMARK SMILES IDX 82 56 75 57 76 58 77 59 78 60 79 61 55 62 56 63 65 64 57 65
REMARK SMILES IDX 58 66 64 67 66 68 59 69 60 70 61 71 62 72 63 73 5 74 6 75
REMARK SMILES IDX 7 76 8 77 9 79 10 80 11 81 16 82 12 83 13 84 15 85 14 86
REMARK SMILES IDX 17 87 18 89 19 90 27 91 20 92 22 93 26 94 21 95 23 96 25 97
REMARK SMILES IDX 24 98
REMARK H PARENT 3 5 87 23 53 34 7 78 17 88
REMARK Flexibility Score: inf
ROOT
ATOM      1  C   UNL A   1      33.464  27.986  27.272  1.00  0.00     0.118 C 
ENDROOT
BRANCH   1   2
ATOM      2  N   UNL A   1      33.315  29.431  27.371  1.00  0.00    -0.352 N 
ATOM      3  O   UNL A   1      33.795  31.538  27.990  1.00  0.00    -0.269 OA
ATOM      4  C   UNL A   1      34.195  30.387  27.813  1.00  0.00     0.251 C 
ATOM      5  H   UNL A   1      32.443  29.778  27.074  1.00  0.00     0.163 HD
BRANCH   4   6
ATOM      6  C   UNL A   1      35.605  30.045  28.101  1.00  0.00     0.039 A 
ATOM      7  C   UNL A   1      36.587  30.135  27.112  1.00  0.00     0.014 A 
ATOM      8  C   UNL A   1      35.958  29.666  29.400  1.00  0.00     0.014 A 
ATOM      9  C   UNL A   1      37.886  29.712  27.378  1.00  0.00     0.010 A 
ATOM     10  C   UNL A   1      37.282  29.327  29.689  1.00  0.00     0.010 A 
ATOM     11  C   UNL A   1      38.252  29.321  28.674  1.00  0.00    -0.014 A 
BRANCH  11  12
ATOM     12  C   UNL A   1      39.664  28.979  28.979  1.00  0.00     0.031 A 
ATOM     13  C   UNL A   1      40.592  29.997  29.575  1.00  0.00     0.074 A 
ATOM     14  C   UNL A   1      40.111  27.742  28.687  1.00  0.00     0.049 A 
ATOM     15  N   UNL A   1      41.871  29.892  29.835  1.00  0.00    -0.248 NA
ATOM     16  C   UNL A   1      40.017  31.306  29.919  1.00  0.00     0.031 C 
ATOM     17  C   UNL A   1      39.297  26.670  28.108  1.00  0.00     0.029 A 
ATOM     18  N   UNL A   1      41.353  27.177  28.827  1.00  0.00    -0.354 N 
ATOM     19  C   UNL A   1      42.259  31.124  30.343  1.00  0.00     0.074 A 
ATOM     20  C   UNL A   1      41.084  31.970  30.341  1.00  0.00     0.031 C 
ATOM     21  C   UNL A   1      40.053  25.574  27.962  1.00  0.00     0.029 A 
ATOM     22  C   UNL A   1      41.420  25.883  28.367  1.00  0.00     0.049 A 
ATOM     23  H   UNL A   1      42.121  27.652  29.218  1.00  0.00     0.167 HD
ATOM     24  C   UNL A   1      43.485  31.510  30.773  1.00  0.00     0.037 A 
ATOM     25  C   UNL A   1      42.468  25.045  28.248  1.00  0.00     0.037 A 
ATOM     26  C   UNL A   1      44.642  30.650  30.780  1.00  0.00     0.049 A 
ATOM     27  C   UNL A   1      43.826  25.504  28.686  1.00  0.00     0.074 A 
ATOM     28  C   UNL A   1      45.914  30.928  31.247  1.00  0.00     0.029 A 
ATOM     29  N   UNL A   1      44.673  29.354  30.282  1.00  0.00    -0.354 N 
ATOM     30  N   UNL A   1      44.171  26.660  29.203  1.00  0.00    -0.248 NA
ATOM     31  C   UNL A   1      44.939  24.560  28.525  1.00  0.00     0.031 C 
ATOM     32  C   UNL A   1      46.729  29.827  30.975  1.00  0.00     0.029 A 
ATOM     33  C   UNL A   1      45.952  28.834  30.397  1.00  0.00     0.049 A 
ATOM     34  H   UNL A   1      43.900  28.875  29.905  1.00  0.00     0.167 HD
ATOM     35  C   UNL A   1      45.536  26.579  29.442  1.00  0.00     0.074 A 
ATOM     36  C   UNL A   1      45.955  25.257  29.017  1.00  0.00     0.031 C 
ATOM     37  C   UNL A   1      46.360  27.515  29.972  1.00  0.00     0.037 A 
BRANCH  24  38
ATOM     38  C   UNL A   1      43.654  32.931  31.241  1.00  0.00     0.058 A 
ATOM     39  C   UNL A   1      44.037  33.934  30.334  1.00  0.00     0.135 A 
ATOM     40  C   UNL A   1      43.480  33.300  32.585  1.00  0.00     0.135 A 
ATOM     41  F   UNL A   1      44.219  33.640  29.038  1.00  0.00    -0.206 F 
ATOM     42  C   UNL A   1      44.238  35.249  30.742  1.00  0.00     0.059 A 
ATOM     43  C   UNL A   1      43.648  34.616  33.009  1.00  0.00     0.059 A 
ATOM     44  F   UNL A   1      43.101  32.386  33.493  1.00  0.00    -0.206 F 
ATOM     45  C   UNL A   1      44.035  35.583  32.081  1.00  0.00     0.060 A 
BRANCH  45  46
ATOM     46  S   UNL A   1      44.222  37.309  32.577  1.00  0.00     0.124 S 
ATOM     47  O   UNL A   1      45.613  37.348  33.013  1.00  0.00    -0.237 OA
ATOM     48  O   UNL A   1      43.921  38.018  31.337  1.00  0.00    -0.237 OA
ATOM     49  O   UNL A   1      43.225  37.465  33.632  1.00  0.00    -0.744 OA
ENDBRANCH  45  46
ENDBRANCH  24  38
BRANCH  25  50
ATOM     50  C   UNL A   1      42.233  23.690  27.685  1.00  0.00     0.058 A 
ATOM     51  C   UNL A   1      42.175  22.560  28.520  1.00  0.00     0.135 A 
ATOM     52  C   UNL A   1      42.198  23.482  26.299  1.00  0.00     0.135 A 
ATOM     53  F   UNL A   1      42.219  22.706  29.853  1.00  0.00    -0.206 F 
ATOM     54  C   UNL A   1      42.149  21.272  28.000  1.00  0.00     0.059 A 
ATOM     55  C   UNL A   1      42.147  22.203  25.755  1.00  0.00     0.059 A 
ATOM     56  F   UNL A   1      42.241  24.532  25.465  1.00  0.00    -0.206 F 
ATOM     57  C   UNL A   1      42.153  21.103  26.614  1.00  0.00     0.060 A 
BRANCH  57  58
ATOM     58  S   UNL A   1      42.209  19.422  25.959  1.00  0.00     0.124 S 
ATOM     59  O   UNL A   1      42.696  18.675  27.115  1.00  0.00    -0.237 OA
ATOM     60  O   UNL A   1      40.817  19.191  25.592  1.00  0.00    -0.237 OA
ATOM     61  O   UNL A   1      43.143  19.525  24.842  1.00  0.00    -0.744 OA
ENDBRANCH  57  58
ENDBRANCH  25  50
BRANCH  37  62
ATOM     62  C   UNL A   1      47.811  27.164  30.151  1.00  0.00     0.058 A 
ATOM     63  C   UNL A   1      48.252  26.576  31.348  1.00  0.00     0.135 A 
ATOM     64  C   UNL A   1      48.779  27.541  29.208  1.00  0.00     0.135 A 
ATOM     65  F   UNL A   1      47.366  26.198  32.282  1.00  0.00    -0.206 F 
ATOM     66  C   UNL A   1      49.605  26.421  31.625  1.00  0.00     0.059 A 
ATOM     67  C   UNL A   1      50.138  27.372  29.453  1.00  0.00     0.059 A 
ATOM     68  F   UNL A   1      48.406  28.091  28.041  1.00  0.00    -0.206 F 
ATOM     69  C   UNL A   1      50.542  26.838  30.678  1.00  0.00     0.060 A 
BRANCH  69  70
ATOM     70  S   UNL A   1      52.294  26.688  31.084  1.00  0.00     0.124 S 
ATOM     71  O   UNL A   1      52.273  25.673  32.130  1.00  0.00    -0.237 OA
ATOM     72  O   UNL A   1      52.870  26.273  29.808  1.00  0.00    -0.237 OA
ATOM     73  O   UNL A   1      52.659  28.033  31.520  1.00  0.00    -0.744 OA
ENDBRANCH  69  70
ENDBRANCH  37  62
ENDBRANCH  11  12
ENDBRANCH   4   6
ENDBRANCH   1   2
BRANCH   1  74
ATOM     74  C   UNL A   1      34.067  27.544  25.946  1.00  0.00     0.042 C 
BRANCH  74  75
ATOM     75  C   UNL A   1      33.709  28.435  24.766  1.00  0.00     0.118 C 
BRANCH  75  76
ATOM     76  N   UNL A   1      33.994  27.814  23.479  1.00  0.00    -0.352 N 
ATOM     77  C   UNL A   1      33.204  27.001  22.698  1.00  0.00     0.256 C 
ATOM     78  H   UNL A   1      34.888  28.005  23.111  1.00  0.00     0.163 HD
ATOM     79  O   UNL A   1      33.673  26.498  21.680  1.00  0.00    -0.269 OA
BRANCH  77  80
ATOM     80  C   UNL A   1      31.818  26.685  23.104  1.00  0.00     0.098 A 
ATOM     81  C   UNL A   1      30.806  27.610  22.823  1.00  0.00     0.138 A 
ATOM     82  C   UNL A   1      31.515  25.455  23.731  1.00  0.00     0.050 A 
ATOM     83  F   UNL A   1      31.065  28.724  22.121  1.00  0.00    -0.206 F 
ATOM     84  C   UNL A   1      29.511  27.413  23.280  1.00  0.00     0.040 A 
ATOM     85  C   UNL A   1      30.212  25.312  24.239  1.00  0.00     0.027 A 
ATOM     86  C   UNL A   1      29.220  26.274  24.018  1.00  0.00     0.005 A 
BRANCH  82  87
ATOM     87  N   UNL A   1      32.473  24.455  23.867  1.00  0.00    -0.377 N 
ATOM     88  H   UNL A   1      32.656  23.898  23.077  1.00  0.00     0.161 HD
BRANCH  87  89
ATOM     89  C   UNL A   1      33.235  24.161  25.083  1.00  0.00     0.110 C 
ATOM     90  C   UNL A   1      32.336  23.411  26.087  1.00  0.00     0.030 C 
ATOM     91  C   UNL A   1      34.490  23.354  24.739  1.00  0.00    -0.023 A 
ATOM     92  C   UNL A   1      33.154  22.855  27.242  1.00  0.00     0.007 C 
ATOM     93  C   UNL A   1      34.909  22.263  25.533  1.00  0.00    -0.043 A 
ATOM     94  C   UNL A   1      35.295  23.737  23.652  1.00  0.00     0.006 A 
ATOM     95  C   UNL A   1      34.114  21.793  26.726  1.00  0.00     0.036 C 
ATOM     96  C   UNL A   1      36.070  21.552  25.190  1.00  0.00     0.004 A 
ATOM     97  C   UNL A   1      36.456  23.031  23.329  1.00  0.00     0.000 A 
ATOM     98  C   UNL A   1      36.839  21.934  24.093  1.00  0.00     0.000 A 
ENDBRANCH  87  89
ENDBRANCH  82  87
ENDBRANCH  77  80
ENDBRANCH  75  76
ENDBRANCH  74  75
ENDBRANCH   1  74
TORSDOF 15
ENDMDL
MODEL 3
REMARK VINA RESULT:     -11.7      2.641      3.593
REMARK SMILES O=C(NCCCNC(=O)c1c(F)cccc1N[C@H]1CCCc2ccccc21)c1ccc(-c2c3nc(c(-c4c(F)cc(S(=O)(=O)[O-])cc4F)c4ccc([nH]4)c(-c4c(F)cc(S(=O)(=O)[O-])cc4F)c4nc(c(-c5c(F)cc(S(=O)(=O)[O-])cc5F)c5ccc2[nH]5)C=C4)C=C3)cc1
REMARK SMILES IDX 4 1 3 2 1 3 2 4 28 6 29 7 93 8 30 9 92 10 31 11 32 12 33 13
REMARK SMILES IDX 86 14 34 15 91 16 85 17 87 18 35 19 90 20 84 21 83 22 36 24
REMARK SMILES IDX 70 25 49 26 69 27 50 28 53 29 68 30 88 31 51 32 52 33 67 35
REMARK SMILES IDX 89 36 54 37 37 38 38 39 47 40 39 41 40 42 46 43 48 44 41 45
REMARK SMILES IDX 42 46 43 47 44 48 45 49 71 50 72 51 81 52 73 53 74 54 80 55
REMARK SMILES IDX 82 56 75 57 76 58 77 59 78 60 79 61 55 62 56 63 65 64 57 65
REMARK SMILES IDX 58 66 64 67 66 68 59 69 60 70 61 71 62 72 63 73 5 74 6 75
REMARK SMILES IDX 7 76 8 77 9 79 10 80 11 81 16 82 12 83 13 84 15 85 14 86
REMARK SMILES IDX 17 87 18 89 19 90 27 91 20 92 22 93 26 94 21 95 23 96 25 97
REMARK SMILES IDX 24 98
REMARK H PARENT 3 5 87 23 53 34 7 78 17 88
REMARK Flexibility Score: inf
ROOT
ATOM      1  C   UNL A   1      35.232  29.356  27.595  1.00  0.00     0.118 C 
ENDROOT
BRANCH   1   2
ATOM      2  N   UNL A   1      35.256  30.206  28.777  1.00  0.00    -0.352 N 
ATOM      3  O   UNL A   1      36.021  31.081  30.701  1.00  0.00    -0.269 OA
ATOM      4  C   UNL A   1      36.272  30.478  29.657  1.00  0.00     0.251 C 
ATOM      5  H   UNL A   1      34.404  30.658  28.977  1.00  0.00     0.163 HD
BRANCH   4   6
ATOM      6  C   UNL A   1      37.656  30.035  29.377  1.00  0.00     0.039 A 
ATOM      7  C   UNL A   1      38.493  29.588  30.402  1.00  0.00     0.014 A 
ATOM      8  C   UNL A   1      38.110  30.029  28.055  1.00  0.00     0.014 A 
ATOM      9  C   UNL A   1      39.821  29.274  30.130  1.00  0.00     0.010 A 
ATOM     10  C   UNL A   1      39.418  29.627  27.771  1.00  0.00     0.010 A 
ATOM     11  C   UNL A   1      40.293  29.272  28.810  1.00  0.00    -0.014 A 
BRANCH  11  12
ATOM     12  C   UNL A   1      41.678  28.826  28.512  1.00  0.00     0.031 A 
ATOM     13  C   UNL A   1      42.819  29.801  28.517  1.00  0.00     0.074 A 
ATOM     14  C   UNL A   1      41.892  27.531  28.210  1.00  0.00     0.049 A 
ATOM     15  N   UNL A   1      44.074  29.599  28.207  1.00  0.00    -0.248 NA
ATOM     16  C   UNL A   1      42.515  31.185  28.912  1.00  0.00     0.031 C 
ATOM     17  C   UNL A   1      40.859  26.493  28.178  1.00  0.00     0.029 A 
ATOM     18  N   UNL A   1      43.041  26.865  27.866  1.00  0.00    -0.354 N 
ATOM     19  C   UNL A   1      44.703  30.830  28.341  1.00  0.00     0.074 A 
ATOM     20  C   UNL A   1      43.688  31.779  28.744  1.00  0.00     0.031 C 
ATOM     21  C   UNL A   1      41.422  25.322  27.855  1.00  0.00     0.029 A 
ATOM     22  C   UNL A   1      42.839  25.534  27.586  1.00  0.00     0.049 A 
ATOM     23  H   UNL A   1      43.925  27.298  27.824  1.00  0.00     0.167 HD
ATOM     24  C   UNL A   1      46.009  31.134  28.145  1.00  0.00     0.037 A 
ATOM     25  C   UNL A   1      43.687  24.593  27.129  1.00  0.00     0.037 A 
ATOM     26  C   UNL A   1      47.009  30.172  27.756  1.00  0.00     0.049 A 
ATOM     27  C   UNL A   1      45.119  24.959  26.874  1.00  0.00     0.074 A 
ATOM     28  C   UNL A   1      48.368  30.369  27.586  1.00  0.00     0.029 A 
ATOM     29  N   UNL A   1      46.759  28.840  27.457  1.00  0.00    -0.354 N 
ATOM     30  N   UNL A   1      45.709  26.119  27.044  1.00  0.00    -0.248 NA
ATOM     31  C   UNL A   1      46.002  23.903  26.364  1.00  0.00     0.031 C 
ATOM     32  C   UNL A   1      48.928  29.175  27.126  1.00  0.00     0.029 A 
ATOM     33  C   UNL A   1      47.932  28.213  27.069  1.00  0.00     0.049 A 
ATOM     34  H   UNL A   1      45.878  28.404  27.515  1.00  0.00     0.167 HD
ATOM     35  C   UNL A   1      47.034  25.930  26.675  1.00  0.00     0.074 A 
ATOM     36  C   UNL A   1      47.162  24.542  26.277  1.00  0.00     0.031 C 
ATOM     37  C   UNL A   1      48.049  26.828  26.676  1.00  0.00     0.037 A 
BRANCH  24  38
ATOM     38  C   UNL A   1      46.432  32.570  28.315  1.00  0.00     0.058 A 
ATOM     39  C   UNL A   1      46.341  33.466  27.236  1.00  0.00     0.135 A 
ATOM     40  C   UNL A   1      46.963  33.054  29.521  1.00  0.00     0.135 A 
ATOM     41  F   UNL A   1      45.844  33.059  26.058  1.00  0.00    -0.206 F 
ATOM     42  C   UNL A   1      46.759  34.788  27.348  1.00  0.00     0.059 A 
ATOM     43  C   UNL A   1      47.360  34.381  29.664  1.00  0.00     0.059 A 
ATOM     44  F   UNL A   1      47.060  32.245  30.589  1.00  0.00    -0.206 F 
ATOM     45  C   UNL A   1      47.261  35.239  28.569  1.00  0.00     0.060 A 
BRANCH  45  46
ATOM     46  S   UNL A   1      47.723  36.978  28.722  1.00  0.00     0.124 S 
ATOM     47  O   UNL A   1      48.705  36.935  29.799  1.00  0.00    -0.237 OA
ATOM     48  O   UNL A   1      48.247  37.274  27.392  1.00  0.00    -0.237 OA
ATOM     49  O   UNL A   1      46.460  37.635  29.046  1.00  0.00    -0.744 OA
ENDBRANCH  45  46
ENDBRANCH  24  38
BRANCH  25  50
ATOM     50  C   UNL A   1      43.167  23.221  26.895  1.00  0.00     0.058 A 
ATOM     51  C   UNL A   1      42.942  22.341  27.968  1.00  0.00     0.135 A 
ATOM     52  C   UNL A   1      43.015  22.721  25.595  1.00  0.00     0.135 A 
ATOM     53  F   UNL A   1      43.087  22.769  29.231  1.00  0.00    -0.206 F 
ATOM     54  C   UNL A   1      42.641  21.001  27.758  1.00  0.00     0.059 A 
ATOM     55  C   UNL A   1      42.690  21.389  25.359  1.00  0.00     0.059 A 
ATOM     56  F   UNL A   1      43.210  23.529  24.540  1.00  0.00    -0.206 F 
ATOM     57  C   UNL A   1      42.534  20.530  26.448  1.00  0.00     0.060 A 
BRANCH  57  58
ATOM     58  S   UNL A   1      42.231  18.768  26.196  1.00  0.00     0.124 S 
ATOM     59  O   UNL A   1      42.504  18.233  27.527  1.00  0.00    -0.237 OA
ATOM     60  O   UNL A   1      40.833  18.756  25.780  1.00  0.00    -0.237 OA
ATOM     61  O   UNL A   1      43.195  18.403  25.164  1.00  0.00    -0.744 OA
ENDBRANCH  57  58
ENDBRANCH  25  50
BRANCH  37  62
ATOM     62  C   UNL A   1      49.412  26.358  26.249  1.00  0.00     0.058 A 
ATOM     63  C   UNL A   1      50.270  25.747  27.179  1.00  0.00     0.135 A 
ATOM     64  C   UNL A   1      49.921  26.644  24.974  1.00  0.00     0.135 A 
ATOM     65  F   UNL A   1      49.831  25.454  28.412  1.00  0.00    -0.206 F 
ATOM     66  C   UNL A   1      51.600  25.482  26.874  1.00  0.00     0.059 A 
ATOM     67  C   UNL A   1      51.242  26.364  24.638  1.00  0.00     0.059 A 
ATOM     68  F   UNL A   1      49.135  27.211  24.045  1.00  0.00    -0.206 F 
ATOM     69  C   UNL A   1      52.082  25.809  25.606  1.00  0.00     0.060 A 
BRANCH  69  70
ATOM     70  S   UNL A   1      53.827  25.517  25.252  1.00  0.00     0.124 S 
ATOM     71  O   UNL A   1      53.913  25.884  23.843  1.00  0.00    -0.237 OA
ATOM     72  O   UNL A   1      54.486  26.424  26.186  1.00  0.00    -0.237 OA
ATOM     73  O   UNL A   1      54.000  24.096  25.542  1.00  0.00    -0.744 OA
ENDBRANCH  69  70
ENDBRANCH  37  62
ENDBRANCH  11  12
ENDBRANCH   4   6
ENDBRANCH   1   2
BRANCH   1  74
ATOM     74  C   UNL A   1      33.823  29.081  27.092  1.00  0.00     0.042 C 
BRANCH  74  75
ATOM     75  C   UNL A   1      33.664  27.757  26.360  1.00  0.00     0.118 C 
BRANCH  75  76
ATOM     76  N   UNL A   1      32.473  27.022  26.766  1.00  0.00    -0.352 N 
ATOM     77  C   UNL A   1      31.522  26.393  25.997  1.00  0.00     0.256 C 
ATOM     78  H   UNL A   1      32.327  26.967  27.738  1.00  0.00     0.163 HD
ATOM     79  O   UNL A   1      30.531  25.905  26.538  1.00  0.00    -0.269 OA
BRANCH  77  80
ATOM     80  C   UNL A   1      31.653  26.347  24.525  1.00  0.00     0.098 A 
ATOM     81  C   UNL A   1      31.059  27.360  23.763  1.00  0.00     0.138 A 
ATOM     82  C   UNL A   1      32.395  25.319  23.901  1.00  0.00     0.050 A 
ATOM     83  F   UNL A   1      30.457  28.404  24.353  1.00  0.00    -0.206 F 
ATOM     84  C   UNL A   1      31.058  27.304  22.377  1.00  0.00     0.040 A 
ATOM     85  C   UNL A   1      32.322  25.252  22.499  1.00  0.00     0.027 A 
ATOM     86  C   UNL A   1      31.664  26.229  21.743  1.00  0.00     0.005 A 
BRANCH  82  87
ATOM     87  N   UNL A   1      33.131  24.402  24.645  1.00  0.00    -0.377 N 
ATOM     88  H   UNL A   1      32.846  24.245  25.574  1.00  0.00     0.161 HD
BRANCH  87  89
ATOM     89  C   UNL A   1      34.290  23.646  24.166  1.00  0.00     0.110 C 
ATOM     90  C   UNL A   1      35.547  24.077  24.949  1.00  0.00     0.030 C 
ATOM     91  C   UNL A   1      34.034  22.142  24.297  1.00  0.00    -0.023 A 
ATOM     92  C   UNL A   1      36.711  23.138  24.673  1.00  0.00     0.007 C 
ATOM     93  C   UNL A   1      35.035  21.259  24.761  1.00  0.00    -0.043 A 
ATOM     94  C   UNL A   1      32.803  21.601  23.884  1.00  0.00     0.006 A 
ATOM     95  C   UNL A   1      36.388  21.751  25.209  1.00  0.00     0.036 C 
ATOM     96  C   UNL A   1      34.763  19.884  24.859  1.00  0.00     0.004 A 
ATOM     97  C   UNL A   1      32.551  20.231  23.974  1.00  0.00     0.000 A 
ATOM     98  C   UNL A   1      33.529  19.374  24.469  1.00  0.00     0.000 A 
ENDBRANCH  87  89
ENDBRANCH  82  87
ENDBRANCH  77  80
ENDBRANCH  75  76
ENDBRANCH  74  75
ENDBRANCH   1  74
TORSDOF 15
ENDMDL
