MODEL 1
REMARK VINA RESULT:     -12.4      0.000      0.000
REMARK SMILES CCc1nc(C)c(C)c2nn(CC(=O)NCCCNC(=O)c3ccc(-c4c5nc(c(-c6c(F)cc(S(=O)(=O)[O-])cc6F)c6ccc([nH]6)c(-c6c(F)cc(S(=O)(=O)[O-])cc6F)c6nc(c(-c7c(F)cc(S(=O)(=O)[O-])cc7F)c7ccc4[nH]7)C=C6)C=C5)cc3)c(=O)n12
REMARK SMILES IDX 17 1 16 2 15 3 13 4 14 5 12 7 11 8 3 9 4 10 90 11 5 12 9 13
REMARK SMILES IDX 88 14 6 15 7 16 10 17 89 18 8 19 2 20 1 21 18 22 19 23 20 24
REMARK SMILES IDX 21 26 22 27 23 28 87 29 24 30 86 31 25 32 26 33 27 34 80 35
REMARK SMILES IDX 28 36 85 37 79 38 81 39 29 40 84 41 78 42 77 43 30 45 64 46
REMARK SMILES IDX 43 47 63 48 44 49 47 50 62 51 82 52 45 53 46 54 61 56 83 57
REMARK SMILES IDX 48 58 31 59 32 60 41 61 33 62 34 63 40 64 42 65 35 66 36 67
REMARK SMILES IDX 37 68 38 69 39 70 65 71 66 72 75 73 67 74 68 75 74 76 76 77
REMARK SMILES IDX 69 78 70 79 71 80 72 81 73 82 49 83 50 84 59 85 51 86 52 87
REMARK SMILES IDX 58 88 60 89 53 90 54 91 55 92 56 93 57 94
REMARK H PARENT 15 6 19 25 81 44 47 55
REMARK Flexibility Score: inf
ROOT
ATOM      1  C   UNL A   1      39.096  21.798  26.146  1.00  0.00     0.042 C 
ENDROOT
BRANCH   1   2
ATOM      2  C   UNL A   1      38.148  22.961  25.837  1.00  0.00     0.117 C 
BRANCH   2   3
ATOM      3  N   UNL A   1      37.759  23.018  24.438  1.00  0.00    -0.354 N 
ATOM      4  C   UNL A   1      36.616  22.584  23.829  1.00  0.00     0.241 C 
ATOM      5  O   UNL A   1      36.411  22.978  22.676  1.00  0.00    -0.273 OA
ATOM      6  H   UNL A   1      38.419  23.435  23.838  1.00  0.00     0.163 HD
BRANCH   4   7
ATOM      7  C   UNL A   1      35.537  21.818  24.593  1.00  0.00     0.249 C 
BRANCH   7   8
ATOM      8  N   UNL A   1      34.468  22.650  25.092  1.00  0.00    -0.203 N 
ATOM      9  C   UNL A   1      31.236  23.617  26.278  1.00  0.00     0.119 A 
ATOM     10  N   UNL A   1      30.840  24.816  26.590  1.00  0.00    -0.239 NA
ATOM     11  N   UNL A   1      32.504  23.374  25.804  1.00  0.00    -0.230 N 
ATOM     12  C   UNL A   1      31.713  25.871  26.421  1.00  0.00     0.046 A 
ATOM     13  C   UNL A   1      33.400  24.375  25.647  1.00  0.00     0.167 A 
ATOM     14  C   UNL A   1      33.169  22.226  25.396  1.00  0.00     0.352 A 
ATOM     15  C   UNL A   1      31.138  27.220  26.766  1.00  0.00     0.067 C 
ATOM     16  C   UNL A   1      32.975  25.744  25.967  1.00  0.00     0.016 A 
ATOM     17  N   UNL A   1      34.570  24.014  25.216  1.00  0.00    -0.149 NA
ATOM     18  O   UNL A   1      32.728  21.088  25.267  1.00  0.00    -0.245 OA
ATOM     19  C   UNL A   1      33.982  26.824  25.739  1.00  0.00     0.050 C 
BRANCH   9  20
ATOM     20  C   UNL A   1      30.265  22.462  26.426  1.00  0.00     0.072 C 
ATOM     21  C   UNL A   1      29.155  22.735  27.426  1.00  0.00     0.012 C 
ENDBRANCH   9  20
ENDBRANCH   7   8
ENDBRANCH   4   7
ENDBRANCH   2   3
ENDBRANCH   1   2
BRANCH   1  22
ATOM     22  C   UNL A   1      40.376  22.257  26.828  1.00  0.00     0.118 C 
BRANCH  22  23
ATOM     23  N   UNL A   1      41.556  22.136  25.972  1.00  0.00    -0.352 N 
ATOM     24  C   UNL A   1      42.360  23.144  25.480  1.00  0.00     0.251 C 
ATOM     25  H   UNL A   1      41.807  21.219  25.714  1.00  0.00     0.163 HD
ATOM     26  O   UNL A   1      43.096  22.932  24.521  1.00  0.00    -0.269 OA
BRANCH  24  27
ATOM     27  C   UNL A   1      42.324  24.475  26.118  1.00  0.00     0.039 A 
ATOM     28  C   UNL A   1      41.478  25.482  25.643  1.00  0.00     0.014 A 
ATOM     29  C   UNL A   1      43.155  24.707  27.212  1.00  0.00     0.014 A 
ATOM     30  C   UNL A   1      41.427  26.695  26.326  1.00  0.00     0.010 A 
ATOM     31  C   UNL A   1      42.996  25.841  27.968  1.00  0.00     0.010 A 
ATOM     32  C   UNL A   1      42.177  26.860  27.501  1.00  0.00    -0.014 A 
BRANCH  32  33
ATOM     33  C   UNL A   1      41.982  28.026  28.360  1.00  0.00     0.031 A 
ATOM     34  C   UNL A   1      43.087  29.017  28.241  1.00  0.00     0.074 A 
ATOM     35  C   UNL A   1      40.809  28.292  28.980  1.00  0.00     0.049 A 
ATOM     36  N   UNL A   1      43.970  29.330  29.131  1.00  0.00    -0.248 NA
ATOM     37  C   UNL A   1      43.366  29.591  26.908  1.00  0.00     0.031 C 
ATOM     38  C   UNL A   1      39.555  27.533  28.887  1.00  0.00     0.029 A 
ATOM     39  N   UNL A   1      40.438  29.363  29.737  1.00  0.00    -0.354 N 
ATOM     40  C   UNL A   1      44.718  30.356  28.559  1.00  0.00     0.074 A 
ATOM     41  C   UNL A   1      44.477  30.293  27.142  1.00  0.00     0.031 C 
ATOM     42  C   UNL A   1      38.528  28.284  29.342  1.00  0.00     0.029 A 
ATOM     43  C   UNL A   1      39.059  29.508  29.911  1.00  0.00     0.049 A 
ATOM     44  H   UNL A   1      41.091  29.986  30.130  1.00  0.00     0.167 HD
ATOM     45  C   UNL A   1      45.192  31.378  29.324  1.00  0.00     0.037 A 
ATOM     46  C   UNL A   1      38.405  30.569  30.457  1.00  0.00     0.037 A 
ATOM     47  C   UNL A   1      45.199  31.023  30.721  1.00  0.00     0.049 A 
ATOM     48  C   UNL A   1      39.410  31.314  31.257  1.00  0.00     0.074 A 
ATOM     49  C   UNL A   1      45.746  29.992  31.460  1.00  0.00     0.029 A 
ATOM     50  N   UNL A   1      44.215  31.570  31.509  1.00  0.00    -0.354 N 
ATOM     51  N   UNL A   1      39.997  30.838  32.322  1.00  0.00    -0.248 NA
ATOM     52  C   UNL A   1      40.099  32.414  30.602  1.00  0.00     0.031 C 
ATOM     53  C   UNL A   1      44.756  29.669  32.434  1.00  0.00     0.029 A 
ATOM     54  C   UNL A   1      43.703  30.576  32.299  1.00  0.00     0.049 A 
ATOM     55  H   UNL A   1      43.929  32.512  31.506  1.00  0.00     0.167 HD
ATOM     56  C   UNL A   1      41.312  31.262  32.216  1.00  0.00     0.074 A 
ATOM     57  C   UNL A   1      41.294  32.300  31.186  1.00  0.00     0.031 C 
ATOM     58  C   UNL A   1      42.331  30.534  32.759  1.00  0.00     0.037 A 
BRANCH  45  59
ATOM     59  C   UNL A   1      45.227  32.814  28.854  1.00  0.00     0.058 A 
ATOM     60  C   UNL A   1      46.430  33.543  28.932  1.00  0.00     0.135 A 
ATOM     61  C   UNL A   1      44.069  33.582  28.589  1.00  0.00     0.135 A 
ATOM     62  F   UNL A   1      47.584  32.924  29.230  1.00  0.00    -0.206 F 
ATOM     63  C   UNL A   1      46.474  34.931  28.780  1.00  0.00     0.059 A 
ATOM     64  C   UNL A   1      44.098  34.953  28.373  1.00  0.00     0.059 A 
ATOM     65  F   UNL A   1      42.838  33.059  28.623  1.00  0.00    -0.206 F 
ATOM     66  C   UNL A   1      45.301  35.625  28.499  1.00  0.00     0.060 A 
BRANCH  66  67
ATOM     67  S   UNL A   1      45.345  37.417  28.335  1.00  0.00     0.124 S 
ATOM     68  O   UNL A   1      46.353  37.776  29.325  1.00  0.00    -0.237 OA
ATOM     69  O   UNL A   1      45.730  37.580  26.938  1.00  0.00    -0.237 OA
ATOM     70  O   UNL A   1      43.976  37.817  28.651  1.00  0.00    -0.744 OA
ENDBRANCH  66  67
ENDBRANCH  45  59
BRANCH  46  71
ATOM     71  C   UNL A   1      37.100  31.184  30.066  1.00  0.00     0.058 A 
ATOM     72  C   UNL A   1      36.257  31.767  31.034  1.00  0.00     0.135 A 
ATOM     73  C   UNL A   1      36.796  31.492  28.725  1.00  0.00     0.135 A 
ATOM     74  F   UNL A   1      36.470  31.541  32.340  1.00  0.00    -0.206 F 
ATOM     75  C   UNL A   1      35.227  32.658  30.700  1.00  0.00     0.059 A 
ATOM     76  C   UNL A   1      35.768  32.369  28.367  1.00  0.00     0.059 A 
ATOM     77  F   UNL A   1      37.549  31.022  27.720  1.00  0.00    -0.206 F 
ATOM     78  C   UNL A   1      35.008  32.975  29.361  1.00  0.00     0.060 A 
BRANCH  78  79
ATOM     79  S   UNL A   1      33.812  34.265  28.936  1.00  0.00     0.124 S 
ATOM     80  O   UNL A   1      34.665  35.288  28.342  1.00  0.00    -0.237 OA
ATOM     81  O   UNL A   1      32.920  33.568  28.016  1.00  0.00    -0.237 OA
ATOM     82  O   UNL A   1      33.221  34.618  30.224  1.00  0.00    -0.744 OA
ENDBRANCH  78  79
ENDBRANCH  46  71
BRANCH  58  83
ATOM     83  C   UNL A   1      42.002  29.471  33.778  1.00  0.00     0.058 A 
ATOM     84  C   UNL A   1      41.685  28.132  33.485  1.00  0.00     0.135 A 
ATOM     85  C   UNL A   1      42.199  29.801  35.127  1.00  0.00     0.135 A 
ATOM     86  F   UNL A   1      41.560  27.711  32.219  1.00  0.00    -0.206 F 
ATOM     87  C   UNL A   1      41.558  27.172  34.495  1.00  0.00     0.059 A 
ATOM     88  C   UNL A   1      42.110  28.856  36.143  1.00  0.00     0.059 A 
ATOM     89  F   UNL A   1      42.551  31.052  35.468  1.00  0.00    -0.206 F 
ATOM     90  C   UNL A   1      41.783  27.542  35.821  1.00  0.00     0.060 A 
BRANCH  90  91
ATOM     91  S   UNL A   1      41.719  26.286  37.118  1.00  0.00     0.124 S 
ATOM     92  O   UNL A   1      42.910  26.593  37.903  1.00  0.00    -0.237 OA
ATOM     93  O   UNL A   1      40.442  26.565  37.767  1.00  0.00    -0.237 OA
ATOM     94  O   UNL A   1      41.770  25.027  36.378  1.00  0.00    -0.744 OA
ENDBRANCH  90  91
ENDBRANCH  58  83
ENDBRANCH  32  33
ENDBRANCH  24  27
ENDBRANCH  22  23
ENDBRANCH   1  22
TORSDOF 15
ENDMDL
MODEL 2
REMARK VINA RESULT:     -12.0      2.442      3.404
REMARK SMILES CCc1nc(C)c(C)c2nn(CC(=O)NCCCNC(=O)c3ccc(-c4c5nc(c(-c6c(F)cc(S(=O)(=O)[O-])cc6F)c6ccc([nH]6)c(-c6c(F)cc(S(=O)(=O)[O-])cc6F)c6nc(c(-c7c(F)cc(S(=O)(=O)[O-])cc7F)c7ccc4[nH]7)C=C6)C=C5)cc3)c(=O)n12
REMARK SMILES IDX 17 1 16 2 15 3 13 4 14 5 12 7 11 8 3 9 4 10 90 11 5 12 9 13
REMARK SMILES IDX 88 14 6 15 7 16 10 17 89 18 8 19 2 20 1 21 18 22 19 23 20 24
REMARK SMILES IDX 21 26 22 27 23 28 87 29 24 30 86 31 25 32 26 33 27 34 80 35
REMARK SMILES IDX 28 36 85 37 79 38 81 39 29 40 84 41 78 42 77 43 30 45 64 46
REMARK SMILES IDX 43 47 63 48 44 49 47 50 62 51 82 52 45 53 46 54 61 56 83 57
REMARK SMILES IDX 48 58 31 59 32 60 41 61 33 62 34 63 40 64 42 65 35 66 36 67
REMARK SMILES IDX 37 68 38 69 39 70 65 71 66 72 75 73 67 74 68 75 74 76 76 77
REMARK SMILES IDX 69 78 70 79 71 80 72 81 73 82 49 83 50 84 59 85 51 86 52 87
REMARK SMILES IDX 58 88 60 89 53 90 54 91 55 92 56 93 57 94
REMARK H PARENT 15 6 19 25 81 44 47 55
REMARK Flexibility Score: inf
ROOT
ATOM      1  C   UNL A   1      41.255  20.011  26.164  1.00  0.00     0.042 C 
ENDROOT
BRANCH   1   2
ATOM      2  C   UNL A   1      40.405  20.706  27.232  1.00  0.00     0.117 C 
BRANCH   2   3
ATOM      3  N   UNL A   1      39.977  22.038  26.838  1.00  0.00    -0.354 N 
ATOM      4  C   UNL A   1      38.919  22.426  26.067  1.00  0.00     0.241 C 
ATOM      5  O   UNL A   1      38.617  23.623  26.091  1.00  0.00    -0.273 OA
ATOM      6  H   UNL A   1      40.536  22.773  27.181  1.00  0.00     0.163 HD
BRANCH   4   7
ATOM      7  C   UNL A   1      38.017  21.410  25.368  1.00  0.00     0.249 C 
BRANCH   7   8
ATOM      8  N   UNL A   1      36.640  21.827  25.254  1.00  0.00    -0.203 N 
ATOM      9  C   UNL A   1      33.633  23.144  23.835  1.00  0.00     0.119 A 
ATOM     10  N   UNL A   1      32.490  23.312  24.432  1.00  0.00    -0.239 NA
ATOM     11  N   UNL A   1      34.732  22.650  24.499  1.00  0.00    -0.230 N 
ATOM     12  C   UNL A   1      32.388  23.002  25.773  1.00  0.00     0.046 A 
ATOM     13  C   UNL A   1      34.669  22.311  25.806  1.00  0.00     0.167 A 
ATOM     14  C   UNL A   1      36.041  22.388  24.120  1.00  0.00     0.352 A 
ATOM     15  C   UNL A   1      31.035  23.279  26.376  1.00  0.00     0.067 C 
ATOM     16  C   UNL A   1      33.398  22.511  26.515  1.00  0.00     0.016 A 
ATOM     17  N   UNL A   1      35.764  21.834  26.313  1.00  0.00    -0.149 NA
ATOM     18  O   UNL A   1      36.595  22.632  23.053  1.00  0.00    -0.245 OA
ATOM     19  C   UNL A   1      33.385  22.162  27.969  1.00  0.00     0.050 C 
BRANCH   9  20
ATOM     20  C   UNL A   1      33.759  23.520  22.371  1.00  0.00     0.072 C 
ATOM     21  C   UNL A   1      32.846  24.665  21.965  1.00  0.00     0.012 C 
ENDBRANCH   9  20
ENDBRANCH   7   8
ENDBRANCH   4   7
ENDBRANCH   2   3
ENDBRANCH   1   2
BRANCH   1  22
ATOM     22  C   UNL A   1      42.628  19.612  26.683  1.00  0.00     0.118 C 
BRANCH  22  23
ATOM     23  N   UNL A   1      43.634  19.511  25.626  1.00  0.00    -0.352 N 
ATOM     24  C   UNL A   1      44.204  20.532  24.892  1.00  0.00     0.251 C 
ATOM     25  H   UNL A   1      43.941  18.600  25.410  1.00  0.00     0.163 HD
ATOM     26  O   UNL A   1      44.769  20.285  23.830  1.00  0.00    -0.269 OA
BRANCH  24  27
ATOM     27  C   UNL A   1      44.128  21.916  25.397  1.00  0.00     0.039 A 
ATOM     28  C   UNL A   1      43.160  22.807  24.922  1.00  0.00     0.014 A 
ATOM     29  C   UNL A   1      45.045  22.320  26.365  1.00  0.00     0.014 A 
ATOM     30  C   UNL A   1      43.082  24.079  25.484  1.00  0.00     0.010 A 
ATOM     31  C   UNL A   1      44.874  23.514  27.019  1.00  0.00     0.010 A 
ATOM     32  C   UNL A   1      43.933  24.419  26.548  1.00  0.00    -0.014 A 
BRANCH  32  33
ATOM     33  C   UNL A   1      43.734  25.653  27.304  1.00  0.00     0.031 A 
ATOM     34  C   UNL A   1      44.777  26.677  27.016  1.00  0.00     0.074 A 
ATOM     35  C   UNL A   1      42.592  25.925  27.978  1.00  0.00     0.049 A 
ATOM     36  N   UNL A   1      45.699  27.115  27.808  1.00  0.00    -0.248 NA
ATOM     37  C   UNL A   1      44.938  27.130  25.619  1.00  0.00     0.031 C 
ATOM     38  C   UNL A   1      41.376  25.104  28.045  1.00  0.00     0.029 A 
ATOM     39  N   UNL A   1      42.217  27.047  28.655  1.00  0.00    -0.354 N 
ATOM     40  C   UNL A   1      46.354  28.112  27.092  1.00  0.00     0.074 A 
ATOM     41  C   UNL A   1      46.024  27.901  25.707  1.00  0.00     0.031 C 
ATOM     42  C   UNL A   1      40.344  25.848  28.498  1.00  0.00     0.029 A 
ATOM     43  C   UNL A   1      40.847  27.145  28.911  1.00  0.00     0.049 A 
ATOM     44  H   UNL A   1      42.861  27.734  28.941  1.00  0.00     0.167 HD
ATOM     45  C   UNL A   1      46.822  29.224  27.722  1.00  0.00     0.037 A 
ATOM     46  C   UNL A   1      40.176  28.223  29.399  1.00  0.00     0.037 A 
ATOM     47  C   UNL A   1      46.940  29.009  29.142  1.00  0.00     0.049 A 
ATOM     48  C   UNL A   1      41.191  29.088  30.053  1.00  0.00     0.074 A 
ATOM     49  C   UNL A   1      47.587  28.080  29.934  1.00  0.00     0.029 A 
ATOM     50  N   UNL A   1      45.983  29.584  29.942  1.00  0.00    -0.354 N 
ATOM     51  N   UNL A   1      41.870  28.744  31.114  1.00  0.00    -0.248 NA
ATOM     52  C   UNL A   1      41.778  30.149  29.251  1.00  0.00     0.031 C 
ATOM     53  C   UNL A   1      46.681  27.809  31.001  1.00  0.00     0.029 A 
ATOM     54  C   UNL A   1      45.576  28.649  30.856  1.00  0.00     0.049 A 
ATOM     55  H   UNL A   1      45.649  30.507  29.870  1.00  0.00     0.167 HD
ATOM     56  C   UNL A   1      43.152  29.216  30.877  1.00  0.00     0.074 A 
ATOM     57  C   UNL A   1      43.013  30.146  29.758  1.00  0.00     0.031 C 
ATOM     58  C   UNL A   1      44.241  28.591  31.413  1.00  0.00     0.037 A 
BRANCH  45  59
ATOM     59  C   UNL A   1      46.753  30.608  27.118  1.00  0.00     0.058 A 
ATOM     60  C   UNL A   1      47.895  31.433  27.130  1.00  0.00     0.135 A 
ATOM     61  C   UNL A   1      45.542  31.255  26.775  1.00  0.00     0.135 A 
ATOM     62  F   UNL A   1      49.089  30.936  27.491  1.00  0.00    -0.206 F 
ATOM     63  C   UNL A   1      47.834  32.799  26.847  1.00  0.00     0.059 A 
ATOM     64  C   UNL A   1      45.468  32.598  26.430  1.00  0.00     0.059 A 
ATOM     65  F   UNL A   1      44.354  30.644  26.854  1.00  0.00    -0.206 F 
ATOM     66  C   UNL A   1      46.614  33.370  26.496  1.00  0.00     0.060 A 
BRANCH  66  67
ATOM     67  S   UNL A   1      46.521  35.137  26.163  1.00  0.00     0.124 S 
ATOM     68  O   UNL A   1      45.215  35.246  25.525  1.00  0.00    -0.237 OA
ATOM     69  O   UNL A   1      46.629  35.699  27.505  1.00  0.00    -0.237 OA
ATOM     70  O   UNL A   1      47.672  35.376  25.296  1.00  0.00    -0.744 OA
ENDBRANCH  66  67
ENDBRANCH  45  59
BRANCH  46  71
ATOM     71  C   UNL A   1      38.818  28.738  29.044  1.00  0.00     0.058 A 
ATOM     72  C   UNL A   1      37.827  28.906  30.033  1.00  0.00     0.135 A 
ATOM     73  C   UNL A   1      38.560  29.362  27.808  1.00  0.00     0.135 A 
ATOM     74  F   UNL A   1      37.985  28.355  31.247  1.00  0.00    -0.206 F 
ATOM     75  C   UNL A   1      36.692  29.703  29.836  1.00  0.00     0.059 A 
ATOM     76  C   UNL A   1      37.430  30.155  27.585  1.00  0.00     0.059 A 
ATOM     77  F   UNL A   1      39.446  29.301  26.804  1.00  0.00    -0.206 F 
ATOM     78  C   UNL A   1      36.516  30.349  28.614  1.00  0.00     0.060 A 
BRANCH  78  79
ATOM     79  S   UNL A   1      35.158  31.529  28.418  1.00  0.00     0.124 S 
ATOM     80  O   UNL A   1      34.137  30.714  27.769  1.00  0.00    -0.237 OA
ATOM     81  O   UNL A   1      34.882  31.913  29.799  1.00  0.00    -0.237 OA
ATOM     82  O   UNL A   1      35.737  32.580  27.587  1.00  0.00    -0.744 OA
ENDBRANCH  78  79
ENDBRANCH  46  71
BRANCH  58  83
ATOM     83  C   UNL A   1      44.034  27.618  32.548  1.00  0.00     0.058 A 
ATOM     84  C   UNL A   1      43.935  26.221  32.416  1.00  0.00     0.135 A 
ATOM     85  C   UNL A   1      44.124  28.132  33.850  1.00  0.00     0.135 A 
ATOM     86  F   UNL A   1      43.927  25.639  31.209  1.00  0.00    -0.206 F 
ATOM     87  C   UNL A   1      43.913  25.380  33.533  1.00  0.00     0.059 A 
ATOM     88  C   UNL A   1      44.137  27.313  34.973  1.00  0.00     0.059 A 
ATOM     89  F   UNL A   1      44.269  29.455  34.041  1.00  0.00    -0.206 F 
ATOM     90  C   UNL A   1      44.026  25.935  34.808  1.00  0.00     0.060 A 
BRANCH  90  91
ATOM     91  S   UNL A   1      44.100  24.847  36.249  1.00  0.00     0.124 S 
ATOM     92  O   UNL A   1      42.695  24.510  36.453  1.00  0.00    -0.237 OA
ATOM     93  O   UNL A   1      44.952  23.759  35.781  1.00  0.00    -0.237 OA
ATOM     94  O   UNL A   1      44.693  25.690  37.285  1.00  0.00    -0.744 OA
ENDBRANCH  90  91
ENDBRANCH  58  83
ENDBRANCH  32  33
ENDBRANCH  24  27
ENDBRANCH  22  23
ENDBRANCH   1  22
TORSDOF 15
ENDMDL
MODEL 3
REMARK VINA RESULT:     -12.0      4.502     11.137
REMARK SMILES CCc1nc(C)c(C)c2nn(CC(=O)NCCCNC(=O)c3ccc(-c4c5nc(c(-c6c(F)cc(S(=O)(=O)[O-])cc6F)c6ccc([nH]6)c(-c6c(F)cc(S(=O)(=O)[O-])cc6F)c6nc(c(-c7c(F)cc(S(=O)(=O)[O-])cc7F)c7ccc4[nH]7)C=C6)C=C5)cc3)c(=O)n12
REMARK SMILES IDX 17 1 16 2 15 3 13 4 14 5 12 7 11 8 3 9 4 10 90 11 5 12 9 13
REMARK SMILES IDX 88 14 6 15 7 16 10 17 89 18 8 19 2 20 1 21 18 22 19 23 20 24
REMARK SMILES IDX 21 26 22 27 23 28 87 29 24 30 86 31 25 32 26 33 27 34 80 35
REMARK SMILES IDX 28 36 85 37 79 38 81 39 29 40 84 41 78 42 77 43 30 45 64 46
REMARK SMILES IDX 43 47 63 48 44 49 47 50 62 51 82 52 45 53 46 54 61 56 83 57
REMARK SMILES IDX 48 58 31 59 32 60 41 61 33 62 34 63 40 64 42 65 35 66 36 67
REMARK SMILES IDX 37 68 38 69 39 70 65 71 66 72 75 73 67 74 68 75 74 76 76 77
REMARK SMILES IDX 69 78 70 79 71 80 72 81 73 82 49 83 50 84 59 85 51 86 52 87
REMARK SMILES IDX 58 88 60 89 53 90 54 91 55 92 56 93 57 94
REMARK H PARENT 15 6 19 25 81 44 47 55
REMARK Flexibility Score: inf
ROOT
ATOM      1  C   UNL A   1      34.703  34.859  29.152  1.00  0.00     0.042 C 
ENDROOT
BRANCH   1   2
ATOM      2  C   UNL A   1      33.662  34.836  30.276  1.00  0.00     0.117 C 
BRANCH   2   3
ATOM      3  N   UNL A   1      33.818  35.933  31.216  1.00  0.00    -0.354 N 
ATOM      4  C   UNL A   1      34.293  35.928  32.497  1.00  0.00     0.241 C 
ATOM      5  O   UNL A   1      34.568  37.023  32.997  1.00  0.00    -0.273 OA
ATOM      6  H   UNL A   1      33.540  36.815  30.877  1.00  0.00     0.163 HD
BRANCH   4   7
ATOM      7  C   UNL A   1      34.665  34.630  33.213  1.00  0.00     0.249 C 
BRANCH   7   8
ATOM      8  N   UNL A   1      36.001  34.165  32.931  1.00  0.00    -0.203 N 
ATOM      9  C   UNL A   1      39.139  32.500  33.347  1.00  0.00     0.119 A 
ATOM     10  N   UNL A   1      40.157  32.529  32.539  1.00  0.00    -0.239 NA
ATOM     11  N   UNL A   1      37.988  33.209  33.089  1.00  0.00    -0.230 N 
ATOM     12  C   UNL A   1      40.083  33.308  31.402  1.00  0.00     0.046 A 
ATOM     13  C   UNL A   1      37.864  33.965  31.975  1.00  0.00     0.167 A 
ATOM     14  C   UNL A   1      36.787  33.363  33.767  1.00  0.00     0.352 A 
ATOM     15  C   UNL A   1      41.333  33.308  30.561  1.00  0.00     0.067 C 
ATOM     16  C   UNL A   1      39.006  34.038  31.054  1.00  0.00     0.016 A 
ATOM     17  N   UNL A   1      36.722  34.565  31.832  1.00  0.00    -0.149 NA
ATOM     18  O   UNL A   1      36.474  32.947  34.878  1.00  0.00    -0.245 OA
ATOM     19  C   UNL A   1      38.841  34.918  29.857  1.00  0.00     0.050 C 
BRANCH   9  20
ATOM     20  C   UNL A   1      39.232  31.675  34.616  1.00  0.00     0.072 C 
ATOM     21  C   UNL A   1      40.645  31.577  35.165  1.00  0.00     0.012 C 
ENDBRANCH   9  20
ENDBRANCH   7   8
ENDBRANCH   4   7
ENDBRANCH   2   3
ENDBRANCH   1   2
BRANCH   1  22
ATOM     22  C   UNL A   1      35.420  33.526  28.997  1.00  0.00     0.118 C 
BRANCH  22  23
ATOM     23  N   UNL A   1      34.598  32.505  28.349  1.00  0.00    -0.352 N 
ATOM     24  C   UNL A   1      34.993  31.276  27.859  1.00  0.00     0.251 C 
ATOM     25  H   UNL A   1      33.642  32.722  28.249  1.00  0.00     0.163 HD
ATOM     26  O   UNL A   1      34.286  30.677  27.055  1.00  0.00    -0.269 OA
BRANCH  24  27
ATOM     27  C   UNL A   1      36.272  30.694  28.312  1.00  0.00     0.039 A 
ATOM     28  C   UNL A   1      36.460  29.309  28.358  1.00  0.00     0.014 A 
ATOM     29  C   UNL A   1      37.295  31.559  28.695  1.00  0.00     0.014 A 
ATOM     30  C   UNL A   1      37.709  28.811  28.722  1.00  0.00     0.010 A 
ATOM     31  C   UNL A   1      38.561  31.075  28.908  1.00  0.00     0.010 A 
ATOM     32  C   UNL A   1      38.762  29.703  28.978  1.00  0.00    -0.014 A 
BRANCH  32  33
ATOM     33  C   UNL A   1      40.131  29.222  29.144  1.00  0.00     0.031 A 
ATOM     34  C   UNL A   1      40.519  29.079  30.575  1.00  0.00     0.074 A 
ATOM     35  C   UNL A   1      40.860  28.715  28.123  1.00  0.00     0.049 A 
ATOM     36  N   UNL A   1      41.383  29.777  31.236  1.00  0.00    -0.248 NA
ATOM     37  C   UNL A   1      39.713  28.180  31.427  1.00  0.00     0.031 C 
ATOM     38  C   UNL A   1      40.432  28.515  26.732  1.00  0.00     0.029 A 
ATOM     39  N   UNL A   1      42.102  28.154  28.123  1.00  0.00    -0.354 N 
ATOM     40  C   UNL A   1      41.433  29.195  32.500  1.00  0.00     0.074 A 
ATOM     41  C   UNL A   1      40.234  28.411  32.634  1.00  0.00     0.031 C 
ATOM     42  C   UNL A   1      41.283  27.673  26.106  1.00  0.00     0.029 A 
ATOM     43  C   UNL A   1      42.403  27.400  26.986  1.00  0.00     0.049 A 
ATOM     44  H   UNL A   1      42.737  28.272  28.865  1.00  0.00     0.167 HD
ATOM     45  C   UNL A   1      42.608  29.125  33.184  1.00  0.00     0.037 A 
ATOM     46  C   UNL A   1      43.480  26.590  26.797  1.00  0.00     0.037 A 
ATOM     47  C   UNL A   1      43.573  30.059  32.661  1.00  0.00     0.049 A 
ATOM     48  C   UNL A   1      44.502  27.013  27.789  1.00  0.00     0.074 A 
ATOM     49  C   UNL A   1      43.586  31.423  32.441  1.00  0.00     0.029 A 
ATOM     50  N   UNL A   1      44.585  29.544  31.888  1.00  0.00    -0.354 N 
ATOM     51  N   UNL A   1      45.091  28.178  27.781  1.00  0.00    -0.248 NA
ATOM     52  C   UNL A   1      44.527  26.307  29.060  1.00  0.00     0.031 C 
ATOM     53  C   UNL A   1      44.272  31.592  31.203  1.00  0.00     0.029 A 
ATOM     54  C   UNL A   1      44.720  30.338  30.781  1.00  0.00     0.049 A 
ATOM     55  H   UNL A   1      45.119  28.743  32.095  1.00  0.00     0.167 HD
ATOM     56  C   UNL A   1      45.164  28.542  29.116  1.00  0.00     0.074 A 
ATOM     57  C   UNL A   1      44.883  27.315  29.860  1.00  0.00     0.031 C 
ATOM     58  C   UNL A   1      45.156  29.856  29.488  1.00  0.00     0.037 A 
BRANCH  45  59
ATOM     59  C   UNL A   1      43.010  27.930  34.017  1.00  0.00     0.058 A 
ATOM     60  C   UNL A   1      43.265  28.092  35.393  1.00  0.00     0.135 A 
ATOM     61  C   UNL A   1      43.418  26.692  33.467  1.00  0.00     0.135 A 
ATOM     62  F   UNL A   1      42.967  29.247  36.009  1.00  0.00    -0.206 F 
ATOM     63  C   UNL A   1      43.899  27.109  36.157  1.00  0.00     0.059 A 
ATOM     64  C   UNL A   1      43.993  25.677  34.221  1.00  0.00     0.059 A 
ATOM     65  F   UNL A   1      43.372  26.440  32.153  1.00  0.00    -0.206 F 
ATOM     66  C   UNL A   1      44.256  25.904  35.559  1.00  0.00     0.060 A 
BRANCH  66  67
ATOM     67  S   UNL A   1      45.103  24.646  36.529  1.00  0.00     0.124 S 
ATOM     68  O   UNL A   1      46.487  24.843  36.118  1.00  0.00    -0.237 OA
ATOM     69  O   UNL A   1      44.774  25.049  37.892  1.00  0.00    -0.237 OA
ATOM     70  O   UNL A   1      44.480  23.402  36.084  1.00  0.00    -0.744 OA
ENDBRANCH  66  67
ENDBRANCH  45  59
BRANCH  46  71
ATOM     71  C   UNL A   1      43.568  25.275  26.092  1.00  0.00     0.058 A 
ATOM     72  C   UNL A   1      44.634  24.996  25.211  1.00  0.00     0.135 A 
ATOM     73  C   UNL A   1      42.801  24.164  26.493  1.00  0.00     0.135 A 
ATOM     74  F   UNL A   1      45.429  25.988  24.778  1.00  0.00    -0.206 F 
ATOM     75  C   UNL A   1      44.965  23.693  24.816  1.00  0.00     0.059 A 
ATOM     76  C   UNL A   1      43.105  22.856  26.104  1.00  0.00     0.059 A 
ATOM     77  F   UNL A   1      41.783  24.302  27.355  1.00  0.00    -0.206 F 
ATOM     78  C   UNL A   1      44.209  22.623  25.291  1.00  0.00     0.060 A 
BRANCH  78  79
ATOM     79  S   UNL A   1      44.744  20.930  24.941  1.00  0.00     0.124 S 
ATOM     80  O   UNL A   1      44.570  20.849  23.495  1.00  0.00    -0.237 OA
ATOM     81  O   UNL A   1      46.123  20.938  25.416  1.00  0.00    -0.237 OA
ATOM     82  O   UNL A   1      43.823  20.113  25.725  1.00  0.00    -0.744 OA
ENDBRANCH  78  79
ENDBRANCH  46  71
BRANCH  58  83
ATOM     83  C   UNL A   1      45.433  30.908  28.443  1.00  0.00     0.058 A 
ATOM     84  C   UNL A   1      44.479  31.459  27.568  1.00  0.00     0.135 A 
ATOM     85  C   UNL A   1      46.701  31.509  28.466  1.00  0.00     0.135 A 
ATOM     86  F   UNL A   1      43.220  31.001  27.540  1.00  0.00    -0.206 F 
ATOM     87  C   UNL A   1      44.783  32.549  26.745  1.00  0.00     0.059 A 
ATOM     88  C   UNL A   1      47.015  32.612  27.681  1.00  0.00     0.059 A 
ATOM     89  F   UNL A   1      47.641  31.059  29.315  1.00  0.00    -0.206 F 
ATOM     90  C   UNL A   1      46.051  33.126  26.817  1.00  0.00     0.060 A 
BRANCH  90  91
ATOM     91  S   UNL A   1      46.417  34.596  25.831  1.00  0.00     0.124 S 
ATOM     92  O   UNL A   1      46.169  35.674  26.782  1.00  0.00    -0.237 OA
ATOM     93  O   UNL A   1      47.813  34.387  25.459  1.00  0.00    -0.237 OA
ATOM     94  O   UNL A   1      45.467  34.511  24.725  1.00  0.00    -0.744 OA
ENDBRANCH  90  91
ENDBRANCH  58  83
ENDBRANCH  32  33
ENDBRANCH  24  27
ENDBRANCH  22  23
ENDBRANCH   1  22
TORSDOF 15
ENDMDL
