MODEL 1
REMARK VINA RESULT:     -12.1      0.000      0.000
REMARK SMILES Cc1cc(C)c2c(=O)n(CCCC(=O)NCCCNC(=O)c3ccc(-c4c5nc(c(-c6c(F)cc(S(=O)(=O)[O-])cc6F)c6ccc([nH]6)c(-c6c(F)cc(S(=O)(=O)[O-])cc6F)c6nc(c(-c7c(F)cc(S(=O)(=O)[O-])cc7F)c7ccc4[nH]7)C=C6)C=C5)cc3)sc2n1
REMARK SMILES IDX 17 1 16 2 15 3 13 4 14 5 12 7 11 8 10 9 9 10 1 11 2 12 3 13
REMARK SMILES IDX 90 14 4 15 89 16 5 17 6 18 88 19 7 20 8 21 18 22 19 23 20 24
REMARK SMILES IDX 21 26 22 27 23 28 87 29 24 30 86 31 25 32 26 33 27 34 80 35
REMARK SMILES IDX 28 36 85 37 79 38 81 39 29 40 84 41 78 42 77 43 30 45 64 46
REMARK SMILES IDX 43 47 63 48 44 49 47 50 62 51 82 52 45 53 46 54 61 56 83 57
REMARK SMILES IDX 48 58 31 59 32 60 41 61 33 62 34 63 40 64 42 65 35 66 36 67
REMARK SMILES IDX 37 68 38 69 39 70 65 71 66 72 75 73 67 74 68 75 74 76 76 77
REMARK SMILES IDX 69 78 70 79 71 80 72 81 73 82 49 83 50 84 59 85 51 86 52 87
REMARK SMILES IDX 58 88 60 89 53 90 54 91 55 92 56 93 57 94
REMARK H PARENT 15 6 19 25 81 44 47 55
REMARK Flexibility Score: inf
ROOT
ATOM      1  C   UNL A   1      38.898  21.414  25.660  1.00  0.00     0.042 C 
ENDROOT
BRANCH   1   2
ATOM      2  C   UNL A   1      37.795  22.471  25.531  1.00  0.00     0.117 C 
BRANCH   2   3
ATOM      3  N   UNL A   1      36.649  22.173  26.372  1.00  0.00    -0.356 N 
ATOM      4  C   UNL A   1      35.420  21.673  26.065  1.00  0.00     0.220 C 
ATOM      5  O   UNL A   1      34.609  21.533  26.980  1.00  0.00    -0.275 OA
ATOM      6  H   UNL A   1      36.783  22.363  27.328  1.00  0.00     0.163 HD
BRANCH   4   7
ATOM      7  C   UNL A   1      35.078  21.214  24.663  1.00  0.00     0.102 C 
BRANCH   7   8
ATOM      8  C   UNL A   1      34.665  22.266  23.630  1.00  0.00     0.033 C 
BRANCH   8   9
ATOM      9  C   UNL A   1      33.439  23.159  23.855  1.00  0.00     0.139 C 
BRANCH   9  10
ATOM     10  N   UNL A   1      33.556  24.505  24.393  1.00  0.00    -0.262 N 
ATOM     11  C   UNL A   1      32.068  29.857  26.936  1.00  0.00     0.067 C 
ATOM     12  C   UNL A   1      32.615  28.813  26.006  1.00  0.00     0.039 A 
ATOM     13  C   UNL A   1      33.084  29.173  24.734  1.00  0.00     0.027 A 
ATOM     14  N   UNL A   1      32.664  27.544  26.473  1.00  0.00    -0.241 NA
ATOM     15  C   UNL A   1      33.553  28.186  23.855  1.00  0.00    -0.033 A 
ATOM     16  C   UNL A   1      33.109  26.621  25.603  1.00  0.00     0.146 A 
ATOM     17  C   UNL A   1      34.119  28.553  22.519  1.00  0.00     0.045 C 
ATOM     18  C   UNL A   1      33.484  26.870  24.297  1.00  0.00     0.081 A 
ATOM     19  S   UNL A   1      33.338  24.918  26.035  1.00  0.00    -0.035 S 
ATOM     20  C   UNL A   1      33.704  25.611  23.552  1.00  0.00     0.270 A 
ATOM     21  O   UNL A   1      33.894  25.583  22.346  1.00  0.00    -0.268 OA
ENDBRANCH   9  10
ENDBRANCH   8   9
ENDBRANCH   7   8
ENDBRANCH   4   7
ENDBRANCH   2   3
ENDBRANCH   1   2
BRANCH   1  22
ATOM     22  C   UNL A   1      40.017  21.815  26.596  1.00  0.00     0.118 C 
BRANCH  22  23
ATOM     23  N   UNL A   1      41.324  21.949  25.944  1.00  0.00    -0.352 N 
ATOM     24  C   UNL A   1      42.073  23.116  25.789  1.00  0.00     0.251 C 
ATOM     25  H   UNL A   1      41.717  21.124  25.577  1.00  0.00     0.163 HD
ATOM     26  O   UNL A   1      42.914  23.212  24.917  1.00  0.00    -0.269 OA
BRANCH  24  27
ATOM     27  C   UNL A   1      41.799  24.227  26.723  1.00  0.00     0.039 A 
ATOM     28  C   UNL A   1      42.494  24.419  27.918  1.00  0.00     0.014 A 
ATOM     29  C   UNL A   1      40.876  25.163  26.286  1.00  0.00     0.014 A 
ATOM     30  C   UNL A   1      42.303  25.621  28.602  1.00  0.00     0.010 A 
ATOM     31  C   UNL A   1      40.959  26.435  26.766  1.00  0.00     0.010 A 
ATOM     32  C   UNL A   1      41.550  26.642  27.996  1.00  0.00    -0.014 A 
BRANCH  32  33
ATOM     33  C   UNL A   1      41.378  27.963  28.583  1.00  0.00     0.031 A 
ATOM     34  C   UNL A   1      42.451  28.926  28.253  1.00  0.00     0.074 A 
ATOM     35  C   UNL A   1      40.249  28.351  29.220  1.00  0.00     0.049 A 
ATOM     36  N   UNL A   1      43.446  29.264  29.000  1.00  0.00    -0.248 NA
ATOM     37  C   UNL A   1      42.541  29.430  26.875  1.00  0.00     0.031 C 
ATOM     38  C   UNL A   1      38.965  27.647  29.364  1.00  0.00     0.029 A 
ATOM     39  N   UNL A   1      39.995  29.536  29.835  1.00  0.00    -0.354 N 
ATOM     40  C   UNL A   1      44.146  30.226  28.284  1.00  0.00     0.074 A 
ATOM     41  C   UNL A   1      43.689  30.111  26.924  1.00  0.00     0.031 C 
ATOM     42  C   UNL A   1      38.020  28.496  29.823  1.00  0.00     0.029 A 
ATOM     43  C   UNL A   1      38.667  29.737  30.196  1.00  0.00     0.049 A 
ATOM     44  H   UNL A   1      40.698  30.202  30.011  1.00  0.00     0.167 HD
ATOM     45  C   UNL A   1      44.843  31.204  28.929  1.00  0.00     0.037 A 
ATOM     46  C   UNL A   1      38.144  30.841  30.783  1.00  0.00     0.037 A 
ATOM     47  C   UNL A   1      44.979  30.888  30.335  1.00  0.00     0.049 A 
ATOM     48  C   UNL A   1      39.280  31.538  31.442  1.00  0.00     0.074 A 
ATOM     49  C   UNL A   1      45.544  29.849  31.048  1.00  0.00     0.029 A 
ATOM     50  N   UNL A   1      44.118  31.515  31.207  1.00  0.00    -0.354 N 
ATOM     51  N   UNL A   1      39.951  31.043  32.447  1.00  0.00    -0.248 NA
ATOM     52  C   UNL A   1      39.969  32.569  30.682  1.00  0.00     0.031 C 
ATOM     53  C   UNL A   1      44.650  29.616  32.135  1.00  0.00     0.029 A 
ATOM     54  C   UNL A   1      43.631  30.569  32.075  1.00  0.00     0.049 A 
ATOM     55  H   UNL A   1      43.893  32.474  31.210  1.00  0.00     0.167 HD
ATOM     56  C   UNL A   1      41.275  31.376  32.193  1.00  0.00     0.074 A 
ATOM     57  C   UNL A   1      41.211  32.392  31.144  1.00  0.00     0.031 C 
ATOM     58  C   UNL A   1      42.302  30.601  32.653  1.00  0.00     0.037 A 
BRANCH  45  59
ATOM     59  C   UNL A   1      45.066  32.603  28.402  1.00  0.00     0.058 A 
ATOM     60  C   UNL A   1      46.386  33.036  28.159  1.00  0.00     0.135 A 
ATOM     61  C   UNL A   1      44.083  33.619  28.385  1.00  0.00     0.135 A 
ATOM     62  F   UNL A   1      47.403  32.159  28.142  1.00  0.00    -0.206 F 
ATOM     63  C   UNL A   1      46.716  34.383  28.005  1.00  0.00     0.059 A 
ATOM     64  C   UNL A   1      44.384  34.960  28.177  1.00  0.00     0.059 A 
ATOM     65  F   UNL A   1      42.797  33.384  28.663  1.00  0.00    -0.206 F 
ATOM     66  C   UNL A   1      45.707  35.339  28.035  1.00  0.00     0.060 A 
BRANCH  66  67
ATOM     67  S   UNL A   1      46.142  37.083  27.956  1.00  0.00     0.124 S 
ATOM     68  O   UNL A   1      45.934  37.368  26.540  1.00  0.00    -0.237 OA
ATOM     69  O   UNL A   1      45.178  37.675  28.877  1.00  0.00    -0.237 OA
ATOM     70  O   UNL A   1      47.529  37.105  28.408  1.00  0.00    -0.744 OA
ENDBRANCH  66  67
ENDBRANCH  45  59
BRANCH  46  71
ATOM     71  C   UNL A   1      36.839  31.501  30.513  1.00  0.00     0.058 A 
ATOM     72  C   UNL A   1      36.078  32.049  31.563  1.00  0.00     0.135 A 
ATOM     73  C   UNL A   1      36.460  31.881  29.210  1.00  0.00     0.135 A 
ATOM     74  F   UNL A   1      36.371  31.748  32.836  1.00  0.00    -0.206 F 
ATOM     75  C   UNL A   1      35.054  32.977  31.338  1.00  0.00     0.059 A 
ATOM     76  C   UNL A   1      35.438  32.799  28.961  1.00  0.00     0.059 A 
ATOM     77  F   UNL A   1      37.138  31.443  28.139  1.00  0.00    -0.206 F 
ATOM     78  C   UNL A   1      34.760  33.368  30.033  1.00  0.00     0.060 A 
BRANCH  78  79
ATOM     79  S   UNL A   1      33.579  34.710  29.756  1.00  0.00     0.124 S 
ATOM     80  O   UNL A   1      32.597  34.075  28.885  1.00  0.00    -0.237 OA
ATOM     81  O   UNL A   1      33.129  35.008  31.112  1.00  0.00    -0.237 OA
ATOM     82  O   UNL A   1      34.388  35.753  29.129  1.00  0.00    -0.744 OA
ENDBRANCH  78  79
ENDBRANCH  46  71
BRANCH  58  83
ATOM     83  C   UNL A   1      41.997  29.551  33.697  1.00  0.00     0.058 A 
ATOM     84  C   UNL A   1      41.616  28.226  33.415  1.00  0.00     0.135 A 
ATOM     85  C   UNL A   1      42.265  29.862  35.039  1.00  0.00     0.135 A 
ATOM     86  F   UNL A   1      41.429  27.815  32.154  1.00  0.00    -0.206 F 
ATOM     87  C   UNL A   1      41.481  27.267  34.423  1.00  0.00     0.059 A 
ATOM     88  C   UNL A   1      42.165  28.915  36.055  1.00  0.00     0.059 A 
ATOM     89  F   UNL A   1      42.686  31.094  35.371  1.00  0.00    -0.206 F 
ATOM     90  C   UNL A   1      41.765  27.619  35.742  1.00  0.00     0.060 A 
BRANCH  90  91
ATOM     91  S   UNL A   1      41.672  26.358  37.032  1.00  0.00     0.124 S 
ATOM     92  O   UNL A   1      40.411  26.682  37.691  1.00  0.00    -0.237 OA
ATOM     93  O   UNL A   1      41.685  25.116  36.263  1.00  0.00    -0.237 OA
ATOM     94  O   UNL A   1      42.871  26.597  37.831  1.00  0.00    -0.744 OA
ENDBRANCH  90  91
ENDBRANCH  58  83
ENDBRANCH  32  33
ENDBRANCH  24  27
ENDBRANCH  22  23
ENDBRANCH   1  22
TORSDOF 16
ENDMDL
MODEL 2
REMARK VINA RESULT:     -12.1      4.059     11.007
REMARK SMILES Cc1cc(C)c2c(=O)n(CCCC(=O)NCCCNC(=O)c3ccc(-c4c5nc(c(-c6c(F)cc(S(=O)(=O)[O-])cc6F)c6ccc([nH]6)c(-c6c(F)cc(S(=O)(=O)[O-])cc6F)c6nc(c(-c7c(F)cc(S(=O)(=O)[O-])cc7F)c7ccc4[nH]7)C=C6)C=C5)cc3)sc2n1
REMARK SMILES IDX 17 1 16 2 15 3 13 4 14 5 12 7 11 8 10 9 9 10 1 11 2 12 3 13
REMARK SMILES IDX 90 14 4 15 89 16 5 17 6 18 88 19 7 20 8 21 18 22 19 23 20 24
REMARK SMILES IDX 21 26 22 27 23 28 87 29 24 30 86 31 25 32 26 33 27 34 80 35
REMARK SMILES IDX 28 36 85 37 79 38 81 39 29 40 84 41 78 42 77 43 30 45 64 46
REMARK SMILES IDX 43 47 63 48 44 49 47 50 62 51 82 52 45 53 46 54 61 56 83 57
REMARK SMILES IDX 48 58 31 59 32 60 41 61 33 62 34 63 40 64 42 65 35 66 36 67
REMARK SMILES IDX 37 68 38 69 39 70 65 71 66 72 75 73 67 74 68 75 74 76 76 77
REMARK SMILES IDX 69 78 70 79 71 80 72 81 73 82 49 83 50 84 59 85 51 86 52 87
REMARK SMILES IDX 58 88 60 89 53 90 54 91 55 92 56 93 57 94
REMARK H PARENT 15 6 19 25 81 44 47 55
REMARK Flexibility Score: inf
ROOT
ATOM      1  C   UNL A   1      34.793  35.104  28.001  1.00  0.00     0.042 C 
ENDROOT
BRANCH   1   2
ATOM      2  C   UNL A   1      33.557  35.187  28.906  1.00  0.00     0.117 C 
BRANCH   2   3
ATOM      3  N   UNL A   1      33.448  36.475  29.567  1.00  0.00    -0.356 N 
ATOM      4  C   UNL A   1      32.875  36.827  30.750  1.00  0.00     0.220 C 
ATOM      5  O   UNL A   1      32.903  38.014  31.075  1.00  0.00    -0.275 OA
ATOM      6  H   UNL A   1      33.859  37.223  29.076  1.00  0.00     0.163 HD
BRANCH   4   7
ATOM      7  C   UNL A   1      32.299  35.791  31.693  1.00  0.00     0.102 C 
BRANCH   7   8
ATOM      8  C   UNL A   1      33.153  35.326  32.876  1.00  0.00     0.033 C 
BRANCH   8   9
ATOM      9  C   UNL A   1      34.667  35.136  32.735  1.00  0.00     0.139 C 
BRANCH   9  10
ATOM     10  N   UNL A   1      35.355  33.993  33.314  1.00  0.00    -0.262 N 
ATOM     11  C   UNL A   1      39.819  30.439  35.499  1.00  0.00     0.067 C 
ATOM     12  C   UNL A   1      38.640  30.946  34.721  1.00  0.00     0.039 A 
ATOM     13  C   UNL A   1      38.152  30.222  33.623  1.00  0.00     0.027 A 
ATOM     14  N   UNL A   1      38.066  32.091  35.157  1.00  0.00    -0.241 NA
ATOM     15  C   UNL A   1      37.076  30.724  32.874  1.00  0.00    -0.033 A 
ATOM     16  C   UNL A   1      37.045  32.551  34.413  1.00  0.00     0.146 A 
ATOM     17  C   UNL A   1      36.497  29.939  31.740  1.00  0.00     0.045 C 
ATOM     18  C   UNL A   1      36.574  31.963  33.254  1.00  0.00     0.081 A 
ATOM     19  S   UNL A   1      36.097  33.981  34.852  1.00  0.00    -0.035 S 
ATOM     20  C   UNL A   1      35.602  32.839  32.565  1.00  0.00     0.270 A 
ATOM     21  O   UNL A   1      35.170  32.595  31.450  1.00  0.00    -0.268 OA
ENDBRANCH   9  10
ENDBRANCH   8   9
ENDBRANCH   7   8
ENDBRANCH   4   7
ENDBRANCH   2   3
ENDBRANCH   1   2
BRANCH   1  22
ATOM     22  C   UNL A   1      35.540  33.793  28.112  1.00  0.00     0.118 C 
BRANCH  22  23
ATOM     23  N   UNL A   1      34.678  32.630  28.347  1.00  0.00    -0.352 N 
ATOM     24  C   UNL A   1      35.011  31.286  28.179  1.00  0.00     0.251 C 
ATOM     25  H   UNL A   1      33.763  32.819  28.658  1.00  0.00     0.163 HD
ATOM     26  O   UNL A   1      34.154  30.442  28.006  1.00  0.00    -0.269 OA
BRANCH  24  27
ATOM     27  C   UNL A   1      36.445  30.933  28.215  1.00  0.00     0.039 A 
ATOM     28  C   UNL A   1      37.406  31.681  28.898  1.00  0.00     0.014 A 
ATOM     29  C   UNL A   1      36.780  29.726  27.624  1.00  0.00     0.014 A 
ATOM     30  C   UNL A   1      38.680  31.130  29.049  1.00  0.00     0.010 A 
ATOM     31  C   UNL A   1      37.889  29.069  28.064  1.00  0.00     0.010 A 
ATOM     32  C   UNL A   1      38.903  29.800  28.650  1.00  0.00    -0.014 A 
BRANCH  32  33
ATOM     33  C   UNL A   1      40.165  29.106  28.857  1.00  0.00     0.031 A 
ATOM     34  C   UNL A   1      40.517  28.881  30.276  1.00  0.00     0.074 A 
ATOM     35  C   UNL A   1      40.876  28.540  27.853  1.00  0.00     0.049 A 
ATOM     36  N   UNL A   1      41.344  29.568  30.988  1.00  0.00    -0.248 NA
ATOM     37  C   UNL A   1      39.730  27.908  31.047  1.00  0.00     0.031 C 
ATOM     38  C   UNL A   1      40.527  28.383  26.432  1.00  0.00     0.029 A 
ATOM     39  N   UNL A   1      42.075  27.906  27.924  1.00  0.00    -0.354 N 
ATOM     40  C   UNL A   1      41.379  28.948  32.230  1.00  0.00     0.074 A 
ATOM     41  C   UNL A   1      40.215  28.102  32.278  1.00  0.00     0.031 C 
ATOM     42  C   UNL A   1      41.379  27.520  25.838  1.00  0.00     0.029 A 
ATOM     43  C   UNL A   1      42.447  27.222  26.771  1.00  0.00     0.049 A 
ATOM     44  H   UNL A   1      42.639  27.930  28.731  1.00  0.00     0.167 HD
ATOM     45  C   UNL A   1      42.504  28.990  32.998  1.00  0.00     0.037 A 
ATOM     46  C   UNL A   1      43.568  26.482  26.593  1.00  0.00     0.037 A 
ATOM     47  C   UNL A   1      43.433  29.973  32.486  1.00  0.00     0.049 A 
ATOM     48  C   UNL A   1      44.546  26.960  27.606  1.00  0.00     0.074 A 
ATOM     49  C   UNL A   1      43.385  31.336  32.269  1.00  0.00     0.029 A 
ATOM     50  N   UNL A   1      44.482  29.511  31.723  1.00  0.00    -0.354 N 
ATOM     51  N   UNL A   1      45.064  28.159  27.605  1.00  0.00    -0.248 NA
ATOM     52  C   UNL A   1      44.587  26.267  28.883  1.00  0.00     0.031 C 
ATOM     53  C   UNL A   1      44.083  31.542  31.042  1.00  0.00     0.029 A 
ATOM     54  C   UNL A   1      44.584  30.312  30.613  1.00  0.00     0.049 A 
ATOM     55  H   UNL A   1      45.059  28.742  31.938  1.00  0.00     0.167 HD
ATOM     56  C   UNL A   1      45.101  28.535  28.941  1.00  0.00     0.074 A 
ATOM     57  C   UNL A   1      44.881  27.295  29.685  1.00  0.00     0.031 C 
ATOM     58  C   UNL A   1      45.026  29.848  29.312  1.00  0.00     0.037 A 
BRANCH  45  59
ATOM     59  C   UNL A   1      42.939  27.908  33.959  1.00  0.00     0.058 A 
ATOM     60  C   UNL A   1      43.142  28.243  35.315  1.00  0.00     0.135 A 
ATOM     61  C   UNL A   1      43.426  26.639  33.571  1.00  0.00     0.135 A 
ATOM     62  F   UNL A   1      42.714  29.419  35.801  1.00  0.00    -0.206 F 
ATOM     63  C   UNL A   1      43.855  27.424  36.190  1.00  0.00     0.059 A 
ATOM     64  C   UNL A   1      44.090  25.784  34.442  1.00  0.00     0.059 A 
ATOM     65  F   UNL A   1      43.373  26.201  32.308  1.00  0.00    -0.206 F 
ATOM     66  C   UNL A   1      44.342  26.203  35.736  1.00  0.00     0.060 A 
BRANCH  66  67
ATOM     67  S   UNL A   1      45.362  25.199  36.827  1.00  0.00     0.124 S 
ATOM     68  O   UNL A   1      46.464  26.111  37.112  1.00  0.00    -0.237 OA
ATOM     69  O   UNL A   1      44.448  24.933  37.933  1.00  0.00    -0.237 OA
ATOM     70  O   UNL A   1      45.695  24.041  36.003  1.00  0.00    -0.744 OA
ENDBRANCH  66  67
ENDBRANCH  45  59
BRANCH  46  71
ATOM     71  C   UNL A   1      43.717  25.188  25.876  1.00  0.00     0.058 A 
ATOM     72  C   UNL A   1      44.898  24.885  25.172  1.00  0.00     0.135 A 
ATOM     73  C   UNL A   1      42.846  24.106  26.116  1.00  0.00     0.135 A 
ATOM     74  F   UNL A   1      45.789  25.852  24.904  1.00  0.00    -0.206 F 
ATOM     75  C   UNL A   1      45.231  23.578  24.799  1.00  0.00     0.059 A 
ATOM     76  C   UNL A   1      43.153  22.795  25.746  1.00  0.00     0.059 A 
ATOM     77  F   UNL A   1      41.708  24.277  26.806  1.00  0.00    -0.206 F 
ATOM     78  C   UNL A   1      44.365  22.534  25.116  1.00  0.00     0.060 A 
BRANCH  78  79
ATOM     79  S   UNL A   1      44.886  20.828  24.813  1.00  0.00     0.124 S 
ATOM     80  O   UNL A   1      46.308  20.884  25.131  1.00  0.00    -0.237 OA
ATOM     81  O   UNL A   1      44.053  20.082  25.751  1.00  0.00    -0.237 OA
ATOM     82  O   UNL A   1      44.569  20.621  23.402  1.00  0.00    -0.744 OA
ENDBRANCH  78  79
ENDBRANCH  46  71
BRANCH  58  83
ATOM     83  C   UNL A   1      45.211  30.905  28.248  1.00  0.00     0.058 A 
ATOM     84  C   UNL A   1      44.203  31.342  27.367  1.00  0.00     0.135 A 
ATOM     85  C   UNL A   1      46.418  31.620  28.234  1.00  0.00     0.135 A 
ATOM     86  F   UNL A   1      42.988  30.779  27.375  1.00  0.00    -0.206 F 
ATOM     87  C   UNL A   1      44.399  32.420  26.498  1.00  0.00     0.059 A 
ATOM     88  C   UNL A   1      46.625  32.714  27.398  1.00  0.00     0.059 A 
ATOM     89  F   UNL A   1      47.402  31.290  29.088  1.00  0.00    -0.206 F 
ATOM     90  C   UNL A   1      45.613  33.105  26.524  1.00  0.00     0.060 A 
BRANCH  90  91
ATOM     91  S   UNL A   1      45.836  34.548  25.461  1.00  0.00     0.124 S 
ATOM     92  O   UNL A   1      45.021  34.205  24.300  1.00  0.00    -0.237 OA
ATOM     93  O   UNL A   1      45.329  35.636  26.293  1.00  0.00    -0.237 OA
ATOM     94  O   UNL A   1      47.277  34.578  25.223  1.00  0.00    -0.744 OA
ENDBRANCH  90  91
ENDBRANCH  58  83
ENDBRANCH  32  33
ENDBRANCH  24  27
ENDBRANCH  22  23
ENDBRANCH   1  22
TORSDOF 16
ENDMDL
MODEL 3
REMARK VINA RESULT:     -12.0      2.716      4.065
REMARK SMILES Cc1cc(C)c2c(=O)n(CCCC(=O)NCCCNC(=O)c3ccc(-c4c5nc(c(-c6c(F)cc(S(=O)(=O)[O-])cc6F)c6ccc([nH]6)c(-c6c(F)cc(S(=O)(=O)[O-])cc6F)c6nc(c(-c7c(F)cc(S(=O)(=O)[O-])cc7F)c7ccc4[nH]7)C=C6)C=C5)cc3)sc2n1
REMARK SMILES IDX 17 1 16 2 15 3 13 4 14 5 12 7 11 8 10 9 9 10 1 11 2 12 3 13
REMARK SMILES IDX 90 14 4 15 89 16 5 17 6 18 88 19 7 20 8 21 18 22 19 23 20 24
REMARK SMILES IDX 21 26 22 27 23 28 87 29 24 30 86 31 25 32 26 33 27 34 80 35
REMARK SMILES IDX 28 36 85 37 79 38 81 39 29 40 84 41 78 42 77 43 30 45 64 46
REMARK SMILES IDX 43 47 63 48 44 49 47 50 62 51 82 52 45 53 46 54 61 56 83 57
REMARK SMILES IDX 48 58 31 59 32 60 41 61 33 62 34 63 40 64 42 65 35 66 36 67
REMARK SMILES IDX 37 68 38 69 39 70 65 71 66 72 75 73 67 74 68 75 74 76 76 77
REMARK SMILES IDX 69 78 70 79 71 80 72 81 73 82 49 83 50 84 59 85 51 86 52 87
REMARK SMILES IDX 58 88 60 89 53 90 54 91 55 92 56 93 57 94
REMARK H PARENT 15 6 19 25 81 44 47 55
REMARK Flexibility Score: inf
ROOT
ATOM      1  C   UNL A   1      40.866  19.843  26.334  1.00  0.00     0.042 C 
ENDROOT
BRANCH   1   2
ATOM      2  C   UNL A   1      39.970  21.087  26.289  1.00  0.00     0.117 C 
BRANCH   2   3
ATOM      3  N   UNL A   1      38.859  20.929  25.367  1.00  0.00    -0.356 N 
ATOM      4  C   UNL A   1      37.765  21.706  25.143  1.00  0.00     0.220 C 
ATOM      5  O   UNL A   1      36.949  21.327  24.303  1.00  0.00    -0.275 OA
ATOM      6  H   UNL A   1      38.906  20.121  24.806  1.00  0.00     0.163 HD
BRANCH   4   7
ATOM      7  C   UNL A   1      37.588  23.044  25.830  1.00  0.00     0.102 C 
BRANCH   7   8
ATOM      8  C   UNL A   1      36.503  23.993  25.312  1.00  0.00     0.033 C 
BRANCH   8   9
ATOM      9  C   UNL A   1      35.075  23.943  25.866  1.00  0.00     0.139 C 
BRANCH   9  10
ATOM     10  N   UNL A   1      34.228  22.772  25.704  1.00  0.00    -0.262 N 
ATOM     11  C   UNL A   1      32.475  16.947  25.135  1.00  0.00     0.067 C 
ATOM     12  C   UNL A   1      32.657  18.419  24.906  1.00  0.00     0.039 A 
ATOM     13  C   UNL A   1      32.252  19.004  23.697  1.00  0.00     0.027 A 
ATOM     14  N   UNL A   1      33.185  19.136  25.925  1.00  0.00    -0.241 NA
ATOM     15  C   UNL A   1      32.466  20.373  23.474  1.00  0.00    -0.033 A 
ATOM     16  C   UNL A   1      33.386  20.441  25.676  1.00  0.00     0.146 A 
ATOM     17  C   UNL A   1      31.983  21.031  22.220  1.00  0.00     0.045 C 
ATOM     18  C   UNL A   1      33.121  21.075  24.478  1.00  0.00     0.081 A 
ATOM     19  S   UNL A   1      33.981  21.577  26.898  1.00  0.00    -0.035 S 
ATOM     20  C   UNL A   1      33.665  22.451  24.466  1.00  0.00     0.270 A 
ATOM     21  O   UNL A   1      33.683  23.144  23.461  1.00  0.00    -0.268 OA
ENDBRANCH   9  10
ENDBRANCH   8   9
ENDBRANCH   7   8
ENDBRANCH   4   7
ENDBRANCH   2   3
ENDBRANCH   1   2
BRANCH   1  22
ATOM     22  C   UNL A   1      42.157  20.052  27.094  1.00  0.00     0.118 C 
BRANCH  22  23
ATOM     23  N   UNL A   1      43.363  19.710  26.333  1.00  0.00    -0.352 N 
ATOM     24  C   UNL A   1      44.096  20.548  25.493  1.00  0.00     0.251 C 
ATOM     25  H   UNL A   1      43.692  18.786  26.426  1.00  0.00     0.163 HD
ATOM     26  O   UNL A   1      44.809  20.095  24.619  1.00  0.00    -0.269 OA
BRANCH  24  27
ATOM     27  C   UNL A   1      43.966  22.004  25.707  1.00  0.00     0.039 A 
ATOM     28  C   UNL A   1      43.091  22.815  24.983  1.00  0.00     0.014 A 
ATOM     29  C   UNL A   1      44.687  22.519  26.772  1.00  0.00     0.014 A 
ATOM     30  C   UNL A   1      42.893  24.125  25.424  1.00  0.00     0.010 A 
ATOM     31  C   UNL A   1      44.237  23.653  27.377  1.00  0.00     0.010 A 
ATOM     32  C   UNL A   1      43.454  24.526  26.650  1.00  0.00    -0.014 A 
BRANCH  32  33
ATOM     33  C   UNL A   1      43.223  25.835  27.242  1.00  0.00     0.031 A 
ATOM     34  C   UNL A   1      44.219  26.863  26.868  1.00  0.00     0.074 A 
ATOM     35  C   UNL A   1      42.098  26.154  27.924  1.00  0.00     0.049 A 
ATOM     36  N   UNL A   1      45.220  27.266  27.573  1.00  0.00    -0.248 NA
ATOM     37  C   UNL A   1      44.220  27.368  25.487  1.00  0.00     0.031 C 
ATOM     38  C   UNL A   1      40.868  25.371  28.121  1.00  0.00     0.029 A 
ATOM     39  N   UNL A   1      41.794  27.322  28.547  1.00  0.00    -0.354 N 
ATOM     40  C   UNL A   1      45.827  28.269  26.830  1.00  0.00     0.074 A 
ATOM     41  C   UNL A   1      45.324  28.121  25.488  1.00  0.00     0.031 C 
ATOM     42  C   UNL A   1      39.890  26.160  28.616  1.00  0.00     0.029 A 
ATOM     43  C   UNL A   1      40.472  27.440  28.962  1.00  0.00     0.049 A 
ATOM     44  H   UNL A   1      42.461  28.032  28.694  1.00  0.00     0.167 HD
ATOM     45  C   UNL A   1      46.486  29.291  27.445  1.00  0.00     0.037 A 
ATOM     46  C   UNL A   1      39.904  28.511  29.569  1.00  0.00     0.037 A 
ATOM     47  C   UNL A   1      46.700  28.989  28.844  1.00  0.00     0.049 A 
ATOM     48  C   UNL A   1      41.020  29.281  30.181  1.00  0.00     0.074 A 
ATOM     49  C   UNL A   1      47.357  27.990  29.534  1.00  0.00     0.029 A 
ATOM     50  N   UNL A   1      45.837  29.563  29.750  1.00  0.00    -0.354 N 
ATOM     51  N   UNL A   1      41.761  28.832  31.158  1.00  0.00    -0.248 NA
ATOM     52  C   UNL A   1      41.611  30.351  29.393  1.00  0.00     0.031 C 
ATOM     53  C   UNL A   1      46.525  27.705  30.657  1.00  0.00     0.029 A 
ATOM     54  C   UNL A   1      45.446  28.591  30.637  1.00  0.00     0.049 A 
ATOM     55  H   UNL A   1      45.551  30.505  29.761  1.00  0.00     0.167 HD
ATOM     56  C   UNL A   1      43.050  29.247  30.850  1.00  0.00     0.074 A 
ATOM     57  C   UNL A   1      42.879  30.254  29.804  1.00  0.00     0.031 C 
ATOM     58  C   UNL A   1      44.142  28.541  31.269  1.00  0.00     0.037 A 
BRANCH  45  59
ATOM     59  C   UNL A   1      46.599  30.699  26.908  1.00  0.00     0.058 A 
ATOM     60  C   UNL A   1      47.868  31.315  26.873  1.00  0.00     0.135 A 
ATOM     61  C   UNL A   1      45.502  31.563  26.686  1.00  0.00     0.135 A 
ATOM     62  F   UNL A   1      48.985  30.593  27.061  1.00  0.00    -0.206 F 
ATOM     63  C   UNL A   1      48.028  32.692  26.723  1.00  0.00     0.059 A 
ATOM     64  C   UNL A   1      45.644  32.929  26.480  1.00  0.00     0.059 A 
ATOM     65  F   UNL A   1      44.232  31.149  26.755  1.00  0.00    -0.206 F 
ATOM     66  C   UNL A   1      46.906  33.493  26.547  1.00  0.00     0.060 A 
BRANCH  66  67
ATOM     67  S   UNL A   1      47.100  35.280  26.473  1.00  0.00     0.124 S 
ATOM     68  O   UNL A   1      47.471  35.588  27.850  1.00  0.00    -0.237 OA
ATOM     69  O   UNL A   1      48.156  35.427  25.476  1.00  0.00    -0.237 OA
ATOM     70  O   UNL A   1      45.781  35.744  26.054  1.00  0.00    -0.744 OA
ENDBRANCH  66  67
ENDBRANCH  45  59
BRANCH  46  71
ATOM     71  C   UNL A   1      38.551  29.086  29.352  1.00  0.00     0.058 A 
ATOM     72  C   UNL A   1      37.694  29.344  30.438  1.00  0.00     0.135 A 
ATOM     73  C   UNL A   1      38.189  29.678  28.125  1.00  0.00     0.135 A 
ATOM     74  F   UNL A   1      37.964  28.827  31.646  1.00  0.00    -0.206 F 
ATOM     75  C   UNL A   1      36.590  30.198  30.334  1.00  0.00     0.059 A 
ATOM     76  C   UNL A   1      37.088  30.527  27.994  1.00  0.00     0.059 A 
ATOM     77  F   UNL A   1      38.953  29.525  27.033  1.00  0.00    -0.206 F 
ATOM     78  C   UNL A   1      36.312  30.809  29.113  1.00  0.00     0.060 A 
BRANCH  78  79
ATOM     79  S   UNL A   1      35.010  32.063  29.027  1.00  0.00     0.124 S 
ATOM     80  O   UNL A   1      33.988  31.385  28.237  1.00  0.00    -0.237 OA
ATOM     81  O   UNL A   1      34.692  32.272  30.436  1.00  0.00    -0.237 OA
ATOM     82  O   UNL A   1      35.665  33.189  28.366  1.00  0.00    -0.744 OA
ENDBRANCH  78  79
ENDBRANCH  46  71
BRANCH  58  83
ATOM     83  C   UNL A   1      43.946  27.477  32.326  1.00  0.00     0.058 A 
ATOM     84  C   UNL A   1      43.907  26.093  32.073  1.00  0.00     0.135 A 
ATOM     85  C   UNL A   1      43.966  27.876  33.670  1.00  0.00     0.135 A 
ATOM     86  F   UNL A   1      43.978  25.617  30.823  1.00  0.00    -0.206 F 
ATOM     87  C   UNL A   1      43.861  25.155  33.109  1.00  0.00     0.059 A 
ATOM     88  C   UNL A   1      43.949  26.959  34.718  1.00  0.00     0.059 A 
ATOM     89  F   UNL A   1      44.058  29.180  33.982  1.00  0.00    -0.206 F 
ATOM     90  C   UNL A   1      43.889  25.597  34.431  1.00  0.00     0.060 A 
BRANCH  90  91
ATOM     91  S   UNL A   1      43.914  24.383  35.768  1.00  0.00     0.124 S 
ATOM     92  O   UNL A   1      45.315  23.978  35.792  1.00  0.00    -0.237 OA
ATOM     93  O   UNL A   1      43.460  25.165  36.914  1.00  0.00    -0.237 OA
ATOM     94  O   UNL A   1      42.977  23.357  35.316  1.00  0.00    -0.744 OA
ENDBRANCH  90  91
ENDBRANCH  58  83
ENDBRANCH  32  33
ENDBRANCH  24  27
ENDBRANCH  22  23
ENDBRANCH   1  22
TORSDOF 16
ENDMDL
