MODEL 1
REMARK VINA RESULT:     -11.5      0.000      0.000
REMARK SMILES C[C@@H](CNc1cccc(F)c1C(=O)NCCCNC(=O)c1ccc(-c2c3nc(c(-c4c(F)cc(S(=O)(=O)[O-])cc4F)c4ccc([nH]4)c(-c4c(F)cc(S(=O)(=O)[O-])cc4F)c4nc(c(-c5c(F)cc(S(=O)(=O)[O-])cc5F)c5ccc2[nH]5)C=C4)C=C3)cc1)[NH+]1CCCCC1
REMARK SMILES IDX 15 1 14 2 12 3 13 4 11 6 5 7 6 8 7 9 9 10 8 11 10 12 4 13
REMARK SMILES IDX 3 15 2 16 1 17 87 18 88 19 92 20 89 22 91 23 90 24 16 25
REMARK SMILES IDX 17 26 18 27 19 28 20 30 21 31 22 32 86 33 23 34 85 35 24 36
REMARK SMILES IDX 25 37 26 38 79 39 27 40 84 41 78 42 80 43 28 44 83 45 77 46
REMARK SMILES IDX 76 47 29 49 63 50 42 51 62 52 43 53 46 54 61 55 81 56 44 57
REMARK SMILES IDX 45 58 60 60 82 61 47 62 30 63 31 64 40 65 32 66 33 67 39 68
REMARK SMILES IDX 41 69 34 70 35 71 36 72 37 73 38 74 64 75 65 76 74 77 66 78
REMARK SMILES IDX 67 79 73 80 75 81 68 82 69 83 70 84 71 85 72 86 48 87 49 88
REMARK SMILES IDX 58 89 50 90 51 91 57 92 59 93 52 94 53 95 54 96 55 97 56 98
REMARK H PARENT 14 5 4 14 87 21 18 29 80 48 46 59
REMARK Flexibility Score: inf
ROOT
ATOM      1  C   UNL A   1      37.512  23.708  25.839  1.00  0.00     0.118 C 
ENDROOT
BRANCH   1   2
ATOM      2  N   UNL A   1      36.342  23.302  26.594  1.00  0.00    -0.352 N 
ATOM      3  C   UNL A   1      34.993  23.275  26.346  1.00  0.00     0.256 C 
ATOM      4  O   UNL A   1      34.306  22.949  27.321  1.00  0.00    -0.269 OA
ATOM      5  H   UNL A   1      36.568  22.967  27.492  1.00  0.00     0.163 HD
BRANCH   3   6
ATOM      6  C   UNL A   1      34.322  23.535  25.028  1.00  0.00     0.098 A 
ATOM      7  C   UNL A   1      33.570  24.742  24.874  1.00  0.00     0.050 A 
ATOM      8  C   UNL A   1      32.930  24.998  23.646  1.00  0.00     0.027 A 
ATOM      9  C   UNL A   1      32.995  24.098  22.587  1.00  0.00     0.005 A 
ATOM     10  C   UNL A   1      34.419  22.682  23.923  1.00  0.00     0.138 A 
ATOM     11  C   UNL A   1      33.742  22.939  22.728  1.00  0.00     0.040 A 
ATOM     12  F   UNL A   1      35.214  21.608  23.917  1.00  0.00    -0.206 F 
BRANCH   7  13
ATOM     13  N   UNL A   1      33.467  25.667  25.907  1.00  0.00    -0.378 N 
ATOM     14  H   UNL A   1      33.246  25.318  26.801  1.00  0.00     0.160 HD
BRANCH  13  15
ATOM     15  C   UNL A   1      33.655  27.104  25.785  1.00  0.00     0.177 C 
BRANCH  15  16
ATOM     16  C   UNL A   1      32.680  27.889  26.730  1.00  0.00     0.200 C 
ATOM     17  C   UNL A   1      31.450  28.314  25.901  1.00  0.00     0.077 C 
BRANCH  16  18
ATOM     18  N   UNL A   1      33.314  29.046  27.432  1.00  0.00    -0.331 N 
ATOM     19  C   UNL A   1      34.783  29.025  27.366  1.00  0.00     0.262 C 
ATOM     20  C   UNL A   1      32.795  30.337  26.945  1.00  0.00     0.262 C 
ATOM     21  H   UNL A   1      33.055  28.946  28.413  1.00  0.00     0.348 HD
ATOM     22  C   UNL A   1      35.412  30.176  28.156  1.00  0.00     0.062 C 
ATOM     23  C   UNL A   1      33.355  31.516  27.741  1.00  0.00     0.062 C 
ATOM     24  C   UNL A   1      34.875  31.526  27.707  1.00  0.00     0.012 C 
ENDBRANCH  16  18
ENDBRANCH  15  16
ENDBRANCH  13  15
ENDBRANCH   7  13
ENDBRANCH   3   6
ENDBRANCH   1   2
BRANCH   1  25
ATOM     25  C   UNL A   1      38.701  22.799  26.162  1.00  0.00     0.042 C 
BRANCH  25  26
ATOM     26  C   UNL A   1      39.816  23.499  26.943  1.00  0.00     0.118 C 
BRANCH  26  27
ATOM     27  N   UNL A   1      40.798  24.110  26.058  1.00  0.00    -0.352 N 
ATOM     28  C   UNL A   1      41.334  25.374  26.065  1.00  0.00     0.251 C 
ATOM     29  H   UNL A   1      41.132  23.522  25.342  1.00  0.00     0.163 HD
ATOM     30  O   UNL A   1      41.963  25.761  25.083  1.00  0.00    -0.269 OA
BRANCH  28  31
ATOM     31  C   UNL A   1      41.164  26.270  27.231  1.00  0.00     0.039 A 
ATOM     32  C   UNL A   1      42.023  27.366  27.367  1.00  0.00     0.014 A 
ATOM     33  C   UNL A   1      40.215  26.006  28.221  1.00  0.00     0.014 A 
ATOM     34  C   UNL A   1      41.897  28.219  28.467  1.00  0.00     0.010 A 
ATOM     35  C   UNL A   1      40.046  26.894  29.283  1.00  0.00     0.010 A 
ATOM     36  C   UNL A   1      40.889  28.006  29.421  1.00  0.00    -0.014 A 
BRANCH  36  37
ATOM     37  C   UNL A   1      40.703  28.936  30.566  1.00  0.00     0.031 A 
ATOM     38  C   UNL A   1      41.575  28.822  31.787  1.00  0.00     0.074 A 
ATOM     39  C   UNL A   1      39.715  29.852  30.524  1.00  0.00     0.049 A 
ATOM     40  N   UNL A   1      41.518  29.494  32.908  1.00  0.00    -0.248 NA
ATOM     41  C   UNL A   1      42.638  27.805  31.751  1.00  0.00     0.031 C 
ATOM     42  C   UNL A   1      38.785  30.040  29.409  1.00  0.00     0.029 A 
ATOM     43  N   UNL A   1      39.327  30.797  31.441  1.00  0.00    -0.354 N 
ATOM     44  C   UNL A   1      42.528  28.977  33.713  1.00  0.00     0.074 A 
ATOM     45  C   UNL A   1      43.147  27.900  32.972  1.00  0.00     0.031 C 
ATOM     46  C   UNL A   1      37.956  31.057  29.692  1.00  0.00     0.029 A 
ATOM     47  C   UNL A   1      38.266  31.569  31.024  1.00  0.00     0.049 A 
ATOM     48  H   UNL A   1      39.765  30.912  32.315  1.00  0.00     0.167 HD
ATOM     49  C   UNL A   1      42.920  29.382  34.945  1.00  0.00     0.037 A 
ATOM     50  C   UNL A   1      37.614  32.571  31.644  1.00  0.00     0.037 A 
ATOM     51  C   UNL A   1      42.313  30.470  35.666  1.00  0.00     0.049 A 
ATOM     52  C   UNL A   1      38.054  32.991  33.019  1.00  0.00     0.074 A 
ATOM     53  C   UNL A   1      42.658  30.980  36.905  1.00  0.00     0.029 A 
ATOM     54  N   UNL A   1      41.238  31.222  35.211  1.00  0.00    -0.354 N 
ATOM     55  N   UNL A   1      39.029  32.509  33.753  1.00  0.00    -0.248 NA
ATOM     56  C   UNL A   1      37.310  34.089  33.651  1.00  0.00     0.031 C 
ATOM     57  C   UNL A   1      41.769  32.014  37.217  1.00  0.00     0.029 A 
ATOM     58  C   UNL A   1      40.899  32.181  36.151  1.00  0.00     0.049 A 
ATOM     59  H   UNL A   1      40.784  31.092  34.348  1.00  0.00     0.167 HD
ATOM     60  C   UNL A   1      39.028  33.257  34.925  1.00  0.00     0.074 A 
ATOM     61  C   UNL A   1      37.964  34.233  34.796  1.00  0.00     0.031 C 
ATOM     62  C   UNL A   1      39.837  33.146  36.007  1.00  0.00     0.037 A 
BRANCH  49  63
ATOM     63  C   UNL A   1      44.072  28.657  35.586  1.00  0.00     0.058 A 
ATOM     64  C   UNL A   1      43.849  27.583  36.461  1.00  0.00     0.135 A 
ATOM     65  C   UNL A   1      45.402  29.059  35.372  1.00  0.00     0.135 A 
ATOM     66  F   UNL A   1      42.600  27.152  36.701  1.00  0.00    -0.206 F 
ATOM     67  C   UNL A   1      44.900  26.937  37.106  1.00  0.00     0.059 A 
ATOM     68  C   UNL A   1      46.470  28.410  35.985  1.00  0.00     0.059 A 
ATOM     69  F   UNL A   1      45.674  30.067  34.529  1.00  0.00    -0.206 F 
ATOM     70  C   UNL A   1      46.208  27.358  36.860  1.00  0.00     0.060 A 
BRANCH  70  71
ATOM     71  S   UNL A   1      47.564  26.483  37.670  1.00  0.00     0.124 S 
ATOM     72  O   UNL A   1      46.931  25.223  38.041  1.00  0.00    -0.237 OA
ATOM     73  O   UNL A   1      48.560  26.408  36.605  1.00  0.00    -0.237 OA
ATOM     74  O   UNL A   1      47.916  27.362  38.782  1.00  0.00    -0.744 OA
ENDBRANCH  70  71
ENDBRANCH  49  63
BRANCH  50  75
ATOM     75  C   UNL A   1      36.504  33.270  30.943  1.00  0.00     0.058 A 
ATOM     76  C   UNL A   1      36.749  34.155  29.883  1.00  0.00     0.135 A 
ATOM     77  C   UNL A   1      35.176  33.104  31.362  1.00  0.00     0.135 A 
ATOM     78  F   UNL A   1      38.004  34.357  29.449  1.00  0.00    -0.206 F 
ATOM     79  C   UNL A   1      35.722  34.875  29.283  1.00  0.00     0.059 A 
ATOM     80  C   UNL A   1      34.127  33.796  30.762  1.00  0.00     0.059 A 
ATOM     81  F   UNL A   1      34.891  32.259  32.365  1.00  0.00    -0.206 F 
ATOM     82  C   UNL A   1      34.414  34.694  29.736  1.00  0.00     0.060 A 
BRANCH  82  83
ATOM     83  S   UNL A   1      33.098  35.661  28.966  1.00  0.00     0.124 S 
ATOM     84  O   UNL A   1      32.334  36.096  30.132  1.00  0.00    -0.237 OA
ATOM     85  O   UNL A   1      33.849  36.704  28.275  1.00  0.00    -0.237 OA
ATOM     86  O   UNL A   1      32.429  34.694  28.102  1.00  0.00    -0.744 OA
ENDBRANCH  82  83
ENDBRANCH  50  75
BRANCH  62  87
ATOM     87  C   UNL A   1      39.621  34.111  37.140  1.00  0.00     0.058 A 
ATOM     88  C   UNL A   1      40.306  35.337  37.171  1.00  0.00     0.135 A 
ATOM     89  C   UNL A   1      38.802  33.789  38.233  1.00  0.00     0.135 A 
ATOM     90  F   UNL A   1      41.106  35.691  36.153  1.00  0.00    -0.206 F 
ATOM     91  C   UNL A   1      40.202  36.201  38.255  1.00  0.00     0.059 A 
ATOM     92  C   UNL A   1      38.663  34.651  39.318  1.00  0.00     0.059 A 
ATOM     93  F   UNL A   1      38.117  32.635  38.246  1.00  0.00    -0.206 F 
ATOM     94  C   UNL A   1      39.381  35.846  39.326  1.00  0.00     0.060 A 
BRANCH  94  95
ATOM     95  S   UNL A   1      39.254  36.981  40.724  1.00  0.00     0.124 S 
ATOM     96  O   UNL A   1      40.644  37.383  40.912  1.00  0.00    -0.237 OA
ATOM     97  O   UNL A   1      38.361  38.012  40.205  1.00  0.00    -0.237 OA
ATOM     98  O   UNL A   1      38.690  36.151  41.785  1.00  0.00    -0.744 OA
ENDBRANCH  94  95
ENDBRANCH  62  87
ENDBRANCH  36  37
ENDBRANCH  28  31
ENDBRANCH  26  27
ENDBRANCH  25  26
ENDBRANCH   1  25
TORSDOF 17
ENDMDL
MODEL 2
REMARK VINA RESULT:     -11.4      1.296      2.199
REMARK SMILES C[C@@H](CNc1cccc(F)c1C(=O)NCCCNC(=O)c1ccc(-c2c3nc(c(-c4c(F)cc(S(=O)(=O)[O-])cc4F)c4ccc([nH]4)c(-c4c(F)cc(S(=O)(=O)[O-])cc4F)c4nc(c(-c5c(F)cc(S(=O)(=O)[O-])cc5F)c5ccc2[nH]5)C=C4)C=C3)cc1)[NH+]1CCCCC1
REMARK SMILES IDX 15 1 14 2 12 3 13 4 11 6 5 7 6 8 7 9 9 10 8 11 10 12 4 13
REMARK SMILES IDX 3 15 2 16 1 17 87 18 88 19 92 20 89 22 91 23 90 24 16 25
REMARK SMILES IDX 17 26 18 27 19 28 20 30 21 31 22 32 86 33 23 34 85 35 24 36
REMARK SMILES IDX 25 37 26 38 79 39 27 40 84 41 78 42 80 43 28 44 83 45 77 46
REMARK SMILES IDX 76 47 29 49 63 50 42 51 62 52 43 53 46 54 61 55 81 56 44 57
REMARK SMILES IDX 45 58 60 60 82 61 47 62 30 63 31 64 40 65 32 66 33 67 39 68
REMARK SMILES IDX 41 69 34 70 35 71 36 72 37 73 38 74 64 75 65 76 74 77 66 78
REMARK SMILES IDX 67 79 73 80 75 81 68 82 69 83 70 84 71 85 72 86 48 87 49 88
REMARK SMILES IDX 58 89 50 90 51 91 57 92 59 93 52 94 53 95 54 96 55 97 56 98
REMARK H PARENT 14 5 4 14 87 21 18 29 80 48 46 59
REMARK Flexibility Score: inf
ROOT
ATOM      1  C   UNL A   1      37.733  23.371  25.955  1.00  0.00     0.118 C 
ENDROOT
BRANCH   1   2
ATOM      2  N   UNL A   1      37.443  23.366  24.534  1.00  0.00    -0.352 N 
ATOM      3  C   UNL A   1      36.461  22.818  23.750  1.00  0.00     0.256 C 
ATOM      4  O   UNL A   1      36.643  22.961  22.535  1.00  0.00    -0.269 OA
ATOM      5  H   UNL A   1      38.105  23.874  24.010  1.00  0.00     0.163 HD
BRANCH   3   6
ATOM      6  C   UNL A   1      35.206  22.145  24.230  1.00  0.00     0.098 A 
ATOM      7  C   UNL A   1      33.956  22.806  24.017  1.00  0.00     0.050 A 
ATOM      8  C   UNL A   1      32.771  22.191  24.466  1.00  0.00     0.027 A 
ATOM      9  C   UNL A   1      32.789  20.966  25.127  1.00  0.00     0.005 A 
ATOM     10  C   UNL A   1      35.183  20.887  24.841  1.00  0.00     0.138 A 
ATOM     11  C   UNL A   1      33.998  20.315  25.312  1.00  0.00     0.040 A 
ATOM     12  F   UNL A   1      36.275  20.126  24.952  1.00  0.00    -0.206 F 
BRANCH   7  13
ATOM     13  N   UNL A   1      33.888  24.036  23.371  1.00  0.00    -0.378 N 
ATOM     14  H   UNL A   1      34.698  24.341  22.902  1.00  0.00     0.160 HD
BRANCH  13  15
ATOM     15  C   UNL A   1      32.727  24.912  23.328  1.00  0.00     0.177 C 
BRANCH  15  16
ATOM     16  C   UNL A   1      32.989  26.243  24.114  1.00  0.00     0.200 C 
ATOM     17  C   UNL A   1      33.549  25.877  25.504  1.00  0.00     0.077 C 
BRANCH  16  18
ATOM     18  N   UNL A   1      31.796  27.140  24.205  1.00  0.00    -0.331 N 
ATOM     19  C   UNL A   1      32.147  28.568  24.204  1.00  0.00     0.262 C 
ATOM     20  C   UNL A   1      30.808  26.851  23.149  1.00  0.00     0.262 C 
ATOM     21  H   UNL A   1      31.369  26.935  25.108  1.00  0.00     0.348 HD
ATOM     22  C   UNL A   1      30.917  29.464  24.376  1.00  0.00     0.062 C 
ATOM     23  C   UNL A   1      29.538  27.686  23.311  1.00  0.00     0.062 C 
ATOM     24  C   UNL A   1      29.858  29.172  23.325  1.00  0.00     0.012 C 
ENDBRANCH  16  18
ENDBRANCH  15  16
ENDBRANCH  13  15
ENDBRANCH   7  13
ENDBRANCH   3   6
ENDBRANCH   1   2
BRANCH   1  25
ATOM     25  C   UNL A   1      38.988  22.544  26.250  1.00  0.00     0.042 C 
BRANCH  25  26
ATOM     26  C   UNL A   1      40.075  23.322  26.994  1.00  0.00     0.118 C 
BRANCH  26  27
ATOM     27  N   UNL A   1      41.044  23.911  26.080  1.00  0.00    -0.352 N 
ATOM     28  C   UNL A   1      41.543  25.188  26.017  1.00  0.00     0.251 C 
ATOM     29  H   UNL A   1      41.399  23.294  25.399  1.00  0.00     0.163 HD
ATOM     30  O   UNL A   1      42.165  25.537  25.017  1.00  0.00    -0.269 OA
BRANCH  28  31
ATOM     31  C   UNL A   1      41.341  26.143  27.130  1.00  0.00     0.039 A 
ATOM     32  C   UNL A   1      40.376  25.851  28.101  1.00  0.00     0.014 A 
ATOM     33  C   UNL A   1      42.042  27.350  27.192  1.00  0.00     0.014 A 
ATOM     34  C   UNL A   1      40.152  26.743  29.154  1.00  0.00     0.010 A 
ATOM     35  C   UNL A   1      41.866  28.207  28.277  1.00  0.00     0.010 A 
ATOM     36  C   UNL A   1      40.915  27.916  29.266  1.00  0.00    -0.014 A 
BRANCH  36  37
ATOM     37  C   UNL A   1      40.730  28.848  30.410  1.00  0.00     0.031 A 
ATOM     38  C   UNL A   1      41.604  28.736  31.630  1.00  0.00     0.074 A 
ATOM     39  C   UNL A   1      39.743  29.764  30.367  1.00  0.00     0.049 A 
ATOM     40  N   UNL A   1      41.547  29.409  32.750  1.00  0.00    -0.248 NA
ATOM     41  C   UNL A   1      42.667  27.718  31.595  1.00  0.00     0.031 C 
ATOM     42  C   UNL A   1      38.811  29.950  29.253  1.00  0.00     0.029 A 
ATOM     43  N   UNL A   1      39.355  30.710  31.283  1.00  0.00    -0.354 N 
ATOM     44  C   UNL A   1      42.558  28.893  33.555  1.00  0.00     0.074 A 
ATOM     45  C   UNL A   1      43.176  27.815  32.816  1.00  0.00     0.031 C 
ATOM     46  C   UNL A   1      37.983  30.968  29.535  1.00  0.00     0.029 A 
ATOM     47  C   UNL A   1      38.294  31.481  30.866  1.00  0.00     0.049 A 
ATOM     48  H   UNL A   1      39.794  30.826  32.157  1.00  0.00     0.167 HD
ATOM     49  C   UNL A   1      42.951  29.300  34.786  1.00  0.00     0.037 A 
ATOM     50  C   UNL A   1      37.642  32.484  31.485  1.00  0.00     0.037 A 
ATOM     51  C   UNL A   1      42.345  30.390  35.506  1.00  0.00     0.049 A 
ATOM     52  C   UNL A   1      38.084  32.906  32.859  1.00  0.00     0.074 A 
ATOM     53  C   UNL A   1      42.691  30.901  36.745  1.00  0.00     0.029 A 
ATOM     54  N   UNL A   1      41.270  31.140  35.051  1.00  0.00    -0.354 N 
ATOM     55  N   UNL A   1      39.059  32.425  33.593  1.00  0.00    -0.248 NA
ATOM     56  C   UNL A   1      37.340  34.005  33.490  1.00  0.00     0.031 C 
ATOM     57  C   UNL A   1      41.802  31.936  37.055  1.00  0.00     0.029 A 
ATOM     58  C   UNL A   1      40.931  32.101  35.990  1.00  0.00     0.049 A 
ATOM     59  H   UNL A   1      40.814  31.010  34.188  1.00  0.00     0.167 HD
ATOM     60  C   UNL A   1      39.059  33.175  34.763  1.00  0.00     0.074 A 
ATOM     61  C   UNL A   1      37.995  34.151  34.634  1.00  0.00     0.031 C 
ATOM     62  C   UNL A   1      39.869  33.066  35.846  1.00  0.00     0.037 A 
BRANCH  49  63
ATOM     63  C   UNL A   1      44.104  28.576  35.428  1.00  0.00     0.058 A 
ATOM     64  C   UNL A   1      45.429  28.953  35.161  1.00  0.00     0.135 A 
ATOM     65  C   UNL A   1      43.896  27.471  36.272  1.00  0.00     0.135 A 
ATOM     66  F   UNL A   1      45.688  30.003  34.366  1.00  0.00    -0.206 F 
ATOM     67  C   UNL A   1      46.507  28.259  35.702  1.00  0.00     0.059 A 
ATOM     68  C   UNL A   1      44.959  26.780  36.846  1.00  0.00     0.059 A 
ATOM     69  F   UNL A   1      42.649  27.080  36.577  1.00  0.00    -0.206 F 
ATOM     70  C   UNL A   1      46.262  27.173  36.545  1.00  0.00     0.060 A 
BRANCH  70  71
ATOM     71  S   UNL A   1      47.669  26.309  37.274  1.00  0.00     0.124 S 
ATOM     72  O   UNL A   1      48.157  25.522  36.146  1.00  0.00    -0.237 OA
ATOM     73  O   UNL A   1      48.524  27.415  37.696  1.00  0.00    -0.237 OA
ATOM     74  O   UNL A   1      47.069  25.543  38.363  1.00  0.00    -0.744 OA
ENDBRANCH  70  71
ENDBRANCH  49  63
BRANCH  50  75
ATOM     75  C   UNL A   1      36.532  33.182  30.784  1.00  0.00     0.058 A 
ATOM     76  C   UNL A   1      36.779  34.103  29.755  1.00  0.00     0.135 A 
ATOM     77  C   UNL A   1      35.200  32.979  31.173  1.00  0.00     0.135 A 
ATOM     78  F   UNL A   1      38.038  34.342  29.351  1.00  0.00    -0.206 F 
ATOM     79  C   UNL A   1      35.749  34.821  29.157  1.00  0.00     0.059 A 
ATOM     80  C   UNL A   1      34.149  33.667  30.574  1.00  0.00     0.059 A 
ATOM     81  F   UNL A   1      34.913  32.099  32.145  1.00  0.00    -0.206 F 
ATOM     82  C   UNL A   1      34.436  34.601  29.580  1.00  0.00     0.060 A 
BRANCH  82  83
ATOM     83  S   UNL A   1      33.116  35.565  28.813  1.00  0.00     0.124 S 
ATOM     84  O   UNL A   1      32.406  36.070  29.984  1.00  0.00    -0.237 OA
ATOM     85  O   UNL A   1      33.866  36.557  28.049  1.00  0.00    -0.237 OA
ATOM     86  O   UNL A   1      32.394  34.577  28.018  1.00  0.00    -0.744 OA
ENDBRANCH  82  83
ENDBRANCH  50  75
BRANCH  62  87
ATOM     87  C   UNL A   1      39.654  34.032  36.977  1.00  0.00     0.058 A 
ATOM     88  C   UNL A   1      40.260  35.300  36.955  1.00  0.00     0.135 A 
ATOM     89  C   UNL A   1      38.918  33.677  38.118  1.00  0.00     0.135 A 
ATOM     90  F   UNL A   1      40.978  35.688  35.890  1.00  0.00    -0.206 F 
ATOM     91  C   UNL A   1      40.160  36.172  38.033  1.00  0.00     0.059 A 
ATOM     92  C   UNL A   1      38.784  34.544  39.198  1.00  0.00     0.059 A 
ATOM     93  F   UNL A   1      38.310  32.482  38.182  1.00  0.00    -0.206 F 
ATOM     94  C   UNL A   1      39.423  35.782  39.153  1.00  0.00     0.060 A 
BRANCH  94  95
ATOM     95  S   UNL A   1      39.300  36.929  40.542  1.00  0.00     0.124 S 
ATOM     96  O   UNL A   1      40.700  37.093  40.920  1.00  0.00    -0.237 OA
ATOM     97  O   UNL A   1      38.669  38.092  39.927  1.00  0.00    -0.237 OA
ATOM     98  O   UNL A   1      38.470  36.209  41.503  1.00  0.00    -0.744 OA
ENDBRANCH  94  95
ENDBRANCH  62  87
ENDBRANCH  36  37
ENDBRANCH  28  31
ENDBRANCH  26  27
ENDBRANCH  25  26
ENDBRANCH   1  25
TORSDOF 17
ENDMDL
MODEL 3
REMARK VINA RESULT:     -11.4      6.553     11.979
REMARK SMILES C[C@@H](CNc1cccc(F)c1C(=O)NCCCNC(=O)c1ccc(-c2c3nc(c(-c4c(F)cc(S(=O)(=O)[O-])cc4F)c4ccc([nH]4)c(-c4c(F)cc(S(=O)(=O)[O-])cc4F)c4nc(c(-c5c(F)cc(S(=O)(=O)[O-])cc5F)c5ccc2[nH]5)C=C4)C=C3)cc1)[NH+]1CCCCC1
REMARK SMILES IDX 15 1 14 2 12 3 13 4 11 6 5 7 6 8 7 9 9 10 8 11 10 12 4 13
REMARK SMILES IDX 3 15 2 16 1 17 87 18 88 19 92 20 89 22 91 23 90 24 16 25
REMARK SMILES IDX 17 26 18 27 19 28 20 30 21 31 22 32 86 33 23 34 85 35 24 36
REMARK SMILES IDX 25 37 26 38 79 39 27 40 84 41 78 42 80 43 28 44 83 45 77 46
REMARK SMILES IDX 76 47 29 49 63 50 42 51 62 52 43 53 46 54 61 55 81 56 44 57
REMARK SMILES IDX 45 58 60 60 82 61 47 62 30 63 31 64 40 65 32 66 33 67 39 68
REMARK SMILES IDX 41 69 34 70 35 71 36 72 37 73 38 74 64 75 65 76 74 77 66 78
REMARK SMILES IDX 67 79 73 80 75 81 68 82 69 83 70 84 71 85 72 86 48 87 49 88
REMARK SMILES IDX 58 89 50 90 51 91 57 92 59 93 52 94 53 95 54 96 55 97 56 98
REMARK H PARENT 14 5 4 14 87 21 18 29 80 48 46 59
REMARK Flexibility Score: inf
ROOT
ATOM      1  C   UNL A   1      34.007  28.296  26.418  1.00  0.00     0.118 C 
ENDROOT
BRANCH   1   2
ATOM      2  N   UNL A   1      33.004  27.319  26.793  1.00  0.00    -0.352 N 
ATOM      3  C   UNL A   1      32.303  26.348  26.124  1.00  0.00     0.256 C 
ATOM      4  O   UNL A   1      31.437  25.788  26.806  1.00  0.00    -0.269 OA
ATOM      5  H   UNL A   1      32.772  27.360  27.750  1.00  0.00     0.163 HD
BRANCH   3   6
ATOM      6  C   UNL A   1      32.537  25.889  24.713  1.00  0.00     0.098 A 
ATOM      7  C   UNL A   1      31.565  26.224  23.719  1.00  0.00     0.050 A 
ATOM      8  C   UNL A   1      31.767  25.796  22.392  1.00  0.00     0.027 A 
ATOM      9  C   UNL A   1      32.878  25.041  22.030  1.00  0.00     0.005 A 
ATOM     10  C   UNL A   1      33.673  25.183  24.302  1.00  0.00     0.138 A 
ATOM     11  C   UNL A   1      33.831  24.737  22.988  1.00  0.00     0.040 A 
ATOM     12  F   UNL A   1      34.704  24.951  25.119  1.00  0.00    -0.206 F 
BRANCH   7  13
ATOM     13  N   UNL A   1      30.433  26.967  24.035  1.00  0.00    -0.378 N 
ATOM     14  H   UNL A   1      29.993  26.771  24.894  1.00  0.00     0.160 HD
BRANCH  13  15
ATOM     15  C   UNL A   1      29.839  28.008  23.210  1.00  0.00     0.177 C 
BRANCH  15  16
ATOM     16  C   UNL A   1      30.661  29.341  23.296  1.00  0.00     0.200 C 
ATOM     17  C   UNL A   1      31.000  29.599  24.778  1.00  0.00     0.077 C 
BRANCH  16  18
ATOM     18  N   UNL A   1      29.985  30.513  22.660  1.00  0.00    -0.331 N 
ATOM     19  C   UNL A   1      29.025  30.127  21.614  1.00  0.00     0.262 C 
ATOM     20  C   UNL A   1      29.337  31.383  23.658  1.00  0.00     0.262 C 
ATOM     21  H   UNL A   1      30.728  31.044  22.206  1.00  0.00     0.348 HD
ATOM     22  C   UNL A   1      28.403  31.345  20.925  1.00  0.00     0.062 C 
ATOM     23  C   UNL A   1      28.747  32.641  23.023  1.00  0.00     0.062 C 
ATOM     24  C   UNL A   1      27.755  32.287  21.927  1.00  0.00     0.012 C 
ENDBRANCH  16  18
ENDBRANCH  15  16
ENDBRANCH  13  15
ENDBRANCH   7  13
ENDBRANCH   3   6
ENDBRANCH   1   2
BRANCH   1  25
ATOM     25  C   UNL A   1      33.900  29.542  27.303  1.00  0.00     0.042 C 
BRANCH  25  26
ATOM     26  C   UNL A   1      35.252  30.076  27.778  1.00  0.00     0.118 C 
BRANCH  26  27
ATOM     27  N   UNL A   1      35.256  30.351  29.209  1.00  0.00    -0.352 N 
ATOM     28  C   UNL A   1      36.224  30.124  30.154  1.00  0.00     0.251 C 
ATOM     29  H   UNL A   1      34.432  30.768  29.552  1.00  0.00     0.163 HD
ATOM     30  O   UNL A   1      35.928  30.205  31.344  1.00  0.00    -0.269 OA
BRANCH  28  31
ATOM     31  C   UNL A   1      37.611  29.783  29.762  1.00  0.00     0.039 A 
ATOM     32  C   UNL A   1      38.508  29.368  30.753  1.00  0.00     0.014 A 
ATOM     33  C   UNL A   1      38.052  29.931  28.444  1.00  0.00     0.014 A 
ATOM     34  C   UNL A   1      39.827  29.057  30.414  1.00  0.00     0.010 A 
ATOM     35  C   UNL A   1      39.350  29.557  28.096  1.00  0.00     0.010 A 
ATOM     36  C   UNL A   1      40.253  29.122  29.077  1.00  0.00    -0.014 A 
BRANCH  36  37
ATOM     37  C   UNL A   1      41.636  28.739  28.690  1.00  0.00     0.031 A 
ATOM     38  C   UNL A   1      42.738  29.763  28.697  1.00  0.00     0.074 A 
ATOM     39  C   UNL A   1      41.888  27.478  28.286  1.00  0.00     0.049 A 
ATOM     40  N   UNL A   1      43.986  29.636  28.326  1.00  0.00    -0.248 NA
ATOM     41  C   UNL A   1      42.386  31.115  29.161  1.00  0.00     0.031 C 
ATOM     42  C   UNL A   1      40.896  26.403  28.208  1.00  0.00     0.029 A 
ATOM     43  N   UNL A   1      43.051  26.885  27.865  1.00  0.00    -0.354 N 
ATOM     44  C   UNL A   1      44.565  30.888  28.504  1.00  0.00     0.074 A 
ATOM     45  C   UNL A   1      43.519  31.774  28.964  1.00  0.00     0.031 C 
ATOM     46  C   UNL A   1      41.499  25.276  27.798  1.00  0.00     0.029 A 
ATOM     47  C   UNL A   1      42.909  25.555  27.544  1.00  0.00     0.049 A 
ATOM     48  H   UNL A   1      43.908  27.366  27.798  1.00  0.00     0.167 HD
ATOM     49  C   UNL A   1      45.857  31.257  28.325  1.00  0.00     0.037 A 
ATOM     50  C   UNL A   1      43.810  24.661  27.092  1.00  0.00     0.037 A 
ATOM     51  C   UNL A   1      46.897  30.362  27.888  1.00  0.00     0.049 A 
ATOM     52  C   UNL A   1      45.233  25.097  26.883  1.00  0.00     0.074 A 
ATOM     53  C   UNL A   1      48.243  30.629  27.708  1.00  0.00     0.029 A 
ATOM     54  N   UNL A   1      46.710  29.024  27.568  1.00  0.00    -0.354 N 
ATOM     55  N   UNL A   1      45.769  26.278  27.082  1.00  0.00    -0.248 NA
ATOM     56  C   UNL A   1      46.176  24.084  26.389  1.00  0.00     0.031 C 
ATOM     57  C   UNL A   1      48.863  29.465  27.243  1.00  0.00     0.029 A 
ATOM     58  C   UNL A   1      47.912  28.458  27.177  1.00  0.00     0.049 A 
ATOM     59  H   UNL A   1      45.850  28.548  27.611  1.00  0.00     0.167 HD
ATOM     60  C   UNL A   1      47.114  26.145  26.757  1.00  0.00     0.074 A 
ATOM     61  C   UNL A   1      47.314  24.766  26.361  1.00  0.00     0.031 C 
ATOM     62  C   UNL A   1      48.095  27.081  26.787  1.00  0.00     0.037 A 
BRANCH  49  63
ATOM     63  C   UNL A   1      46.224  32.686  28.619  1.00  0.00     0.058 A 
ATOM     64  C   UNL A   1      46.544  33.093  29.923  1.00  0.00     0.135 A 
ATOM     65  C   UNL A   1      46.210  33.668  27.613  1.00  0.00     0.135 A 
ATOM     66  F   UNL A   1      46.576  32.199  30.924  1.00  0.00    -0.206 F 
ATOM     67  C   UNL A   1      46.831  34.422  30.222  1.00  0.00     0.059 A 
ATOM     68  C   UNL A   1      46.521  34.997  27.885  1.00  0.00     0.059 A 
ATOM     69  F   UNL A   1      45.931  33.330  26.345  1.00  0.00    -0.206 F 
ATOM     70  C   UNL A   1      46.817  35.367  29.195  1.00  0.00     0.060 A 
BRANCH  70  71
ATOM     71  S   UNL A   1      47.234  37.079  29.590  1.00  0.00     0.124 S 
ATOM     72  O   UNL A   1      47.904  36.937  30.877  1.00  0.00    -0.237 OA
ATOM     73  O   UNL A   1      48.087  37.454  28.465  1.00  0.00    -0.237 OA
ATOM     74  O   UNL A   1      45.934  37.743  29.626  1.00  0.00    -0.744 OA
ENDBRANCH  70  71
ENDBRANCH  49  63
BRANCH  50  75
ATOM     75  C   UNL A   1      43.392  23.254  26.851  1.00  0.00     0.058 A 
ATOM     76  C   UNL A   1      43.149  22.370  27.913  1.00  0.00     0.135 A 
ATOM     77  C   UNL A   1      43.282  22.753  25.545  1.00  0.00     0.135 A 
ATOM     78  F   UNL A   1      43.250  22.796  29.182  1.00  0.00    -0.206 F 
ATOM     79  C   UNL A   1      42.842  21.032  27.690  1.00  0.00     0.059 A 
ATOM     80  C   UNL A   1      42.954  21.423  25.296  1.00  0.00     0.059 A 
ATOM     81  F   UNL A   1      43.495  23.564  24.498  1.00  0.00    -0.206 F 
ATOM     82  C   UNL A   1      42.755  20.566  26.377  1.00  0.00     0.060 A 
BRANCH  82  83
ATOM     83  S   UNL A   1      42.387  18.819  26.109  1.00  0.00     0.124 S 
ATOM     84  O   UNL A   1      43.337  18.478  25.055  1.00  0.00    -0.237 OA
ATOM     85  O   UNL A   1      42.662  18.244  27.422  1.00  0.00    -0.237 OA
ATOM     86  O   UNL A   1      40.983  18.826  25.711  1.00  0.00    -0.744 OA
ENDBRANCH  82  83
ENDBRANCH  50  75
BRANCH  62  87
ATOM     87  C   UNL A   1      49.481  26.652  26.396  1.00  0.00     0.058 A 
ATOM     88  C   UNL A   1      49.966  26.906  25.102  1.00  0.00     0.135 A 
ATOM     89  C   UNL A   1      50.298  25.919  27.271  1.00  0.00     0.135 A 
ATOM     90  F   UNL A   1      49.223  27.598  24.225  1.00  0.00    -0.206 F 
ATOM     91  C   UNL A   1      51.204  26.431  24.683  1.00  0.00     0.059 A 
ATOM     92  C   UNL A   1      51.552  25.456  26.881  1.00  0.00     0.059 A 
ATOM     93  F   UNL A   1      49.885  25.661  28.522  1.00  0.00    -0.206 F 
ATOM     94  C   UNL A   1      51.987  25.702  25.580  1.00  0.00     0.060 A 
BRANCH  94  95
ATOM     95  S   UNL A   1      53.594  25.097  25.022  1.00  0.00     0.124 S 
ATOM     96  O   UNL A   1      54.511  25.872  25.850  1.00  0.00    -0.237 OA
ATOM     97  O   UNL A   1      53.511  23.673  25.329  1.00  0.00    -0.237 OA
ATOM     98  O   UNL A   1      53.604  25.423  23.598  1.00  0.00    -0.744 OA
ENDBRANCH  94  95
ENDBRANCH  62  87
ENDBRANCH  36  37
ENDBRANCH  28  31
ENDBRANCH  26  27
ENDBRANCH  25  26
ENDBRANCH   1  25
TORSDOF 17
ENDMDL
