MODEL 1
REMARK VINA RESULT:     -11.5      0.000      0.000
REMARK SMILES Cc1cc(C(=O)N2C[C@@H](C(=O)NCCCNC(=O)c3ccc(-c4c5nc(c(-c6c(F)cc(S(=O)(=O)[O-])cc6F)c6ccc([nH]6)c(-c6c(F)cc(S(=O)(=O)[O-])cc6F)c6nc(c(-c7c(F)cc(S(=O)(=O)[O-])cc7F)c7ccc4[nH]7)C=C6)C=C5)cc3)[C@H](C3CC3)C2)sc1C
REMARK SMILES IDX 14 1 13 2 12 3 10 4 11 5 9 7 7 8 8 9 89 10 85 11 5 12 6 13
REMARK SMILES IDX 4 14 1 15 2 16 3 17 91 18 90 19 92 20 86 21 87 22 88 23
REMARK SMILES IDX 15 24 16 25 17 26 18 28 19 29 20 30 84 31 21 32 83 33 22 34
REMARK SMILES IDX 23 35 24 36 77 37 25 38 82 39 76 40 78 41 26 42 81 43 75 44
REMARK SMILES IDX 74 45 27 47 61 48 40 49 60 50 41 51 44 52 59 53 79 54 42 55
REMARK SMILES IDX 43 56 58 58 80 59 45 60 28 61 29 62 38 63 30 64 31 65 37 66
REMARK SMILES IDX 39 67 32 68 33 69 34 70 35 71 36 72 62 73 63 74 72 75 64 76
REMARK SMILES IDX 65 77 71 78 73 79 66 80 67 81 68 82 69 83 70 84 46 85 47 86
REMARK SMILES IDX 56 87 48 88 49 89 55 90 57 91 50 92 51 93 52 94 53 95 54 96
REMARK H PARENT 12 6 16 27 78 46 44 57
REMARK Flexibility Score: inf
ROOT
ATOM      1  C   UNL A   1      35.452  23.585  25.715  1.00  0.00     0.042 C 
ENDROOT
BRANCH   1   2
ATOM      2  C   UNL A   1      34.315  24.463  25.233  1.00  0.00     0.117 C 
BRANCH   2   3
ATOM      3  N   UNL A   1      34.370  24.771  23.815  1.00  0.00    -0.356 N 
ATOM      4  C   UNL A   1      33.658  25.686  23.097  1.00  0.00     0.225 C 
ATOM      5  O   UNL A   1      33.987  25.878  21.926  1.00  0.00    -0.275 OA
ATOM      6  H   UNL A   1      35.018  24.241  23.296  1.00  0.00     0.163 HD
BRANCH   4   7
ATOM      7  C   UNL A   1      32.495  26.425  23.732  1.00  0.00     0.103 C 
ATOM      8  N   UNL A   1      30.770  27.903  23.263  1.00  0.00    -0.337 N 
ATOM      9  C   UNL A   1      31.507  26.828  22.636  1.00  0.00     0.133 C 
ATOM     10  C   UNL A   1      31.673  28.702  24.059  1.00  0.00     0.124 C 
ATOM     11  C   UNL A   1      32.892  27.792  24.350  1.00  0.00     0.026 C 
BRANCH   8  12
ATOM     12  C   UNL A   1      29.425  28.226  23.218  1.00  0.00     0.263 C 
ATOM     13  O   UNL A   1      28.595  27.328  23.396  1.00  0.00    -0.268 OA
BRANCH  12  14
ATOM     14  C   UNL A   1      28.991  29.577  22.871  1.00  0.00     0.093 A 
ATOM     15  C   UNL A   1      27.895  32.043  20.238  1.00  0.00     0.045 C 
ATOM     16  C   UNL A   1      28.344  31.388  21.502  1.00  0.00    -0.037 A 
ATOM     17  C   UNL A   1      28.470  29.966  21.650  1.00  0.00     0.029 A 
ATOM     18  C   UNL A   1      28.730  32.038  22.662  1.00  0.00     0.005 A 
ATOM     19  S   UNL A   1      29.325  30.949  23.834  1.00  0.00    -0.135 S 
ATOM     20  C   UNL A   1      28.741  33.503  22.952  1.00  0.00     0.056 C 
ENDBRANCH  12  14
ENDBRANCH   8  12
BRANCH  11  21
ATOM     21  C   UNL A   1      33.220  27.859  25.828  1.00  0.00    -0.005 C 
ATOM     22  C   UNL A   1      34.597  28.092  26.397  1.00  0.00     0.004 C 
ATOM     23  C   UNL A   1      33.538  29.157  26.518  1.00  0.00     0.004 C 
ENDBRANCH  11  21
ENDBRANCH   4   7
ENDBRANCH   2   3
ENDBRANCH   1   2
BRANCH   1  24
ATOM     24  C   UNL A   1      36.738  23.753  24.920  1.00  0.00     0.118 C 
BRANCH  24  25
ATOM     25  N   UNL A   1      37.777  22.796  25.289  1.00  0.00    -0.352 N 
ATOM     26  C   UNL A   1      38.931  22.953  26.022  1.00  0.00     0.251 C 
ATOM     27  H   UNL A   1      37.625  21.882  24.957  1.00  0.00     0.163 HD
ATOM     28  O   UNL A   1      39.744  22.039  26.069  1.00  0.00    -0.269 OA
BRANCH  26  29
ATOM     29  C   UNL A   1      39.204  24.227  26.724  1.00  0.00     0.039 A 
ATOM     30  C   UNL A   1      38.688  24.424  28.008  1.00  0.00     0.014 A 
ATOM     31  C   UNL A   1      39.973  25.225  26.125  1.00  0.00     0.014 A 
ATOM     32  C   UNL A   1      39.028  25.577  28.721  1.00  0.00     0.010 A 
ATOM     33  C   UNL A   1      40.406  26.309  26.875  1.00  0.00     0.010 A 
ATOM     34  C   UNL A   1      39.935  26.503  28.180  1.00  0.00    -0.014 A 
BRANCH  34  35
ATOM     35  C   UNL A   1      40.397  27.692  28.944  1.00  0.00     0.031 A 
ATOM     36  C   UNL A   1      41.753  27.675  29.601  1.00  0.00     0.074 A 
ATOM     37  C   UNL A   1      39.570  28.741  29.120  1.00  0.00     0.049 A 
ATOM     38  N   UNL A   1      42.284  28.540  30.425  1.00  0.00    -0.248 NA
ATOM     39  C   UNL A   1      42.611  26.509  29.325  1.00  0.00     0.031 C 
ATOM     40  C   UNL A   1      38.210  28.853  28.583  1.00  0.00     0.029 A 
ATOM     41  N   UNL A   1      39.744  29.912  29.815  1.00  0.00    -0.354 N 
ATOM     42  C   UNL A   1      43.523  28.017  30.776  1.00  0.00     0.074 A 
ATOM     43  C   UNL A   1      43.637  26.727  30.133  1.00  0.00     0.031 C 
ATOM     44  C   UNL A   1      37.687  30.035  28.947  1.00  0.00     0.029 A 
ATOM     45  C   UNL A   1      38.652  30.747  29.778  1.00  0.00     0.049 A 
ATOM     46  H   UNL A   1      40.574  30.133  30.295  1.00  0.00     0.167 HD
ATOM     47  C   UNL A   1      44.495  28.575  31.534  1.00  0.00     0.037 A 
ATOM     48  C   UNL A   1      38.448  31.946  30.358  1.00  0.00     0.037 A 
ATOM     49  C   UNL A   1      44.393  29.876  32.140  1.00  0.00     0.049 A 
ATOM     50  C   UNL A   1      39.547  32.549  31.190  1.00  0.00     0.074 A 
ATOM     51  C   UNL A   1      45.333  30.550  32.900  1.00  0.00     0.029 A 
ATOM     52  N   UNL A   1      43.289  30.709  32.039  1.00  0.00    -0.354 N 
ATOM     53  N   UNL A   1      40.727  32.055  31.480  1.00  0.00    -0.248 NA
ATOM     54  C   UNL A   1      39.291  33.874  31.770  1.00  0.00     0.031 C 
ATOM     55  C   UNL A   1      44.788  31.781  33.278  1.00  0.00     0.029 A 
ATOM     56  C   UNL A   1      43.523  31.890  32.722  1.00  0.00     0.049 A 
ATOM     57  H   UNL A   1      42.461  30.493  31.552  1.00  0.00     0.167 HD
ATOM     58  C   UNL A   1      41.365  33.022  32.250  1.00  0.00     0.074 A 
ATOM     59  C   UNL A   1      40.445  34.133  32.370  1.00  0.00     0.031 C 
ATOM     60  C   UNL A   1      42.600  32.992  32.809  1.00  0.00     0.037 A 
BRANCH  47  61
ATOM     61  C   UNL A   1      45.765  27.792  31.724  1.00  0.00     0.058 A 
ATOM     62  C   UNL A   1      46.860  27.961  30.861  1.00  0.00     0.135 A 
ATOM     63  C   UNL A   1      45.904  26.891  32.790  1.00  0.00     0.135 A 
ATOM     64  F   UNL A   1      46.775  28.796  29.815  1.00  0.00    -0.206 F 
ATOM     65  C   UNL A   1      48.038  27.241  31.031  1.00  0.00     0.059 A 
ATOM     66  C   UNL A   1      47.085  26.181  32.997  1.00  0.00     0.059 A 
ATOM     67  F   UNL A   1      44.888  26.688  33.643  1.00  0.00    -0.206 F 
ATOM     68  C   UNL A   1      48.141  26.354  32.103  1.00  0.00     0.060 A 
BRANCH  68  69
ATOM     69  S   UNL A   1      49.682  25.438  32.315  1.00  0.00     0.124 S 
ATOM     70  O   UNL A   1      49.280  24.411  33.271  1.00  0.00    -0.237 OA
ATOM     71  O   UNL A   1      49.955  24.970  30.959  1.00  0.00    -0.237 OA
ATOM     72  O   UNL A   1      50.609  26.444  32.826  1.00  0.00    -0.744 OA
ENDBRANCH  68  69
ENDBRANCH  47  61
BRANCH  48  73
ATOM     73  C   UNL A   1      37.162  32.668  30.162  1.00  0.00     0.058 A 
ATOM     74  C   UNL A   1      37.028  33.641  29.159  1.00  0.00     0.135 A 
ATOM     75  C   UNL A   1      36.050  32.418  30.980  1.00  0.00     0.135 A 
ATOM     76  F   UNL A   1      38.064  33.917  28.352  1.00  0.00    -0.206 F 
ATOM     77  C   UNL A   1      35.850  34.364  28.995  1.00  0.00     0.059 A 
ATOM     78  C   UNL A   1      34.853  33.109  30.819  1.00  0.00     0.059 A 
ATOM     79  F   UNL A   1      36.118  31.482  31.939  1.00  0.00    -0.206 F 
ATOM     80  C   UNL A   1      34.769  34.094  29.835  1.00  0.00     0.060 A 
BRANCH  80  81
ATOM     81  S   UNL A   1      33.239  35.027  29.609  1.00  0.00     0.124 S 
ATOM     82  O   UNL A   1      32.497  34.156  28.705  1.00  0.00    -0.237 OA
ATOM     83  O   UNL A   1      32.729  35.116  30.973  1.00  0.00    -0.237 OA
ATOM     84  O   UNL A   1      33.700  36.288  29.036  1.00  0.00    -0.744 OA
ENDBRANCH  80  81
ENDBRANCH  48  73
BRANCH  60  85
ATOM     85  C   UNL A   1      43.045  34.214  33.560  1.00  0.00     0.058 A 
ATOM     86  C   UNL A   1      43.569  35.336  32.900  1.00  0.00     0.135 A 
ATOM     87  C   UNL A   1      42.894  34.282  34.955  1.00  0.00     0.135 A 
ATOM     88  F   UNL A   1      43.739  35.317  31.568  1.00  0.00    -0.206 F 
ATOM     89  C   UNL A   1      43.951  36.475  33.599  1.00  0.00     0.059 A 
ATOM     90  C   UNL A   1      43.244  35.421  35.671  1.00  0.00     0.059 A 
ATOM     91  F   UNL A   1      42.388  33.239  35.632  1.00  0.00    -0.206 F 
ATOM     92  C   UNL A   1      43.782  36.509  34.985  1.00  0.00     0.060 A 
BRANCH  92  93
ATOM     93  S   UNL A   1      44.246  38.009  35.877  1.00  0.00     0.124 S 
ATOM     94  O   UNL A   1      43.786  39.048  34.961  1.00  0.00    -0.237 OA
ATOM     95  O   UNL A   1      43.491  37.880  37.120  1.00  0.00    -0.237 OA
ATOM     96  O   UNL A   1      45.694  37.887  36.014  1.00  0.00    -0.744 OA
ENDBRANCH  92  93
ENDBRANCH  60  85
ENDBRANCH  34  35
ENDBRANCH  26  29
ENDBRANCH  24  25
ENDBRANCH   1  24
TORSDOF 16
ENDMDL
MODEL 2
REMARK VINA RESULT:     -11.5      3.142      4.281
REMARK SMILES Cc1cc(C(=O)N2C[C@@H](C(=O)NCCCNC(=O)c3ccc(-c4c5nc(c(-c6c(F)cc(S(=O)(=O)[O-])cc6F)c6ccc([nH]6)c(-c6c(F)cc(S(=O)(=O)[O-])cc6F)c6nc(c(-c7c(F)cc(S(=O)(=O)[O-])cc7F)c7ccc4[nH]7)C=C6)C=C5)cc3)[C@H](C3CC3)C2)sc1C
REMARK SMILES IDX 14 1 13 2 12 3 10 4 11 5 9 7 7 8 8 9 89 10 85 11 5 12 6 13
REMARK SMILES IDX 4 14 1 15 2 16 3 17 91 18 90 19 92 20 86 21 87 22 88 23
REMARK SMILES IDX 15 24 16 25 17 26 18 28 19 29 20 30 84 31 21 32 83 33 22 34
REMARK SMILES IDX 23 35 24 36 77 37 25 38 82 39 76 40 78 41 26 42 81 43 75 44
REMARK SMILES IDX 74 45 27 47 61 48 40 49 60 50 41 51 44 52 59 53 79 54 42 55
REMARK SMILES IDX 43 56 58 58 80 59 45 60 28 61 29 62 38 63 30 64 31 65 37 66
REMARK SMILES IDX 39 67 32 68 33 69 34 70 35 71 36 72 62 73 63 74 72 75 64 76
REMARK SMILES IDX 65 77 71 78 73 79 66 80 67 81 68 82 69 83 70 84 46 85 47 86
REMARK SMILES IDX 56 87 48 88 49 89 55 90 57 91 50 92 51 93 52 94 53 95 54 96
REMARK H PARENT 12 6 16 27 78 46 44 57
REMARK Flexibility Score: inf
ROOT
ATOM      1  C   UNL A   1      37.794  23.239  25.840  1.00  0.00     0.042 C 
ENDROOT
BRANCH   1   2
ATOM      2  C   UNL A   1      36.345  23.588  26.112  1.00  0.00     0.117 C 
BRANCH   2   3
ATOM      3  N   UNL A   1      35.587  22.512  26.725  1.00  0.00    -0.356 N 
ATOM      4  C   UNL A   1      34.264  22.204  26.604  1.00  0.00     0.225 C 
ATOM      5  O   UNL A   1      33.873  21.146  27.100  1.00  0.00    -0.275 OA
ATOM      6  H   UNL A   1      36.104  21.918  27.315  1.00  0.00     0.163 HD
BRANCH   4   7
ATOM      7  C   UNL A   1      33.316  23.147  25.887  1.00  0.00     0.103 C 
ATOM      8  N   UNL A   1      31.167  24.017  25.964  1.00  0.00    -0.337 N 
ATOM      9  C   UNL A   1      32.215  23.576  26.857  1.00  0.00     0.133 C 
ATOM     10  C   UNL A   1      31.123  23.146  24.811  1.00  0.00     0.124 C 
ATOM     11  C   UNL A   1      32.515  22.472  24.742  1.00  0.00     0.026 C 
BRANCH   8  12
ATOM     12  C   UNL A   1      30.291  25.084  26.052  1.00  0.00     0.263 C 
ATOM     13  O   UNL A   1      29.270  24.957  26.737  1.00  0.00    -0.268 OA
BRANCH  12  14
ATOM     14  C   UNL A   1      30.515  26.302  25.278  1.00  0.00     0.093 A 
ATOM     15  C   UNL A   1      31.772  29.854  25.133  1.00  0.00     0.045 C 
ATOM     16  C   UNL A   1      31.131  28.538  24.838  1.00  0.00    -0.037 A 
ATOM     17  C   UNL A   1      31.266  27.389  25.687  1.00  0.00     0.029 A 
ATOM     18  C   UNL A   1      30.308  28.258  23.761  1.00  0.00     0.005 A 
ATOM     19  S   UNL A   1      29.646  26.687  23.856  1.00  0.00    -0.135 S 
ATOM     20  C   UNL A   1      29.913  29.150  22.630  1.00  0.00     0.056 C 
ENDBRANCH  12  14
ENDBRANCH   8  12
BRANCH  11  21
ATOM     21  C   UNL A   1      33.043  22.567  23.324  1.00  0.00    -0.005 C 
ATOM     22  C   UNL A   1      33.159  23.844  22.531  1.00  0.00     0.004 C 
ATOM     23  C   UNL A   1      34.399  23.139  23.015  1.00  0.00     0.004 C 
ENDBRANCH  11  21
ENDBRANCH   4   7
ENDBRANCH   2   3
ENDBRANCH   1   2
BRANCH   1  24
ATOM     24  C   UNL A   1      38.787  24.075  26.633  1.00  0.00     0.118 C 
BRANCH  24  25
ATOM     25  N   UNL A   1      40.127  24.086  26.055  1.00  0.00    -0.352 N 
ATOM     26  C   UNL A   1      41.233  24.851  26.351  1.00  0.00     0.251 C 
ATOM     27  H   UNL A   1      40.263  23.435  25.329  1.00  0.00     0.163 HD
ATOM     28  O   UNL A   1      42.213  24.801  25.619  1.00  0.00    -0.269 OA
BRANCH  26  29
ATOM     29  C   UNL A   1      41.228  25.751  27.526  1.00  0.00     0.039 A 
ATOM     30  C   UNL A   1      42.179  26.771  27.610  1.00  0.00     0.014 A 
ATOM     31  C   UNL A   1      40.285  25.596  28.542  1.00  0.00     0.014 A 
ATOM     32  C   UNL A   1      42.117  27.691  28.660  1.00  0.00     0.010 A 
ATOM     33  C   UNL A   1      40.150  26.576  29.516  1.00  0.00     0.010 A 
ATOM     34  C   UNL A   1      41.068  27.633  29.591  1.00  0.00    -0.014 A 
BRANCH  34  35
ATOM     35  C   UNL A   1      40.911  28.648  30.666  1.00  0.00     0.031 A 
ATOM     36  C   UNL A   1      41.770  28.565  31.901  1.00  0.00     0.074 A 
ATOM     37  C   UNL A   1      39.944  29.582  30.572  1.00  0.00     0.049 A 
ATOM     38  N   UNL A   1      41.695  29.256  33.009  1.00  0.00    -0.248 NA
ATOM     39  C   UNL A   1      42.829  27.541  31.906  1.00  0.00     0.031 C 
ATOM     40  C   UNL A   1      39.009  29.731  29.452  1.00  0.00     0.029 A 
ATOM     41  N   UNL A   1      39.573  30.578  31.441  1.00  0.00    -0.354 N 
ATOM     42  C   UNL A   1      42.680  28.741  33.843  1.00  0.00     0.074 A 
ATOM     43  C   UNL A   1      43.293  27.635  33.144  1.00  0.00     0.031 C 
ATOM     44  C   UNL A   1      38.193  30.770  29.691  1.00  0.00     0.029 A 
ATOM     45  C   UNL A   1      38.514  31.335  30.998  1.00  0.00     0.049 A 
ATOM     46  H   UNL A   1      40.025  30.735  32.301  1.00  0.00     0.167 HD
ATOM     47  C   UNL A   1      43.067  29.174  35.066  1.00  0.00     0.037 A 
ATOM     48  C   UNL A   1      37.868  32.362  31.584  1.00  0.00     0.037 A 
ATOM     49  C   UNL A   1      42.480  30.301  35.741  1.00  0.00     0.049 A 
ATOM     50  C   UNL A   1      38.322  32.829  32.941  1.00  0.00     0.074 A 
ATOM     51  C   UNL A   1      42.819  30.843  36.969  1.00  0.00     0.029 A 
ATOM     52  N   UNL A   1      41.441  31.069  35.238  1.00  0.00    -0.354 N 
ATOM     53  N   UNL A   1      39.281  32.353  33.698  1.00  0.00    -0.248 NA
ATOM     54  C   UNL A   1      37.610  33.976  33.521  1.00  0.00     0.031 C 
ATOM     55  C   UNL A   1      41.970  31.926  37.217  1.00  0.00     0.029 A 
ATOM     56  C   UNL A   1      41.126  32.081  36.128  1.00  0.00     0.049 A 
ATOM     57  H   UNL A   1      40.994  30.918  34.374  1.00  0.00     0.167 HD
ATOM     58  C   UNL A   1      39.308  33.161  34.830  1.00  0.00     0.074 A 
ATOM     59  C   UNL A   1      38.278  34.163  34.652  1.00  0.00     0.031 C 
ATOM     60  C   UNL A   1      40.111  33.081  35.919  1.00  0.00     0.037 A 
BRANCH  47  61
ATOM     61  C   UNL A   1      44.198  28.444  35.736  1.00  0.00     0.058 A 
ATOM     62  C   UNL A   1      43.958  27.366  36.603  1.00  0.00     0.135 A 
ATOM     63  C   UNL A   1      45.533  28.800  35.487  1.00  0.00     0.135 A 
ATOM     64  F   UNL A   1      42.700  26.996  36.890  1.00  0.00    -0.206 F 
ATOM     65  C   UNL A   1      44.999  26.685  37.224  1.00  0.00     0.059 A 
ATOM     66  C   UNL A   1      46.593  28.114  36.076  1.00  0.00     0.059 A 
ATOM     67  F   UNL A   1      45.820  29.824  34.669  1.00  0.00    -0.206 F 
ATOM     68  C   UNL A   1      46.314  27.066  36.954  1.00  0.00     0.060 A 
BRANCH  68  69
ATOM     69  S   UNL A   1      47.653  26.163  37.760  1.00  0.00     0.124 S 
ATOM     70  O   UNL A   1      47.156  24.792  37.700  1.00  0.00    -0.237 OA
ATOM     71  O   UNL A   1      48.793  26.461  36.898  1.00  0.00    -0.237 OA
ATOM     72  O   UNL A   1      47.708  26.755  39.093  1.00  0.00    -0.744 OA
ENDBRANCH  68  69
ENDBRANCH  47  61
BRANCH  48  73
ATOM     73  C   UNL A   1      36.736  33.034  30.890  1.00  0.00     0.058 A 
ATOM     74  C   UNL A   1      36.968  33.971  29.873  1.00  0.00     0.135 A 
ATOM     75  C   UNL A   1      35.403  32.769  31.241  1.00  0.00     0.135 A 
ATOM     76  F   UNL A   1      38.226  34.259  29.503  1.00  0.00    -0.206 F 
ATOM     77  C   UNL A   1      35.924  34.648  29.250  1.00  0.00     0.059 A 
ATOM     78  C   UNL A   1      34.341  33.413  30.614  1.00  0.00     0.059 A 
ATOM     79  F   UNL A   1      35.124  31.864  32.191  1.00  0.00    -0.206 F 
ATOM     80  C   UNL A   1      34.613  34.365  29.632  1.00  0.00     0.060 A 
BRANCH  80  81
ATOM     81  S   UNL A   1      33.261  35.237  28.811  1.00  0.00     0.124 S 
ATOM     82  O   UNL A   1      32.650  34.164  28.036  1.00  0.00    -0.237 OA
ATOM     83  O   UNL A   1      32.483  35.734  29.941  1.00  0.00    -0.237 OA
ATOM     84  O   UNL A   1      33.951  36.264  28.035  1.00  0.00    -0.744 OA
ENDBRANCH  80  81
ENDBRANCH  48  73
BRANCH  60  85
ATOM     85  C   UNL A   1      39.939  34.130  36.980  1.00  0.00     0.058 A 
ATOM     86  C   UNL A   1      40.531  35.397  36.866  1.00  0.00     0.135 A 
ATOM     87  C   UNL A   1      39.128  33.879  38.099  1.00  0.00     0.135 A 
ATOM     88  F   UNL A   1      41.320  35.683  35.819  1.00  0.00    -0.206 F 
ATOM     89  C   UNL A   1      40.342  36.374  37.838  1.00  0.00     0.059 A 
ATOM     90  C   UNL A   1      38.905  34.851  39.069  1.00  0.00     0.059 A 
ATOM     91  F   UNL A   1      38.532  32.686  38.249  1.00  0.00    -0.206 F 
ATOM     92  C   UNL A   1      39.525  36.091  38.935  1.00  0.00     0.060 A 
BRANCH  92  93
ATOM     93  S   UNL A   1      39.258  37.381  40.169  1.00  0.00     0.124 S 
ATOM     94  O   UNL A   1      38.575  36.639  41.225  1.00  0.00    -0.237 OA
ATOM     95  O   UNL A   1      40.619  37.809  40.475  1.00  0.00    -0.237 OA
ATOM     96  O   UNL A   1      38.442  38.363  39.463  1.00  0.00    -0.744 OA
ENDBRANCH  92  93
ENDBRANCH  60  85
ENDBRANCH  34  35
ENDBRANCH  26  29
ENDBRANCH  24  25
ENDBRANCH   1  24
TORSDOF 16
ENDMDL
MODEL 3
REMARK VINA RESULT:     -11.4      3.184      4.549
REMARK SMILES Cc1cc(C(=O)N2C[C@@H](C(=O)NCCCNC(=O)c3ccc(-c4c5nc(c(-c6c(F)cc(S(=O)(=O)[O-])cc6F)c6ccc([nH]6)c(-c6c(F)cc(S(=O)(=O)[O-])cc6F)c6nc(c(-c7c(F)cc(S(=O)(=O)[O-])cc7F)c7ccc4[nH]7)C=C6)C=C5)cc3)[C@H](C3CC3)C2)sc1C
REMARK SMILES IDX 14 1 13 2 12 3 10 4 11 5 9 7 7 8 8 9 89 10 85 11 5 12 6 13
REMARK SMILES IDX 4 14 1 15 2 16 3 17 91 18 90 19 92 20 86 21 87 22 88 23
REMARK SMILES IDX 15 24 16 25 17 26 18 28 19 29 20 30 84 31 21 32 83 33 22 34
REMARK SMILES IDX 23 35 24 36 77 37 25 38 82 39 76 40 78 41 26 42 81 43 75 44
REMARK SMILES IDX 74 45 27 47 61 48 40 49 60 50 41 51 44 52 59 53 79 54 42 55
REMARK SMILES IDX 43 56 58 58 80 59 45 60 28 61 29 62 38 63 30 64 31 65 37 66
REMARK SMILES IDX 39 67 32 68 33 69 34 70 35 71 36 72 62 73 63 74 72 75 64 76
REMARK SMILES IDX 65 77 71 78 73 79 66 80 67 81 68 82 69 83 70 84 46 85 47 86
REMARK SMILES IDX 56 87 48 88 49 89 55 90 57 91 50 92 51 93 52 94 53 95 54 96
REMARK H PARENT 12 6 16 27 78 46 44 57
REMARK Flexibility Score: inf
ROOT
ATOM      1  C   UNL A   1      38.802  22.147  26.095  1.00  0.00     0.042 C 
ENDROOT
BRANCH   1   2
ATOM      2  C   UNL A   1      37.404  22.338  25.543  1.00  0.00     0.117 C 
BRANCH   2   3
ATOM      3  N   UNL A   1      36.350  22.071  26.506  1.00  0.00    -0.356 N 
ATOM      4  C   UNL A   1      35.020  21.852  26.299  1.00  0.00     0.225 C 
ATOM      5  O   UNL A   1      34.341  21.491  27.261  1.00  0.00    -0.275 OA
ATOM      6  H   UNL A   1      36.639  22.043  27.446  1.00  0.00     0.163 HD
BRANCH   4   7
ATOM      7  C   UNL A   1      34.411  22.060  24.925  1.00  0.00     0.103 C 
ATOM      8  N   UNL A   1      32.912  23.385  23.751  1.00  0.00    -0.337 N 
ATOM      9  C   UNL A   1      33.863  23.485  24.836  1.00  0.00     0.133 C 
ATOM     10  C   UNL A   1      32.229  22.115  23.828  1.00  0.00     0.124 C 
ATOM     11  C   UNL A   1      33.149  21.194  24.667  1.00  0.00     0.026 C 
BRANCH   8  12
ATOM     12  C   UNL A   1      32.614  24.266  22.725  1.00  0.00     0.263 C 
ATOM     13  O   UNL A   1      33.177  24.118  21.636  1.00  0.00    -0.268 OA
BRANCH  12  14
ATOM     14  C   UNL A   1      31.726  25.403  22.951  1.00  0.00     0.093 A 
ATOM     15  C   UNL A   1      28.315  26.702  23.897  1.00  0.00     0.045 C 
ATOM     16  C   UNL A   1      29.724  26.561  23.425  1.00  0.00    -0.037 A 
ATOM     17  C   UNL A   1      30.474  25.343  23.536  1.00  0.00     0.029 A 
ATOM     18  C   UNL A   1      30.472  27.541  22.794  1.00  0.00     0.005 A 
ATOM     19  S   UNL A   1      31.984  26.948  22.267  1.00  0.00    -0.135 S 
ATOM     20  C   UNL A   1      30.093  28.954  22.490  1.00  0.00     0.056 C 
ENDBRANCH  12  14
ENDBRANCH   8  12
BRANCH  11  21
ATOM     21  C   UNL A   1      33.306  19.865  23.956  1.00  0.00    -0.005 C 
ATOM     22  C   UNL A   1      33.952  18.640  24.550  1.00  0.00     0.004 C 
ATOM     23  C   UNL A   1      32.465  18.668  24.306  1.00  0.00     0.004 C 
ENDBRANCH  11  21
ENDBRANCH   4   7
ENDBRANCH   2   3
ENDBRANCH   1   2
BRANCH   1  24
ATOM     24  C   UNL A   1      39.436  23.427  26.617  1.00  0.00     0.118 C 
BRANCH  24  25
ATOM     25  N   UNL A   1      40.792  23.645  26.124  1.00  0.00    -0.352 N 
ATOM     26  C   UNL A   1      41.670  24.687  26.321  1.00  0.00     0.251 C 
ATOM     27  H   UNL A   1      41.139  22.922  25.552  1.00  0.00     0.163 HD
ATOM     28  O   UNL A   1      42.705  24.733  25.669  1.00  0.00    -0.269 OA
BRANCH  26  29
ATOM     29  C   UNL A   1      41.352  25.760  27.290  1.00  0.00     0.039 A 
ATOM     30  C   UNL A   1      40.312  25.569  28.204  1.00  0.00     0.014 A 
ATOM     31  C   UNL A   1      42.080  26.950  27.305  1.00  0.00     0.014 A 
ATOM     32  C   UNL A   1      40.074  26.529  29.191  1.00  0.00     0.010 A 
ATOM     33  C   UNL A   1      41.922  27.844  28.354  1.00  0.00     0.010 A 
ATOM     34  C   UNL A   1      40.913  27.649  29.308  1.00  0.00    -0.014 A 
BRANCH  34  35
ATOM     35  C   UNL A   1      40.754  28.643  30.401  1.00  0.00     0.031 A 
ATOM     36  C   UNL A   1      41.603  28.530  31.641  1.00  0.00     0.074 A 
ATOM     37  C   UNL A   1      39.793  29.585  30.319  1.00  0.00     0.049 A 
ATOM     38  N   UNL A   1      41.524  29.199  32.762  1.00  0.00    -0.248 NA
ATOM     39  C   UNL A   1      42.656  27.500  31.633  1.00  0.00     0.031 C 
ATOM     40  C   UNL A   1      38.868  29.762  29.196  1.00  0.00     0.029 A 
ATOM     41  N   UNL A   1      39.422  30.565  31.205  1.00  0.00    -0.354 N 
ATOM     42  C   UNL A   1      42.500  28.662  33.592  1.00  0.00     0.074 A 
ATOM     43  C   UNL A   1      43.111  27.566  32.875  1.00  0.00     0.031 C 
ATOM     44  C   UNL A   1      38.056  30.801  29.450  1.00  0.00     0.029 A 
ATOM     45  C   UNL A   1      38.371  31.337  30.770  1.00  0.00     0.049 A 
ATOM     46  H   UNL A   1      39.868  30.702  32.072  1.00  0.00     0.167 HD
ATOM     47  C   UNL A   1      42.880  29.067  34.827  1.00  0.00     0.037 A 
ATOM     48  C   UNL A   1      37.726  32.356  31.372  1.00  0.00     0.037 A 
ATOM     49  C   UNL A   1      42.295  30.183  35.521  1.00  0.00     0.049 A 
ATOM     50  C   UNL A   1      38.173  32.793  32.741  1.00  0.00     0.074 A 
ATOM     51  C   UNL A   1      42.628  30.699  36.761  1.00  0.00     0.029 A 
ATOM     52  N   UNL A   1      41.264  30.968  35.025  1.00  0.00    -0.354 N 
ATOM     53  N   UNL A   1      39.123  32.296  33.496  1.00  0.00    -0.248 NA
ATOM     54  C   UNL A   1      37.464  33.932  33.340  1.00  0.00     0.031 C 
ATOM     55  C   UNL A   1      41.783  31.781  37.025  1.00  0.00     0.029 A 
ATOM     56  C   UNL A   1      40.949  31.963  35.933  1.00  0.00     0.049 A 
ATOM     57  H   UNL A   1      40.823  30.837  34.155  1.00  0.00     0.167 HD
ATOM     58  C   UNL A   1      39.147  33.081  34.644  1.00  0.00     0.074 A 
ATOM     59  C   UNL A   1      38.124  34.092  34.479  1.00  0.00     0.031 C 
ATOM     60  C   UNL A   1      39.941  32.973  35.738  1.00  0.00     0.037 A 
BRANCH  47  61
ATOM     61  C   UNL A   1      44.002  28.317  35.490  1.00  0.00     0.058 A 
ATOM     62  C   UNL A   1      45.339  28.715  35.330  1.00  0.00     0.135 A 
ATOM     63  C   UNL A   1      43.742  27.212  36.316  1.00  0.00     0.135 A 
ATOM     64  F   UNL A   1      45.645  29.753  34.536  1.00  0.00    -0.206 F 
ATOM     65  C   UNL A   1      46.382  28.027  35.942  1.00  0.00     0.059 A 
ATOM     66  C   UNL A   1      44.768  26.526  36.962  1.00  0.00     0.059 A 
ATOM     67  F   UNL A   1      42.483  26.787  36.502  1.00  0.00    -0.206 F 
ATOM     68  C   UNL A   1      46.086  26.934  36.756  1.00  0.00     0.060 A 
BRANCH  68  69
ATOM     69  S   UNL A   1      47.451  26.061  37.552  1.00  0.00     0.124 S 
ATOM     70  O   UNL A   1      47.368  26.574  38.916  1.00  0.00    -0.237 OA
ATOM     71  O   UNL A   1      47.071  24.663  37.377  1.00  0.00    -0.237 OA
ATOM     72  O   UNL A   1      48.620  26.490  36.789  1.00  0.00    -0.744 OA
ENDBRANCH  68  69
ENDBRANCH  47  61
BRANCH  48  73
ATOM     73  C   UNL A   1      36.603  33.049  30.684  1.00  0.00     0.058 A 
ATOM     74  C   UNL A   1      36.845  33.937  29.625  1.00  0.00     0.135 A 
ATOM     75  C   UNL A   1      35.271  32.853  31.080  1.00  0.00     0.135 A 
ATOM     76  F   UNL A   1      38.102  34.158  29.211  1.00  0.00    -0.206 F 
ATOM     77  C   UNL A   1      35.812  34.633  29.005  1.00  0.00     0.059 A 
ATOM     78  C   UNL A   1      34.219  33.517  30.458  1.00  0.00     0.059 A 
ATOM     79  F   UNL A   1      34.983  31.997  32.072  1.00  0.00    -0.206 F 
ATOM     80  C   UNL A   1      34.501  34.420  29.433  1.00  0.00     0.060 A 
BRANCH  80  81
ATOM     81  S   UNL A   1      33.164  35.317  28.616  1.00  0.00     0.124 S 
ATOM     82  O   UNL A   1      33.906  36.312  27.849  1.00  0.00    -0.237 OA
ATOM     83  O   UNL A   1      32.516  34.265  27.841  1.00  0.00    -0.237 OA
ATOM     84  O   UNL A   1      32.380  35.836  29.732  1.00  0.00    -0.744 OA
ENDBRANCH  80  81
ENDBRANCH  48  73
BRANCH  60  85
ATOM     85  C   UNL A   1      39.768  34.002  36.818  1.00  0.00     0.058 A 
ATOM     86  C   UNL A   1      38.939  33.774  37.927  1.00  0.00     0.135 A 
ATOM     87  C   UNL A   1      40.483  35.210  36.767  1.00  0.00     0.135 A 
ATOM     88  F   UNL A   1      38.230  32.638  38.018  1.00  0.00    -0.206 F 
ATOM     89  C   UNL A   1      38.807  34.718  38.939  1.00  0.00     0.059 A 
ATOM     90  C   UNL A   1      40.386  36.156  37.781  1.00  0.00     0.059 A 
ATOM     91  F   UNL A   1      41.297  35.471  35.732  1.00  0.00    -0.206 F 
ATOM     92  C   UNL A   1      39.537  35.906  38.858  1.00  0.00     0.060 A 
BRANCH  92  93
ATOM     93  S   UNL A   1      39.386  37.107  40.197  1.00  0.00     0.124 S 
ATOM     94  O   UNL A   1      40.785  37.426  40.464  1.00  0.00    -0.237 OA
ATOM     95  O   UNL A   1      38.601  38.171  39.577  1.00  0.00    -0.237 OA
ATOM     96  O   UNL A   1      38.700  36.361  41.246  1.00  0.00    -0.744 OA
ENDBRANCH  92  93
ENDBRANCH  60  85
ENDBRANCH  34  35
ENDBRANCH  26  29
ENDBRANCH  24  25
ENDBRANCH   1  24
TORSDOF 16
ENDMDL
