MODEL 1
REMARK VINA RESULT:     -11.5      0.000      0.000
REMARK SMILES CCN(CC)S(=O)(=O)c1ccc(F)c(C(=O)N2CCC[C@H]2C(=O)NCCCNC(=O)c2ccc(-c3c4nc(c(-c5c(F)cc(S(=O)(=O)[O-])cc5F)c5ccc([nH]5)c(-c5c(F)cc(S(=O)(=O)[O-])cc5F)c5nc(c(-c6c(F)cc(S(=O)(=O)[O-])cc6F)c6ccc3[nH]6)C=C5)C=C4)cc2)c1
REMARK SMILES IDX 25 1 24 2 22 3 23 4 21 6 17 7 18 8 19 9 20 10 15 11 16 12
REMARK SMILES IDX 14 13 9 14 10 15 97 16 11 17 12 18 13 19 6 20 7 21 8 22 3 23
REMARK SMILES IDX 2 24 1 25 4 26 5 27 26 28 27 29 28 30 29 31 30 33 31 34
REMARK SMILES IDX 32 35 96 36 33 37 95 38 34 39 35 40 36 41 89 42 37 43 94 44
REMARK SMILES IDX 88 45 90 46 38 47 93 48 87 49 86 50 39 52 73 53 52 54 72 55
REMARK SMILES IDX 53 56 56 57 71 58 91 59 54 60 55 61 70 63 92 64 57 65 40 66
REMARK SMILES IDX 41 67 50 68 42 69 43 70 49 71 51 72 44 73 45 74 46 75 47 76
REMARK SMILES IDX 48 77 74 78 75 79 84 80 76 81 77 82 83 83 85 84 78 85 79 86
REMARK SMILES IDX 80 87 81 88 82 89 58 90 59 91 68 92 60 93 61 94 67 95 69 96
REMARK SMILES IDX 62 97 63 98 64 99 65 100 66 101
REMARK H PARENT 24 5 28 32 90 51 56 62
REMARK Flexibility Score: inf
ROOT
ATOM      1  C   UNL A   1      34.381  28.958  26.129  1.00  0.00     0.117 C 
ENDROOT
BRANCH   1   2
ATOM      2  N   UNL A   1      33.256  29.819  25.799  1.00  0.00    -0.354 N 
ATOM      3  C   UNL A   1      32.116  29.510  25.109  1.00  0.00     0.242 C 
ATOM      4  O   UNL A   1      31.173  30.306  25.167  1.00  0.00    -0.273 OA
ATOM      5  H   UNL A   1      33.323  30.749  26.114  1.00  0.00     0.163 HD
BRANCH   3   6
ATOM      6  C   UNL A   1      32.023  28.180  24.335  1.00  0.00     0.174 C 
ATOM      7  N   UNL A   1      30.910  27.332  24.784  1.00  0.00    -0.327 N 
ATOM      8  C   UNL A   1      29.827  27.369  23.819  1.00  0.00     0.121 C 
ATOM      9  C   UNL A   1      30.548  27.538  22.495  1.00  0.00     0.024 C 
ATOM     10  C   UNL A   1      31.721  28.452  22.844  1.00  0.00     0.037 C 
BRANCH   7  11
ATOM     11  C   UNL A   1      30.987  26.621  25.964  1.00  0.00     0.257 C 
ATOM     12  O   UNL A   1      31.027  27.181  27.058  1.00  0.00    -0.269 OA
BRANCH  11  13
ATOM     13  C   UNL A   1      31.131  25.145  25.990  1.00  0.00     0.077 A 
ATOM     14  C   UNL A   1      32.319  23.186  25.160  1.00  0.00     0.083 A 
ATOM     15  C   UNL A   1      31.378  22.352  25.771  1.00  0.00     0.025 A 
ATOM     16  C   UNL A   1      32.221  24.576  25.298  1.00  0.00     0.038 A 
ATOM     17  C   UNL A   1      30.275  22.911  26.410  1.00  0.00     0.041 A 
ATOM     18  C   UNL A   1      30.140  24.297  26.486  1.00  0.00     0.136 A 
ATOM     19  F   UNL A   1      28.998  24.770  27.001  1.00  0.00    -0.206 F 
BRANCH  14  20
ATOM     20  S   UNL A   1      33.684  22.458  24.269  1.00  0.00     0.243 S 
ATOM     21  O   UNL A   1      34.735  23.452  24.210  1.00  0.00    -0.207 OA
ATOM     22  O   UNL A   1      33.141  21.906  23.046  1.00  0.00    -0.207 OA
BRANCH  20  23
ATOM     23  N   UNL A   1      34.225  21.163  25.258  1.00  0.00    -0.198 NA
BRANCH  23  24
ATOM     24  C   UNL A   1      34.004  19.794  24.684  1.00  0.00     0.099 C 
ATOM     25  C   UNL A   1      32.921  19.013  25.402  1.00  0.00     0.022 C 
ENDBRANCH  23  24
BRANCH  23  26
ATOM     26  C   UNL A   1      35.577  21.265  25.888  1.00  0.00     0.099 C 
ATOM     27  C   UNL A   1      36.721  20.831  24.986  1.00  0.00     0.022 C 
ENDBRANCH  23  26
ENDBRANCH  20  23
ENDBRANCH  14  20
ENDBRANCH  11  13
ENDBRANCH   7  11
ENDBRANCH   3   6
ENDBRANCH   1   2
BRANCH   1  28
ATOM     28  C   UNL A   1      34.709  28.941  27.610  1.00  0.00     0.042 C 
BRANCH  28  29
ATOM     29  C   UNL A   1      35.620  30.074  28.055  1.00  0.00     0.118 C 
BRANCH  29  30
ATOM     30  N   UNL A   1      35.480  30.401  29.468  1.00  0.00    -0.352 N 
ATOM     31  C   UNL A   1      36.418  30.405  30.473  1.00  0.00     0.251 C 
ATOM     32  H   UNL A   1      34.572  30.659  29.747  1.00  0.00     0.163 HD
ATOM     33  O   UNL A   1      36.067  30.568  31.639  1.00  0.00    -0.269 OA
BRANCH  31  34
ATOM     34  C   UNL A   1      37.845  30.182  30.157  1.00  0.00     0.039 A 
ATOM     35  C   UNL A   1      38.634  29.468  31.063  1.00  0.00     0.014 A 
ATOM     36  C   UNL A   1      38.401  30.657  28.967  1.00  0.00     0.014 A 
ATOM     37  C   UNL A   1      39.953  29.150  30.732  1.00  0.00     0.010 A 
ATOM     38  C   UNL A   1      39.687  30.272  28.602  1.00  0.00     0.010 A 
ATOM     39  C   UNL A   1      40.472  29.506  29.477  1.00  0.00    -0.014 A 
BRANCH  39  40
ATOM     40  C   UNL A   1      41.820  29.064  29.041  1.00  0.00     0.031 A 
ATOM     41  C   UNL A   1      42.954  30.049  28.982  1.00  0.00     0.074 A 
ATOM     42  C   UNL A   1      42.001  27.796  28.620  1.00  0.00     0.049 A 
ATOM     43  N   UNL A   1      44.165  29.884  28.515  1.00  0.00    -0.248 NA
ATOM     44  C   UNL A   1      42.686  31.404  29.490  1.00  0.00     0.031 C 
ATOM     45  C   UNL A   1      40.968  26.756  28.598  1.00  0.00     0.029 A 
ATOM     46  N   UNL A   1      43.113  27.166  28.119  1.00  0.00    -0.354 N 
ATOM     47  C   UNL A   1      44.797  31.112  28.662  1.00  0.00     0.074 A 
ATOM     48  C   UNL A   1      43.823  32.027  29.218  1.00  0.00     0.031 C 
ATOM     49  C   UNL A   1      41.501  25.616  28.131  1.00  0.00     0.029 A 
ATOM     50  C   UNL A   1      42.897  25.851  27.777  1.00  0.00     0.049 A 
ATOM     51  H   UNL A   1      43.983  27.613  28.014  1.00  0.00     0.167 HD
ATOM     52  C   UNL A   1      46.079  31.440  28.378  1.00  0.00     0.037 A 
ATOM     53  C   UNL A   1      43.725  24.940  27.230  1.00  0.00     0.037 A 
ATOM     54  C   UNL A   1      47.051  30.518  27.853  1.00  0.00     0.049 A 
ATOM     55  C   UNL A   1      45.140  25.334  26.906  1.00  0.00     0.074 A 
ATOM     56  C   UNL A   1      48.389  30.744  27.581  1.00  0.00     0.029 A 
ATOM     57  N   UNL A   1      46.793  29.196  27.526  1.00  0.00    -0.354 N 
ATOM     58  N   UNL A   1      45.730  26.491  27.082  1.00  0.00    -0.248 NA
ATOM     59  C   UNL A   1      45.999  24.304  26.304  1.00  0.00     0.031 C 
ATOM     60  C   UNL A   1      48.931  29.570  27.053  1.00  0.00     0.029 A 
ATOM     61  C   UNL A   1      47.943  28.598  27.036  1.00  0.00     0.049 A 
ATOM     62  H   UNL A   1      45.922  28.748  27.625  1.00  0.00     0.167 HD
ATOM     63  C   UNL A   1      47.034  26.325  26.632  1.00  0.00     0.074 A 
ATOM     64  C   UNL A   1      47.150  24.953  26.181  1.00  0.00     0.031 C 
ATOM     65  C   UNL A   1      48.043  27.229  26.596  1.00  0.00     0.037 A 
BRANCH  52  66
ATOM     66  C   UNL A   1      46.516  32.853  28.645  1.00  0.00     0.058 A 
ATOM     67  C   UNL A   1      46.472  33.820  27.628  1.00  0.00     0.135 A 
ATOM     68  C   UNL A   1      47.034  33.236  29.892  1.00  0.00     0.135 A 
ATOM     69  F   UNL A   1      45.979  33.509  26.419  1.00  0.00    -0.206 F 
ATOM     70  C   UNL A   1      46.939  35.114  27.834  1.00  0.00     0.059 A 
ATOM     71  C   UNL A   1      47.486  34.531  30.128  1.00  0.00     0.059 A 
ATOM     72  F   UNL A   1      47.077  32.355  30.904  1.00  0.00    -0.206 F 
ATOM     73  C   UNL A   1      47.447  35.459  29.088  1.00  0.00     0.060 A 
BRANCH  73  74
ATOM     74  S   UNL A   1      48.021  37.151  29.352  1.00  0.00     0.124 S 
ATOM     75  O   UNL A   1      49.002  36.972  30.415  1.00  0.00    -0.237 OA
ATOM     76  O   UNL A   1      48.557  37.502  28.040  1.00  0.00    -0.237 OA
ATOM     77  O   UNL A   1      46.804  37.864  29.731  1.00  0.00    -0.744 OA
ENDBRANCH  73  74
ENDBRANCH  52  66
BRANCH  53  78
ATOM     78  C   UNL A   1      43.234  23.561  26.977  1.00  0.00     0.058 A 
ATOM     79  C   UNL A   1      43.126  22.620  28.013  1.00  0.00     0.135 A 
ATOM     80  C   UNL A   1      42.911  23.143  25.677  1.00  0.00     0.135 A 
ATOM     81  F   UNL A   1      43.433  22.968  29.273  1.00  0.00    -0.206 F 
ATOM     82  C   UNL A   1      42.742  21.307  27.766  1.00  0.00     0.059 A 
ATOM     83  C   UNL A   1      42.503  21.839  25.408  1.00  0.00     0.059 A 
ATOM     84  F   UNL A   1      42.987  24.010  24.657  1.00  0.00    -0.206 F 
ATOM     85  C   UNL A   1      42.441  20.923  26.459  1.00  0.00     0.060 A 
BRANCH  85  86
ATOM     86  S   UNL A   1      41.973  19.205  26.153  1.00  0.00     0.124 S 
ATOM     87  O   UNL A   1      42.774  18.892  24.975  1.00  0.00    -0.237 OA
ATOM     88  O   UNL A   1      42.383  18.551  27.392  1.00  0.00    -0.237 OA
ATOM     89  O   UNL A   1      40.533  19.281  25.934  1.00  0.00    -0.744 OA
ENDBRANCH  85  86
ENDBRANCH  53  78
BRANCH  65  90
ATOM     90  C   UNL A   1      49.373  26.775  26.067  1.00  0.00     0.058 A 
ATOM     91  C   UNL A   1      50.296  26.141  26.914  1.00  0.00     0.135 A 
ATOM     92  C   UNL A   1      49.773  27.063  24.753  1.00  0.00     0.135 A 
ATOM     93  F   UNL A   1      49.961  25.845  28.179  1.00  0.00    -0.206 F 
ATOM     94  C   UNL A   1      51.582  25.834  26.485  1.00  0.00     0.059 A 
ATOM     95  C   UNL A   1      51.049  26.745  24.295  1.00  0.00     0.059 A 
ATOM     96  F   UNL A   1      48.921  27.657  23.903  1.00  0.00    -0.206 F 
ATOM     97  C   UNL A   1      51.953  26.150  25.176  1.00  0.00     0.060 A 
BRANCH  97  98
ATOM     98  S   UNL A   1      53.634  25.766  24.642  1.00  0.00     0.124 S 
ATOM     99  O   UNL A   1      54.387  26.885  25.197  1.00  0.00    -0.237 OA
ATOM    100  O   UNL A   1      53.869  24.469  25.270  1.00  0.00    -0.237 OA
ATOM    101  O   UNL A   1      53.529  25.739  23.186  1.00  0.00    -0.744 OA
ENDBRANCH  97  98
ENDBRANCH  65  90
ENDBRANCH  39  40
ENDBRANCH  31  34
ENDBRANCH  29  30
ENDBRANCH  28  29
ENDBRANCH   1  28
TORSDOF 19
ENDMDL
MODEL 2
REMARK VINA RESULT:     -11.3      2.721      3.439
REMARK SMILES CCN(CC)S(=O)(=O)c1ccc(F)c(C(=O)N2CCC[C@H]2C(=O)NCCCNC(=O)c2ccc(-c3c4nc(c(-c5c(F)cc(S(=O)(=O)[O-])cc5F)c5ccc([nH]5)c(-c5c(F)cc(S(=O)(=O)[O-])cc5F)c5nc(c(-c6c(F)cc(S(=O)(=O)[O-])cc6F)c6ccc3[nH]6)C=C5)C=C4)cc2)c1
REMARK SMILES IDX 25 1 24 2 22 3 23 4 21 6 17 7 18 8 19 9 20 10 15 11 16 12
REMARK SMILES IDX 14 13 9 14 10 15 97 16 11 17 12 18 13 19 6 20 7 21 8 22 3 23
REMARK SMILES IDX 2 24 1 25 4 26 5 27 26 28 27 29 28 30 29 31 30 33 31 34
REMARK SMILES IDX 32 35 96 36 33 37 95 38 34 39 35 40 36 41 89 42 37 43 94 44
REMARK SMILES IDX 88 45 90 46 38 47 93 48 87 49 86 50 39 52 73 53 52 54 72 55
REMARK SMILES IDX 53 56 56 57 71 58 91 59 54 60 55 61 70 63 92 64 57 65 40 66
REMARK SMILES IDX 41 67 50 68 42 69 43 70 49 71 51 72 44 73 45 74 46 75 47 76
REMARK SMILES IDX 48 77 74 78 75 79 84 80 76 81 77 82 83 83 85 84 78 85 79 86
REMARK SMILES IDX 80 87 81 88 82 89 58 90 59 91 68 92 60 93 61 94 67 95 69 96
REMARK SMILES IDX 62 97 63 98 64 99 65 100 66 101
REMARK H PARENT 24 5 28 32 90 51 56 62
REMARK Flexibility Score: inf
ROOT
ATOM      1  C   UNL A   1      33.487  28.592  24.715  1.00  0.00     0.117 C 
ENDROOT
BRANCH   1   2
ATOM      2  N   UNL A   1      33.902  27.776  23.585  1.00  0.00    -0.354 N 
ATOM      3  C   UNL A   1      33.158  27.351  22.519  1.00  0.00     0.242 C 
ATOM      4  O   UNL A   1      33.760  26.894  21.541  1.00  0.00    -0.273 OA
ATOM      5  H   UNL A   1      34.844  27.493  23.587  1.00  0.00     0.163 HD
BRANCH   3   6
ATOM      6  C   UNL A   1      31.623  27.494  22.547  1.00  0.00     0.174 C 
ATOM      7  N   UNL A   1      31.022  26.974  23.782  1.00  0.00    -0.327 N 
ATOM      8  C   UNL A   1      30.618  28.067  24.646  1.00  0.00     0.121 C 
ATOM      9  C   UNL A   1      30.225  29.156  23.667  1.00  0.00     0.024 C 
ATOM     10  C   UNL A   1      31.227  28.987  22.526  1.00  0.00     0.037 C 
BRANCH   7  11
ATOM     11  C   UNL A   1      30.883  25.616  23.991  1.00  0.00     0.257 C 
ATOM     12  O   UNL A   1      30.041  24.950  23.393  1.00  0.00    -0.269 OA
BRANCH  11  13
ATOM     13  C   UNL A   1      31.666  24.892  25.022  1.00  0.00     0.077 A 
ATOM     14  C   UNL A   1      33.724  23.715  25.584  1.00  0.00     0.083 A 
ATOM     15  C   UNL A   1      33.167  23.315  26.803  1.00  0.00     0.025 A 
ATOM     16  C   UNL A   1      32.993  24.531  24.711  1.00  0.00     0.038 A 
ATOM     17  C   UNL A   1      31.840  23.627  27.089  1.00  0.00     0.041 A 
ATOM     18  C   UNL A   1      31.090  24.380  26.186  1.00  0.00     0.136 A 
ATOM     19  F   UNL A   1      29.789  24.538  26.460  1.00  0.00    -0.206 F 
BRANCH  14  20
ATOM     20  S   UNL A   1      35.398  23.237  25.190  1.00  0.00     0.243 S 
ATOM     21  O   UNL A   1      36.135  23.194  26.436  1.00  0.00    -0.207 OA
ATOM     22  O   UNL A   1      35.840  24.102  24.117  1.00  0.00    -0.207 OA
BRANCH  20  23
ATOM     23  N   UNL A   1      35.275  21.635  24.583  1.00  0.00    -0.198 NA
BRANCH  23  24
ATOM     24  C   UNL A   1      36.094  20.616  25.318  1.00  0.00     0.099 C 
ATOM     25  C   UNL A   1      37.471  20.411  24.718  1.00  0.00     0.022 C 
ENDBRANCH  23  24
BRANCH  23  26
ATOM     26  C   UNL A   1      33.916  21.098  24.265  1.00  0.00     0.099 C 
ATOM     27  C   UNL A   1      33.448  19.990  25.196  1.00  0.00     0.022 C 
ENDBRANCH  23  26
ENDBRANCH  20  23
ENDBRANCH  14  20
ENDBRANCH  11  13
ENDBRANCH   7  11
ENDBRANCH   3   6
ENDBRANCH   1   2
BRANCH   1  28
ATOM     28  C   UNL A   1      34.260  28.294  25.986  1.00  0.00     0.042 C 
BRANCH  28  29
ATOM     29  C   UNL A   1      33.488  28.589  27.263  1.00  0.00     0.118 C 
BRANCH  29  30
ATOM     30  N   UNL A   1      33.528  29.995  27.644  1.00  0.00    -0.352 N 
ATOM     31  C   UNL A   1      34.535  30.726  28.229  1.00  0.00     0.251 C 
ATOM     32  H   UNL A   1      32.705  30.501  27.454  1.00  0.00     0.163 HD
ATOM     33  O   UNL A   1      34.319  31.873  28.610  1.00  0.00    -0.269 OA
BRANCH  31  34
ATOM     34  C   UNL A   1      35.870  30.121  28.429  1.00  0.00     0.039 A 
ATOM     35  C   UNL A   1      36.793  30.161  27.380  1.00  0.00     0.014 A 
ATOM     36  C   UNL A   1      36.219  29.535  29.648  1.00  0.00     0.014 A 
ATOM     37  C   UNL A   1      38.094  29.697  27.586  1.00  0.00     0.010 A 
ATOM     38  C   UNL A   1      37.535  29.148  29.877  1.00  0.00     0.010 A 
ATOM     39  C   UNL A   1      38.488  29.235  28.852  1.00  0.00    -0.014 A 
BRANCH  39  40
ATOM     40  C   UNL A   1      39.897  28.866  29.139  1.00  0.00     0.031 A 
ATOM     41  C   UNL A   1      40.834  29.875  29.741  1.00  0.00     0.074 A 
ATOM     42  C   UNL A   1      40.350  27.648  28.782  1.00  0.00     0.049 A 
ATOM     43  N   UNL A   1      42.121  29.780  29.952  1.00  0.00    -0.248 NA
ATOM     44  C   UNL A   1      40.254  31.169  30.135  1.00  0.00     0.031 C 
ATOM     45  C   UNL A   1      39.545  26.594  28.158  1.00  0.00     0.029 A 
ATOM     46  N   UNL A   1      41.602  27.091  28.879  1.00  0.00    -0.354 N 
ATOM     47  C   UNL A   1      42.507  31.001  30.489  1.00  0.00     0.074 A 
ATOM     48  C   UNL A   1      41.327  31.838  30.530  1.00  0.00     0.031 C 
ATOM     49  C   UNL A   1      40.316  25.514  27.951  1.00  0.00     0.029 A 
ATOM     50  C   UNL A   1      41.678  25.811  28.382  1.00  0.00     0.049 A 
ATOM     51  H   UNL A   1      42.372  27.565  29.267  1.00  0.00     0.167 HD
ATOM     52  C   UNL A   1      43.729  31.382  30.928  1.00  0.00     0.037 A 
ATOM     53  C   UNL A   1      42.729  24.974  28.273  1.00  0.00     0.037 A 
ATOM     54  C   UNL A   1      44.892  30.534  30.912  1.00  0.00     0.049 A 
ATOM     55  C   UNL A   1      44.081  25.426  28.750  1.00  0.00     0.074 A 
ATOM     56  C   UNL A   1      46.164  30.813  31.382  1.00  0.00     0.029 A 
ATOM     57  N   UNL A   1      44.926  29.244  30.405  1.00  0.00    -0.354 N 
ATOM     58  N   UNL A   1      44.421  26.572  29.287  1.00  0.00    -0.248 NA
ATOM     59  C   UNL A   1      45.193  24.476  28.603  1.00  0.00     0.031 C 
ATOM     60  C   UNL A   1      46.976  29.705  31.126  1.00  0.00     0.029 A 
ATOM     61  C   UNL A   1      46.202  28.719  30.534  1.00  0.00     0.049 A 
ATOM     62  H   UNL A   1      44.158  28.771  30.011  1.00  0.00     0.167 HD
ATOM     63  C   UNL A   1      45.780  26.477  29.559  1.00  0.00     0.074 A 
ATOM     64  C   UNL A   1      46.201  25.157  29.135  1.00  0.00     0.031 C 
ATOM     65  C   UNL A   1      46.603  27.401  30.110  1.00  0.00     0.037 A 
BRANCH  52  66
ATOM     66  C   UNL A   1      43.874  32.771  31.482  1.00  0.00     0.058 A 
ATOM     67  C   UNL A   1      44.209  33.845  30.642  1.00  0.00     0.135 A 
ATOM     68  C   UNL A   1      43.739  33.030  32.855  1.00  0.00     0.135 A 
ATOM     69  F   UNL A   1      44.343  33.654  29.319  1.00  0.00    -0.206 F 
ATOM     70  C   UNL A   1      44.418  35.124  31.145  1.00  0.00     0.059 A 
ATOM     71  C   UNL A   1      43.921  34.307  33.378  1.00  0.00     0.059 A 
ATOM     72  F   UNL A   1      43.398  32.042  33.697  1.00  0.00    -0.206 F 
ATOM     73  C   UNL A   1      44.275  35.345  32.516  1.00  0.00     0.060 A 
BRANCH  73  74
ATOM     74  S   UNL A   1      44.518  37.017  33.153  1.00  0.00     0.124 S 
ATOM     75  O   UNL A   1      45.231  37.656  32.053  1.00  0.00    -0.237 OA
ATOM     76  O   UNL A   1      43.145  37.465  33.371  1.00  0.00    -0.237 OA
ATOM     77  O   UNL A   1      45.296  36.804  34.370  1.00  0.00    -0.744 OA
ENDBRANCH  73  74
ENDBRANCH  52  66
BRANCH  53  78
ATOM     78  C   UNL A   1      42.528  23.615  27.706  1.00  0.00     0.058 A 
ATOM     79  C   UNL A   1      42.370  22.492  28.533  1.00  0.00     0.135 A 
ATOM     80  C   UNL A   1      42.542  23.409  26.319  1.00  0.00     0.135 A 
ATOM     81  F   UNL A   1      42.360  22.635  29.868  1.00  0.00    -0.206 F 
ATOM     82  C   UNL A   1      42.262  21.210  28.006  1.00  0.00     0.059 A 
ATOM     83  C   UNL A   1      42.413  22.137  25.766  1.00  0.00     0.059 A 
ATOM     84  F   UNL A   1      42.678  24.454  25.488  1.00  0.00    -0.206 F 
ATOM     85  C   UNL A   1      42.293  21.042  26.621  1.00  0.00     0.060 A 
BRANCH  85  86
ATOM     86  S   UNL A   1      42.180  19.366  25.957  1.00  0.00     0.124 S 
ATOM     87  O   UNL A   1      43.045  19.459  24.785  1.00  0.00    -0.237 OA
ATOM     88  O   UNL A   1      42.693  18.563  27.062  1.00  0.00    -0.237 OA
ATOM     89  O   UNL A   1      40.757  19.208  25.678  1.00  0.00    -0.744 OA
ENDBRANCH  85  86
ENDBRANCH  53  78
BRANCH  65  90
ATOM     90  C   UNL A   1      48.044  27.027  30.308  1.00  0.00     0.058 A 
ATOM     91  C   UNL A   1      48.492  26.557  31.553  1.00  0.00     0.135 A 
ATOM     92  C   UNL A   1      48.998  27.236  29.301  1.00  0.00     0.135 A 
ATOM     93  F   UNL A   1      47.619  26.342  32.549  1.00  0.00    -0.206 F 
ATOM     94  C   UNL A   1      49.842  26.333  31.802  1.00  0.00     0.059 A 
ATOM     95  C   UNL A   1      50.352  26.999  29.520  1.00  0.00     0.059 A 
ATOM     96  F   UNL A   1      48.616  27.673  28.090  1.00  0.00    -0.206 F 
ATOM     97  C   UNL A   1      50.766  26.568  30.781  1.00  0.00     0.060 A 
BRANCH  97  98
ATOM     98  S   UNL A   1      52.516  26.295  31.127  1.00  0.00     0.124 S 
ATOM     99  O   UNL A   1      53.092  26.316  29.787  1.00  0.00    -0.237 OA
ATOM    100  O   UNL A   1      52.845  27.436  31.977  1.00  0.00    -0.237 OA
ATOM    101  O   UNL A   1      52.531  24.999  31.797  1.00  0.00    -0.744 OA
ENDBRANCH  97  98
ENDBRANCH  65  90
ENDBRANCH  39  40
ENDBRANCH  31  34
ENDBRANCH  29  30
ENDBRANCH  28  29
ENDBRANCH   1  28
TORSDOF 19
ENDMDL
MODEL 3
REMARK VINA RESULT:     -11.2      1.203      8.132
REMARK SMILES CCN(CC)S(=O)(=O)c1ccc(F)c(C(=O)N2CCC[C@H]2C(=O)NCCCNC(=O)c2ccc(-c3c4nc(c(-c5c(F)cc(S(=O)(=O)[O-])cc5F)c5ccc([nH]5)c(-c5c(F)cc(S(=O)(=O)[O-])cc5F)c5nc(c(-c6c(F)cc(S(=O)(=O)[O-])cc6F)c6ccc3[nH]6)C=C5)C=C4)cc2)c1
REMARK SMILES IDX 25 1 24 2 22 3 23 4 21 6 17 7 18 8 19 9 20 10 15 11 16 12
REMARK SMILES IDX 14 13 9 14 10 15 97 16 11 17 12 18 13 19 6 20 7 21 8 22 3 23
REMARK SMILES IDX 2 24 1 25 4 26 5 27 26 28 27 29 28 30 29 31 30 33 31 34
REMARK SMILES IDX 32 35 96 36 33 37 95 38 34 39 35 40 36 41 89 42 37 43 94 44
REMARK SMILES IDX 88 45 90 46 38 47 93 48 87 49 86 50 39 52 73 53 52 54 72 55
REMARK SMILES IDX 53 56 56 57 71 58 91 59 54 60 55 61 70 63 92 64 57 65 40 66
REMARK SMILES IDX 41 67 50 68 42 69 43 70 49 71 51 72 44 73 45 74 46 75 47 76
REMARK SMILES IDX 48 77 74 78 75 79 84 80 76 81 77 82 83 83 85 84 78 85 79 86
REMARK SMILES IDX 80 87 81 88 82 89 58 90 59 91 68 92 60 93 61 94 67 95 69 96
REMARK SMILES IDX 62 97 63 98 64 99 65 100 66 101
REMARK H PARENT 24 5 28 32 90 51 56 62
REMARK Flexibility Score: inf
ROOT
ATOM      1  C   UNL A   1      34.465  29.676  27.461  1.00  0.00     0.117 C 
ENDROOT
BRANCH   1   2
ATOM      2  N   UNL A   1      33.153  29.211  27.882  1.00  0.00    -0.354 N 
ATOM      3  C   UNL A   1      32.298  28.362  27.235  1.00  0.00     0.242 C 
ATOM      4  O   UNL A   1      31.357  27.888  27.879  1.00  0.00    -0.273 OA
ATOM      5  H   UNL A   1      32.838  29.551  28.750  1.00  0.00     0.163 HD
BRANCH   3   6
ATOM      6  C   UNL A   1      32.555  27.990  25.761  1.00  0.00     0.174 C 
ATOM      7  N   UNL A   1      31.635  26.959  25.262  1.00  0.00    -0.327 N 
ATOM      8  C   UNL A   1      30.634  27.552  24.395  1.00  0.00     0.121 C 
ATOM      9  C   UNL A   1      31.380  28.698  23.738  1.00  0.00     0.024 C 
ATOM     10  C   UNL A   1      32.294  29.210  24.850  1.00  0.00     0.037 C 
BRANCH   7  11
ATOM     11  C   UNL A   1      31.795  25.632  25.608  1.00  0.00     0.257 C 
ATOM     12  O   UNL A   1      31.521  25.217  26.733  1.00  0.00    -0.269 OA
BRANCH  11  13
ATOM     13  C   UNL A   1      32.405  24.642  24.686  1.00  0.00     0.077 A 
ATOM     14  C   UNL A   1      34.438  23.557  23.895  1.00  0.00     0.083 A 
ATOM     15  C   UNL A   1      33.720  22.964  22.853  1.00  0.00     0.025 A 
ATOM     16  C   UNL A   1      33.780  24.364  24.832  1.00  0.00     0.038 A 
ATOM     17  C   UNL A   1      32.374  23.277  22.678  1.00  0.00     0.041 A 
ATOM     18  C   UNL A   1      31.736  24.137  23.570  1.00  0.00     0.136 A 
ATOM     19  F   UNL A   1      30.480  24.498  23.275  1.00  0.00    -0.206 F 
BRANCH  14  20
ATOM     20  S   UNL A   1      36.182  23.216  24.060  1.00  0.00     0.243 S 
ATOM     21  O   UNL A   1      36.673  24.019  25.162  1.00  0.00    -0.207 OA
ATOM     22  O   UNL A   1      36.765  23.361  22.743  1.00  0.00    -0.207 OA
BRANCH  20  23
ATOM     23  N   UNL A   1      36.274  21.563  24.518  1.00  0.00    -0.198 NA
BRANCH  23  24
ATOM     24  C   UNL A   1      37.660  21.060  24.794  1.00  0.00     0.099 C 
ATOM     25  C   UNL A   1      37.725  19.556  24.971  1.00  0.00     0.022 C 
ENDBRANCH  23  24
BRANCH  23  26
ATOM     26  C   UNL A   1      35.308  21.054  25.539  1.00  0.00     0.099 C 
ATOM     27  C   UNL A   1      34.237  20.130  24.979  1.00  0.00     0.022 C 
ENDBRANCH  23  26
ENDBRANCH  20  23
ENDBRANCH  14  20
ENDBRANCH  11  13
ENDBRANCH   7  11
ENDBRANCH   3   6
ENDBRANCH   1   2
BRANCH   1  28
ATOM     28  C   UNL A   1      34.618  31.184  27.534  1.00  0.00     0.042 C 
BRANCH  28  29
ATOM     29  C   UNL A   1      35.705  31.649  28.490  1.00  0.00     0.118 C 
BRANCH  29  30
ATOM     30  N   UNL A   1      35.628  31.011  29.799  1.00  0.00    -0.352 N 
ATOM     31  C   UNL A   1      36.565  30.270  30.478  1.00  0.00     0.251 C 
ATOM     32  H   UNL A   1      34.772  31.130  30.270  1.00  0.00     0.163 HD
ATOM     33  O   UNL A   1      36.253  29.688  31.514  1.00  0.00    -0.269 OA
BRANCH  31  34
ATOM     34  C   UNL A   1      37.939  30.144  29.947  1.00  0.00     0.039 A 
ATOM     35  C   UNL A   1      39.016  30.236  30.832  1.00  0.00     0.014 A 
ATOM     36  C   UNL A   1      38.167  29.918  28.587  1.00  0.00     0.014 A 
ATOM     37  C   UNL A   1      40.314  30.009  30.369  1.00  0.00     0.010 A 
ATOM     38  C   UNL A   1      39.448  29.612  28.142  1.00  0.00     0.010 A 
ATOM     39  C   UNL A   1      40.533  29.644  29.031  1.00  0.00    -0.014 A 
BRANCH  39  40
ATOM     40  C   UNL A   1      41.882  29.261  28.542  1.00  0.00     0.031 A 
ATOM     41  C   UNL A   1      42.175  27.833  28.176  1.00  0.00     0.074 A 
ATOM     42  C   UNL A   1      42.862  30.186  28.506  1.00  0.00     0.049 A 
ATOM     43  N   UNL A   1      43.315  27.285  27.846  1.00  0.00    -0.248 NA
ATOM     44  C   UNL A   1      41.043  26.893  28.208  1.00  0.00     0.031 C 
ATOM     45  C   UNL A   1      42.710  31.597  28.870  1.00  0.00     0.029 A 
ATOM     46  N   UNL A   1      44.186  30.078  28.159  1.00  0.00    -0.354 N 
ATOM     47  C   UNL A   1      43.043  25.939  27.645  1.00  0.00     0.074 A 
ATOM     48  C   UNL A   1      41.639  25.741  27.933  1.00  0.00     0.031 C 
ATOM     49  C   UNL A   1      43.885  32.225  28.705  1.00  0.00     0.029 A 
ATOM     50  C   UNL A   1      44.886  31.256  28.269  1.00  0.00     0.049 A 
ATOM     51  H   UNL A   1      44.597  29.234  27.860  1.00  0.00     0.167 HD
ATOM     52  C   UNL A   1      43.884  24.960  27.235  1.00  0.00     0.037 A 
ATOM     53  C   UNL A   1      46.189  31.526  28.055  1.00  0.00     0.037 A 
ATOM     54  C   UNL A   1      45.273  25.168  26.922  1.00  0.00     0.049 A 
ATOM     55  C   UNL A   1      47.107  30.419  27.620  1.00  0.00     0.074 A 
ATOM     56  C   UNL A   1      46.193  24.248  26.450  1.00  0.00     0.029 A 
ATOM     57  N   UNL A   1      45.940  26.377  27.042  1.00  0.00    -0.354 N 
ATOM     58  N   UNL A   1      46.825  29.157  27.401  1.00  0.00    -0.248 NA
ATOM     59  C   UNL A   1      48.519  30.766  27.406  1.00  0.00     0.031 C 
ATOM     60  C   UNL A   1      47.427  24.892  26.321  1.00  0.00     0.029 A 
ATOM     61  C   UNL A   1      47.266  26.223  26.671  1.00  0.00     0.049 A 
ATOM     62  H   UNL A   1      45.533  27.220  27.346  1.00  0.00     0.167 HD
ATOM     63  C   UNL A   1      48.018  28.564  27.007  1.00  0.00     0.074 A 
ATOM     64  C   UNL A   1      49.025  29.605  27.010  1.00  0.00     0.031 C 
ATOM     65  C   UNL A   1      48.255  27.272  26.675  1.00  0.00     0.037 A 
BRANCH  52  66
ATOM     66  C   UNL A   1      43.324  23.573  27.084  1.00  0.00     0.058 A 
ATOM     67  C   UNL A   1      43.173  22.737  28.202  1.00  0.00     0.135 A 
ATOM     68  C   UNL A   1      42.992  23.051  25.825  1.00  0.00     0.135 A 
ATOM     69  F   UNL A   1      43.469  23.188  29.431  1.00  0.00    -0.206 F 
ATOM     70  C   UNL A   1      42.725  21.426  28.074  1.00  0.00     0.059 A 
ATOM     71  C   UNL A   1      42.520  21.750  25.675  1.00  0.00     0.059 A 
ATOM     72  F   UNL A   1      43.097  23.817  24.727  1.00  0.00    -0.206 F 
ATOM     73  C   UNL A   1      42.404  20.941  26.805  1.00  0.00     0.060 A 
BRANCH  73  74
ATOM     74  S   UNL A   1      41.793  19.248  26.656  1.00  0.00     0.124 S 
ATOM     75  O   UNL A   1      41.279  19.234  25.292  1.00  0.00    -0.237 OA
ATOM     76  O   UNL A   1      43.002  18.464  26.891  1.00  0.00    -0.237 OA
ATOM     77  O   UNL A   1      40.786  19.159  27.711  1.00  0.00    -0.744 OA
ENDBRANCH  73  74
ENDBRANCH  52  66
BRANCH  53  78
ATOM     78  C   UNL A   1      46.689  32.915  28.232  1.00  0.00     0.058 A 
ATOM     79  C   UNL A   1      47.183  33.364  29.467  1.00  0.00     0.135 A 
ATOM     80  C   UNL A   1      46.633  33.836  27.175  1.00  0.00     0.135 A 
ATOM     81  F   UNL A   1      47.248  32.523  30.511  1.00  0.00    -0.206 F 
ATOM     82  C   UNL A   1      47.578  34.683  29.656  1.00  0.00     0.059 A 
ATOM     83  C   UNL A   1      47.044  35.157  27.334  1.00  0.00     0.059 A 
ATOM     84  F   UNL A   1      46.180  33.449  25.973  1.00  0.00    -0.206 F 
ATOM     85  C   UNL A   1      47.496  35.575  28.585  1.00  0.00     0.060 A 
BRANCH  85  86
ATOM     86  S   UNL A   1      47.985  37.292  28.859  1.00  0.00     0.124 S 
ATOM     87  O   UNL A   1      49.341  37.297  28.317  1.00  0.00    -0.237 OA
ATOM     88  O   UNL A   1      46.989  38.022  28.082  1.00  0.00    -0.237 OA
ATOM     89  O   UNL A   1      47.885  37.446  30.306  1.00  0.00    -0.744 OA
ENDBRANCH  85  86
ENDBRANCH  53  78
BRANCH  65  90
ATOM     90  C   UNL A   1      49.652  26.898  26.267  1.00  0.00     0.058 A 
ATOM     91  C   UNL A   1      50.616  26.586  27.238  1.00  0.00     0.135 A 
ATOM     92  C   UNL A   1      50.060  26.954  24.926  1.00  0.00     0.135 A 
ATOM     93  F   UNL A   1      50.276  26.522  28.534  1.00  0.00    -0.206 F 
ATOM     94  C   UNL A   1      51.947  26.371  26.896  1.00  0.00     0.059 A 
ATOM     95  C   UNL A   1      51.382  26.721  24.558  1.00  0.00     0.059 A 
ATOM     96  F   UNL A   1      49.171  27.236  23.960  1.00  0.00    -0.206 F 
ATOM     97  C   UNL A   1      52.322  26.451  25.553  1.00  0.00     0.060 A 
BRANCH  97  98
ATOM     98  S   UNL A   1      54.057  26.191  25.128  1.00  0.00     0.124 S 
ATOM     99  O   UNL A   1      54.723  26.501  26.388  1.00  0.00    -0.237 OA
ATOM    100  O   UNL A   1      54.071  24.786  24.731  1.00  0.00    -0.237 OA
ATOM    101  O   UNL A   1      54.286  27.142  24.045  1.00  0.00    -0.744 OA
ENDBRANCH  97  98
ENDBRANCH  65  90
ENDBRANCH  39  40
ENDBRANCH  31  34
ENDBRANCH  29  30
ENDBRANCH  28  29
ENDBRANCH   1  28
TORSDOF 19
ENDMDL
