MODEL 1
REMARK VINA RESULT:      -9.9      0.000      0.000
REMARK SMILES CC(C)(C)c1cc2c(cc1Cl)C=C(C(=O)NCCCNC(=O)c1ccc(-c3c4nc(c(-c5c(F)cc(S(=O)(=O)[O-])cc5F)c5ccc([nH]5)c(-c5c(F)cc(S(=O)(=O)[O-])cc5F)c5nc(c(-c6c(F)cc(S(=O)(=O)[O-])cc6F)c6ccc3[nH]6)C=C5)C=C4)cc1)[C@@H](C(F)(F)F)O2
REMARK SMILES IDX 19 1 18 2 17 3 16 4 14 5 15 6 13 8 5 9 6 10 10 11 7 12 9 13
REMARK SMILES IDX 11 14 8 15 94 16 12 17 89 18 2 19 1 20 3 21 4 22 90 23 91 24
REMARK SMILES IDX 92 25 93 26 20 27 21 28 22 30 23 31 24 32 88 33 25 34 87 35
REMARK SMILES IDX 26 36 27 37 28 38 81 39 29 40 86 41 80 42 82 43 30 44 85 45
REMARK SMILES IDX 79 46 78 47 31 49 65 50 44 51 64 52 45 53 48 54 63 55 83 56
REMARK SMILES IDX 46 57 47 58 62 60 84 61 49 62 32 63 33 64 42 65 34 66 35 67
REMARK SMILES IDX 41 68 43 69 36 70 37 71 38 72 39 73 40 74 66 75 67 76 76 77
REMARK SMILES IDX 68 78 69 79 75 80 77 81 70 82 71 83 72 84 73 85 74 86 50 87
REMARK SMILES IDX 51 88 60 89 52 90 53 91 59 92 61 93 54 94 55 95 56 96 57 97
REMARK SMILES IDX 58 98
REMARK H PARENT 16 7 20 29 82 48 48 59
REMARK Flexibility Score: inf
ROOT
ATOM      1  C   UNL A   1      34.827  32.727  29.196  1.00  0.00     0.118 C 
ENDROOT
BRANCH   1   2
ATOM      2  C   UNL A   1      34.799  32.706  30.719  1.00  0.00     0.042 C 
BRANCH   2   3
ATOM      3  C   UNL A   1      35.327  33.997  31.325  1.00  0.00     0.118 C 
BRANCH   3   4
ATOM      4  N   UNL A   1      35.134  34.043  32.768  1.00  0.00    -0.352 N 
ATOM      5  C   UNL A   1      35.774  33.594  33.871  1.00  0.00     0.251 C 
ATOM      6  O   UNL A   1      35.227  33.869  34.944  1.00  0.00    -0.270 OA
ATOM      7  H   UNL A   1      34.315  34.535  33.004  1.00  0.00     0.163 HD
BRANCH   5   8
ATOM      8  C   UNL A   1      37.055  32.830  33.872  1.00  0.00     0.067 C 
ATOM      9  C   UNL A   1      40.636  29.267  33.296  1.00  0.00    -0.020 A 
ATOM     10  C   UNL A   1      40.602  30.621  33.697  1.00  0.00     0.053 A 
ATOM     11  C   UNL A   1      39.413  28.735  32.819  1.00  0.00     0.045 A 
ATOM     12  C   UNL A   1      39.428  31.374  33.679  1.00  0.00     0.128 A 
ATOM     13  C   UNL A   1      38.234  29.505  32.796  1.00  0.00     0.032 A 
ATOM     14  Cl  UNL A   1      39.229  27.131  32.194  1.00  0.00    -0.084 Cl
ATOM     15  C   UNL A   1      38.234  30.825  33.238  1.00  0.00     0.019 A 
ATOM     16  O   UNL A   1      39.533  32.674  34.080  1.00  0.00    -0.475 OA
ATOM     17  C   UNL A   1      37.032  31.648  33.227  1.00  0.00     0.025 C 
ATOM     18  C   UNL A   1      38.307  33.282  34.571  1.00  0.00     0.314 C 
BRANCH   9  19
ATOM     19  C   UNL A   1      41.971  28.487  33.384  1.00  0.00    -0.012 C 
ATOM     20  C   UNL A   1      42.388  27.819  32.041  1.00  0.00     0.016 C 
ATOM     21  C   UNL A   1      41.844  27.342  34.408  1.00  0.00     0.016 C 
ATOM     22  C   UNL A   1      43.156  29.411  33.747  1.00  0.00     0.016 C 
ENDBRANCH   9  19
BRANCH  18  23
ATOM     23  C   UNL A   1      38.235  33.098  36.100  1.00  0.00     0.429 C 
ATOM     24  F   UNL A   1      37.501  32.001  36.412  1.00  0.00    -0.167 F 
ATOM     25  F   UNL A   1      39.453  32.918  36.664  1.00  0.00    -0.167 F 
ATOM     26  F   UNL A   1      37.669  34.154  36.728  1.00  0.00    -0.167 F 
ENDBRANCH  18  23
ENDBRANCH   5   8
ENDBRANCH   3   4
ENDBRANCH   2   3
ENDBRANCH   1   2
BRANCH   1  27
ATOM     27  N   UNL A   1      34.022  31.653  28.616  1.00  0.00    -0.352 N 
ATOM     28  C   UNL A   1      34.403  30.450  28.072  1.00  0.00     0.251 C 
ATOM     29  H   UNL A   1      33.051  31.819  28.614  1.00  0.00     0.163 HD
ATOM     30  O   UNL A   1      33.592  29.791  27.427  1.00  0.00    -0.269 OA
BRANCH  28  31
ATOM     31  C   UNL A   1      35.786  29.963  28.250  1.00  0.00     0.039 A 
ATOM     32  C   UNL A   1      36.173  29.385  29.458  1.00  0.00     0.014 A 
ATOM     33  C   UNL A   1      36.707  30.091  27.207  1.00  0.00     0.014 A 
ATOM     34  C   UNL A   1      37.515  29.126  29.695  1.00  0.00     0.010 A 
ATOM     35  C   UNL A   1      38.041  29.723  27.411  1.00  0.00     0.010 A 
ATOM     36  C   UNL A   1      38.466  29.288  28.676  1.00  0.00    -0.014 A 
BRANCH  36  37
ATOM     37  C   UNL A   1      39.894  28.996  28.973  1.00  0.00     0.031 A 
ATOM     38  C   UNL A   1      40.505  27.673  28.593  1.00  0.00     0.074 A 
ATOM     39  C   UNL A   1      40.657  29.966  29.515  1.00  0.00     0.049 A 
ATOM     40  N   UNL A   1      41.736  27.261  28.756  1.00  0.00    -0.248 NA
ATOM     41  C   UNL A   1      39.625  26.680  27.955  1.00  0.00     0.031 C 
ATOM     42  C   UNL A   1      40.175  31.291  29.916  1.00  0.00     0.029 A 
ATOM     43  N   UNL A   1      41.999  30.008  29.788  1.00  0.00    -0.354 N 
ATOM     44  C   UNL A   1      41.773  25.960  28.268  1.00  0.00     0.074 A 
ATOM     45  C   UNL A   1      40.436  25.639  27.821  1.00  0.00     0.031 C 
ATOM     46  C   UNL A   1      41.215  32.037  30.315  1.00  0.00     0.029 A 
ATOM     47  C   UNL A   1      42.424  31.224  30.270  1.00  0.00     0.049 A 
ATOM     48  H   UNL A   1      42.602  29.242  29.653  1.00  0.00     0.167 HD
ATOM     49  C   UNL A   1      42.829  25.116  28.191  1.00  0.00     0.037 A 
ATOM     50  C   UNL A   1      43.647  31.639  30.650  1.00  0.00     0.037 A 
ATOM     51  C   UNL A   1      44.167  25.458  28.602  1.00  0.00     0.049 A 
ATOM     52  C   UNL A   1      44.797  30.677  30.570  1.00  0.00     0.074 A 
ATOM     53  C   UNL A   1      45.309  24.679  28.543  1.00  0.00     0.029 A 
ATOM     54  N   UNL A   1      44.544  26.681  29.136  1.00  0.00    -0.354 N 
ATOM     55  N   UNL A   1      44.806  29.446  30.119  1.00  0.00    -0.248 NA
ATOM     56  C   UNL A   1      46.096  31.152  31.063  1.00  0.00     0.031 C 
ATOM     57  C   UNL A   1      46.371  25.419  29.074  1.00  0.00     0.029 A 
ATOM     58  C   UNL A   1      45.898  26.673  29.427  1.00  0.00     0.049 A 
ATOM     59  H   UNL A   1      43.938  27.443  29.286  1.00  0.00     0.167 HD
ATOM     60  C   UNL A   1      46.110  28.995  30.277  1.00  0.00     0.074 A 
ATOM     61  C   UNL A   1      46.868  30.097  30.839  1.00  0.00     0.031 C 
ATOM     62  C   UNL A   1      46.630  27.778  29.993  1.00  0.00     0.037 A 
BRANCH  49  63
ATOM     63  C   UNL A   1      42.590  23.733  27.652  1.00  0.00     0.058 A 
ATOM     64  C   UNL A   1      42.639  23.459  26.276  1.00  0.00     0.135 A 
ATOM     65  C   UNL A   1      42.375  22.655  28.527  1.00  0.00     0.135 A 
ATOM     66  F   UNL A   1      42.822  24.455  25.395  1.00  0.00    -0.206 F 
ATOM     67  C   UNL A   1      42.473  22.168  25.787  1.00  0.00     0.059 A 
ATOM     68  C   UNL A   1      42.228  21.353  28.061  1.00  0.00     0.059 A 
ATOM     69  F   UNL A   1      42.316  22.864  29.852  1.00  0.00    -0.206 F 
ATOM     70  C   UNL A   1      42.271  21.119  26.687  1.00  0.00     0.060 A 
BRANCH  70  71
ATOM     71  S   UNL A   1      42.081  19.446  26.034  1.00  0.00     0.124 S 
ATOM     72  O   UNL A   1      42.589  18.643  27.142  1.00  0.00    -0.237 OA
ATOM     73  O   UNL A   1      40.643  19.365  25.801  1.00  0.00    -0.237 OA
ATOM     74  O   UNL A   1      42.909  19.452  24.833  1.00  0.00    -0.744 OA
ENDBRANCH  70  71
ENDBRANCH  49  63
BRANCH  50  75
ATOM     75  C   UNL A   1      43.830  33.024  31.154  1.00  0.00     0.058 A 
ATOM     76  C   UNL A   1      44.109  34.082  30.278  1.00  0.00     0.135 A 
ATOM     77  C   UNL A   1      43.683  33.324  32.518  1.00  0.00     0.135 A 
ATOM     78  F   UNL A   1      44.264  33.844  28.967  1.00  0.00    -0.206 F 
ATOM     79  C   UNL A   1      44.234  35.390  30.734  1.00  0.00     0.059 A 
ATOM     80  C   UNL A   1      43.779  34.626  32.995  1.00  0.00     0.059 A 
ATOM     81  F   UNL A   1      43.401  32.346  33.395  1.00  0.00    -0.206 F 
ATOM     82  C   UNL A   1      44.061  35.653  32.096  1.00  0.00     0.060 A 
BRANCH  82  83
ATOM     83  S   UNL A   1      44.153  37.362  32.669  1.00  0.00     0.124 S 
ATOM     84  O   UNL A   1      45.502  37.414  33.220  1.00  0.00    -0.237 OA
ATOM     85  O   UNL A   1      43.937  38.113  31.435  1.00  0.00    -0.237 OA
ATOM     86  O   UNL A   1      43.069  37.448  33.642  1.00  0.00    -0.744 OA
ENDBRANCH  82  83
ENDBRANCH  50  75
BRANCH  62  87
ATOM     87  C   UNL A   1      48.088  27.568  30.286  1.00  0.00     0.058 A 
ATOM     88  C   UNL A   1      48.515  27.047  31.515  1.00  0.00     0.135 A 
ATOM     89  C   UNL A   1      49.059  27.833  29.307  1.00  0.00     0.135 A 
ATOM     90  F   UNL A   1      47.624  26.787  32.485  1.00  0.00    -0.206 F 
ATOM     91  C   UNL A   1      49.860  26.806  31.771  1.00  0.00     0.059 A 
ATOM     92  C   UNL A   1      50.407  27.579  29.532  1.00  0.00     0.059 A 
ATOM     93  F   UNL A   1      48.696  28.325  28.111  1.00  0.00    -0.206 F 
ATOM     94  C   UNL A   1      50.798  27.072  30.772  1.00  0.00     0.060 A 
BRANCH  94  95
ATOM     95  S   UNL A   1      52.537  26.713  31.102  1.00  0.00     0.124 S 
ATOM     96  O   UNL A   1      52.938  27.887  31.868  1.00  0.00    -0.237 OA
ATOM     97  O   UNL A   1      52.460  25.462  31.852  1.00  0.00    -0.237 OA
ATOM     98  O   UNL A   1      53.120  26.602  29.769  1.00  0.00    -0.744 OA
ENDBRANCH  94  95
ENDBRANCH  62  87
ENDBRANCH  36  37
ENDBRANCH  28  31
ENDBRANCH   1  27
TORSDOF 15
ENDMDL
MODEL 2
REMARK VINA RESULT:      -9.9      5.163     11.695
REMARK SMILES CC(C)(C)c1cc2c(cc1Cl)C=C(C(=O)NCCCNC(=O)c1ccc(-c3c4nc(c(-c5c(F)cc(S(=O)(=O)[O-])cc5F)c5ccc([nH]5)c(-c5c(F)cc(S(=O)(=O)[O-])cc5F)c5nc(c(-c6c(F)cc(S(=O)(=O)[O-])cc6F)c6ccc3[nH]6)C=C5)C=C4)cc1)[C@@H](C(F)(F)F)O2
REMARK SMILES IDX 19 1 18 2 17 3 16 4 14 5 15 6 13 8 5 9 6 10 10 11 7 12 9 13
REMARK SMILES IDX 11 14 8 15 94 16 12 17 89 18 2 19 1 20 3 21 4 22 90 23 91 24
REMARK SMILES IDX 92 25 93 26 20 27 21 28 22 30 23 31 24 32 88 33 25 34 87 35
REMARK SMILES IDX 26 36 27 37 28 38 81 39 29 40 86 41 80 42 82 43 30 44 85 45
REMARK SMILES IDX 79 46 78 47 31 49 65 50 44 51 64 52 45 53 48 54 63 55 83 56
REMARK SMILES IDX 46 57 47 58 62 60 84 61 49 62 32 63 33 64 42 65 34 66 35 67
REMARK SMILES IDX 41 68 43 69 36 70 37 71 38 72 39 73 40 74 66 75 67 76 76 77
REMARK SMILES IDX 68 78 69 79 75 80 77 81 70 82 71 83 72 84 73 85 74 86 50 87
REMARK SMILES IDX 51 88 60 89 52 90 53 91 59 92 61 93 54 94 55 95 56 96 57 97
REMARK SMILES IDX 58 98
REMARK H PARENT 16 7 20 29 82 48 48 59
REMARK Flexibility Score: inf
ROOT
ATOM      1  C   UNL A   1      40.007  23.193  27.048  1.00  0.00     0.118 C 
ENDROOT
BRANCH   1   2
ATOM      2  C   UNL A   1      39.312  21.991  26.420  1.00  0.00     0.042 C 
BRANCH   2   3
ATOM      3  C   UNL A   1      37.997  22.365  25.755  1.00  0.00     0.118 C 
BRANCH   3   4
ATOM      4  N   UNL A   1      37.235  21.191  25.352  1.00  0.00    -0.352 N 
ATOM      5  C   UNL A   1      35.961  20.905  25.001  1.00  0.00     0.251 C 
ATOM      6  O   UNL A   1      35.743  19.720  24.729  1.00  0.00    -0.270 OA
ATOM      7  H   UNL A   1      37.802  20.386  25.328  1.00  0.00     0.163 HD
BRANCH   5   8
ATOM      8  C   UNL A   1      34.849  21.897  24.914  1.00  0.00     0.067 C 
ATOM      9  C   UNL A   1      31.947  25.920  23.800  1.00  0.00    -0.020 A 
ATOM     10  C   UNL A   1      31.770  24.694  24.479  1.00  0.00     0.053 A 
ATOM     11  C   UNL A   1      33.193  26.089  23.149  1.00  0.00     0.045 A 
ATOM     12  C   UNL A   1      32.778  23.732  24.554  1.00  0.00     0.128 A 
ATOM     13  C   UNL A   1      34.203  25.109  23.222  1.00  0.00     0.032 A 
ATOM     14  Cl  UNL A   1      33.607  27.466  22.185  1.00  0.00    -0.084 Cl
ATOM     15  C   UNL A   1      34.003  23.931  23.936  1.00  0.00     0.019 A 
ATOM     16  O   UNL A   1      32.476  22.586  25.230  1.00  0.00    -0.475 OA
ATOM     17  C   UNL A   1      35.026  22.898  24.030  1.00  0.00     0.025 C 
ATOM     18  C   UNL A   1      33.611  21.853  25.766  1.00  0.00     0.314 C 
BRANCH   9  19
ATOM     19  C   UNL A   1      30.794  26.954  23.797  1.00  0.00    -0.012 C 
ATOM     20  C   UNL A   1      31.098  28.222  24.646  1.00  0.00     0.016 C 
ATOM     21  C   UNL A   1      29.525  26.327  24.407  1.00  0.00     0.016 C 
ATOM     22  C   UNL A   1      30.504  27.492  22.376  1.00  0.00     0.016 C 
ENDBRANCH   9  19
BRANCH  18  23
ATOM     23  C   UNL A   1      33.868  22.319  27.213  1.00  0.00     0.429 C 
ATOM     24  F   UNL A   1      34.773  23.330  27.233  1.00  0.00    -0.167 F 
ATOM     25  F   UNL A   1      32.752  22.791  27.817  1.00  0.00    -0.167 F 
ATOM     26  F   UNL A   1      34.348  21.332  28.003  1.00  0.00    -0.167 F 
ENDBRANCH  18  23
ENDBRANCH   5   8
ENDBRANCH   3   4
ENDBRANCH   2   3
ENDBRANCH   1   2
BRANCH   1  27
ATOM     27  N   UNL A   1      40.905  23.862  26.109  1.00  0.00    -0.352 N 
ATOM     28  C   UNL A   1      41.258  25.187  26.005  1.00  0.00     0.251 C 
ATOM     29  H   UNL A   1      41.325  23.269  25.444  1.00  0.00     0.163 HD
ATOM     30  O   UNL A   1      41.845  25.583  25.001  1.00  0.00    -0.269 OA
BRANCH  28  31
ATOM     31  C   UNL A   1      40.915  26.130  27.090  1.00  0.00     0.039 A 
ATOM     32  C   UNL A   1      41.513  27.388  27.136  1.00  0.00     0.014 A 
ATOM     33  C   UNL A   1      39.995  25.753  28.072  1.00  0.00     0.014 A 
ATOM     34  C   UNL A   1      41.352  28.182  28.262  1.00  0.00     0.010 A 
ATOM     35  C   UNL A   1      39.749  26.605  29.153  1.00  0.00     0.010 A 
ATOM     36  C   UNL A   1      40.467  27.804  29.284  1.00  0.00    -0.014 A 
BRANCH  36  37
ATOM     37  C   UNL A   1      40.323  28.687  30.472  1.00  0.00     0.031 A 
ATOM     38  C   UNL A   1      41.284  28.588  31.626  1.00  0.00     0.074 A 
ATOM     39  C   UNL A   1      39.366  29.637  30.464  1.00  0.00     0.049 A 
ATOM     40  N   UNL A   1      41.320  29.294  32.727  1.00  0.00    -0.248 NA
ATOM     41  C   UNL A   1      42.338  27.563  31.542  1.00  0.00     0.031 C 
ATOM     42  C   UNL A   1      38.383  29.833  29.395  1.00  0.00     0.029 A 
ATOM     43  N   UNL A   1      39.083  30.636  31.358  1.00  0.00    -0.354 N 
ATOM     44  C   UNL A   1      42.375  28.785  33.476  1.00  0.00     0.074 A 
ATOM     45  C   UNL A   1      42.945  27.695  32.715  1.00  0.00     0.031 C 
ATOM     46  C   UNL A   1      37.655  30.927  29.659  1.00  0.00     0.029 A 
ATOM     47  C   UNL A   1      38.066  31.466  30.950  1.00  0.00     0.049 A 
ATOM     48  H   UNL A   1      39.562  30.749  32.211  1.00  0.00     0.167 HD
ATOM     49  C   UNL A   1      42.832  29.197  34.682  1.00  0.00     0.037 A 
ATOM     50  C   UNL A   1      37.511  32.536  31.551  1.00  0.00     0.037 A 
ATOM     51  C   UNL A   1      42.284  30.309  35.415  1.00  0.00     0.049 A 
ATOM     52  C   UNL A   1      38.027  32.962  32.895  1.00  0.00     0.074 A 
ATOM     53  C   UNL A   1      42.692  30.819  36.635  1.00  0.00     0.029 A 
ATOM     54  N   UNL A   1      41.219  31.090  34.992  1.00  0.00    -0.354 N 
ATOM     55  N   UNL A   1      39.016  32.457  33.591  1.00  0.00    -0.248 NA
ATOM     56  C   UNL A   1      37.343  34.088  33.542  1.00  0.00     0.031 C 
ATOM     57  C   UNL A   1      41.851  31.887  36.967  1.00  0.00     0.029 A 
ATOM     58  C   UNL A   1      40.944  32.067  35.935  1.00  0.00     0.049 A 
ATOM     59  H   UNL A   1      40.729  30.968  34.146  1.00  0.00     0.167 HD
ATOM     60  C   UNL A   1      39.073  33.201  34.762  1.00  0.00     0.074 A 
ATOM     61  C   UNL A   1      38.035  34.209  34.667  1.00  0.00     0.031 C 
ATOM     62  C   UNL A   1      39.902  33.056  35.823  1.00  0.00     0.037 A 
BRANCH  49  63
ATOM     63  C   UNL A   1      43.977  28.443  35.298  1.00  0.00     0.058 A 
ATOM     64  C   UNL A   1      43.767  27.352  36.155  1.00  0.00     0.135 A 
ATOM     65  C   UNL A   1      45.304  28.775  34.975  1.00  0.00     0.135 A 
ATOM     66  F   UNL A   1      42.521  27.004  36.512  1.00  0.00    -0.206 F 
ATOM     67  C   UNL A   1      44.831  26.623  36.677  1.00  0.00     0.059 A 
ATOM     68  C   UNL A   1      46.382  28.047  35.468  1.00  0.00     0.059 A 
ATOM     69  F   UNL A   1      45.560  29.813  34.162  1.00  0.00    -0.206 F 
ATOM     70  C   UNL A   1      46.135  26.975  36.326  1.00  0.00     0.060 A 
BRANCH  70  71
ATOM     71  S   UNL A   1      47.502  26.003  36.995  1.00  0.00     0.124 S 
ATOM     72  O   UNL A   1      47.897  25.218  35.830  1.00  0.00    -0.237 OA
ATOM     73  O   UNL A   1      48.443  27.036  37.411  1.00  0.00    -0.237 OA
ATOM     74  O   UNL A   1      46.884  25.247  38.079  1.00  0.00    -0.744 OA
ENDBRANCH  70  71
ENDBRANCH  49  63
BRANCH  50  75
ATOM     75  C   UNL A   1      36.397  33.258  30.885  1.00  0.00     0.058 A 
ATOM     76  C   UNL A   1      35.081  33.148  31.353  1.00  0.00     0.135 A 
ATOM     77  C   UNL A   1      36.636  34.111  29.795  1.00  0.00     0.135 A 
ATOM     78  F   UNL A   1      34.803  32.340  32.388  1.00  0.00    -0.206 F 
ATOM     79  C   UNL A   1      34.038  33.857  30.767  1.00  0.00     0.059 A 
ATOM     80  C   UNL A   1      35.615  34.850  29.208  1.00  0.00     0.059 A 
ATOM     81  F   UNL A   1      37.882  34.261  29.319  1.00  0.00    -0.206 F 
ATOM     82  C   UNL A   1      34.317  34.711  29.697  1.00  0.00     0.060 A 
BRANCH  82  83
ATOM     83  S   UNL A   1      32.971  35.683  28.988  1.00  0.00     0.124 S 
ATOM     84  O   UNL A   1      32.376  34.728  28.061  1.00  0.00    -0.237 OA
ATOM     85  O   UNL A   1      32.175  36.012  30.166  1.00  0.00    -0.237 OA
ATOM     86  O   UNL A   1      33.661  36.813  28.374  1.00  0.00    -0.744 OA
ENDBRANCH  82  83
ENDBRANCH  50  75
BRANCH  62  87
ATOM     87  C   UNL A   1      39.722  34.007  36.971  1.00  0.00     0.058 A 
ATOM     88  C   UNL A   1      40.294  35.287  36.951  1.00  0.00     0.135 A 
ATOM     89  C   UNL A   1      38.920  33.658  38.069  1.00  0.00     0.135 A 
ATOM     90  F   UNL A   1      41.075  35.663  35.926  1.00  0.00    -0.206 F 
ATOM     91  C   UNL A   1      40.088  36.188  37.989  1.00  0.00     0.059 A 
ATOM     92  C   UNL A   1      38.683  34.551  39.108  1.00  0.00     0.059 A 
ATOM     93  F   UNL A   1      38.345  32.446  38.128  1.00  0.00    -0.206 F 
ATOM     94  C   UNL A   1      39.278  35.812  39.062  1.00  0.00     0.060 A 
BRANCH  94  95
ATOM     95  S   UNL A   1      38.984  37.008  40.383  1.00  0.00     0.124 S 
ATOM     96  O   UNL A   1      38.157  36.234  41.301  1.00  0.00    -0.237 OA
ATOM     97  O   UNL A   1      40.338  37.304  40.843  1.00  0.00    -0.237 OA
ATOM     98  O   UNL A   1      38.306  38.106  39.701  1.00  0.00    -0.744 OA
ENDBRANCH  94  95
ENDBRANCH  62  87
ENDBRANCH  36  37
ENDBRANCH  28  31
ENDBRANCH   1  27
TORSDOF 15
ENDMDL
MODEL 3
REMARK VINA RESULT:      -9.8      5.155     11.350
REMARK SMILES CC(C)(C)c1cc2c(cc1Cl)C=C(C(=O)NCCCNC(=O)c1ccc(-c3c4nc(c(-c5c(F)cc(S(=O)(=O)[O-])cc5F)c5ccc([nH]5)c(-c5c(F)cc(S(=O)(=O)[O-])cc5F)c5nc(c(-c6c(F)cc(S(=O)(=O)[O-])cc6F)c6ccc3[nH]6)C=C5)C=C4)cc1)[C@@H](C(F)(F)F)O2
REMARK SMILES IDX 19 1 18 2 17 3 16 4 14 5 15 6 13 8 5 9 6 10 10 11 7 12 9 13
REMARK SMILES IDX 11 14 8 15 94 16 12 17 89 18 2 19 1 20 3 21 4 22 90 23 91 24
REMARK SMILES IDX 92 25 93 26 20 27 21 28 22 30 23 31 24 32 88 33 25 34 87 35
REMARK SMILES IDX 26 36 27 37 28 38 81 39 29 40 86 41 80 42 82 43 30 44 85 45
REMARK SMILES IDX 79 46 78 47 31 49 65 50 44 51 64 52 45 53 48 54 63 55 83 56
REMARK SMILES IDX 46 57 47 58 62 60 84 61 49 62 32 63 33 64 42 65 34 66 35 67
REMARK SMILES IDX 41 68 43 69 36 70 37 71 38 72 39 73 40 74 66 75 67 76 76 77
REMARK SMILES IDX 68 78 69 79 75 80 77 81 70 82 71 83 72 84 73 85 74 86 50 87
REMARK SMILES IDX 51 88 60 89 52 90 53 91 59 92 61 93 54 94 55 95 56 96 57 97
REMARK SMILES IDX 58 98
REMARK H PARENT 16 7 20 29 82 48 48 59
REMARK Flexibility Score: inf
ROOT
ATOM      1  C   UNL A   1      32.930  32.550  27.387  1.00  0.00     0.118 C 
ENDROOT
BRANCH   1   2
ATOM      2  C   UNL A   1      31.729  31.840  26.776  1.00  0.00     0.042 C 
BRANCH   2   3
ATOM      3  C   UNL A   1      32.020  30.382  26.458  1.00  0.00     0.118 C 
BRANCH   3   4
ATOM      4  N   UNL A   1      31.668  30.040  25.087  1.00  0.00    -0.352 N 
ATOM      5  C   UNL A   1      31.651  28.933  24.311  1.00  0.00     0.251 C 
ATOM      6  O   UNL A   1      31.268  29.109  23.150  1.00  0.00    -0.270 OA
ATOM      7  H   UNL A   1      31.358  30.831  24.589  1.00  0.00     0.163 HD
BRANCH   5   8
ATOM      8  C   UNL A   1      32.040  27.563  24.757  1.00  0.00     0.067 C 
ATOM      9  C   UNL A   1      34.291  23.035  25.284  1.00  0.00    -0.020 A 
ATOM     10  C   UNL A   1      33.315  23.774  25.988  1.00  0.00     0.053 A 
ATOM     11  C   UNL A   1      34.919  23.710  24.209  1.00  0.00     0.045 A 
ATOM     12  C   UNL A   1      32.950  25.069  25.616  1.00  0.00     0.128 A 
ATOM     13  C   UNL A   1      34.551  25.020  23.846  1.00  0.00     0.032 A 
ATOM     14  Cl  UNL A   1      36.201  23.041  23.258  1.00  0.00    -0.084 Cl
ATOM     15  C   UNL A   1      33.555  25.701  24.541  1.00  0.00     0.019 A 
ATOM     16  O   UNL A   1      32.003  25.679  26.387  1.00  0.00    -0.475 OA
ATOM     17  C   UNL A   1      33.152  27.056  24.192  1.00  0.00     0.025 C 
ATOM     18  C   UNL A   1      31.251  26.740  25.738  1.00  0.00     0.314 C 
BRANCH   9  19
ATOM     19  C   UNL A   1      34.611  21.588  25.734  1.00  0.00    -0.012 C 
ATOM     20  C   UNL A   1      36.136  21.293  25.833  1.00  0.00     0.016 C 
ATOM     21  C   UNL A   1      34.048  20.583  24.710  1.00  0.00     0.016 C 
ATOM     22  C   UNL A   1      34.060  21.288  27.148  1.00  0.00     0.016 C 
ENDBRANCH   9  19
BRANCH  18  23
ATOM     23  C   UNL A   1      29.974  26.139  25.118  1.00  0.00     0.429 C 
ATOM     24  F   UNL A   1      29.239  25.505  26.066  1.00  0.00    -0.167 F 
ATOM     25  F   UNL A   1      29.166  27.079  24.571  1.00  0.00    -0.167 F 
ATOM     26  F   UNL A   1      30.238  25.240  24.143  1.00  0.00    -0.167 F 
ENDBRANCH  18  23
ENDBRANCH   5   8
ENDBRANCH   3   4
ENDBRANCH   2   3
ENDBRANCH   1   2
BRANCH   1  27
ATOM     27  N   UNL A   1      32.655  33.959  27.662  1.00  0.00    -0.352 N 
ATOM     28  C   UNL A   1      33.141  34.785  28.648  1.00  0.00     0.251 C 
ATOM     29  H   UNL A   1      32.019  34.386  27.042  1.00  0.00     0.163 HD
ATOM     30  O   UNL A   1      32.606  35.873  28.847  1.00  0.00    -0.269 OA
BRANCH  28  31
ATOM     31  C   UNL A   1      34.289  34.356  29.472  1.00  0.00     0.039 A 
ATOM     32  C   UNL A   1      35.587  34.475  28.978  1.00  0.00     0.014 A 
ATOM     33  C   UNL A   1      34.069  33.823  30.745  1.00  0.00     0.014 A 
ATOM     34  C   UNL A   1      36.637  33.880  29.661  1.00  0.00     0.010 A 
ATOM     35  C   UNL A   1      35.147  33.324  31.483  1.00  0.00     0.010 A 
ATOM     36  C   UNL A   1      36.434  33.300  30.923  1.00  0.00    -0.014 A 
BRANCH  36  37
ATOM     37  C   UNL A   1      37.589  32.676  31.621  1.00  0.00     0.031 A 
ATOM     38  C   UNL A   1      38.020  33.158  32.981  1.00  0.00     0.074 A 
ATOM     39  C   UNL A   1      38.196  31.614  31.053  1.00  0.00     0.049 A 
ATOM     40  N   UNL A   1      38.987  32.713  33.740  1.00  0.00    -0.248 NA
ATOM     41  C   UNL A   1      37.276  34.287  33.564  1.00  0.00     0.031 C 
ATOM     42  C   UNL A   1      37.858  31.053  29.741  1.00  0.00     0.029 A 
ATOM     43  N   UNL A   1      39.193  30.795  31.514  1.00  0.00    -0.354 N 
ATOM     44  C   UNL A   1      38.988  33.519  34.873  1.00  0.00     0.074 A 
ATOM     45  C   UNL A   1      37.937  34.496  34.696  1.00  0.00     0.031 C 
ATOM     46  C   UNL A   1      38.581  29.944  29.535  1.00  0.00     0.029 A 
ATOM     47  C   UNL A   1      39.486  29.755  30.662  1.00  0.00     0.049 A 
ATOM     48  H   UNL A   1      39.655  30.936  32.371  1.00  0.00     0.167 HD
ATOM     49  C   UNL A   1      39.786  33.442  35.965  1.00  0.00     0.037 A 
ATOM     50  C   UNL A   1      40.394  28.765  30.766  1.00  0.00     0.037 A 
ATOM     51  C   UNL A   1      40.804  32.441  36.151  1.00  0.00     0.049 A 
ATOM     52  C   UNL A   1      41.276  28.714  31.979  1.00  0.00     0.074 A 
ATOM     53  C   UNL A   1      41.649  32.266  37.232  1.00  0.00     0.029 A 
ATOM     54  N   UNL A   1      41.107  31.439  35.241  1.00  0.00    -0.354 N 
ATOM     55  N   UNL A   1      41.270  29.496  33.032  1.00  0.00    -0.248 NA
ATOM     56  C   UNL A   1      42.298  27.661  32.013  1.00  0.00     0.031 C 
ATOM     57  C   UNL A   1      42.488  31.179  36.961  1.00  0.00     0.029 A 
ATOM     58  C   UNL A   1      42.138  30.653  35.728  1.00  0.00     0.049 A 
ATOM     59  H   UNL A   1      40.655  31.306  34.375  1.00  0.00     0.167 HD
ATOM     60  C   UNL A   1      42.288  29.032  33.854  1.00  0.00     0.074 A 
ATOM     61  C   UNL A   1      42.872  27.884  33.189  1.00  0.00     0.031 C 
ATOM     62  C   UNL A   1      42.708  29.519  35.046  1.00  0.00     0.037 A 
BRANCH  49  63
ATOM     63  C   UNL A   1      39.603  34.471  37.046  1.00  0.00     0.058 A 
ATOM     64  C   UNL A   1      38.877  34.193  38.214  1.00  0.00     0.135 A 
ATOM     65  C   UNL A   1      40.219  35.729  36.941  1.00  0.00     0.135 A 
ATOM     66  F   UNL A   1      38.253  33.014  38.357  1.00  0.00    -0.206 F 
ATOM     67  C   UNL A   1      38.760  35.130  39.236  1.00  0.00     0.059 A 
ATOM     68  C   UNL A   1      40.133  36.674  37.959  1.00  0.00     0.059 A 
ATOM     69  F   UNL A   1      40.922  36.047  35.842  1.00  0.00    -0.206 F 
ATOM     70  C   UNL A   1      39.394  36.367  39.102  1.00  0.00     0.060 A 
BRANCH  70  71
ATOM     71  S   UNL A   1      39.249  37.561  40.449  1.00  0.00     0.124 S 
ATOM     72  O   UNL A   1      40.600  38.112  40.494  1.00  0.00    -0.237 OA
ATOM     73  O   UNL A   1      38.213  38.462  39.955  1.00  0.00    -0.237 OA
ATOM     74  O   UNL A   1      38.869  36.740  41.594  1.00  0.00    -0.744 OA
ENDBRANCH  70  71
ENDBRANCH  49  63
BRANCH  50  75
ATOM     75  C   UNL A   1      40.515  27.762  29.678  1.00  0.00     0.058 A 
ATOM     76  C   UNL A   1      39.604  26.703  29.565  1.00  0.00     0.135 A 
ATOM     77  C   UNL A   1      41.518  27.871  28.701  1.00  0.00     0.135 A 
ATOM     78  F   UNL A   1      38.632  26.554  30.478  1.00  0.00    -0.206 F 
ATOM     79  C   UNL A   1      39.680  25.786  28.522  1.00  0.00     0.059 A 
ATOM     80  C   UNL A   1      41.600  26.982  27.635  1.00  0.00     0.059 A 
ATOM     81  F   UNL A   1      42.405  28.877  28.757  1.00  0.00    -0.206 F 
ATOM     82  C   UNL A   1      40.679  25.938  27.557  1.00  0.00     0.060 A 
BRANCH  82  83
ATOM     83  S   UNL A   1      40.726  24.788  26.167  1.00  0.00     0.124 S 
ATOM     84  O   UNL A   1      39.334  24.359  26.095  1.00  0.00    -0.237 OA
ATOM     85  O   UNL A   1      41.190  25.640  25.077  1.00  0.00    -0.237 OA
ATOM     86  O   UNL A   1      41.678  23.771  26.605  1.00  0.00    -0.744 OA
ENDBRANCH  82  83
ENDBRANCH  50  75
BRANCH  62  87
ATOM     87  C   UNL A   1      43.856  28.814  35.709  1.00  0.00     0.058 A 
ATOM     88  C   UNL A   1      43.643  27.729  36.571  1.00  0.00     0.135 A 
ATOM     89  C   UNL A   1      45.180  29.189  35.433  1.00  0.00     0.135 A 
ATOM     90  F   UNL A   1      42.394  27.340  36.872  1.00  0.00    -0.206 F 
ATOM     91  C   UNL A   1      44.706  27.044  37.148  1.00  0.00     0.059 A 
ATOM     92  C   UNL A   1      46.259  28.505  35.981  1.00  0.00     0.059 A 
ATOM     93  F   UNL A   1      45.433  30.218  34.608  1.00  0.00    -0.206 F 
ATOM     94  C   UNL A   1      46.011  27.437  36.844  1.00  0.00     0.060 A 
BRANCH  94  95
ATOM     95  S   UNL A   1      47.382  26.510  37.566  1.00  0.00     0.124 S 
ATOM     96  O   UNL A   1      48.263  27.586  38.008  1.00  0.00    -0.237 OA
ATOM     97  O   UNL A   1      46.723  25.754  38.627  1.00  0.00    -0.237 OA
ATOM     98  O   UNL A   1      47.877  25.711  36.450  1.00  0.00    -0.744 OA
ENDBRANCH  94  95
ENDBRANCH  62  87
ENDBRANCH  36  37
ENDBRANCH  28  31
ENDBRANCH   1  27
TORSDOF 15
ENDMDL
