MODEL 1
REMARK VINA RESULT:      -9.8      0.000      0.000
REMARK SMILES CC[C@@](O)(C(=O)NCCCNC(=O)c1ccc(-c2c3nc(c(-c4c(F)cc(S(=O)(=O)[O-])cc4F)c4ccc([nH]4)c(-c4c(F)cc(S(=O)(=O)[O-])cc4F)c4nc(c(-c5c(F)cc(S(=O)(=O)[O-])cc5F)c5ccc2[nH]5)C=C4)C=C3)cc1)[C@@H]1CCOc2ccccc21
REMARK SMILES IDX 10 1 9 2 8 3 7 4 5 5 6 6 3 8 2 9 1 10 4 11 80 13 81 14 89 15
REMARK SMILES IDX 82 16 84 17 88 18 83 19 85 20 87 21 86 22 11 23 12 24 13 26
REMARK SMILES IDX 14 27 15 28 79 29 16 30 78 31 17 32 18 33 19 34 72 35 20 36
REMARK SMILES IDX 77 37 71 38 73 39 21 40 76 41 70 42 69 43 22 45 56 46 35 47
REMARK SMILES IDX 55 48 36 49 39 50 54 51 74 52 37 53 38 54 53 56 75 57 40 58
REMARK SMILES IDX 23 59 24 60 33 61 25 62 26 63 32 64 34 65 27 66 28 67 29 68
REMARK SMILES IDX 30 69 31 70 57 71 58 72 67 73 59 74 60 75 66 76 68 77 61 78
REMARK SMILES IDX 62 79 63 80 64 81 65 82 41 83 42 84 51 85 43 86 44 87 50 88
REMARK SMILES IDX 52 89 45 90 46 91 47 92 48 93 49 94
REMARK H PARENT 7 7 4 12 11 25 73 44 39 55
REMARK Flexibility Score: inf
ROOT
ATOM      1  C   UNL A   1      34.594  32.566  28.070  1.00  0.00     0.118 C 
ENDROOT
BRANCH   1   2
ATOM      2  C   UNL A   1      33.705  33.632  28.701  1.00  0.00     0.042 C 
BRANCH   2   3
ATOM      3  C   UNL A   1      34.363  34.388  29.855  1.00  0.00     0.117 C 
BRANCH   3   4
ATOM      4  N   UNL A   1      34.251  33.648  31.099  1.00  0.00    -0.354 N 
ATOM      5  C   UNL A   1      35.187  33.245  32.005  1.00  0.00     0.252 C 
ATOM      6  O   UNL A   1      34.742  32.558  32.932  1.00  0.00    -0.272 OA
ATOM      7  H   UNL A   1      33.330  33.390  31.330  1.00  0.00     0.163 HD
BRANCH   5   8
ATOM      8  C   UNL A   1      36.712  33.616  31.882  1.00  0.00     0.149 C 
BRANCH   8   9
ATOM      9  C   UNL A   1      37.292  33.029  30.572  1.00  0.00     0.043 C 
ATOM     10  C   UNL A   1      38.033  34.010  29.665  1.00  0.00     0.007 C 
ENDBRANCH   8   9
BRANCH   8  11
ATOM     11  O   UNL A   1      36.754  35.053  31.743  1.00  0.00    -0.379 OA
ATOM     12  H   UNL A   1      35.860  35.415  31.844  1.00  0.00     0.212 HD
ENDBRANCH   8  11
BRANCH   8  13
ATOM     13  C   UNL A   1      37.421  33.172  33.258  1.00  0.00     0.068 C 
ATOM     14  C   UNL A   1      38.231  34.354  33.845  1.00  0.00     0.053 C 
ATOM     15  C   UNL A   1      38.247  31.892  33.330  1.00  0.00     0.001 A 
ATOM     16  C   UNL A   1      39.078  33.883  35.006  1.00  0.00     0.230 C 
ATOM     17  C   UNL A   1      39.530  31.891  33.894  1.00  0.00     0.122 A 
ATOM     18  C   UNL A   1      37.713  30.650  32.946  1.00  0.00     0.008 A 
ATOM     19  O   UNL A   1      40.077  32.980  34.523  1.00  0.00    -0.493 OA
ATOM     20  C   UNL A   1      40.325  30.743  33.875  1.00  0.00     0.047 A 
ATOM     21  C   UNL A   1      38.501  29.497  32.929  1.00  0.00     0.001 A 
ATOM     22  C   UNL A   1      39.819  29.550  33.366  1.00  0.00     0.004 A 
ENDBRANCH   8  13
ENDBRANCH   5   8
ENDBRANCH   3   4
ENDBRANCH   2   3
ENDBRANCH   1   2
BRANCH   1  23
ATOM     23  N   UNL A   1      33.908  31.293  27.926  1.00  0.00    -0.352 N 
ATOM     24  C   UNL A   1      34.421  30.022  27.838  1.00  0.00     0.251 C 
ATOM     25  H   UNL A   1      32.926  31.350  27.885  1.00  0.00     0.163 HD
ATOM     26  O   UNL A   1      33.689  29.101  27.487  1.00  0.00    -0.269 OA
BRANCH  24  27
ATOM     27  C   UNL A   1      35.844  29.761  28.150  1.00  0.00     0.039 A 
ATOM     28  C   UNL A   1      36.181  29.318  29.433  1.00  0.00     0.014 A 
ATOM     29  C   UNL A   1      36.850  29.994  27.206  1.00  0.00     0.014 A 
ATOM     30  C   UNL A   1      37.518  29.061  29.751  1.00  0.00     0.010 A 
ATOM     31  C   UNL A   1      38.172  29.669  27.502  1.00  0.00     0.010 A 
ATOM     32  C   UNL A   1      38.521  29.209  28.781  1.00  0.00    -0.014 A 
BRANCH  32  33
ATOM     33  C   UNL A   1      39.942  28.901  29.088  1.00  0.00     0.031 A 
ATOM     34  C   UNL A   1      40.821  29.945  29.723  1.00  0.00     0.074 A 
ATOM     35  C   UNL A   1      40.454  27.705  28.741  1.00  0.00     0.049 A 
ATOM     36  N   UNL A   1      42.099  29.892  29.997  1.00  0.00    -0.248 NA
ATOM     37  C   UNL A   1      40.186  31.226  30.070  1.00  0.00     0.031 C 
ATOM     38  C   UNL A   1      39.714  26.627  28.080  1.00  0.00     0.029 A 
ATOM     39  N   UNL A   1      41.721  27.197  28.883  1.00  0.00    -0.354 N 
ATOM     40  C   UNL A   1      42.425  31.134  30.531  1.00  0.00     0.074 A 
ATOM     41  C   UNL A   1      41.221  31.935  30.499  1.00  0.00     0.031 C 
ATOM     42  C   UNL A   1      40.535  25.581  27.890  1.00  0.00     0.029 A 
ATOM     43  C   UNL A   1      41.865  25.924  28.383  1.00  0.00     0.049 A 
ATOM     44  H   UNL A   1      42.457  27.697  29.306  1.00  0.00     0.167 HD
ATOM     45  C   UNL A   1      43.612  31.560  31.024  1.00  0.00     0.037 A 
ATOM     46  C   UNL A   1      42.949  25.127  28.321  1.00  0.00     0.037 A 
ATOM     47  C   UNL A   1      44.799  30.747  31.082  1.00  0.00     0.049 A 
ATOM     48  C   UNL A   1      44.255  25.618  28.883  1.00  0.00     0.074 A 
ATOM     49  C   UNL A   1      46.036  31.065  31.617  1.00  0.00     0.029 A 
ATOM     50  N   UNL A   1      44.898  29.454  30.589  1.00  0.00    -0.354 N 
ATOM     51  N   UNL A   1      44.530  26.775  29.436  1.00  0.00    -0.248 NA
ATOM     52  C   UNL A   1      45.396  24.694  28.819  1.00  0.00     0.031 C 
ATOM     53  C   UNL A   1      46.892  29.978  31.415  1.00  0.00     0.029 A 
ATOM     54  C   UNL A   1      46.179  28.967  30.792  1.00  0.00     0.049 A 
ATOM     55  H   UNL A   1      44.167  28.957  30.159  1.00  0.00     0.167 HD
ATOM     56  C   UNL A   1      45.868  26.710  29.808  1.00  0.00     0.074 A 
ATOM     57  C   UNL A   1      46.344  25.395  29.426  1.00  0.00     0.031 C 
ATOM     58  C   UNL A   1      46.634  27.653  30.410  1.00  0.00     0.037 A 
BRANCH  45  59
ATOM     59  C   UNL A   1      43.684  32.970  31.544  1.00  0.00     0.058 A 
ATOM     60  C   UNL A   1      43.984  34.051  30.700  1.00  0.00     0.135 A 
ATOM     61  C   UNL A   1      43.424  33.248  32.896  1.00  0.00     0.135 A 
ATOM     62  F   UNL A   1      44.254  33.841  29.403  1.00  0.00    -0.206 F 
ATOM     63  C   UNL A   1      44.056  35.354  31.183  1.00  0.00     0.059 A 
ATOM     64  C   UNL A   1      43.465  34.547  33.396  1.00  0.00     0.059 A 
ATOM     65  F   UNL A   1      43.132  32.253  33.748  1.00  0.00    -0.206 F 
ATOM     66  C   UNL A   1      43.798  35.592  32.534  1.00  0.00     0.060 A 
BRANCH  66  67
ATOM     67  S   UNL A   1      43.898  37.287  33.147  1.00  0.00     0.124 S 
ATOM     68  O   UNL A   1      45.190  37.273  33.826  1.00  0.00    -0.237 OA
ATOM     69  O   UNL A   1      43.837  38.069  31.917  1.00  0.00    -0.237 OA
ATOM     70  O   UNL A   1      42.733  37.402  34.018  1.00  0.00    -0.744 OA
ENDBRANCH  66  67
ENDBRANCH  45  59
BRANCH  46  71
ATOM     71  C   UNL A   1      42.837  23.772  27.721  1.00  0.00     0.058 A 
ATOM     72  C   UNL A   1      42.571  22.650  28.521  1.00  0.00     0.135 A 
ATOM     73  C   UNL A   1      42.967  23.572  26.339  1.00  0.00     0.135 A 
ATOM     74  F   UNL A   1      42.444  22.790  29.850  1.00  0.00    -0.206 F 
ATOM     75  C   UNL A   1      42.452  21.377  27.975  1.00  0.00     0.059 A 
ATOM     76  C   UNL A   1      42.828  22.312  25.765  1.00  0.00     0.059 A 
ATOM     77  F   UNL A   1      43.204  24.615  25.528  1.00  0.00    -0.206 F 
ATOM     78  C   UNL A   1      42.579  21.218  26.594  1.00  0.00     0.060 A 
BRANCH  78  79
ATOM     79  S   UNL A   1      42.364  19.570  25.887  1.00  0.00     0.124 S 
ATOM     80  O   UNL A   1      43.347  19.582  24.811  1.00  0.00    -0.237 OA
ATOM     81  O   UNL A   1      42.669  18.705  27.022  1.00  0.00    -0.237 OA
ATOM     82  O   UNL A   1      40.966  19.567  25.467  1.00  0.00    -0.744 OA
ENDBRANCH  78  79
ENDBRANCH  46  71
BRANCH  58  83
ATOM     83  C   UNL A   1      48.060  27.290  30.720  1.00  0.00     0.058 A 
ATOM     84  C   UNL A   1      48.402  26.575  31.878  1.00  0.00     0.135 A 
ATOM     85  C   UNL A   1      49.087  27.617  29.821  1.00  0.00     0.135 A 
ATOM     86  F   UNL A   1      47.456  26.245  32.772  1.00  0.00    -0.206 F 
ATOM     87  C   UNL A   1      49.718  26.216  32.145  1.00  0.00     0.059 A 
ATOM     88  C   UNL A   1      50.407  27.247  30.056  1.00  0.00     0.059 A 
ATOM     89  F   UNL A   1      48.810  28.291  28.693  1.00  0.00    -0.206 F 
ATOM     90  C   UNL A   1      50.715  26.556  31.228  1.00  0.00     0.060 A 
BRANCH  90  91
ATOM     91  S   UNL A   1      52.415  26.054  31.569  1.00  0.00     0.124 S 
ATOM     92  O   UNL A   1      53.009  26.107  30.237  1.00  0.00    -0.237 OA
ATOM     93  O   UNL A   1      52.864  27.080  32.505  1.00  0.00    -0.237 OA
ATOM     94  O   UNL A   1      52.266  24.717  32.138  1.00  0.00    -0.744 OA
ENDBRANCH  90  91
ENDBRANCH  58  83
ENDBRANCH  32  33
ENDBRANCH  24  27
ENDBRANCH   1  23
TORSDOF 16
ENDMDL
MODEL 2
REMARK VINA RESULT:      -9.6      2.980     10.792
REMARK SMILES CC[C@@](O)(C(=O)NCCCNC(=O)c1ccc(-c2c3nc(c(-c4c(F)cc(S(=O)(=O)[O-])cc4F)c4ccc([nH]4)c(-c4c(F)cc(S(=O)(=O)[O-])cc4F)c4nc(c(-c5c(F)cc(S(=O)(=O)[O-])cc5F)c5ccc2[nH]5)C=C4)C=C3)cc1)[C@@H]1CCOc2ccccc21
REMARK SMILES IDX 10 1 9 2 8 3 7 4 5 5 6 6 3 8 2 9 1 10 4 11 80 13 81 14 89 15
REMARK SMILES IDX 82 16 84 17 88 18 83 19 85 20 87 21 86 22 11 23 12 24 13 26
REMARK SMILES IDX 14 27 15 28 79 29 16 30 78 31 17 32 18 33 19 34 72 35 20 36
REMARK SMILES IDX 77 37 71 38 73 39 21 40 76 41 70 42 69 43 22 45 56 46 35 47
REMARK SMILES IDX 55 48 36 49 39 50 54 51 74 52 37 53 38 54 53 56 75 57 40 58
REMARK SMILES IDX 23 59 24 60 33 61 25 62 26 63 32 64 34 65 27 66 28 67 29 68
REMARK SMILES IDX 30 69 31 70 57 71 58 72 67 73 59 74 60 75 66 76 68 77 61 78
REMARK SMILES IDX 62 79 63 80 64 81 65 82 41 83 42 84 51 85 43 86 44 87 50 88
REMARK SMILES IDX 52 89 45 90 46 91 47 92 48 93 49 94
REMARK H PARENT 7 7 4 12 11 25 73 44 39 55
REMARK Flexibility Score: inf
ROOT
ATOM      1  C   UNL A   1      40.539  21.655  26.876  1.00  0.00     0.118 C 
ENDROOT
BRANCH   1   2
ATOM      2  C   UNL A   1      41.242  20.398  26.376  1.00  0.00     0.042 C 
BRANCH   2   3
ATOM      3  C   UNL A   1      42.754  20.554  26.213  1.00  0.00     0.117 C 
BRANCH   3   4
ATOM      4  N   UNL A   1      43.075  21.536  25.195  1.00  0.00    -0.354 N 
ATOM      5  C   UNL A   1      43.700  22.746  25.262  1.00  0.00     0.252 C 
ATOM      6  O   UNL A   1      43.742  23.363  24.191  1.00  0.00    -0.272 OA
ATOM      7  H   UNL A   1      42.788  21.282  24.288  1.00  0.00     0.163 HD
BRANCH   5   8
ATOM      8  C   UNL A   1      44.315  23.318  26.594  1.00  0.00     0.149 C 
BRANCH   8   9
ATOM      9  C   UNL A   1      43.182  23.653  27.595  1.00  0.00     0.043 C 
ATOM     10  C   UNL A   1      43.321  23.055  28.994  1.00  0.00     0.007 C 
ENDBRANCH   8   9
BRANCH   8  11
ATOM     11  O   UNL A   1      45.068  22.231  27.175  1.00  0.00    -0.379 OA
ATOM     12  H   UNL A   1      46.011  22.350  26.983  1.00  0.00     0.212 HD
ENDBRANCH   8  11
BRANCH   8  13
ATOM     13  C   UNL A   1      45.305  24.519  26.182  1.00  0.00     0.068 C 
ATOM     14  C   UNL A   1      46.672  24.348  26.889  1.00  0.00     0.053 C 
ATOM     15  C   UNL A   1      44.849  25.971  26.281  1.00  0.00     0.001 A 
ATOM     16  C   UNL A   1      47.522  25.584  26.690  1.00  0.00     0.230 C 
ATOM     17  C   UNL A   1      45.644  26.936  26.914  1.00  0.00     0.122 A 
ATOM     18  C   UNL A   1      43.681  26.420  25.643  1.00  0.00     0.008 A 
ATOM     19  O   UNL A   1      46.914  26.687  27.368  1.00  0.00    -0.493 OA
ATOM     20  C   UNL A   1      45.188  28.245  27.090  1.00  0.00     0.047 A 
ATOM     21  C   UNL A   1      43.220  27.728  25.811  1.00  0.00     0.001 A 
ATOM     22  C   UNL A   1      43.960  28.634  26.561  1.00  0.00     0.004 A 
ENDBRANCH   8  13
ENDBRANCH   5   8
ENDBRANCH   3   4
ENDBRANCH   2   3
ENDBRANCH   1   2
BRANCH   1  23
ATOM     23  N   UNL A   1      39.411  22.024  26.037  1.00  0.00    -0.352 N 
ATOM     24  C   UNL A   1      38.665  23.177  26.025  1.00  0.00     0.251 C 
ATOM     25  H   UNL A   1      39.140  21.345  25.379  1.00  0.00     0.163 HD
ATOM     26  O   UNL A   1      37.609  23.204  25.399  1.00  0.00    -0.269 OA
BRANCH  24  27
ATOM     27  C   UNL A   1      39.118  24.376  26.766  1.00  0.00     0.039 A 
ATOM     28  C   UNL A   1      38.750  24.517  28.108  1.00  0.00     0.014 A 
ATOM     29  C   UNL A   1      39.859  25.382  26.138  1.00  0.00     0.014 A 
ATOM     30  C   UNL A   1      39.167  25.638  28.830  1.00  0.00     0.010 A 
ATOM     31  C   UNL A   1      40.335  26.462  26.877  1.00  0.00     0.010 A 
ATOM     32  C   UNL A   1      39.985  26.607  28.228  1.00  0.00    -0.014 A 
BRANCH  32  33
ATOM     33  C   UNL A   1      40.474  27.785  28.991  1.00  0.00     0.031 A 
ATOM     34  C   UNL A   1      41.844  27.767  29.614  1.00  0.00     0.074 A 
ATOM     35  C   UNL A   1      39.662  28.846  29.171  1.00  0.00     0.049 A 
ATOM     36  N   UNL A   1      42.416  28.662  30.376  1.00  0.00    -0.248 NA
ATOM     37  C   UNL A   1      42.667  26.571  29.372  1.00  0.00     0.031 C 
ATOM     38  C   UNL A   1      38.297  28.964  28.655  1.00  0.00     0.029 A 
ATOM     39  N   UNL A   1      39.862  30.021  29.850  1.00  0.00    -0.354 N 
ATOM     40  C   UNL A   1      43.657  28.134  30.718  1.00  0.00     0.074 A 
ATOM     41  C   UNL A   1      43.733  26.819  30.119  1.00  0.00     0.031 C 
ATOM     42  C   UNL A   1      37.789  30.152  29.020  1.00  0.00     0.029 A 
ATOM     43  C   UNL A   1      38.777  30.865  29.824  1.00  0.00     0.049 A 
ATOM     44  H   UNL A   1      40.705  30.241  30.311  1.00  0.00     0.167 HD
ATOM     45  C   UNL A   1      44.648  28.700  31.444  1.00  0.00     0.037 A 
ATOM     46  C   UNL A   1      38.595  32.073  30.392  1.00  0.00     0.037 A 
ATOM     47  C   UNL A   1      44.578  30.022  32.012  1.00  0.00     0.049 A 
ATOM     48  C   UNL A   1      39.714  32.687  31.186  1.00  0.00     0.074 A 
ATOM     49  C   UNL A   1      45.552  30.711  32.714  1.00  0.00     0.029 A 
ATOM     50  N   UNL A   1      43.471  30.856  31.942  1.00  0.00    -0.354 N 
ATOM     51  N   UNL A   1      40.901  32.197  31.452  1.00  0.00    -0.248 NA
ATOM     52  C   UNL A   1      39.473  34.020  31.754  1.00  0.00     0.031 C 
ATOM     53  C   UNL A   1      45.022  31.947  33.100  1.00  0.00     0.029 A 
ATOM     54  C   UNL A   1      43.733  32.046  32.602  1.00  0.00     0.049 A 
ATOM     55  H   UNL A   1      42.626  30.635  31.490  1.00  0.00     0.167 HD
ATOM     56  C   UNL A   1      41.558  33.170  32.196  1.00  0.00     0.074 A 
ATOM     57  C   UNL A   1      40.639  34.283  32.330  1.00  0.00     0.031 C 
ATOM     58  C   UNL A   1      42.807  33.145  32.721  1.00  0.00     0.037 A 
BRANCH  45  59
ATOM     59  C   UNL A   1      45.899  27.894  31.664  1.00  0.00     0.058 A 
ATOM     60  C   UNL A   1      46.997  27.985  30.794  1.00  0.00     0.135 A 
ATOM     61  C   UNL A   1      46.013  27.039  32.773  1.00  0.00     0.135 A 
ATOM     62  F   UNL A   1      46.936  28.776  29.711  1.00  0.00    -0.206 F 
ATOM     63  C   UNL A   1      48.150  27.234  30.994  1.00  0.00     0.059 A 
ATOM     64  C   UNL A   1      47.168  26.298  33.008  1.00  0.00     0.059 A 
ATOM     65  F   UNL A   1      44.995  26.912  33.638  1.00  0.00    -0.206 F 
ATOM     66  C   UNL A   1      48.226  26.390  32.104  1.00  0.00     0.060 A 
BRANCH  66  67
ATOM     67  S   UNL A   1      49.728  25.420  32.350  1.00  0.00     0.124 S 
ATOM     68  O   UNL A   1      49.253  24.375  33.252  1.00  0.00    -0.237 OA
ATOM     69  O   UNL A   1      50.048  24.988  30.993  1.00  0.00    -0.237 OA
ATOM     70  O   UNL A   1      50.660  26.379  32.935  1.00  0.00    -0.744 OA
ENDBRANCH  66  67
ENDBRANCH  45  59
BRANCH  46  71
ATOM     71  C   UNL A   1      37.306  32.790  30.208  1.00  0.00     0.058 A 
ATOM     72  C   UNL A   1      37.127  33.689  29.146  1.00  0.00     0.135 A 
ATOM     73  C   UNL A   1      36.221  32.574  31.071  1.00  0.00     0.135 A 
ATOM     74  F   UNL A   1      38.138  33.933  28.297  1.00  0.00    -0.206 F 
ATOM     75  C   UNL A   1      35.924  34.360  28.953  1.00  0.00     0.059 A 
ATOM     76  C   UNL A   1      34.999  33.214  30.884  1.00  0.00     0.059 A 
ATOM     77  F   UNL A   1      36.334  31.710  32.091  1.00  0.00    -0.206 F 
ATOM     78  C   UNL A   1      34.864  34.113  29.827  1.00  0.00     0.060 A 
BRANCH  78  79
ATOM     79  S   UNL A   1      33.287  34.943  29.533  1.00  0.00     0.124 S 
ATOM     80  O   UNL A   1      33.723  36.196  28.929  1.00  0.00    -0.237 OA
ATOM     81  O   UNL A   1      32.607  34.007  28.644  1.00  0.00    -0.237 OA
ATOM     82  O   UNL A   1      32.713  35.051  30.871  1.00  0.00    -0.744 OA
ENDBRANCH  78  79
ENDBRANCH  46  71
BRANCH  58  83
ATOM     83  C   UNL A   1      43.267  34.367  33.467  1.00  0.00     0.058 A 
ATOM     84  C   UNL A   1      43.072  34.503  34.850  1.00  0.00     0.135 A 
ATOM     85  C   UNL A   1      43.955  35.390  32.797  1.00  0.00     0.135 A 
ATOM     86  F   UNL A   1      42.412  33.555  35.535  1.00  0.00    -0.206 F 
ATOM     87  C   UNL A   1      43.525  35.621  35.540  1.00  0.00     0.059 A 
ATOM     88  C   UNL A   1      44.439  36.507  33.470  1.00  0.00     0.059 A 
ATOM     89  F   UNL A   1      44.177  35.304  31.475  1.00  0.00    -0.206 F 
ATOM     90  C   UNL A   1      44.209  36.619  34.842  1.00  0.00     0.060 A 
BRANCH  90  91
ATOM     91  S   UNL A   1      44.823  38.051  35.754  1.00  0.00     0.124 S 
ATOM     92  O   UNL A   1      44.405  37.731  37.115  1.00  0.00    -0.237 OA
ATOM     93  O   UNL A   1      46.259  37.992  35.501  1.00  0.00    -0.237 OA
ATOM     94  O   UNL A   1      44.128  39.173  35.130  1.00  0.00    -0.744 OA
ENDBRANCH  90  91
ENDBRANCH  58  83
ENDBRANCH  32  33
ENDBRANCH  24  27
ENDBRANCH   1  23
TORSDOF 16
ENDMDL
MODEL 3
REMARK VINA RESULT:      -9.4      0.491      8.358
REMARK SMILES CC[C@@](O)(C(=O)NCCCNC(=O)c1ccc(-c2c3nc(c(-c4c(F)cc(S(=O)(=O)[O-])cc4F)c4ccc([nH]4)c(-c4c(F)cc(S(=O)(=O)[O-])cc4F)c4nc(c(-c5c(F)cc(S(=O)(=O)[O-])cc5F)c5ccc2[nH]5)C=C4)C=C3)cc1)[C@@H]1CCOc2ccccc21
REMARK SMILES IDX 10 1 9 2 8 3 7 4 5 5 6 6 3 8 2 9 1 10 4 11 80 13 81 14 89 15
REMARK SMILES IDX 82 16 84 17 88 18 83 19 85 20 87 21 86 22 11 23 12 24 13 26
REMARK SMILES IDX 14 27 15 28 79 29 16 30 78 31 17 32 18 33 19 34 72 35 20 36
REMARK SMILES IDX 77 37 71 38 73 39 21 40 76 41 70 42 69 43 22 45 56 46 35 47
REMARK SMILES IDX 55 48 36 49 39 50 54 51 74 52 37 53 38 54 53 56 75 57 40 58
REMARK SMILES IDX 23 59 24 60 33 61 25 62 26 63 32 64 34 65 27 66 28 67 29 68
REMARK SMILES IDX 30 69 31 70 57 71 58 72 67 73 59 74 60 75 66 76 68 77 61 78
REMARK SMILES IDX 62 79 63 80 64 81 65 82 41 83 42 84 51 85 43 86 44 87 50 88
REMARK SMILES IDX 52 89 45 90 46 91 47 92 48 93 49 94
REMARK H PARENT 7 7 4 12 11 25 73 44 39 55
REMARK Flexibility Score: inf
ROOT
ATOM      1  C   UNL A   1      34.632  32.393  27.964  1.00  0.00     0.118 C 
ENDROOT
BRANCH   1   2
ATOM      2  C   UNL A   1      33.699  33.460  28.526  1.00  0.00     0.042 C 
BRANCH   2   3
ATOM      3  C   UNL A   1      34.326  34.322  29.621  1.00  0.00     0.117 C 
BRANCH   3   4
ATOM      4  N   UNL A   1      34.111  33.742  30.935  1.00  0.00    -0.354 N 
ATOM      5  C   UNL A   1      34.979  33.326  31.900  1.00  0.00     0.252 C 
ATOM      6  O   UNL A   1      34.442  32.806  32.885  1.00  0.00    -0.272 OA
ATOM      7  H   UNL A   1      33.162  33.630  31.172  1.00  0.00     0.163 HD
BRANCH   5   8
ATOM      8  C   UNL A   1      36.540  33.486  31.773  1.00  0.00     0.149 C 
BRANCH   8   9
ATOM      9  C   UNL A   1      37.057  32.661  30.568  1.00  0.00     0.043 C 
ATOM     10  C   UNL A   1      37.796  33.443  29.483  1.00  0.00     0.007 C 
ENDBRANCH   8   9
BRANCH   8  11
ATOM     11  O   UNL A   1      36.765  34.875  31.445  1.00  0.00    -0.379 OA
ATOM     12  H   UNL A   1      36.233  35.436  32.031  1.00  0.00     0.212 HD
ENDBRANCH   8  11
BRANCH   8  13
ATOM     13  C   UNL A   1      37.171  33.148  33.214  1.00  0.00     0.068 C 
ATOM     14  C   UNL A   1      37.770  34.428  33.847  1.00  0.00     0.053 C 
ATOM     15  C   UNL A   1      38.141  31.983  33.384  1.00  0.00     0.001 A 
ATOM     16  C   UNL A   1      38.562  34.077  35.088  1.00  0.00     0.230 C 
ATOM     17  C   UNL A   1      39.358  32.150  34.060  1.00  0.00     0.122 A 
ATOM     18  C   UNL A   1      37.805  30.680  32.980  1.00  0.00     0.008 A 
ATOM     19  O   UNL A   1      39.705  33.304  34.713  1.00  0.00    -0.493 OA
ATOM     20  C   UNL A   1      40.289  31.111  34.135  1.00  0.00     0.047 A 
ATOM     21  C   UNL A   1      38.729  29.636  33.056  1.00  0.00     0.001 A 
ATOM     22  C   UNL A   1      39.986  29.859  33.607  1.00  0.00     0.004 A 
ENDBRANCH   8  13
ENDBRANCH   5   8
ENDBRANCH   3   4
ENDBRANCH   2   3
ENDBRANCH   1   2
BRANCH   1  23
ATOM     23  N   UNL A   1      33.998  31.086  27.905  1.00  0.00    -0.352 N 
ATOM     24  C   UNL A   1      34.565  29.835  27.875  1.00  0.00     0.251 C 
ATOM     25  H   UNL A   1      33.015  31.099  27.882  1.00  0.00     0.163 HD
ATOM     26  O   UNL A   1      33.867  28.866  27.591  1.00  0.00    -0.269 OA
BRANCH  24  27
ATOM     27  C   UNL A   1      36.004  29.652  28.170  1.00  0.00     0.039 A 
ATOM     28  C   UNL A   1      36.381  29.236  29.450  1.00  0.00     0.014 A 
ATOM     29  C   UNL A   1      36.983  29.933  27.212  1.00  0.00     0.014 A 
ATOM     30  C   UNL A   1      37.733  29.052  29.753  1.00  0.00     0.010 A 
ATOM     31  C   UNL A   1      38.324  29.681  27.492  1.00  0.00     0.010 A 
ATOM     32  C   UNL A   1      38.714  29.248  28.769  1.00  0.00    -0.014 A 
BRANCH  32  33
ATOM     33  C   UNL A   1      40.153  29.019  29.059  1.00  0.00     0.031 A 
ATOM     34  C   UNL A   1      40.795  27.703  28.706  1.00  0.00     0.074 A 
ATOM     35  C   UNL A   1      40.866  29.971  29.692  1.00  0.00     0.049 A 
ATOM     36  N   UNL A   1      42.011  27.287  28.946  1.00  0.00    -0.248 NA
ATOM     37  C   UNL A   1      39.947  26.715  28.018  1.00  0.00     0.031 C 
ATOM     38  C   UNL A   1      40.346  31.269  30.125  1.00  0.00     0.029 A 
ATOM     39  N   UNL A   1      42.178  29.989  30.093  1.00  0.00    -0.354 N 
ATOM     40  C   UNL A   1      42.072  25.987  28.455  1.00  0.00     0.074 A 
ATOM     41  C   UNL A   1      40.756  25.667  27.947  1.00  0.00     0.031 C 
ATOM     42  C   UNL A   1      41.331  31.964  30.715  1.00  0.00     0.029 A 
ATOM     43  C   UNL A   1      42.543  31.150  30.735  1.00  0.00     0.049 A 
ATOM     44  H   UNL A   1      42.800  29.242  29.936  1.00  0.00     0.167 HD
ATOM     45  C   UNL A   1      43.132  25.146  28.412  1.00  0.00     0.037 A 
ATOM     46  C   UNL A   1      43.718  31.513  31.284  1.00  0.00     0.037 A 
ATOM     47  C   UNL A   1      44.448  25.482  28.892  1.00  0.00     0.049 A 
ATOM     48  C   UNL A   1      44.884  30.567  31.215  1.00  0.00     0.074 A 
ATOM     49  C   UNL A   1      45.604  24.722  28.839  1.00  0.00     0.029 A 
ATOM     50  N   UNL A   1      44.783  26.677  29.511  1.00  0.00    -0.354 N 
ATOM     51  N   UNL A   1      44.938  29.363  30.697  1.00  0.00    -0.248 NA
ATOM     52  C   UNL A   1      46.150  31.028  31.800  1.00  0.00     0.031 C 
ATOM     53  C   UNL A   1      46.630  25.443  29.459  1.00  0.00     0.029 A 
ATOM     54  C   UNL A   1      46.124  26.669  29.860  1.00  0.00     0.049 A 
ATOM     55  H   UNL A   1      44.161  27.420  29.677  1.00  0.00     0.167 HD
ATOM     56  C   UNL A   1      46.249  28.932  30.871  1.00  0.00     0.074 A 
ATOM     57  C   UNL A   1      46.957  30.010  31.533  1.00  0.00     0.031 C 
ATOM     58  C   UNL A   1      46.814  27.753  30.515  1.00  0.00     0.037 A 
BRANCH  45  59
ATOM     59  C   UNL A   1      42.913  23.780  27.822  1.00  0.00     0.058 A 
ATOM     60  C   UNL A   1      42.525  22.688  28.615  1.00  0.00     0.135 A 
ATOM     61  C   UNL A   1      43.065  23.564  26.442  1.00  0.00     0.135 A 
ATOM     62  F   UNL A   1      42.379  22.836  29.941  1.00  0.00    -0.206 F 
ATOM     63  C   UNL A   1      42.329  21.424  28.069  1.00  0.00     0.059 A 
ATOM     64  C   UNL A   1      42.849  22.313  25.870  1.00  0.00     0.059 A 
ATOM     65  F   UNL A   1      43.435  24.572  25.636  1.00  0.00    -0.206 F 
ATOM     66  C   UNL A   1      42.496  21.245  26.695  1.00  0.00     0.060 A 
BRANCH  66  67
ATOM     67  S   UNL A   1      42.240  19.598  26.001  1.00  0.00     0.124 S 
ATOM     68  O   UNL A   1      43.081  19.653  24.809  1.00  0.00    -0.237 OA
ATOM     69  O   UNL A   1      42.716  18.729  27.072  1.00  0.00    -0.237 OA
ATOM     70  O   UNL A   1      40.802  19.554  25.753  1.00  0.00    -0.744 OA
ENDBRANCH  66  67
ENDBRANCH  45  59
BRANCH  46  71
ATOM     71  C   UNL A   1      43.852  32.847  31.927  1.00  0.00     0.058 A 
ATOM     72  C   UNL A   1      43.689  32.997  33.312  1.00  0.00     0.135 A 
ATOM     73  C   UNL A   1      44.170  33.989  31.178  1.00  0.00     0.135 A 
ATOM     74  F   UNL A   1      43.379  31.934  34.070  1.00  0.00    -0.206 F 
ATOM     75  C   UNL A   1      43.823  34.236  33.931  1.00  0.00     0.059 A 
ATOM     76  C   UNL A   1      44.333  35.234  31.777  1.00  0.00     0.059 A 
ATOM     77  F   UNL A   1      44.354  33.895  29.851  1.00  0.00    -0.206 F 
ATOM     78  C   UNL A   1      44.148  35.349  33.154  1.00  0.00     0.060 A 
BRANCH  78  79
ATOM     79  S   UNL A   1      44.378  36.941  33.975  1.00  0.00     0.124 S 
ATOM     80  O   UNL A   1      43.245  37.702  33.461  1.00  0.00    -0.237 OA
ATOM     81  O   UNL A   1      44.314  36.573  35.386  1.00  0.00    -0.237 OA
ATOM     82  O   UNL A   1      45.693  37.371  33.508  1.00  0.00    -0.744 OA
ENDBRANCH  78  79
ENDBRANCH  46  71
BRANCH  58  83
ATOM     83  C   UNL A   1      48.278  27.573  30.809  1.00  0.00     0.058 A 
ATOM     84  C   UNL A   1      48.722  26.998  32.009  1.00  0.00     0.135 A 
ATOM     85  C   UNL A   1      49.243  27.934  29.856  1.00  0.00     0.135 A 
ATOM     86  F   UNL A   1      47.838  26.642  32.956  1.00  0.00    -0.206 F 
ATOM     87  C   UNL A   1      50.075  26.806  32.263  1.00  0.00     0.059 A 
ATOM     88  C   UNL A   1      50.600  27.729  30.078  1.00  0.00     0.059 A 
ATOM     89  F   UNL A   1      48.869  28.479  28.687  1.00  0.00    -0.206 F 
ATOM     90  C   UNL A   1      51.008  27.174  31.292  1.00  0.00     0.060 A 
BRANCH  90  91
ATOM     91  S   UNL A   1      52.761  26.889  31.619  1.00  0.00     0.124 S 
ATOM     92  O   UNL A   1      53.379  27.981  30.876  1.00  0.00    -0.237 OA
ATOM     93  O   UNL A   1      52.829  26.993  33.073  1.00  0.00    -0.237 OA
ATOM     94  O   UNL A   1      52.992  25.551  31.081  1.00  0.00    -0.744 OA
ENDBRANCH  90  91
ENDBRANCH  58  83
ENDBRANCH  32  33
ENDBRANCH  24  27
ENDBRANCH   1  23
TORSDOF 16
ENDMDL
