MODEL 1
REMARK VINA RESULT:     -11.3      0.000      0.000
REMARK SMILES [NH3+]C1(CC(=O)N[C@@H]2CCCC[C@H]2C(=O)NCCCNC(=O)c2ccc(-c3c4nc(c(-c5c(F)cc(S(=O)(=O)[O-])cc5F)c5ccc([nH]5)c(-c5c(F)cc(S(=O)(=O)[O-])cc5F)c5nc(c(-c6c(F)cc(S(=O)(=O)[O-])cc6F)c6ccc3[nH]6)C=C5)C=C4)cc2)CCC1
REMARK SMILES IDX 16 1 15 2 13 3 14 4 12 6 7 7 8 8 9 9 11 10 10 11 6 12 4 13
REMARK SMILES IDX 5 14 3 16 2 17 88 18 90 19 89 20 1 21 17 25 18 26 19 27
REMARK SMILES IDX 20 28 21 30 22 31 23 32 87 33 24 34 86 35 25 36 26 37 27 38
REMARK SMILES IDX 80 39 28 40 85 41 79 42 81 43 29 44 84 45 78 46 77 47 30 49
REMARK SMILES IDX 64 50 43 51 63 52 44 53 47 54 62 55 82 56 45 57 46 58 61 60
REMARK SMILES IDX 83 61 48 62 31 63 32 64 41 65 33 66 34 67 40 68 42 69 35 70
REMARK SMILES IDX 36 71 37 72 38 73 39 74 65 75 66 76 75 77 67 78 68 79 74 80
REMARK SMILES IDX 76 81 69 82 70 83 71 84 72 85 73 86 49 87 50 88 59 89 51 90
REMARK SMILES IDX 52 91 58 92 60 93 53 94 54 95 55 96 56 97 57 98
REMARK H PARENT 15 5 6 15 1 22 1 23 1 24 19 29 81 48 47 59
REMARK Flexibility Score: inf
ROOT
ATOM      1  C   UNL A   1      33.329  29.061  24.974  1.00  0.00     0.117 C 
ENDROOT
BRANCH   1   2
ATOM      2  N   UNL A   1      33.906  28.840  23.659  1.00  0.00    -0.356 N 
ATOM      3  C   UNL A   1      33.461  28.135  22.587  1.00  0.00     0.225 C 
ATOM      4  O   UNL A   1      34.196  28.077  21.598  1.00  0.00    -0.275 OA
ATOM      5  H   UNL A   1      34.775  29.281  23.520  1.00  0.00     0.163 HD
BRANCH   3   6
ATOM      6  C   UNL A   1      32.098  27.459  22.567  1.00  0.00     0.101 C 
ATOM      7  C   UNL A   1      32.034  26.179  23.442  1.00  0.00     0.094 C 
ATOM      8  C   UNL A   1      30.579  25.715  23.500  1.00  0.00     0.026 C 
ATOM      9  C   UNL A   1      29.690  26.791  24.095  1.00  0.00     0.002 C 
ATOM     10  C   UNL A   1      31.008  28.523  22.836  1.00  0.00     0.015 C 
ATOM     11  C   UNL A   1      29.624  27.973  23.150  1.00  0.00     0.001 C 
BRANCH   7  12
ATOM     12  N   UNL A   1      32.967  25.139  22.976  1.00  0.00    -0.352 N 
ATOM     13  C   UNL A   1      34.082  24.599  23.555  1.00  0.00     0.226 C 
ATOM     14  O   UNL A   1      34.970  24.203  22.794  1.00  0.00    -0.275 OA
ATOM     15  H   UNL A   1      32.751  24.767  22.091  1.00  0.00     0.163 HD
BRANCH  13  16
ATOM     16  C   UNL A   1      34.214  24.390  25.050  1.00  0.00     0.168 C 
BRANCH  16  17
ATOM     17  C   UNL A   1      33.990  22.980  25.590  1.00  0.00     0.103 C 
ATOM     18  C   UNL A   1      32.496  22.647  25.919  1.00  0.00     0.069 C 
ATOM     19  C   UNL A   1      34.314  22.513  27.044  1.00  0.00     0.069 C 
ATOM     20  C   UNL A   1      32.840  22.778  27.413  1.00  0.00     0.013 C 
BRANCH  17  21
ATOM     21  N   UNL A   1      34.440  21.940  24.656  1.00  0.00    -0.352 N 
ATOM     22  H   UNL A   1      34.616  21.076  25.169  1.00  0.00     0.344 HD
ATOM     23  H   UNL A   1      35.300  22.244  24.198  1.00  0.00     0.344 HD
ATOM     24  H   UNL A   1      33.719  21.778  23.954  1.00  0.00     0.344 HD
ENDBRANCH  17  21
ENDBRANCH  16  17
ENDBRANCH  13  16
ENDBRANCH   7  12
ENDBRANCH   3   6
ENDBRANCH   1   2
BRANCH   1  25
ATOM     25  C   UNL A   1      33.752  27.984  25.962  1.00  0.00     0.042 C 
BRANCH  25  26
ATOM     26  C   UNL A   1      33.475  28.351  27.413  1.00  0.00     0.118 C 
BRANCH  26  27
ATOM     27  N   UNL A   1      33.411  29.793  27.625  1.00  0.00    -0.352 N 
ATOM     28  C   UNL A   1      34.369  30.638  28.130  1.00  0.00     0.251 C 
ATOM     29  H   UNL A   1      32.562  30.220  27.370  1.00  0.00     0.163 HD
ATOM     30  O   UNL A   1      34.075  31.798  28.412  1.00  0.00    -0.269 OA
BRANCH  28  31
ATOM     31  C   UNL A   1      35.740  30.138  28.349  1.00  0.00     0.039 A 
ATOM     32  C   UNL A   1      36.626  30.073  27.271  1.00  0.00     0.014 A 
ATOM     33  C   UNL A   1      36.154  29.752  29.626  1.00  0.00     0.014 A 
ATOM     34  C   UNL A   1      37.951  29.686  27.490  1.00  0.00     0.010 A 
ATOM     35  C   UNL A   1      37.491  29.456  29.857  1.00  0.00     0.010 A 
ATOM     36  C   UNL A   1      38.401  29.410  28.791  1.00  0.00    -0.014 A 
BRANCH  36  37
ATOM     37  C   UNL A   1      39.809  29.035  29.075  1.00  0.00     0.031 A 
ATOM     38  C   UNL A   1      40.751  30.071  29.626  1.00  0.00     0.074 A 
ATOM     39  C   UNL A   1      40.262  27.807  28.749  1.00  0.00     0.049 A 
ATOM     40  N   UNL A   1      42.045  30.006  29.797  1.00  0.00    -0.248 NA
ATOM     41  C   UNL A   1      40.161  31.367  30.002  1.00  0.00     0.031 C 
ATOM     42  C   UNL A   1      39.452  26.728  28.181  1.00  0.00     0.029 A 
ATOM     43  N   UNL A   1      41.521  27.268  28.832  1.00  0.00    -0.354 N 
ATOM     44  C   UNL A   1      42.427  31.257  30.269  1.00  0.00     0.074 A 
ATOM     45  C   UNL A   1      41.237  32.076  30.310  1.00  0.00     0.031 C 
ATOM     46  C   UNL A   1      40.231  25.652  27.980  1.00  0.00     0.029 A 
ATOM     47  C   UNL A   1      41.603  25.979  28.358  1.00  0.00     0.049 A 
ATOM     48  H   UNL A   1      42.293  27.757  29.196  1.00  0.00     0.167 HD
ATOM     49  C   UNL A   1      43.655  31.677  30.654  1.00  0.00     0.037 A 
ATOM     50  C   UNL A   1      42.666  25.161  28.228  1.00  0.00     0.037 A 
ATOM     51  C   UNL A   1      44.827  30.841  30.641  1.00  0.00     0.049 A 
ATOM     52  C   UNL A   1      44.024  25.652  28.655  1.00  0.00     0.074 A 
ATOM     53  C   UNL A   1      46.106  31.151  31.065  1.00  0.00     0.029 A 
ATOM     54  N   UNL A   1      44.860  29.532  30.186  1.00  0.00    -0.354 N 
ATOM     55  N   UNL A   1      44.360  26.822  29.144  1.00  0.00    -0.248 NA
ATOM     56  C   UNL A   1      45.147  24.715  28.516  1.00  0.00     0.031 C 
ATOM     57  C   UNL A   1      46.925  30.045  30.818  1.00  0.00     0.029 A 
ATOM     58  C   UNL A   1      46.143  29.025  30.301  1.00  0.00     0.049 A 
ATOM     59  H   UNL A   1      44.086  29.036  29.832  1.00  0.00     0.167 HD
ATOM     60  C   UNL A   1      45.723  26.745  29.414  1.00  0.00     0.074 A 
ATOM     61  C   UNL A   1      46.149  25.416  29.028  1.00  0.00     0.031 C 
ATOM     62  C   UNL A   1      46.543  27.687  29.940  1.00  0.00     0.037 A 
BRANCH  49  63
ATOM     63  C   UNL A   1      43.795  33.101  31.118  1.00  0.00     0.058 A 
ATOM     64  C   UNL A   1      43.712  33.449  32.476  1.00  0.00     0.135 A 
ATOM     65  C   UNL A   1      44.046  34.130  30.195  1.00  0.00     0.135 A 
ATOM     66  F   UNL A   1      43.456  32.510  33.401  1.00  0.00    -0.206 F 
ATOM     67  C   UNL A   1      43.840  34.768  32.899  1.00  0.00     0.059 A 
ATOM     68  C   UNL A   1      44.211  35.451  30.599  1.00  0.00     0.059 A 
ATOM     69  F   UNL A   1      44.134  33.855  28.884  1.00  0.00    -0.206 F 
ATOM     70  C   UNL A   1      44.090  35.762  31.952  1.00  0.00     0.060 A 
BRANCH  70  71
ATOM     71  S   UNL A   1      44.259  37.467  32.520  1.00  0.00     0.124 S 
ATOM     72  O   UNL A   1      45.618  37.463  33.050  1.00  0.00    -0.237 OA
ATOM     73  O   UNL A   1      44.063  38.225  31.288  1.00  0.00    -0.237 OA
ATOM     74  O   UNL A   1      43.198  37.603  33.513  1.00  0.00    -0.744 OA
ENDBRANCH  70  71
ENDBRANCH  49  63
BRANCH  50  75
ATOM     75  C   UNL A   1      42.487  23.784  27.693  1.00  0.00     0.058 A 
ATOM     76  C   UNL A   1      42.395  22.683  28.558  1.00  0.00     0.135 A 
ATOM     77  C   UNL A   1      42.391  23.539  26.314  1.00  0.00     0.135 A 
ATOM     78  F   UNL A   1      42.487  22.864  29.885  1.00  0.00    -0.206 F 
ATOM     79  C   UNL A   1      42.236  21.388  28.078  1.00  0.00     0.059 A 
ATOM     80  C   UNL A   1      42.204  22.255  25.810  1.00  0.00     0.059 A 
ATOM     81  F   UNL A   1      42.453  24.558  25.443  1.00  0.00    -0.206 F 
ATOM     82  C   UNL A   1      42.137  21.184  26.701  1.00  0.00     0.060 A 
BRANCH  82  83
ATOM     83  S   UNL A   1      41.881  19.503  26.092  1.00  0.00     0.124 S 
ATOM     84  O   UNL A   1      40.447  19.502  25.828  1.00  0.00    -0.237 OA
ATOM     85  O   UNL A   1      42.748  19.468  24.919  1.00  0.00    -0.237 OA
ATOM     86  O   UNL A   1      42.318  18.671  27.209  1.00  0.00    -0.744 OA
ENDBRANCH  82  83
ENDBRANCH  50  75
BRANCH  62  87
ATOM     87  C   UNL A   1      47.974  27.305  30.203  1.00  0.00     0.058 A 
ATOM     88  C   UNL A   1      48.996  27.562  29.277  1.00  0.00     0.135 A 
ATOM     89  C   UNL A   1      48.336  26.755  31.444  1.00  0.00     0.135 A 
ATOM     90  F   UNL A   1      48.703  28.079  28.073  1.00  0.00    -0.206 F 
ATOM     91  C   UNL A   1      50.326  27.279  29.569  1.00  0.00     0.059 A 
ATOM     92  C   UNL A   1      49.661  26.492  31.769  1.00  0.00     0.059 A 
ATOM     93  F   UNL A   1      47.396  26.500  32.370  1.00  0.00    -0.206 F 
ATOM     94  C   UNL A   1      50.650  26.752  30.822  1.00  0.00     0.060 A 
BRANCH  94  95
ATOM     95  S   UNL A   1      52.387  26.451  31.212  1.00  0.00     0.124 S 
ATOM     96  O   UNL A   1      52.732  27.652  31.966  1.00  0.00    -0.237 OA
ATOM     97  O   UNL A   1      52.322  25.214  31.984  1.00  0.00    -0.237 OA
ATOM     98  O   UNL A   1      53.015  26.332  29.899  1.00  0.00    -0.744 OA
ENDBRANCH  94  95
ENDBRANCH  62  87
ENDBRANCH  36  37
ENDBRANCH  28  31
ENDBRANCH  26  27
ENDBRANCH  25  26
ENDBRANCH   1  25
TORSDOF 17
ENDMDL
MODEL 2
REMARK VINA RESULT:     -11.2      1.636      2.503
REMARK SMILES [NH3+]C1(CC(=O)N[C@@H]2CCCC[C@H]2C(=O)NCCCNC(=O)c2ccc(-c3c4nc(c(-c5c(F)cc(S(=O)(=O)[O-])cc5F)c5ccc([nH]5)c(-c5c(F)cc(S(=O)(=O)[O-])cc5F)c5nc(c(-c6c(F)cc(S(=O)(=O)[O-])cc6F)c6ccc3[nH]6)C=C5)C=C4)cc2)CCC1
REMARK SMILES IDX 16 1 15 2 13 3 14 4 12 6 7 7 8 8 9 9 11 10 10 11 6 12 4 13
REMARK SMILES IDX 5 14 3 16 2 17 88 18 90 19 89 20 1 21 17 25 18 26 19 27
REMARK SMILES IDX 20 28 21 30 22 31 23 32 87 33 24 34 86 35 25 36 26 37 27 38
REMARK SMILES IDX 80 39 28 40 85 41 79 42 81 43 29 44 84 45 78 46 77 47 30 49
REMARK SMILES IDX 64 50 43 51 63 52 44 53 47 54 62 55 82 56 45 57 46 58 61 60
REMARK SMILES IDX 83 61 48 62 31 63 32 64 41 65 33 66 34 67 40 68 42 69 35 70
REMARK SMILES IDX 36 71 37 72 38 73 39 74 65 75 66 76 75 77 67 78 68 79 74 80
REMARK SMILES IDX 76 81 69 82 70 83 71 84 72 85 73 86 49 87 50 88 59 89 51 90
REMARK SMILES IDX 52 91 58 92 60 93 53 94 54 95 55 96 56 97 57 98
REMARK H PARENT 15 5 6 15 1 22 1 23 1 24 19 29 81 48 47 59
REMARK Flexibility Score: inf
ROOT
ATOM      1  C   UNL A   1      31.613  27.116  26.034  1.00  0.00     0.117 C 
ENDROOT
BRANCH   1   2
ATOM      2  N   UNL A   1      31.082  25.776  26.222  1.00  0.00    -0.356 N 
ATOM      3  C   UNL A   1      31.354  24.603  25.595  1.00  0.00     0.225 C 
ATOM      4  O   UNL A   1      30.702  23.611  25.933  1.00  0.00    -0.275 OA
ATOM      5  H   UNL A   1      30.403  25.707  26.931  1.00  0.00     0.163 HD
BRANCH   3   6
ATOM      6  C   UNL A   1      32.439  24.480  24.536  1.00  0.00     0.101 C 
ATOM      7  C   UNL A   1      32.977  23.033  24.372  1.00  0.00     0.094 C 
ATOM      8  C   UNL A   1      33.902  23.004  23.156  1.00  0.00     0.026 C 
ATOM      9  C   UNL A   1      33.160  23.424  21.900  1.00  0.00     0.002 C 
ATOM     10  C   UNL A   1      31.958  25.179  23.242  1.00  0.00     0.015 C 
ATOM     11  C   UNL A   1      32.787  24.889  21.999  1.00  0.00     0.001 C 
BRANCH   7  12
ATOM     12  N   UNL A   1      33.607  22.531  25.605  1.00  0.00    -0.352 N 
ATOM     13  C   UNL A   1      33.873  21.259  26.031  1.00  0.00     0.226 C 
ATOM     14  O   UNL A   1      33.864  21.065  27.251  1.00  0.00    -0.275 OA
ATOM     15  H   UNL A   1      33.885  23.234  26.234  1.00  0.00     0.163 HD
BRANCH  13  16
ATOM     16  C   UNL A   1      34.261  20.138  25.087  1.00  0.00     0.168 C 
BRANCH  16  17
ATOM     17  C   UNL A   1      33.378  18.894  25.066  1.00  0.00     0.103 C 
ATOM     18  C   UNL A   1      34.101  17.599  24.563  1.00  0.00     0.069 C 
ATOM     19  C   UNL A   1      32.288  18.586  23.992  1.00  0.00     0.069 C 
ATOM     20  C   UNL A   1      33.330  17.734  23.239  1.00  0.00     0.013 C 
BRANCH  17  21
ATOM     21  N   UNL A   1      32.833  18.565  26.389  1.00  0.00    -0.352 N 
ATOM     22  H   UNL A   1      32.912  19.377  27.001  1.00  0.00     0.344 HD
ATOM     23  H   UNL A   1      33.358  17.786  26.789  1.00  0.00     0.344 HD
ATOM     24  H   UNL A   1      31.852  18.302  26.297  1.00  0.00     0.344 HD
ENDBRANCH  17  21
ENDBRANCH  16  17
ENDBRANCH  13  16
ENDBRANCH   7  12
ENDBRANCH   3   6
ENDBRANCH   1   2
BRANCH   1  25
ATOM     25  C   UNL A   1      32.131  27.703  27.338  1.00  0.00     0.042 C 
BRANCH  25  26
ATOM     26  C   UNL A   1      33.464  28.424  27.189  1.00  0.00     0.118 C 
BRANCH  26  27
ATOM     27  N   UNL A   1      33.363  29.853  27.467  1.00  0.00    -0.352 N 
ATOM     28  C   UNL A   1      34.281  30.690  28.052  1.00  0.00     0.251 C 
ATOM     29  H   UNL A   1      32.517  30.277  27.196  1.00  0.00     0.163 HD
ATOM     30  O   UNL A   1      33.953  31.829  28.376  1.00  0.00    -0.269 OA
BRANCH  28  31
ATOM     31  C   UNL A   1      35.652  30.203  28.306  1.00  0.00     0.039 A 
ATOM     32  C   UNL A   1      36.589  30.225  27.270  1.00  0.00     0.014 A 
ATOM     33  C   UNL A   1      36.014  29.746  29.575  1.00  0.00     0.014 A 
ATOM     34  C   UNL A   1      37.911  29.851  27.527  1.00  0.00     0.010 A 
ATOM     35  C   UNL A   1      37.345  29.463  29.851  1.00  0.00     0.010 A 
ATOM     36  C   UNL A   1      38.306  29.502  28.830  1.00  0.00    -0.014 A 
BRANCH  36  37
ATOM     37  C   UNL A   1      39.707  29.137  29.157  1.00  0.00     0.031 A 
ATOM     38  C   UNL A   1      40.616  30.174  29.760  1.00  0.00     0.074 A 
ATOM     39  C   UNL A   1      40.185  27.921  28.827  1.00  0.00     0.049 A 
ATOM     40  N   UNL A   1      41.904  30.120  29.976  1.00  0.00    -0.248 NA
ATOM     41  C   UNL A   1      39.997  31.457  30.137  1.00  0.00     0.031 C 
ATOM     42  C   UNL A   1      39.409  26.843  28.211  1.00  0.00     0.029 A 
ATOM     43  N   UNL A   1      41.446  27.394  28.945  1.00  0.00    -0.354 N 
ATOM     44  C   UNL A   1      42.254  31.367  30.483  1.00  0.00     0.074 A 
ATOM     45  C   UNL A   1      41.053  32.172  30.496  1.00  0.00     0.031 C 
ATOM     46  C   UNL A   1      40.207  25.779  28.020  1.00  0.00     0.029 A 
ATOM     47  C   UNL A   1      41.561  26.115  28.453  1.00  0.00     0.049 A 
ATOM     48  H   UNL A   1      42.200  27.886  29.346  1.00  0.00     0.167 HD
ATOM     49  C   UNL A   1      43.462  31.794  30.919  1.00  0.00     0.037 A 
ATOM     50  C   UNL A   1      42.637  25.311  28.346  1.00  0.00     0.037 A 
ATOM     51  C   UNL A   1      44.643  30.972  30.935  1.00  0.00     0.049 A 
ATOM     52  C   UNL A   1      43.974  25.810  28.830  1.00  0.00     0.074 A 
ATOM     53  C   UNL A   1      45.903  31.288  31.409  1.00  0.00     0.029 A 
ATOM     54  N   UNL A   1      44.708  29.671  30.458  1.00  0.00    -0.354 N 
ATOM     55  N   UNL A   1      44.278  26.975  29.352  1.00  0.00    -0.248 NA
ATOM     56  C   UNL A   1      45.112  24.889  28.716  1.00  0.00     0.031 C 
ATOM     57  C   UNL A   1      46.743  30.196  31.173  1.00  0.00     0.029 A 
ATOM     58  C   UNL A   1      45.992  29.177  30.610  1.00  0.00     0.049 A 
ATOM     59  H   UNL A   1      43.954  29.173  30.067  1.00  0.00     0.167 HD
ATOM     60  C   UNL A   1      45.631  26.908  29.669  1.00  0.00     0.074 A 
ATOM     61  C   UNL A   1      46.087  25.591  29.276  1.00  0.00     0.031 C 
ATOM     62  C   UNL A   1      46.421  27.850  30.240  1.00  0.00     0.037 A 
BRANCH  49  63
ATOM     63  C   UNL A   1      43.568  33.211  31.413  1.00  0.00     0.058 A 
ATOM     64  C   UNL A   1      43.411  33.536  32.770  1.00  0.00     0.135 A 
ATOM     65  C   UNL A   1      43.862  34.256  30.521  1.00  0.00     0.135 A 
ATOM     66  F   UNL A   1      43.112  32.581  33.665  1.00  0.00    -0.206 F 
ATOM     67  C   UNL A   1      43.509  34.849  33.221  1.00  0.00     0.059 A 
ATOM     68  C   UNL A   1      43.997  35.572  30.954  1.00  0.00     0.059 A 
ATOM     69  F   UNL A   1      44.022  34.003  29.213  1.00  0.00    -0.206 F 
ATOM     70  C   UNL A   1      43.803  35.859  32.304  1.00  0.00     0.060 A 
BRANCH  70  71
ATOM     71  S   UNL A   1      43.931  37.556  32.907  1.00  0.00     0.124 S 
ATOM     72  O   UNL A   1      43.768  38.316  31.673  1.00  0.00    -0.237 OA
ATOM     73  O   UNL A   1      42.821  37.635  33.851  1.00  0.00    -0.237 OA
ATOM     74  O   UNL A   1      45.262  37.606  33.503  1.00  0.00    -0.744 OA
ENDBRANCH  70  71
ENDBRANCH  49  63
BRANCH  50  75
ATOM     75  C   UNL A   1      42.494  23.942  27.782  1.00  0.00     0.058 A 
ATOM     76  C   UNL A   1      42.374  22.827  28.623  1.00  0.00     0.135 A 
ATOM     77  C   UNL A   1      42.461  23.720  26.396  1.00  0.00     0.135 A 
ATOM     78  F   UNL A   1      42.406  22.986  29.956  1.00  0.00    -0.206 F 
ATOM     79  C   UNL A   1      42.247  21.538  28.116  1.00  0.00     0.059 A 
ATOM     80  C   UNL A   1      42.307  22.443  25.863  1.00  0.00     0.059 A 
ATOM     81  F   UNL A   1      42.552  24.754  25.545  1.00  0.00    -0.206 F 
ATOM     82  C   UNL A   1      42.211  21.356  26.732  1.00  0.00     0.060 A 
BRANCH  82  83
ATOM     83  S   UNL A   1      41.996  19.684  26.085  1.00  0.00     0.124 S 
ATOM     84  O   UNL A   1      42.919  19.686  24.956  1.00  0.00    -0.237 OA
ATOM     85  O   UNL A   1      42.385  18.863  27.228  1.00  0.00    -0.237 OA
ATOM     86  O   UNL A   1      40.578  19.636  25.743  1.00  0.00    -0.744 OA
ENDBRANCH  82  83
ENDBRANCH  50  75
BRANCH  62  87
ATOM     87  C   UNL A   1      47.846  27.479  30.548  1.00  0.00     0.058 A 
ATOM     88  C   UNL A   1      48.202  26.797  31.720  1.00  0.00     0.135 A 
ATOM     89  C   UNL A   1      48.855  27.734  29.603  1.00  0.00     0.135 A 
ATOM     90  F   UNL A   1      47.277  26.536  32.658  1.00  0.00    -0.206 F 
ATOM     91  C   UNL A   1      49.511  26.388  31.950  1.00  0.00     0.059 A 
ATOM     92  C   UNL A   1      50.163  27.308  29.799  1.00  0.00     0.059 A 
ATOM     93  F   UNL A   1      48.565  28.375  28.459  1.00  0.00    -0.206 F 
ATOM     94  C   UNL A   1      50.484  26.640  30.980  1.00  0.00     0.060 A 
BRANCH  94  95
ATOM     95  S   UNL A   1      52.165  26.045  31.263  1.00  0.00     0.124 S 
ATOM     96  O   UNL A   1      52.708  26.043  29.908  1.00  0.00    -0.237 OA
ATOM     97  O   UNL A   1      52.706  27.059  32.161  1.00  0.00    -0.237 OA
ATOM     98  O   UNL A   1      51.964  24.728  31.861  1.00  0.00    -0.744 OA
ENDBRANCH  94  95
ENDBRANCH  62  87
ENDBRANCH  36  37
ENDBRANCH  28  31
ENDBRANCH  26  27
ENDBRANCH  25  26
ENDBRANCH   1  25
TORSDOF 17
ENDMDL
MODEL 3
REMARK VINA RESULT:     -11.1      3.287      4.824
REMARK SMILES [NH3+]C1(CC(=O)N[C@@H]2CCCC[C@H]2C(=O)NCCCNC(=O)c2ccc(-c3c4nc(c(-c5c(F)cc(S(=O)(=O)[O-])cc5F)c5ccc([nH]5)c(-c5c(F)cc(S(=O)(=O)[O-])cc5F)c5nc(c(-c6c(F)cc(S(=O)(=O)[O-])cc6F)c6ccc3[nH]6)C=C5)C=C4)cc2)CCC1
REMARK SMILES IDX 16 1 15 2 13 3 14 4 12 6 7 7 8 8 9 9 11 10 10 11 6 12 4 13
REMARK SMILES IDX 5 14 3 16 2 17 88 18 90 19 89 20 1 21 17 25 18 26 19 27
REMARK SMILES IDX 20 28 21 30 22 31 23 32 87 33 24 34 86 35 25 36 26 37 27 38
REMARK SMILES IDX 80 39 28 40 85 41 79 42 81 43 29 44 84 45 78 46 77 47 30 49
REMARK SMILES IDX 64 50 43 51 63 52 44 53 47 54 62 55 82 56 45 57 46 58 61 60
REMARK SMILES IDX 83 61 48 62 31 63 32 64 41 65 33 66 34 67 40 68 42 69 35 70
REMARK SMILES IDX 36 71 37 72 38 73 39 74 65 75 66 76 75 77 67 78 68 79 74 80
REMARK SMILES IDX 76 81 69 82 70 83 71 84 72 85 73 86 49 87 50 88 59 89 51 90
REMARK SMILES IDX 52 91 58 92 60 93 53 94 54 95 55 96 56 97 57 98
REMARK H PARENT 15 5 6 15 1 22 1 23 1 24 19 29 81 48 47 59
REMARK Flexibility Score: inf
ROOT
ATOM      1  C   UNL A   1      31.639  27.934  26.520  1.00  0.00     0.117 C 
ENDROOT
BRANCH   1   2
ATOM      2  N   UNL A   1      30.930  26.685  26.748  1.00  0.00    -0.356 N 
ATOM      3  C   UNL A   1      30.792  25.575  25.979  1.00  0.00     0.225 C 
ATOM      4  O   UNL A   1      30.077  24.667  26.410  1.00  0.00    -0.275 OA
ATOM      5  H   UNL A   1      30.466  26.637  27.614  1.00  0.00     0.163 HD
BRANCH   3   6
ATOM      6  C   UNL A   1      31.508  25.415  24.646  1.00  0.00     0.101 C 
ATOM      7  C   UNL A   1      31.270  26.602  23.674  1.00  0.00     0.094 C 
ATOM      8  C   UNL A   1      32.192  26.422  22.469  1.00  0.00     0.026 C 
ATOM      9  C   UNL A   1      33.647  26.392  22.899  1.00  0.00     0.002 C 
ATOM     10  C   UNL A   1      32.985  25.039  24.912  1.00  0.00     0.015 C 
ATOM     11  C   UNL A   1      33.910  25.139  23.708  1.00  0.00     0.001 C 
BRANCH   7  12
ATOM     12  N   UNL A   1      29.850  26.749  23.314  1.00  0.00    -0.352 N 
ATOM     13  C   UNL A   1      28.998  27.815  23.409  1.00  0.00     0.226 C 
ATOM     14  O   UNL A   1      27.803  27.560  23.589  1.00  0.00    -0.275 OA
ATOM     15  H   UNL A   1      29.440  25.937  22.938  1.00  0.00     0.163 HD
BRANCH  13  16
ATOM     16  C   UNL A   1      29.447  29.248  23.211  1.00  0.00     0.168 C 
BRANCH  16  17
ATOM     17  C   UNL A   1      28.413  30.250  22.704  1.00  0.00     0.103 C 
ATOM     18  C   UNL A   1      29.026  31.558  22.099  1.00  0.00     0.069 C 
ATOM     19  C   UNL A   1      27.552  31.187  23.608  1.00  0.00     0.069 C 
ATOM     20  C   UNL A   1      28.595  32.300  23.375  1.00  0.00     0.013 C 
BRANCH  17  21
ATOM     21  N   UNL A   1      27.547  29.688  21.660  1.00  0.00    -0.352 N 
ATOM     22  H   UNL A   1      27.443  28.684  21.808  1.00  0.00     0.344 HD
ATOM     23  H   UNL A   1      27.966  29.855  20.745  1.00  0.00     0.344 HD
ATOM     24  H   UNL A   1      26.631  30.134  21.702  1.00  0.00     0.344 HD
ENDBRANCH  17  21
ENDBRANCH  16  17
ENDBRANCH  13  16
ENDBRANCH   7  12
ENDBRANCH   3   6
ENDBRANCH   1   2
BRANCH   1  25
ATOM     25  C   UNL A   1      33.122  27.802  26.827  1.00  0.00     0.042 C 
BRANCH  25  26
ATOM     26  C   UNL A   1      33.994  28.757  26.024  1.00  0.00     0.118 C 
BRANCH  26  27
ATOM     27  N   UNL A   1      33.799  30.151  26.407  1.00  0.00    -0.352 N 
ATOM     28  C   UNL A   1      34.471  30.895  27.345  1.00  0.00     0.251 C 
ATOM     29  H   UNL A   1      33.083  30.625  25.925  1.00  0.00     0.163 HD
ATOM     30  O   UNL A   1      34.048  32.003  27.667  1.00  0.00    -0.269 OA
BRANCH  28  31
ATOM     31  C   UNL A   1      35.689  30.346  27.975  1.00  0.00     0.039 A 
ATOM     32  C   UNL A   1      36.919  30.488  27.328  1.00  0.00     0.014 A 
ATOM     33  C   UNL A   1      35.614  29.709  29.215  1.00  0.00     0.014 A 
ATOM     34  C   UNL A   1      38.085  30.051  27.960  1.00  0.00     0.010 A 
ATOM     35  C   UNL A   1      36.781  29.358  29.880  1.00  0.00     0.010 A 
ATOM     36  C   UNL A   1      38.028  29.515  29.257  1.00  0.00    -0.014 A 
BRANCH  36  37
ATOM     37  C   UNL A   1      39.246  29.075  29.983  1.00  0.00     0.031 A 
ATOM     38  C   UNL A   1      39.672  29.814  31.223  1.00  0.00     0.074 A 
ATOM     39  C   UNL A   1      40.014  28.088  29.480  1.00  0.00     0.049 A 
ATOM     40  N   UNL A   1      40.775  29.702  31.915  1.00  0.00    -0.248 NA
ATOM     41  C   UNL A   1      38.747  30.842  31.730  1.00  0.00     0.031 C 
ATOM     42  C   UNL A   1      39.722  27.318  28.269  1.00  0.00     0.029 A 
ATOM     43  N   UNL A   1      41.211  27.577  29.915  1.00  0.00    -0.354 N 
ATOM     44  C   UNL A   1      40.691  30.662  32.917  1.00  0.00     0.074 A 
ATOM     45  C   UNL A   1      39.453  31.380  32.713  1.00  0.00     0.031 C 
ATOM     46  C   UNL A   1      40.704  26.424  28.068  1.00  0.00     0.029 A 
ATOM     47  C   UNL A   1      41.719  26.589  29.105  1.00  0.00     0.049 A 
ATOM     48  H   UNL A   1      41.664  27.888  30.732  1.00  0.00     0.167 HD
ATOM     49  C   UNL A   1      41.557  30.908  33.928  1.00  0.00     0.037 A 
ATOM     50  C   UNL A   1      42.878  25.905  29.179  1.00  0.00     0.037 A 
ATOM     51  C   UNL A   1      42.769  30.162  34.142  1.00  0.00     0.049 A 
ATOM     52  C   UNL A   1      43.830  26.201  30.308  1.00  0.00     0.074 A 
ATOM     53  C   UNL A   1      43.687  30.291  35.169  1.00  0.00     0.029 A 
ATOM     54  N   UNL A   1      43.230  29.147  33.317  1.00  0.00    -0.354 N 
ATOM     55  N   UNL A   1      43.713  27.079  31.276  1.00  0.00    -0.248 NA
ATOM     56  C   UNL A   1      45.069  25.413  30.360  1.00  0.00     0.031 C 
ATOM     57  C   UNL A   1      44.728  29.388  34.937  1.00  0.00     0.029 A 
ATOM     58  C   UNL A   1      44.428  28.653  33.802  1.00  0.00     0.049 A 
ATOM     59  H   UNL A   1      42.773  28.826  32.506  1.00  0.00     0.167 HD
ATOM     60  C   UNL A   1      44.840  26.917  32.075  1.00  0.00     0.074 A 
ATOM     61  C   UNL A   1      45.628  25.861  31.476  1.00  0.00     0.031 C 
ATOM     62  C   UNL A   1      45.185  27.578  33.207  1.00  0.00     0.037 A 
BRANCH  49  63
ATOM     63  C   UNL A   1      41.226  32.026  34.878  1.00  0.00     0.058 A 
ATOM     64  C   UNL A   1      41.676  33.339  34.662  1.00  0.00     0.135 A 
ATOM     65  C   UNL A   1      40.419  31.790  36.003  1.00  0.00     0.135 A 
ATOM     66  F   UNL A   1      42.465  33.620  33.613  1.00  0.00    -0.206 F 
ATOM     67  C   UNL A   1      41.368  34.369  35.545  1.00  0.00     0.059 A 
ATOM     68  C   UNL A   1      40.070  32.812  36.881  1.00  0.00     0.059 A 
ATOM     69  F   UNL A   1      39.961  30.554  36.258  1.00  0.00    -0.206 F 
ATOM     70  C   UNL A   1      40.563  34.095  36.652  1.00  0.00     0.060 A 
BRANCH  70  71
ATOM     71  S   UNL A   1      40.168  35.445  37.783  1.00  0.00     0.124 S 
ATOM     72  O   UNL A   1      38.928  34.966  38.384  1.00  0.00    -0.237 OA
ATOM     73  O   UNL A   1      41.333  35.464  38.663  1.00  0.00    -0.237 OA
ATOM     74  O   UNL A   1      40.033  36.600  36.901  1.00  0.00    -0.744 OA
ENDBRANCH  70  71
ENDBRANCH  49  63
BRANCH  50  75
ATOM     75  C   UNL A   1      43.193  24.857  28.170  1.00  0.00     0.058 A 
ATOM     76  C   UNL A   1      43.825  25.189  26.964  1.00  0.00     0.135 A 
ATOM     77  C   UNL A   1      42.881  23.507  28.394  1.00  0.00     0.135 A 
ATOM     78  F   UNL A   1      44.139  26.467  26.700  1.00  0.00    -0.206 F 
ATOM     79  C   UNL A   1      44.121  24.226  26.005  1.00  0.00     0.059 A 
ATOM     80  C   UNL A   1      43.192  22.520  27.462  1.00  0.00     0.059 A 
ATOM     81  F   UNL A   1      42.293  23.132  29.541  1.00  0.00    -0.206 F 
ATOM     82  C   UNL A   1      43.803  22.892  26.265  1.00  0.00     0.060 A 
BRANCH  82  83
ATOM     83  S   UNL A   1      44.237  21.644  25.034  1.00  0.00     0.124 S 
ATOM     84  O   UNL A   1      45.586  21.277  25.449  1.00  0.00    -0.237 OA
ATOM     85  O   UNL A   1      43.205  20.633  25.248  1.00  0.00    -0.237 OA
ATOM     86  O   UNL A   1      44.139  22.370  23.772  1.00  0.00    -0.744 OA
ENDBRANCH  82  83
ENDBRANCH  50  75
BRANCH  62  87
ATOM     87  C   UNL A   1      46.433  27.141  33.923  1.00  0.00     0.058 A 
ATOM     88  C   UNL A   1      47.679  27.738  33.681  1.00  0.00     0.135 A 
ATOM     89  C   UNL A   1      46.357  26.169  34.935  1.00  0.00     0.135 A 
ATOM     90  F   UNL A   1      47.809  28.666  32.720  1.00  0.00    -0.206 F 
ATOM     91  C   UNL A   1      48.808  27.380  34.411  1.00  0.00     0.059 A 
ATOM     92  C   UNL A   1      47.464  25.817  35.696  1.00  0.00     0.059 A 
ATOM     93  F   UNL A   1      45.185  25.574  35.213  1.00  0.00    -0.206 F 
ATOM     94  C   UNL A   1      48.689  26.425  35.423  1.00  0.00     0.060 A 
BRANCH  94  95
ATOM     95  S   UNL A   1      50.148  26.018  36.406  1.00  0.00     0.124 S 
ATOM     96  O   UNL A   1      50.315  24.598  36.111  1.00  0.00    -0.237 OA
ATOM     97  O   UNL A   1      51.160  26.906  35.843  1.00  0.00    -0.237 OA
ATOM     98  O   UNL A   1      49.736  26.331  37.771  1.00  0.00    -0.744 OA
ENDBRANCH  94  95
ENDBRANCH  62  87
ENDBRANCH  36  37
ENDBRANCH  28  31
ENDBRANCH  26  27
ENDBRANCH  25  26
ENDBRANCH   1  25
TORSDOF 17
ENDMDL
