MODEL 1
REMARK VINA RESULT:     -11.8      0.000      0.000
REMARK SMILES COc1cccc(-c2c([C@H]3c4ccccc4C(=O)N3CC(=O)NCCCNC(=O)c3ccc(-c4c5nc(c(-c6c(F)cc(S(=O)(=O)[O-])cc6F)c6ccc([nH]6)c(-c6c(F)cc(S(=O)(=O)[O-])cc6F)c6nc(c(-c7c(F)cc(S(=O)(=O)[O-])cc7F)c7ccc4[nH]7)C=C6)C=C5)cc3)c3ccccc3n2C)c1
REMARK SMILES IDX 24 1 23 2 21 3 22 4 20 6 19 7 10 8 11 9 12 10 16 11 17 12
REMARK SMILES IDX 13 13 15 14 18 15 14 16 9 17 8 18 102 19 96 20 101 21 103 22
REMARK SMILES IDX 97 23 100 24 98 25 99 26 7 27 3 28 4 29 104 30 5 31 6 32
REMARK SMILES IDX 2 33 1 34 25 35 26 36 27 37 28 38 29 40 30 41 31 42 95 43
REMARK SMILES IDX 32 44 94 45 33 46 34 47 35 48 88 49 36 50 93 51 87 52 89 53
REMARK SMILES IDX 37 54 92 55 86 56 85 57 38 59 72 60 51 61 71 62 52 63 55 64
REMARK SMILES IDX 70 65 90 66 53 67 54 68 69 70 91 71 56 72 39 73 40 74 49 75
REMARK SMILES IDX 41 76 42 77 48 78 50 79 43 80 44 81 45 82 46 83 47 84 73 85
REMARK SMILES IDX 74 86 83 87 75 88 76 89 82 90 84 91 77 92 78 93 79 94 80 95
REMARK SMILES IDX 81 96 57 97 58 98 67 99 59 100 60 101 66 102 68 103 61 104
REMARK SMILES IDX 62 105 63 106 64 107 65 108
REMARK H PARENT 23 5 27 39 89 58 55 69
REMARK Flexibility Score: inf
ROOT
ATOM      1  C   UNL A   1      37.283  22.705  25.442  1.00  0.00     0.117 C 
ENDROOT
BRANCH   1   2
ATOM      2  N   UNL A   1      36.262  21.836  26.001  1.00  0.00    -0.354 N 
ATOM      3  C   UNL A   1      35.144  22.226  26.683  1.00  0.00     0.239 C 
ATOM      4  O   UNL A   1      34.560  21.409  27.397  1.00  0.00    -0.273 OA
ATOM      5  H   UNL A   1      36.388  20.867  25.876  1.00  0.00     0.163 HD
BRANCH   3   6
ATOM      6  C   UNL A   1      34.623  23.644  26.507  1.00  0.00     0.220 C 
BRANCH   6   7
ATOM      7  N   UNL A   1      33.826  23.967  25.321  1.00  0.00    -0.318 N 
ATOM      8  C   UNL A   1      32.876  25.059  25.473  1.00  0.00     0.150 C 
ATOM      9  C   UNL A   1      31.634  24.266  25.805  1.00  0.00    -0.008 A 
ATOM     10  C   UNL A   1      30.703  24.438  26.816  1.00  0.00     0.007 A 
ATOM     11  C   UNL A   1      31.737  23.017  25.194  1.00  0.00     0.045 A 
ATOM     12  C   UNL A   1      33.124  22.883  24.755  1.00  0.00     0.255 C 
ATOM     13  C   UNL A   1      29.890  23.345  27.164  1.00  0.00     0.000 A 
ATOM     14  C   UNL A   1      30.916  21.940  25.477  1.00  0.00     0.014 A 
ATOM     15  O   UNL A   1      33.542  21.854  24.263  1.00  0.00    -0.269 OA
ATOM     16  C   UNL A   1      29.981  22.113  26.489  1.00  0.00     0.001 A 
BRANCH   8  17
ATOM     17  C   UNL A   1      32.606  25.796  24.169  1.00  0.00     0.013 A 
ATOM     18  C   UNL A   1      32.266  27.152  24.072  1.00  0.00     0.055 A 
ATOM     19  N   UNL A   1      31.815  27.363  22.785  1.00  0.00    -0.343 N 
ATOM     20  C   UNL A   1      32.780  25.350  22.808  1.00  0.00     0.006 A 
ATOM     21  C   UNL A   1      32.241  26.332  21.969  1.00  0.00     0.049 A 
ATOM     22  C   UNL A   1      31.038  28.497  22.332  1.00  0.00     0.150 C 
ATOM     23  C   UNL A   1      33.340  24.202  22.201  1.00  0.00     0.011 A 
ATOM     24  C   UNL A   1      32.195  26.173  20.570  1.00  0.00     0.027 A 
ATOM     25  C   UNL A   1      33.324  24.047  20.811  1.00  0.00     0.001 A 
ATOM     26  C   UNL A   1      32.744  25.018  20.008  1.00  0.00     0.002 A 
BRANCH  18  27
ATOM     27  C   UNL A   1      32.419  28.150  25.137  1.00  0.00     0.002 A 
ATOM     28  C   UNL A   1      34.039  29.346  26.516  1.00  0.00     0.119 A 
ATOM     29  C   UNL A   1      33.013  29.692  27.392  1.00  0.00     0.046 A 
ATOM     30  C   UNL A   1      33.720  28.644  25.358  1.00  0.00     0.056 A 
ATOM     31  C   UNL A   1      31.696  29.295  27.133  1.00  0.00     0.005 A 
ATOM     32  C   UNL A   1      31.402  28.502  26.020  1.00  0.00     0.010 A 
BRANCH  28  33
ATOM     33  O   UNL A   1      35.303  29.699  26.900  1.00  0.00    -0.497 OA
ATOM     34  C   UNL A   1      35.422  30.921  27.632  1.00  0.00     0.278 C 
ENDBRANCH  28  33
ENDBRANCH  18  27
ENDBRANCH   8  17
ENDBRANCH   6   7
ENDBRANCH   3   6
ENDBRANCH   1   2
BRANCH   1  35
ATOM     35  C   UNL A   1      38.632  22.383  26.070  1.00  0.00     0.042 C 
BRANCH  35  36
ATOM     36  C   UNL A   1      39.226  23.560  26.813  1.00  0.00     0.118 C 
BRANCH  36  37
ATOM     37  N   UNL A   1      40.450  23.998  26.164  1.00  0.00    -0.352 N 
ATOM     38  C   UNL A   1      41.055  25.230  26.195  1.00  0.00     0.251 C 
ATOM     39  H   UNL A   1      40.911  23.314  25.627  1.00  0.00     0.163 HD
ATOM     40  O   UNL A   1      41.824  25.531  25.284  1.00  0.00    -0.269 OA
BRANCH  38  41
ATOM     41  C   UNL A   1      40.814  26.187  27.307  1.00  0.00     0.039 A 
ATOM     42  C   UNL A   1      41.500  27.407  27.309  1.00  0.00     0.014 A 
ATOM     43  C   UNL A   1      40.016  25.853  28.404  1.00  0.00     0.014 A 
ATOM     44  C   UNL A   1      41.387  28.274  28.401  1.00  0.00     0.010 A 
ATOM     45  C   UNL A   1      39.814  26.763  29.437  1.00  0.00     0.010 A 
ATOM     46  C   UNL A   1      40.540  27.959  29.474  1.00  0.00    -0.014 A 
BRANCH  46  47
ATOM     47  C   UNL A   1      40.471  28.810  30.691  1.00  0.00     0.031 A 
ATOM     48  C   UNL A   1      39.431  29.903  30.777  1.00  0.00     0.074 A 
ATOM     49  C   UNL A   1      41.362  28.644  31.686  1.00  0.00     0.049 A 
ATOM     50  N   UNL A   1      39.259  30.812  31.703  1.00  0.00    -0.248 NA
ATOM     51  C   UNL A   1      38.482  30.011  29.656  1.00  0.00     0.031 C 
ATOM     52  C   UNL A   1      42.445  27.659  31.696  1.00  0.00     0.029 A 
ATOM     53  N   UNL A   1      41.505  29.308  32.877  1.00  0.00    -0.354 N 
ATOM     54  C   UNL A   1      38.214  31.616  31.259  1.00  0.00     0.074 A 
ATOM     55  C   UNL A   1      37.820  31.118  29.960  1.00  0.00     0.031 C 
ATOM     56  C   UNL A   1      43.128  27.770  32.848  1.00  0.00     0.029 A 
ATOM     57  C   UNL A   1      42.554  28.853  33.640  1.00  0.00     0.049 A 
ATOM     58  H   UNL A   1      40.912  30.042  33.159  1.00  0.00     0.167 HD
ATOM     59  C   UNL A   1      37.619  32.658  31.885  1.00  0.00     0.037 A 
ATOM     60  C   UNL A   1      43.005  29.267  34.840  1.00  0.00     0.037 A 
ATOM     61  C   UNL A   1      37.973  33.108  33.205  1.00  0.00     0.049 A 
ATOM     62  C   UNL A   1      42.294  30.393  35.541  1.00  0.00     0.074 A 
ATOM     63  C   UNL A   1      37.379  34.101  33.964  1.00  0.00     0.029 A 
ATOM     64  N   UNL A   1      39.008  32.585  33.967  1.00  0.00    -0.354 N 
ATOM     65  N   UNL A   1      41.270  31.103  35.131  1.00  0.00    -0.248 NA
ATOM     66  C   UNL A   1      42.792  30.768  36.872  1.00  0.00     0.031 C 
ATOM     67  C   UNL A   1      38.075  34.198  35.174  1.00  0.00     0.029 A 
ATOM     68  C   UNL A   1      39.078  33.241  35.182  1.00  0.00     0.049 A 
ATOM     69  H   UNL A   1      39.604  31.854  33.683  1.00  0.00     0.167 HD
ATOM     70  C   UNL A   1      40.988  31.994  36.160  1.00  0.00     0.074 A 
ATOM     71  C   UNL A   1      41.941  31.724  37.218  1.00  0.00     0.031 C 
ATOM     72  C   UNL A   1      40.029  32.949  36.225  1.00  0.00     0.037 A 
BRANCH  59  73
ATOM     73  C   UNL A   1      36.513  33.374  31.158  1.00  0.00     0.058 A 
ATOM     74  C   UNL A   1      36.770  34.199  30.052  1.00  0.00     0.135 A 
ATOM     75  C   UNL A   1      35.176  33.207  31.553  1.00  0.00     0.135 A 
ATOM     76  F   UNL A   1      38.032  34.407  29.642  1.00  0.00    -0.206 F 
ATOM     77  C   UNL A   1      35.744  34.856  29.380  1.00  0.00     0.059 A 
ATOM     78  C   UNL A   1      34.131  33.833  30.878  1.00  0.00     0.059 A 
ATOM     79  F   UNL A   1      34.873  32.430  32.604  1.00  0.00    -0.206 F 
ATOM     80  C   UNL A   1      34.428  34.668  29.801  1.00  0.00     0.060 A 
BRANCH  80  81
ATOM     81  S   UNL A   1      33.105  35.519  28.913  1.00  0.00     0.124 S 
ATOM     82  O   UNL A   1      32.479  34.413  28.195  1.00  0.00    -0.237 OA
ATOM     83  O   UNL A   1      32.317  36.095  29.998  1.00  0.00    -0.237 OA
ATOM     84  O   UNL A   1      33.819  36.482  28.081  1.00  0.00    -0.744 OA
ENDBRANCH  80  81
ENDBRANCH  59  73
BRANCH  60  85
ATOM     85  C   UNL A   1      44.176  28.595  35.462  1.00  0.00     0.058 A 
ATOM     86  C   UNL A   1      45.481  29.039  35.207  1.00  0.00     0.135 A 
ATOM     87  C   UNL A   1      44.012  27.513  36.340  1.00  0.00     0.135 A 
ATOM     88  F   UNL A   1      45.688  30.067  34.370  1.00  0.00    -0.206 F 
ATOM     89  C   UNL A   1      46.586  28.424  35.787  1.00  0.00     0.059 A 
ATOM     90  C   UNL A   1      45.100  26.897  36.951  1.00  0.00     0.059 A 
ATOM     91  F   UNL A   1      42.781  27.061  36.630  1.00  0.00    -0.206 F 
ATOM     92  C   UNL A   1      46.385  27.354  36.660  1.00  0.00     0.060 A 
BRANCH  92  93
ATOM     93  S   UNL A   1      47.821  26.593  37.447  1.00  0.00     0.124 S 
ATOM     94  O   UNL A   1      48.603  27.764  37.828  1.00  0.00    -0.237 OA
ATOM     95  O   UNL A   1      47.213  25.847  38.545  1.00  0.00    -0.237 OA
ATOM     96  O   UNL A   1      48.391  25.772  36.383  1.00  0.00    -0.744 OA
ENDBRANCH  92  93
ENDBRANCH  60  85
BRANCH  72  97
ATOM     97  C   UNL A   1      39.941  33.755  37.490  1.00  0.00     0.058 A 
ATOM     98  C   UNL A   1      39.089  33.381  38.539  1.00  0.00     0.135 A 
ATOM     99  C   UNL A   1      40.762  34.879  37.675  1.00  0.00     0.135 A 
ATOM    100  F   UNL A   1      38.281  32.316  38.408  1.00  0.00    -0.206 F 
ATOM    101  C   UNL A   1      39.037  34.107  39.724  1.00  0.00     0.059 A 
ATOM    102  C   UNL A   1      40.743  35.606  38.860  1.00  0.00     0.059 A 
ATOM    103  F   UNL A   1      41.602  35.270  36.704  1.00  0.00    -0.206 F 
ATOM    104  C   UNL A   1      39.870  35.217  39.876  1.00  0.00     0.060 A 
BRANCH 104 105
ATOM    105  S   UNL A   1      39.823  36.131  41.431  1.00  0.00     0.124 S 
ATOM    106  O   UNL A   1      38.487  35.810  41.921  1.00  0.00    -0.237 OA
ATOM    107  O   UNL A   1      40.930  35.540  42.178  1.00  0.00    -0.237 OA
ATOM    108  O   UNL A   1      40.025  37.516  41.018  1.00  0.00    -0.744 OA
ENDBRANCH 104 105
ENDBRANCH  72  97
ENDBRANCH  46  47
ENDBRANCH  38  41
ENDBRANCH  36  37
ENDBRANCH  35  36
ENDBRANCH   1  35
TORSDOF 17
ENDMDL
MODEL 2
REMARK VINA RESULT:     -11.6     10.885     16.549
REMARK SMILES COc1cccc(-c2c([C@H]3c4ccccc4C(=O)N3CC(=O)NCCCNC(=O)c3ccc(-c4c5nc(c(-c6c(F)cc(S(=O)(=O)[O-])cc6F)c6ccc([nH]6)c(-c6c(F)cc(S(=O)(=O)[O-])cc6F)c6nc(c(-c7c(F)cc(S(=O)(=O)[O-])cc7F)c7ccc4[nH]7)C=C6)C=C5)cc3)c3ccccc3n2C)c1
REMARK SMILES IDX 24 1 23 2 21 3 22 4 20 6 19 7 10 8 11 9 12 10 16 11 17 12
REMARK SMILES IDX 13 13 15 14 18 15 14 16 9 17 8 18 102 19 96 20 101 21 103 22
REMARK SMILES IDX 97 23 100 24 98 25 99 26 7 27 3 28 4 29 104 30 5 31 6 32
REMARK SMILES IDX 2 33 1 34 25 35 26 36 27 37 28 38 29 40 30 41 31 42 95 43
REMARK SMILES IDX 32 44 94 45 33 46 34 47 35 48 88 49 36 50 93 51 87 52 89 53
REMARK SMILES IDX 37 54 92 55 86 56 85 57 38 59 72 60 51 61 71 62 52 63 55 64
REMARK SMILES IDX 70 65 90 66 53 67 54 68 69 70 91 71 56 72 39 73 40 74 49 75
REMARK SMILES IDX 41 76 42 77 48 78 50 79 43 80 44 81 45 82 46 83 47 84 73 85
REMARK SMILES IDX 74 86 83 87 75 88 76 89 82 90 84 91 77 92 78 93 79 94 80 95
REMARK SMILES IDX 81 96 57 97 58 98 67 99 59 100 60 101 66 102 68 103 61 104
REMARK SMILES IDX 62 105 63 106 64 107 65 108
REMARK H PARENT 23 5 27 39 89 58 55 69
REMARK Flexibility Score: inf
ROOT
ATOM      1  C   UNL A   1      44.259  39.813  26.673  1.00  0.00     0.117 C 
ENDROOT
BRANCH   1   2
ATOM      2  N   UNL A   1      45.270  40.816  26.961  1.00  0.00    -0.354 N 
ATOM      3  C   UNL A   1      46.255  41.244  26.117  1.00  0.00     0.239 C 
ATOM      4  O   UNL A   1      47.241  41.818  26.585  1.00  0.00    -0.273 OA
ATOM      5  H   UNL A   1      45.244  41.227  27.855  1.00  0.00     0.163 HD
BRANCH   3   6
ATOM      6  C   UNL A   1      46.089  41.046  24.618  1.00  0.00     0.220 C 
BRANCH   6   7
ATOM      7  N   UNL A   1      45.550  42.142  23.810  1.00  0.00    -0.318 N 
ATOM      8  C   UNL A   1      46.512  42.854  22.983  1.00  0.00     0.150 C 
ATOM      9  C   UNL A   1      46.835  44.004  23.907  1.00  0.00    -0.008 A 
ATOM     10  C   UNL A   1      48.058  44.526  24.297  1.00  0.00     0.007 A 
ATOM     11  C   UNL A   1      45.717  44.255  24.700  1.00  0.00     0.045 A 
ATOM     12  C   UNL A   1      44.821  43.113  24.526  1.00  0.00     0.255 C 
ATOM     13  C   UNL A   1      48.106  45.304  25.467  1.00  0.00     0.000 A 
ATOM     14  C   UNL A   1      45.721  45.060  25.826  1.00  0.00     0.014 A 
ATOM     15  O   UNL A   1      43.794  43.004  25.166  1.00  0.00    -0.269 OA
ATOM     16  C   UNL A   1      46.946  45.585  26.215  1.00  0.00     0.001 A 
BRANCH   8  17
ATOM     17  C   UNL A   1      45.890  43.446  21.726  1.00  0.00     0.013 A 
ATOM     18  C   UNL A   1      46.588  44.184  20.760  1.00  0.00     0.055 A 
ATOM     19  N   UNL A   1      45.643  44.789  19.956  1.00  0.00    -0.343 N 
ATOM     20  C   UNL A   1      44.565  43.267  21.184  1.00  0.00     0.006 A 
ATOM     21  C   UNL A   1      44.428  44.147  20.104  1.00  0.00     0.049 A 
ATOM     22  C   UNL A   1      45.874  45.907  19.066  1.00  0.00     0.150 C 
ATOM     23  C   UNL A   1      43.462  42.444  21.506  1.00  0.00     0.011 A 
ATOM     24  C   UNL A   1      43.219  44.266  19.390  1.00  0.00     0.027 A 
ATOM     25  C   UNL A   1      42.266  42.535  20.785  1.00  0.00     0.001 A 
ATOM     26  C   UNL A   1      42.146  43.447  19.747  1.00  0.00     0.002 A 
BRANCH  18  27
ATOM     27  C   UNL A   1      48.048  44.244  20.619  1.00  0.00     0.002 A 
ATOM     28  C   UNL A   1      49.958  45.747  20.414  1.00  0.00     0.119 A 
ATOM     29  C   UNL A   1      50.727  44.681  19.953  1.00  0.00     0.046 A 
ATOM     30  C   UNL A   1      48.649  45.503  20.815  1.00  0.00     0.056 A 
ATOM     31  C   UNL A   1      50.171  43.401  19.849  1.00  0.00     0.005 A 
ATOM     32  C   UNL A   1      48.825  43.186  20.157  1.00  0.00     0.010 A 
BRANCH  28  33
ATOM     33  O   UNL A   1      50.560  46.976  20.393  1.00  0.00    -0.497 OA
ATOM     34  C   UNL A   1      51.404  47.247  19.272  1.00  0.00     0.278 C 
ENDBRANCH  28  33
ENDBRANCH  18  27
ENDBRANCH   8  17
ENDBRANCH   6   7
ENDBRANCH   3   6
ENDBRANCH   1   2
BRANCH   1  35
ATOM     35  C   UNL A   1      44.532  38.558  27.491  1.00  0.00     0.042 C 
BRANCH  35  36
ATOM     36  C   UNL A   1      45.654  37.720  26.916  1.00  0.00     0.118 C 
BRANCH  36  37
ATOM     37  N   UNL A   1      46.840  37.830  27.750  1.00  0.00    -0.352 N 
ATOM     38  C   UNL A   1      47.392  36.901  28.598  1.00  0.00     0.251 C 
ATOM     39  H   UNL A   1      47.314  38.691  27.700  1.00  0.00     0.163 HD
ATOM     40  O   UNL A   1      48.120  37.295  29.507  1.00  0.00    -0.269 OA
BRANCH  38  41
ATOM     41  C   UNL A   1      47.142  35.446  28.426  1.00  0.00     0.039 A 
ATOM     42  C   UNL A   1      47.026  34.929  27.130  1.00  0.00     0.014 A 
ATOM     43  C   UNL A   1      46.905  34.607  29.517  1.00  0.00     0.014 A 
ATOM     44  C   UNL A   1      46.672  33.590  26.937  1.00  0.00     0.010 A 
ATOM     45  C   UNL A   1      46.665  33.249  29.328  1.00  0.00     0.010 A 
ATOM     46  C   UNL A   1      46.490  32.737  28.038  1.00  0.00    -0.014 A 
BRANCH  46  47
ATOM     47  C   UNL A   1      46.020  31.337  27.872  1.00  0.00     0.031 A 
ATOM     48  C   UNL A   1      44.578  30.996  28.164  1.00  0.00     0.074 A 
ATOM     49  C   UNL A   1      46.886  30.369  27.515  1.00  0.00     0.049 A 
ATOM     50  N   UNL A   1      43.988  29.828  28.171  1.00  0.00    -0.248 NA
ATOM     51  C   UNL A   1      43.690  32.111  28.532  1.00  0.00     0.031 C 
ATOM     52  C   UNL A   1      48.314  30.564  27.257  1.00  0.00     0.029 A 
ATOM     53  N   UNL A   1      46.692  29.026  27.320  1.00  0.00    -0.354 N 
ATOM     54  C   UNL A   1      42.679  30.064  28.579  1.00  0.00     0.074 A 
ATOM     55  C   UNL A   1      42.571  31.479  28.855  1.00  0.00     0.031 C 
ATOM     56  C   UNL A   1      48.862  29.386  26.916  1.00  0.00     0.029 A 
ATOM     57  C   UNL A   1      47.835  28.350  26.965  1.00  0.00     0.049 A 
ATOM     58  H   UNL A   1      45.817  28.587  27.423  1.00  0.00     0.167 HD
ATOM     59  C   UNL A   1      41.652  29.189  28.689  1.00  0.00     0.037 A 
ATOM     60  C   UNL A   1      48.034  27.041  26.713  1.00  0.00     0.037 A 
ATOM     61  C   UNL A   1      41.749  27.794  28.352  1.00  0.00     0.049 A 
ATOM     62  C   UNL A   1      46.866  26.096  26.790  1.00  0.00     0.074 A 
ATOM     63  C   UNL A   1      40.749  26.837  28.350  1.00  0.00     0.029 A 
ATOM     64  N   UNL A   1      42.913  27.159  27.945  1.00  0.00    -0.354 N 
ATOM     65  N   UNL A   1      45.621  26.348  27.121  1.00  0.00    -0.248 NA
ATOM     66  C   UNL A   1      47.125  24.689  26.451  1.00  0.00     0.031 C 
ATOM     67  C   UNL A   1      41.317  25.616  27.969  1.00  0.00     0.029 A 
ATOM     68  C   UNL A   1      42.661  25.821  27.700  1.00  0.00     0.049 A 
ATOM     69  H   UNL A   1      43.790  27.596  27.846  1.00  0.00     0.167 HD
ATOM     70  C   UNL A   1      44.945  25.138  27.010  1.00  0.00     0.074 A 
ATOM     71  C   UNL A   1      45.916  24.157  26.568  1.00  0.00     0.031 C 
ATOM     72  C   UNL A   1      43.640  24.863  27.251  1.00  0.00     0.037 A 
BRANCH  59  73
ATOM     73  C   UNL A   1      40.331  29.715  29.181  1.00  0.00     0.058 A 
ATOM     74  C   UNL A   1      39.251  29.930  28.311  1.00  0.00     0.135 A 
ATOM     75  C   UNL A   1      40.133  29.977  30.547  1.00  0.00     0.135 A 
ATOM     76  F   UNL A   1      39.391  29.712  26.993  1.00  0.00    -0.206 F 
ATOM     77  C   UNL A   1      38.030  30.413  28.771  1.00  0.00     0.059 A 
ATOM     78  C   UNL A   1      38.911  30.435  31.034  1.00  0.00     0.059 A 
ATOM     79  F   UNL A   1      41.132  29.790  31.424  1.00  0.00    -0.206 F 
ATOM     80  C   UNL A   1      37.870  30.664  30.134  1.00  0.00     0.060 A 
BRANCH  80  81
ATOM     81  S   UNL A   1      36.277  31.281  30.719  1.00  0.00     0.124 S 
ATOM     82  O   UNL A   1      36.637  32.615  31.191  1.00  0.00    -0.237 OA
ATOM     83  O   UNL A   1      35.460  31.238  29.511  1.00  0.00    -0.237 OA
ATOM     84  O   UNL A   1      35.904  30.327  31.759  1.00  0.00    -0.744 OA
ENDBRANCH  80  81
ENDBRANCH  59  73
BRANCH  60  85
ATOM     85  C   UNL A   1      49.388  26.557  26.339  1.00  0.00     0.058 A 
ATOM     86  C   UNL A   1      49.856  26.671  25.022  1.00  0.00     0.135 A 
ATOM     87  C   UNL A   1      50.249  25.994  27.293  1.00  0.00     0.135 A 
ATOM     88  F   UNL A   1      49.067  27.199  24.074  1.00  0.00    -0.206 F 
ATOM     89  C   UNL A   1      51.124  26.229  24.659  1.00  0.00     0.059 A 
ATOM     90  C   UNL A   1      51.530  25.566  26.959  1.00  0.00     0.059 A 
ATOM     91  F   UNL A   1      49.854  25.878  28.571  1.00  0.00    -0.206 F 
ATOM     92  C   UNL A   1      51.955  25.679  25.636  1.00  0.00     0.060 A 
BRANCH  92  93
ATOM     93  S   UNL A   1      53.618  25.152  25.167  1.00  0.00     0.124 S 
ATOM     94  O   UNL A   1      53.694  25.615  23.786  1.00  0.00    -0.237 OA
ATOM     95  O   UNL A   1      54.452  25.868  26.127  1.00  0.00    -0.237 OA
ATOM     96  O   UNL A   1      53.573  23.703  25.346  1.00  0.00    -0.744 OA
ENDBRANCH  92  93
ENDBRANCH  60  85
BRANCH  72  97
ATOM     97  C   UNL A   1      43.177  23.454  27.017  1.00  0.00     0.058 A 
ATOM     98  C   UNL A   1      42.937  22.966  25.724  1.00  0.00     0.135 A 
ATOM     99  C   UNL A   1      43.028  22.567  28.095  1.00  0.00     0.135 A 
ATOM    100  F   UNL A   1      43.062  23.777  24.661  1.00  0.00    -0.206 F 
ATOM    101  C   UNL A   1      42.545  21.650  25.508  1.00  0.00     0.059 A 
ATOM    102  C   UNL A   1      42.658  21.241  27.900  1.00  0.00     0.059 A 
ATOM    103  F   UNL A   1      43.256  22.983  29.351  1.00  0.00    -0.206 F 
ATOM    104  C   UNL A   1      42.410  20.794  26.603  1.00  0.00     0.060 A 
BRANCH 104 105
ATOM    105  S   UNL A   1      41.936  19.077  26.309  1.00  0.00     0.124 S 
ATOM    106  O   UNL A   1      42.973  18.640  25.381  1.00  0.00    -0.237 OA
ATOM    107  O   UNL A   1      42.000  18.499  27.649  1.00  0.00    -0.237 OA
ATOM    108  O   UNL A   1      40.594  19.186  25.746  1.00  0.00    -0.744 OA
ENDBRANCH 104 105
ENDBRANCH  72  97
ENDBRANCH  46  47
ENDBRANCH  38  41
ENDBRANCH  36  37
ENDBRANCH  35  36
ENDBRANCH   1  35
TORSDOF 17
ENDMDL
MODEL 3
REMARK VINA RESULT:     -11.6      7.995     14.956
REMARK SMILES COc1cccc(-c2c([C@H]3c4ccccc4C(=O)N3CC(=O)NCCCNC(=O)c3ccc(-c4c5nc(c(-c6c(F)cc(S(=O)(=O)[O-])cc6F)c6ccc([nH]6)c(-c6c(F)cc(S(=O)(=O)[O-])cc6F)c6nc(c(-c7c(F)cc(S(=O)(=O)[O-])cc7F)c7ccc4[nH]7)C=C6)C=C5)cc3)c3ccccc3n2C)c1
REMARK SMILES IDX 24 1 23 2 21 3 22 4 20 6 19 7 10 8 11 9 12 10 16 11 17 12
REMARK SMILES IDX 13 13 15 14 18 15 14 16 9 17 8 18 102 19 96 20 101 21 103 22
REMARK SMILES IDX 97 23 100 24 98 25 99 26 7 27 3 28 4 29 104 30 5 31 6 32
REMARK SMILES IDX 2 33 1 34 25 35 26 36 27 37 28 38 29 40 30 41 31 42 95 43
REMARK SMILES IDX 32 44 94 45 33 46 34 47 35 48 88 49 36 50 93 51 87 52 89 53
REMARK SMILES IDX 37 54 92 55 86 56 85 57 38 59 72 60 51 61 71 62 52 63 55 64
REMARK SMILES IDX 70 65 90 66 53 67 54 68 69 70 91 71 56 72 39 73 40 74 49 75
REMARK SMILES IDX 41 76 42 77 48 78 50 79 43 80 44 81 45 82 46 83 47 84 73 85
REMARK SMILES IDX 74 86 83 87 75 88 76 89 82 90 84 91 77 92 78 93 79 94 80 95
REMARK SMILES IDX 81 96 57 97 58 98 67 99 59 100 60 101 66 102 68 103 61 104
REMARK SMILES IDX 62 105 63 106 64 107 65 108
REMARK H PARENT 23 5 27 39 89 58 55 69
REMARK Flexibility Score: inf
ROOT
ATOM      1  C   UNL A   1      48.707  38.843  32.431  1.00  0.00     0.117 C 
ENDROOT
BRANCH   1   2
ATOM      2  N   UNL A   1      47.802  38.475  33.507  1.00  0.00    -0.354 N 
ATOM      3  C   UNL A   1      46.661  39.131  33.872  1.00  0.00     0.239 C 
ATOM      4  O   UNL A   1      46.188  38.936  34.993  1.00  0.00    -0.273 OA
ATOM      5  H   UNL A   1      48.036  37.672  34.027  1.00  0.00     0.163 HD
BRANCH   3   6
ATOM      6  C   UNL A   1      45.977  40.048  32.869  1.00  0.00     0.220 C 
BRANCH   6   7
ATOM      7  N   UNL A   1      44.874  39.523  32.062  1.00  0.00    -0.318 N 
ATOM      8  C   UNL A   1      44.875  39.907  30.659  1.00  0.00     0.150 C 
ATOM      9  C   UNL A   1      43.951  41.101  30.725  1.00  0.00    -0.008 A 
ATOM     10  C   UNL A   1      44.092  42.375  30.201  1.00  0.00     0.007 A 
ATOM     11  C   UNL A   1      43.059  40.905  31.778  1.00  0.00     0.045 A 
ATOM     12  C   UNL A   1      43.583  39.789  32.564  1.00  0.00     0.255 C 
ATOM     13  C   UNL A   1      43.310  43.409  30.746  1.00  0.00     0.000 A 
ATOM     14  C   UNL A   1      42.237  41.888  32.299  1.00  0.00     0.014 A 
ATOM     15  O   UNL A   1      43.062  39.441  33.604  1.00  0.00    -0.269 OA
ATOM     16  C   UNL A   1      42.377  43.165  31.772  1.00  0.00     0.001 A 
BRANCH   8  17
ATOM     17  C   UNL A   1      44.212  38.873  29.759  1.00  0.00     0.013 A 
ATOM     18  C   UNL A   1      43.937  39.056  28.398  1.00  0.00     0.055 A 
ATOM     19  N   UNL A   1      43.081  38.041  28.020  1.00  0.00    -0.343 N 
ATOM     20  C   UNL A   1      43.878  37.496  30.033  1.00  0.00     0.006 A 
ATOM     21  C   UNL A   1      43.139  37.017  28.946  1.00  0.00     0.049 A 
ATOM     22  C   UNL A   1      42.261  38.021  26.828  1.00  0.00     0.150 C 
ATOM     23  C   UNL A   1      44.129  36.606  31.103  1.00  0.00     0.011 A 
ATOM     24  C   UNL A   1      42.603  35.714  28.927  1.00  0.00     0.027 A 
ATOM     25  C   UNL A   1      43.623  35.301  31.080  1.00  0.00     0.001 A 
ATOM     26  C   UNL A   1      42.858  34.868  30.009  1.00  0.00     0.002 A 
BRANCH  18  27
ATOM     27  C   UNL A   1      44.505  40.106  27.544  1.00  0.00     0.002 A 
ATOM     28  C   UNL A   1      44.167  41.400  25.503  1.00  0.00     0.119 A 
ATOM     29  C   UNL A   1      45.511  41.764  25.531  1.00  0.00     0.046 A 
ATOM     30  C   UNL A   1      43.660  40.639  26.551  1.00  0.00     0.056 A 
ATOM     31  C   UNL A   1      46.342  41.326  26.568  1.00  0.00     0.005 A 
ATOM     32  C   UNL A   1      45.847  40.476  27.561  1.00  0.00     0.010 A 
BRANCH  28  33
ATOM     33  O   UNL A   1      43.458  41.800  24.404  1.00  0.00    -0.497 OA
ATOM     34  C   UNL A   1      42.035  41.691  24.497  1.00  0.00     0.278 C 
ENDBRANCH  28  33
ENDBRANCH  18  27
ENDBRANCH   8  17
ENDBRANCH   6   7
ENDBRANCH   3   6
ENDBRANCH   1   2
BRANCH   1  35
ATOM     35  C   UNL A   1      49.360  37.592  31.858  1.00  0.00     0.042 C 
BRANCH  35  36
ATOM     36  C   UNL A   1      48.365  36.670  31.186  1.00  0.00     0.118 C 
BRANCH  36  37
ATOM     37  N   UNL A   1      47.733  37.346  30.066  1.00  0.00    -0.352 N 
ATOM     38  C   UNL A   1      47.387  36.845  28.835  1.00  0.00     0.251 C 
ATOM     39  H   UNL A   1      47.522  38.297  30.210  1.00  0.00     0.163 HD
ATOM     40  O   UNL A   1      47.255  37.631  27.897  1.00  0.00    -0.269 OA
BRANCH  38  41
ATOM     41  C   UNL A   1      47.155  35.393  28.623  1.00  0.00     0.039 A 
ATOM     42  C   UNL A   1      47.021  34.913  27.315  1.00  0.00     0.014 A 
ATOM     43  C   UNL A   1      46.950  34.518  29.693  1.00  0.00     0.014 A 
ATOM     44  C   UNL A   1      46.682  33.575  27.088  1.00  0.00     0.010 A 
ATOM     45  C   UNL A   1      46.725  33.163  29.467  1.00  0.00     0.010 A 
ATOM     46  C   UNL A   1      46.533  32.688  28.165  1.00  0.00    -0.014 A 
BRANCH  46  47
ATOM     47  C   UNL A   1      46.080  31.286  27.966  1.00  0.00     0.031 A 
ATOM     48  C   UNL A   1      44.635  30.927  28.222  1.00  0.00     0.074 A 
ATOM     49  C   UNL A   1      46.962  30.333  27.610  1.00  0.00     0.049 A 
ATOM     50  N   UNL A   1      44.056  29.755  28.197  1.00  0.00    -0.248 NA
ATOM     51  C   UNL A   1      43.729  32.029  28.591  1.00  0.00     0.031 C 
ATOM     52  C   UNL A   1      48.393  30.545  27.385  1.00  0.00     0.029 A 
ATOM     53  N   UNL A   1      46.784  28.992  27.388  1.00  0.00    -0.354 N 
ATOM     54  C   UNL A   1      42.737  29.972  28.582  1.00  0.00     0.074 A 
ATOM     55  C   UNL A   1      42.610  31.381  28.880  1.00  0.00     0.031 C 
ATOM     56  C   UNL A   1      48.958  29.378  27.035  1.00  0.00     0.029 A 
ATOM     57  C   UNL A   1      47.941  28.332  27.045  1.00  0.00     0.049 A 
ATOM     58  H   UNL A   1      45.912  28.543  27.466  1.00  0.00     0.167 HD
ATOM     59  C   UNL A   1      41.716  29.086  28.656  1.00  0.00     0.037 A 
ATOM     60  C   UNL A   1      48.156  27.030  26.774  1.00  0.00     0.037 A 
ATOM     61  C   UNL A   1      41.833  27.698  28.297  1.00  0.00     0.049 A 
ATOM     62  C   UNL A   1      46.996  26.073  26.811  1.00  0.00     0.074 A 
ATOM     63  C   UNL A   1      40.842  26.732  28.257  1.00  0.00     0.029 A 
ATOM     64  N   UNL A   1      43.011  27.080  27.903  1.00  0.00    -0.354 N 
ATOM     65  N   UNL A   1      45.742  26.308  27.121  1.00  0.00    -0.248 NA
ATOM     66  C   UNL A   1      47.275  24.675  26.454  1.00  0.00     0.031 C 
ATOM     67  C   UNL A   1      41.428  25.523  27.868  1.00  0.00     0.029 A 
ATOM     68  C   UNL A   1      42.776  25.745  27.630  1.00  0.00     0.049 A 
ATOM     69  H   UNL A   1      43.885  27.527  27.829  1.00  0.00     0.167 HD
ATOM     70  C   UNL A   1      45.080  25.094  26.975  1.00  0.00     0.074 A 
ATOM     71  C   UNL A   1      46.068  24.130  26.537  1.00  0.00     0.031 C 
ATOM     72  C   UNL A   1      43.773  24.804  27.185  1.00  0.00     0.037 A 
BRANCH  59  73
ATOM     73  C   UNL A   1      40.381  29.592  29.130  1.00  0.00     0.058 A 
ATOM     74  C   UNL A   1      39.297  29.752  28.252  1.00  0.00     0.135 A 
ATOM     75  C   UNL A   1      40.172  29.889  30.486  1.00  0.00     0.135 A 
ATOM     76  F   UNL A   1      39.446  29.498  26.942  1.00  0.00    -0.206 F 
ATOM     77  C   UNL A   1      38.063  30.215  28.695  1.00  0.00     0.059 A 
ATOM     78  C   UNL A   1      38.938  30.329  30.957  1.00  0.00     0.059 A 
ATOM     79  F   UNL A   1      41.173  29.754  31.371  1.00  0.00    -0.206 F 
ATOM     80  C   UNL A   1      37.893  30.504  30.050  1.00  0.00     0.060 A 
BRANCH  80  81
ATOM     81  S   UNL A   1      36.283  31.095  30.613  1.00  0.00     0.124 S 
ATOM     82  O   UNL A   1      36.635  32.390  31.189  1.00  0.00    -0.237 OA
ATOM     83  O   UNL A   1      35.513  31.143  29.374  1.00  0.00    -0.237 OA
ATOM     84  O   UNL A   1      35.862  30.077  31.570  1.00  0.00    -0.744 OA
ENDBRANCH  80  81
ENDBRANCH  59  73
BRANCH  60  85
ATOM     85  C   UNL A   1      49.523  26.564  26.421  1.00  0.00     0.058 A 
ATOM     86  C   UNL A   1      50.398  26.088  27.407  1.00  0.00     0.135 A 
ATOM     87  C   UNL A   1      49.970  26.563  25.091  1.00  0.00     0.135 A 
ATOM     88  F   UNL A   1      50.017  26.074  28.693  1.00  0.00    -0.206 F 
ATOM     89  C   UNL A   1      51.678  25.642  27.091  1.00  0.00     0.059 A 
ATOM     90  C   UNL A   1      51.237  26.100  24.748  1.00  0.00     0.059 A 
ATOM     91  F   UNL A   1      49.163  26.993  24.109  1.00  0.00    -0.206 F 
ATOM     92  C   UNL A   1      52.087  25.651  25.757  1.00  0.00     0.060 A 
BRANCH  92  93
ATOM     93  S   UNL A   1      53.731  25.025  25.348  1.00  0.00     0.124 S 
ATOM     94  O   UNL A   1      54.082  25.850  24.198  1.00  0.00    -0.237 OA
ATOM     95  O   UNL A   1      54.477  25.288  26.575  1.00  0.00    -0.237 OA
ATOM     96  O   UNL A   1      53.491  23.613  25.062  1.00  0.00    -0.744 OA
ENDBRANCH  92  93
ENDBRANCH  60  85
BRANCH  72  97
ATOM     97  C   UNL A   1      43.327  23.395  26.917  1.00  0.00     0.058 A 
ATOM     98  C   UNL A   1      43.243  22.888  25.612  1.00  0.00     0.135 A 
ATOM     99  C   UNL A   1      43.039  22.527  27.982  1.00  0.00     0.135 A 
ATOM    100  F   UNL A   1      43.504  23.681  24.560  1.00  0.00    -0.206 F 
ATOM    101  C   UNL A   1      42.866  21.571  25.370  1.00  0.00     0.059 A 
ATOM    102  C   UNL A   1      42.682  21.200  27.763  1.00  0.00     0.059 A 
ATOM    103  F   UNL A   1      43.116  22.961  29.250  1.00  0.00    -0.206 F 
ATOM    104  C   UNL A   1      42.590  20.734  26.452  1.00  0.00     0.060 A 
BRANCH 104 105
ATOM    105  S   UNL A   1      42.138  19.017  26.128  1.00  0.00     0.124 S 
ATOM    106  O   UNL A   1      42.942  18.719  24.948  1.00  0.00    -0.237 OA
ATOM    107  O   UNL A   1      42.548  18.347  27.359  1.00  0.00    -0.237 OA
ATOM    108  O   UNL A   1      40.697  19.081  25.908  1.00  0.00    -0.744 OA
ENDBRANCH 104 105
ENDBRANCH  72  97
ENDBRANCH  46  47
ENDBRANCH  38  41
ENDBRANCH  36  37
ENDBRANCH  35  36
ENDBRANCH   1  35
TORSDOF 17
ENDMDL
