MODEL 1
REMARK VINA RESULT:     -11.5      0.000      0.000
REMARK SMILES C[N@@H+]1CC[N@@H+](C)[C@H](C[NH2+]Cc2ccc(C(=O)NCCCNC(=O)c3ccc(-c4c5nc(c(-c6c(F)cc(S(=O)(=O)[O-])cc6F)c6ccc([nH]6)c(-c6c(F)cc(S(=O)(=O)[O-])cc6F)c6nc(c(-c7c(F)cc(S(=O)(=O)[O-])cc7F)c7ccc4[nH]7)C=C6)C=C5)cc3)cn2)C1
REMARK SMILES IDX 18 1 17 2 15 3 16 4 14 6 11 7 12 8 91 9 13 10 90 11 10 12
REMARK SMILES IDX 9 13 8 16 7 17 1 18 2 19 3 20 92 21 4 23 5 24 6 25 19 27
REMARK SMILES IDX 20 28 21 29 22 30 23 32 24 33 25 34 89 35 26 36 88 37 27 38
REMARK SMILES IDX 28 39 29 40 82 41 30 42 87 43 81 44 83 45 31 46 86 47 80 48
REMARK SMILES IDX 79 49 32 51 66 52 45 53 65 54 46 55 49 56 64 57 84 58 47 59
REMARK SMILES IDX 48 60 63 62 85 63 50 64 33 65 34 66 43 67 35 68 36 69 42 70
REMARK SMILES IDX 44 71 37 72 38 73 39 74 40 75 41 76 67 77 68 78 77 79 69 80
REMARK SMILES IDX 70 81 76 82 78 83 71 84 72 85 73 86 74 87 75 88 51 89 52 90
REMARK SMILES IDX 61 91 53 92 54 93 60 94 62 95 55 96 56 97 57 98 58 99 59 100
REMARK H PARENT 17 5 9 14 9 15 2 22 5 26 21 31 83 50 49 61
REMARK Flexibility Score: inf
ROOT
ATOM      1  C   UNL A   1      33.462  30.274  26.737  1.00  0.00     0.118 C 
ENDROOT
BRANCH   1   2
ATOM      2  N   UNL A   1      32.601  29.311  27.398  1.00  0.00    -0.352 N 
ATOM      3  C   UNL A   1      32.059  28.120  26.989  1.00  0.00     0.252 C 
ATOM      4  O   UNL A   1      31.361  27.510  27.797  1.00  0.00    -0.269 OA
ATOM      5  H   UNL A   1      32.361  29.561  28.320  1.00  0.00     0.163 HD
BRANCH   3   6
ATOM      6  C   UNL A   1      32.331  27.507  25.667  1.00  0.00     0.058 A 
ATOM      7  C   UNL A   1      32.488  26.104  23.300  1.00  0.00     0.094 A 
ATOM      8  C   UNL A   1      33.655  26.374  24.004  1.00  0.00     0.030 A 
ATOM      9  N   UNL A   1      31.284  26.612  23.665  1.00  0.00    -0.255 NA
ATOM     10  C   UNL A   1      33.572  27.102  25.184  1.00  0.00     0.017 A 
ATOM     11  C   UNL A   1      31.235  27.286  24.839  1.00  0.00     0.125 A 
BRANCH   7  12
ATOM     12  C   UNL A   1      32.524  25.101  22.170  1.00  0.00     0.318 C 
BRANCH  12  13
ATOM     13  N   UNL A   1      31.940  23.823  22.588  1.00  0.00    -0.336 N 
ATOM     14  H   UNL A   1      31.618  23.903  23.553  1.00  0.00     0.346 HD
ATOM     15  H   UNL A   1      31.162  23.604  21.965  1.00  0.00     0.346 HD
BRANCH  13  16
ATOM     16  C   UNL A   1      32.926  22.730  22.503  1.00  0.00     0.332 C 
BRANCH  16  17
ATOM     17  C   UNL A   1      33.593  22.450  23.886  1.00  0.00     0.295 C 
ATOM     18  C   UNL A   1      37.102  23.331  25.097  1.00  0.00     0.333 C 
ATOM     19  N   UNL A   1      35.761  22.760  25.128  1.00  0.00    -0.328 N 
ATOM     20  C   UNL A   1      35.804  21.305  25.340  1.00  0.00     0.324 C 
ATOM     21  C   UNL A   1      35.046  23.014  23.859  1.00  0.00     0.334 C 
ATOM     22  H   UNL A   1      35.271  23.208  25.901  1.00  0.00     0.348 HD
ATOM     23  C   UNL A   1      34.379  20.720  25.431  1.00  0.00     0.324 C 
ATOM     24  N   UNL A   1      33.533  20.994  24.251  1.00  0.00    -0.321 N 
ATOM     25  C   UNL A   1      32.162  20.552  24.531  1.00  0.00     0.333 C 
ATOM     26  H   UNL A   1      33.881  20.473  23.446  1.00  0.00     0.348 HD
ENDBRANCH  16  17
ENDBRANCH  13  16
ENDBRANCH  12  13
ENDBRANCH   7  12
ENDBRANCH   3   6
ENDBRANCH   1   2
BRANCH   1  27
ATOM     27  C   UNL A   1      34.121  31.208  27.751  1.00  0.00     0.042 C 
BRANCH  27  28
ATOM     28  C   UNL A   1      35.381  30.622  28.376  1.00  0.00     0.118 C 
BRANCH  28  29
ATOM     29  N   UNL A   1      35.469  30.926  29.794  1.00  0.00    -0.352 N 
ATOM     30  C   UNL A   1      36.479  30.662  30.684  1.00  0.00     0.251 C 
ATOM     31  H   UNL A   1      34.688  31.389  30.173  1.00  0.00     0.163 HD
ATOM     32  O   UNL A   1      36.258  30.764  31.888  1.00  0.00    -0.269 OA
BRANCH  30  33
ATOM     33  C   UNL A   1      37.819  30.256  30.205  1.00  0.00     0.039 A 
ATOM     34  C   UNL A   1      38.764  29.824  31.140  1.00  0.00     0.014 A 
ATOM     35  C   UNL A   1      38.166  30.354  28.854  1.00  0.00     0.014 A 
ATOM     36  C   UNL A   1      40.042  29.454  30.716  1.00  0.00     0.010 A 
ATOM     37  C   UNL A   1      39.416  29.916  28.424  1.00  0.00     0.010 A 
ATOM     38  C   UNL A   1      40.371  29.476  29.351  1.00  0.00    -0.014 A 
BRANCH  38  39
ATOM     39  C   UNL A   1      41.716  29.064  28.878  1.00  0.00     0.031 A 
ATOM     40  C   UNL A   1      42.823  30.080  28.777  1.00  0.00     0.074 A 
ATOM     41  C   UNL A   1      41.922  27.792  28.485  1.00  0.00     0.049 A 
ATOM     42  N   UNL A   1      44.041  29.933  28.322  1.00  0.00    -0.248 NA
ATOM     43  C   UNL A   1      42.511  31.448  29.221  1.00  0.00     0.031 C 
ATOM     44  C   UNL A   1      40.911  26.732  28.493  1.00  0.00     0.029 A 
ATOM     45  N   UNL A   1      43.044  27.178  27.993  1.00  0.00    -0.354 N 
ATOM     46  C   UNL A   1      44.633  31.187  28.407  1.00  0.00     0.074 A 
ATOM     47  C   UNL A   1      43.625  32.096  28.912  1.00  0.00     0.031 C 
ATOM     48  C   UNL A   1      41.466  25.593  28.045  1.00  0.00     0.029 A 
ATOM     49  C   UNL A   1      42.856  25.850  27.687  1.00  0.00     0.049 A 
ATOM     50  H   UNL A   1      43.902  27.642  27.869  1.00  0.00     0.167 HD
ATOM     51  C   UNL A   1      45.905  31.546  28.111  1.00  0.00     0.037 A 
ATOM     52  C   UNL A   1      43.709  24.945  27.170  1.00  0.00     0.037 A 
ATOM     53  C   UNL A   1      46.909  30.628  27.638  1.00  0.00     0.049 A 
ATOM     54  C   UNL A   1      45.121  25.361  26.864  1.00  0.00     0.074 A 
ATOM     55  C   UNL A   1      48.242  30.875  27.364  1.00  0.00     0.029 A 
ATOM     56  N   UNL A   1      46.689  29.284  27.370  1.00  0.00    -0.354 N 
ATOM     57  N   UNL A   1      45.680  26.540  27.005  1.00  0.00    -0.248 NA
ATOM     58  C   UNL A   1      46.022  24.325  26.341  1.00  0.00     0.031 C 
ATOM     59  C   UNL A   1      48.820  29.689  26.897  1.00  0.00     0.029 A 
ATOM     60  C   UNL A   1      47.857  28.693  26.921  1.00  0.00     0.049 A 
ATOM     61  H   UNL A   1      45.827  28.820  27.483  1.00  0.00     0.167 HD
ATOM     62  C   UNL A   1      47.004  26.381  26.611  1.00  0.00     0.074 A 
ATOM     63  C   UNL A   1      47.164  24.990  26.238  1.00  0.00     0.031 C 
ATOM     64  C   UNL A   1      47.997  27.304  26.561  1.00  0.00     0.037 A 
BRANCH  51  65
ATOM     65  C   UNL A   1      46.284  32.990  28.299  1.00  0.00     0.058 A 
ATOM     66  C   UNL A   1      46.806  33.462  29.514  1.00  0.00     0.135 A 
ATOM     67  C   UNL A   1      46.151  33.907  27.244  1.00  0.00     0.135 A 
ATOM     68  F   UNL A   1      46.943  32.632  30.560  1.00  0.00    -0.206 F 
ATOM     69  C   UNL A   1      47.153  34.798  29.687  1.00  0.00     0.059 A 
ATOM     70  C   UNL A   1      46.517  35.243  27.388  1.00  0.00     0.059 A 
ATOM     71  F   UNL A   1      45.658  33.511  26.061  1.00  0.00    -0.206 F 
ATOM     72  C   UNL A   1      47.002  35.683  28.618  1.00  0.00     0.060 A 
BRANCH  72  73
ATOM     73  S   UNL A   1      47.455  37.413  28.860  1.00  0.00     0.124 S 
ATOM     74  O   UNL A   1      48.913  37.339  28.827  1.00  0.00    -0.237 OA
ATOM     75  O   UNL A   1      46.828  38.064  27.715  1.00  0.00    -0.237 OA
ATOM     76  O   UNL A   1      46.873  37.739  30.157  1.00  0.00    -0.744 OA
ENDBRANCH  72  73
ENDBRANCH  51  65
BRANCH  52  77
ATOM     77  C   UNL A   1      43.253  23.549  26.935  1.00  0.00     0.058 A 
ATOM     78  C   UNL A   1      43.029  23.074  25.634  1.00  0.00     0.135 A 
ATOM     79  C   UNL A   1      43.056  22.657  27.999  1.00  0.00     0.135 A 
ATOM     80  F   UNL A   1      43.201  23.892  24.583  1.00  0.00    -0.206 F 
ATOM     81  C   UNL A   1      42.612  21.768  25.396  1.00  0.00     0.059 A 
ATOM     82  C   UNL A   1      42.662  21.339  27.786  1.00  0.00     0.059 A 
ATOM     83  F   UNL A   1      43.276  23.057  29.261  1.00  0.00    -0.206 F 
ATOM     84  C   UNL A   1      42.433  20.907  26.480  1.00  0.00     0.060 A 
BRANCH  84  85
ATOM     85  S   UNL A   1      41.944  19.199  26.158  1.00  0.00     0.124 S 
ATOM     86  O   UNL A   1      42.303  18.549  27.413  1.00  0.00    -0.237 OA
ATOM     87  O   UNL A   1      40.515  19.333  25.893  1.00  0.00    -0.237 OA
ATOM     88  O   UNL A   1      42.756  18.831  25.002  1.00  0.00    -0.744 OA
ENDBRANCH  84  85
ENDBRANCH  52  77
BRANCH  64  89
ATOM     89  C   UNL A   1      49.353  26.831  26.119  1.00  0.00     0.058 A 
ATOM     90  C   UNL A   1      49.776  26.949  24.787  1.00  0.00     0.135 A 
ATOM     91  C   UNL A   1      50.256  26.295  27.051  1.00  0.00     0.135 A 
ATOM     92  F   UNL A   1      48.946  27.447  23.856  1.00  0.00    -0.206 F 
ATOM     93  C   UNL A   1      51.040  26.528  24.387  1.00  0.00     0.059 A 
ATOM     94  C   UNL A   1      51.535  25.893  26.679  1.00  0.00     0.059 A 
ATOM     95  F   UNL A   1      49.904  26.171  28.341  1.00  0.00    -0.206 F 
ATOM     96  C   UNL A   1      51.913  26.002  25.341  1.00  0.00     0.060 A 
BRANCH  96  97
ATOM     97  S   UNL A   1      53.562  25.486  24.817  1.00  0.00     0.124 S 
ATOM     98  O   UNL A   1      53.598  25.973  23.442  1.00  0.00    -0.237 OA
ATOM     99  O   UNL A   1      54.425  26.189  25.762  1.00  0.00    -0.237 OA
ATOM    100  O   UNL A   1      53.527  24.035  24.969  1.00  0.00    -0.744 OA
ENDBRANCH  96  97
ENDBRANCH  64  89
ENDBRANCH  38  39
ENDBRANCH  30  33
ENDBRANCH  28  29
ENDBRANCH  27  28
ENDBRANCH   1  27
TORSDOF 17
ENDMDL
MODEL 2
REMARK VINA RESULT:     -11.5      6.407     12.370
REMARK SMILES C[N@@H+]1CC[N@@H+](C)[C@H](C[NH2+]Cc2ccc(C(=O)NCCCNC(=O)c3ccc(-c4c5nc(c(-c6c(F)cc(S(=O)(=O)[O-])cc6F)c6ccc([nH]6)c(-c6c(F)cc(S(=O)(=O)[O-])cc6F)c6nc(c(-c7c(F)cc(S(=O)(=O)[O-])cc7F)c7ccc4[nH]7)C=C6)C=C5)cc3)cn2)C1
REMARK SMILES IDX 18 1 17 2 15 3 16 4 14 6 11 7 12 8 91 9 13 10 90 11 10 12
REMARK SMILES IDX 9 13 8 16 7 17 1 18 2 19 3 20 92 21 4 23 5 24 6 25 19 27
REMARK SMILES IDX 20 28 21 29 22 30 23 32 24 33 25 34 89 35 26 36 88 37 27 38
REMARK SMILES IDX 28 39 29 40 82 41 30 42 87 43 81 44 83 45 31 46 86 47 80 48
REMARK SMILES IDX 79 49 32 51 66 52 45 53 65 54 46 55 49 56 64 57 84 58 47 59
REMARK SMILES IDX 48 60 63 62 85 63 50 64 33 65 34 66 43 67 35 68 36 69 42 70
REMARK SMILES IDX 44 71 37 72 38 73 39 74 40 75 41 76 67 77 68 78 77 79 69 80
REMARK SMILES IDX 70 81 76 82 78 83 71 84 72 85 73 86 74 87 75 88 51 89 52 90
REMARK SMILES IDX 61 91 53 92 54 93 60 94 62 95 55 96 56 97 57 98 58 99 59 100
REMARK H PARENT 17 5 9 14 9 15 2 22 5 26 21 31 83 50 49 61
REMARK Flexibility Score: inf
ROOT
ATOM      1  C   UNL A   1      44.013  22.135  25.792  1.00  0.00     0.118 C 
ENDROOT
BRANCH   1   2
ATOM      2  N   UNL A   1      43.540  20.802  26.118  1.00  0.00    -0.352 N 
ATOM      3  C   UNL A   1      42.318  20.325  26.517  1.00  0.00     0.252 C 
ATOM      4  O   UNL A   1      42.222  19.114  26.713  1.00  0.00    -0.269 OA
ATOM      5  H   UNL A   1      44.232  20.106  26.036  1.00  0.00     0.163 HD
BRANCH   3   6
ATOM      6  C   UNL A   1      41.110  21.173  26.647  1.00  0.00     0.058 A 
ATOM      7  C   UNL A   1      38.844  22.729  26.446  1.00  0.00     0.094 A 
ATOM      8  C   UNL A   1      39.856  23.119  27.313  1.00  0.00     0.030 A 
ATOM      9  N   UNL A   1      38.868  21.544  25.785  1.00  0.00    -0.255 NA
ATOM     10  C   UNL A   1      40.986  22.319  27.428  1.00  0.00     0.017 A 
ATOM     11  C   UNL A   1      40.000  20.806  25.892  1.00  0.00     0.125 A 
BRANCH   7  12
ATOM     12  C   UNL A   1      37.742  23.707  26.111  1.00  0.00     0.318 C 
BRANCH  12  13
ATOM     13  N   UNL A   1      36.429  23.155  26.460  1.00  0.00    -0.336 N 
ATOM     14  H   UNL A   1      36.558  22.358  27.083  1.00  0.00     0.346 HD
ATOM     15  H   UNL A   1      35.883  23.885  26.917  1.00  0.00     0.346 HD
BRANCH  13  16
ATOM     16  C   UNL A   1      35.699  22.711  25.258  1.00  0.00     0.332 C 
BRANCH  16  17
ATOM     17  C   UNL A   1      34.603  21.658  25.610  1.00  0.00     0.295 C 
ATOM     18  C   UNL A   1      34.338  18.003  24.547  1.00  0.00     0.333 C 
ATOM     19  N   UNL A   1      33.957  19.264  25.172  1.00  0.00    -0.328 N 
ATOM     20  C   UNL A   1      32.665  19.746  24.661  1.00  0.00     0.324 C 
ATOM     21  C   UNL A   1      34.967  20.311  24.914  1.00  0.00     0.334 C 
ATOM     22  H   UNL A   1      33.887  19.084  26.174  1.00  0.00     0.348 HD
ATOM     23  C   UNL A   1      32.243  21.048  25.371  1.00  0.00     0.324 C 
ATOM     24  N   UNL A   1      33.225  22.146  25.262  1.00  0.00    -0.321 N 
ATOM     25  C   UNL A   1      32.801  23.257  26.122  1.00  0.00     0.333 C 
ATOM     26  H   UNL A   1      33.266  22.482  24.300  1.00  0.00     0.348 HD
ENDBRANCH  16  17
ENDBRANCH  13  16
ENDBRANCH  12  13
ENDBRANCH   7  12
ENDBRANCH   3   6
ENDBRANCH   1   2
BRANCH   1  27
ATOM     27  C   UNL A   1      44.563  22.841  27.030  1.00  0.00     0.042 C 
BRANCH  27  28
ATOM     28  C   UNL A   1      44.382  24.353  26.989  1.00  0.00     0.118 C 
BRANCH  28  29
ATOM     29  N   UNL A   1      43.505  24.760  25.905  1.00  0.00    -0.352 N 
ATOM     30  C   UNL A   1      42.396  25.568  25.932  1.00  0.00     0.251 C 
ATOM     31  H   UNL A   1      43.741  24.403  25.018  1.00  0.00     0.163 HD
ATOM     32  O   UNL A   1      41.643  25.582  24.962  1.00  0.00    -0.269 OA
BRANCH  30  33
ATOM     33  C   UNL A   1      42.106  26.410  27.113  1.00  0.00     0.039 A 
ATOM     34  C   UNL A   1      42.756  27.642  27.234  1.00  0.00     0.014 A 
ATOM     35  C   UNL A   1      41.247  25.970  28.124  1.00  0.00     0.014 A 
ATOM     36  C   UNL A   1      42.513  28.448  28.349  1.00  0.00     0.010 A 
ATOM     37  C   UNL A   1      40.951  26.805  29.198  1.00  0.00     0.010 A 
ATOM     38  C   UNL A   1      41.592  28.045  29.330  1.00  0.00    -0.014 A 
BRANCH  38  39
ATOM     39  C   UNL A   1      41.304  28.898  30.510  1.00  0.00     0.031 A 
ATOM     40  C   UNL A   1      42.119  28.745  31.767  1.00  0.00     0.074 A 
ATOM     41  C   UNL A   1      40.273  29.764  30.468  1.00  0.00     0.049 A 
ATOM     42  N   UNL A   1      41.977  29.344  32.921  1.00  0.00    -0.248 NA
ATOM     43  C   UNL A   1      43.222  27.771  31.729  1.00  0.00     0.031 C 
ATOM     44  C   UNL A   1      39.384  29.964  29.321  1.00  0.00     0.029 A 
ATOM     45  N   UNL A   1      39.792  30.630  31.416  1.00  0.00    -0.354 N 
ATOM     46  C   UNL A   1      42.956  28.809  33.750  1.00  0.00     0.074 A 
ATOM     47  C   UNL A   1      43.655  27.802  32.981  1.00  0.00     0.031 C 
ATOM     48  C   UNL A   1      38.478  30.907  29.628  1.00  0.00     0.029 A 
ATOM     49  C   UNL A   1      38.699  31.352  30.999  1.00  0.00     0.049 A 
ATOM     50  H   UNL A   1      40.191  30.725  32.310  1.00  0.00     0.167 HD
ATOM     51  C   UNL A   1      43.259  29.141  35.028  1.00  0.00     0.037 A 
ATOM     52  C   UNL A   1      37.955  32.265  31.652  1.00  0.00     0.037 A 
ATOM     53  C   UNL A   1      42.576  30.165  35.775  1.00  0.00     0.049 A 
ATOM     54  C   UNL A   1      38.320  32.630  33.065  1.00  0.00     0.074 A 
ATOM     55  C   UNL A   1      42.841  30.620  37.054  1.00  0.00     0.029 A 
ATOM     56  N   UNL A   1      41.494  30.897  35.307  1.00  0.00    -0.354 N 
ATOM     57  N   UNL A   1      39.286  32.153  33.814  1.00  0.00    -0.248 NA
ATOM     58  C   UNL A   1      37.503  33.662  33.718  1.00  0.00     0.031 C 
ATOM     59  C   UNL A   1      41.897  31.602  37.373  1.00  0.00     0.029 A 
ATOM     60  C   UNL A   1      41.071  31.789  36.277  1.00  0.00     0.049 A 
ATOM     61  H   UNL A   1      41.087  30.796  34.416  1.00  0.00     0.167 HD
ATOM     62  C   UNL A   1      39.208  32.845  35.018  1.00  0.00     0.074 A 
ATOM     63  C   UNL A   1      38.109  33.780  34.891  1.00  0.00     0.031 C 
ATOM     64  C   UNL A   1      39.977  32.717  36.129  1.00  0.00     0.037 A 
BRANCH  51  65
ATOM     65  C   UNL A   1      44.381  28.393  35.696  1.00  0.00     0.058 A 
ATOM     66  C   UNL A   1      45.712  28.831  35.608  1.00  0.00     0.135 A 
ATOM     67  C   UNL A   1      44.121  27.241  36.455  1.00  0.00     0.135 A 
ATOM     68  F   UNL A   1      46.020  29.919  34.884  1.00  0.00    -0.206 F 
ATOM     69  C   UNL A   1      46.750  28.136  36.222  1.00  0.00     0.059 A 
ATOM     70  C   UNL A   1      45.140  26.545  37.100  1.00  0.00     0.059 A 
ATOM     71  F   UNL A   1      42.867  26.776  36.572  1.00  0.00    -0.206 F 
ATOM     72  C   UNL A   1      46.454  26.992  36.965  1.00  0.00     0.060 A 
BRANCH  72  73
ATOM     73  S   UNL A   1      47.811  26.102  37.755  1.00  0.00     0.124 S 
ATOM     74  O   UNL A   1      48.813  26.099  36.693  1.00  0.00    -0.237 OA
ATOM     75  O   UNL A   1      48.110  26.945  38.907  1.00  0.00    -0.237 OA
ATOM     76  O   UNL A   1      47.227  24.802  38.070  1.00  0.00    -0.744 OA
ENDBRANCH  72  73
ENDBRANCH  51  65
BRANCH  52  77
ATOM     77  C   UNL A   1      36.809  32.916  30.964  1.00  0.00     0.058 A 
ATOM     78  C   UNL A   1      37.021  33.889  29.977  1.00  0.00     0.135 A 
ATOM     79  C   UNL A   1      35.484  32.564  31.261  1.00  0.00     0.135 A 
ATOM     80  F   UNL A   1      38.271  34.262  29.661  1.00  0.00    -0.206 F 
ATOM     81  C   UNL A   1      35.960  34.502  29.317  1.00  0.00     0.059 A 
ATOM     82  C   UNL A   1      34.406  33.144  30.599  1.00  0.00     0.059 A 
ATOM     83  F   UNL A   1      35.229  31.623  32.185  1.00  0.00    -0.206 F 
ATOM     84  C   UNL A   1      34.655  34.120  29.634  1.00  0.00     0.060 A 
BRANCH  84  85
ATOM     85  S   UNL A   1      33.287  34.880  28.734  1.00  0.00     0.124 S 
ATOM     86  O   UNL A   1      32.364  35.199  29.817  1.00  0.00    -0.237 OA
ATOM     87  O   UNL A   1      33.936  36.019  28.092  1.00  0.00    -0.237 OA
ATOM     88  O   UNL A   1      32.855  33.822  27.826  1.00  0.00    -0.744 OA
ENDBRANCH  84  85
ENDBRANCH  52  77
BRANCH  64  89
ATOM     89  C   UNL A   1      39.677  33.632  37.282  1.00  0.00     0.058 A 
ATOM     90  C   UNL A   1      38.883  33.220  38.362  1.00  0.00     0.135 A 
ATOM     91  C   UNL A   1      40.228  34.923  37.325  1.00  0.00     0.135 A 
ATOM     92  F   UNL A   1      38.327  31.998  38.364  1.00  0.00    -0.206 F 
ATOM     93  C   UNL A   1      38.625  34.064  39.437  1.00  0.00     0.059 A 
ATOM     94  C   UNL A   1      40.006  35.775  38.402  1.00  0.00     0.059 A 
ATOM     95  F   UNL A   1      41.003  35.362  36.321  1.00  0.00    -0.206 F 
ATOM     96  C   UNL A   1      39.192  35.340  39.448  1.00  0.00     0.060 A 
BRANCH  96  97
ATOM     97  S   UNL A   1      38.875  36.418  40.862  1.00  0.00     0.124 S 
ATOM     98  O   UNL A   1      37.781  35.717  41.525  1.00  0.00    -0.237 OA
ATOM     99  O   UNL A   1      40.156  36.400  41.562  1.00  0.00    -0.237 OA
ATOM    100  O   UNL A   1      38.523  37.692  40.244  1.00  0.00    -0.744 OA
ENDBRANCH  96  97
ENDBRANCH  64  89
ENDBRANCH  38  39
ENDBRANCH  30  33
ENDBRANCH  28  29
ENDBRANCH  27  28
ENDBRANCH   1  27
TORSDOF 17
ENDMDL
MODEL 3
REMARK VINA RESULT:     -11.3      0.869      2.061
REMARK SMILES C[N@@H+]1CC[N@@H+](C)[C@H](C[NH2+]Cc2ccc(C(=O)NCCCNC(=O)c3ccc(-c4c5nc(c(-c6c(F)cc(S(=O)(=O)[O-])cc6F)c6ccc([nH]6)c(-c6c(F)cc(S(=O)(=O)[O-])cc6F)c6nc(c(-c7c(F)cc(S(=O)(=O)[O-])cc7F)c7ccc4[nH]7)C=C6)C=C5)cc3)cn2)C1
REMARK SMILES IDX 18 1 17 2 15 3 16 4 14 6 11 7 12 8 91 9 13 10 90 11 10 12
REMARK SMILES IDX 9 13 8 16 7 17 1 18 2 19 3 20 92 21 4 23 5 24 6 25 19 27
REMARK SMILES IDX 20 28 21 29 22 30 23 32 24 33 25 34 89 35 26 36 88 37 27 38
REMARK SMILES IDX 28 39 29 40 82 41 30 42 87 43 81 44 83 45 31 46 86 47 80 48
REMARK SMILES IDX 79 49 32 51 66 52 45 53 65 54 46 55 49 56 64 57 84 58 47 59
REMARK SMILES IDX 48 60 63 62 85 63 50 64 33 65 34 66 43 67 35 68 36 69 42 70
REMARK SMILES IDX 44 71 37 72 38 73 39 74 40 75 41 76 67 77 68 78 77 79 69 80
REMARK SMILES IDX 70 81 76 82 78 83 71 84 72 85 73 86 74 87 75 88 51 89 52 90
REMARK SMILES IDX 61 91 53 92 54 93 60 94 62 95 55 96 56 97 57 98 58 99 59 100
REMARK H PARENT 17 5 9 14 9 15 2 22 5 26 21 31 83 50 49 61
REMARK Flexibility Score: inf
ROOT
ATOM      1  C   UNL A   1      33.589  30.458  26.820  1.00  0.00     0.118 C 
ENDROOT
BRANCH   1   2
ATOM      2  N   UNL A   1      32.662  29.569  27.497  1.00  0.00    -0.352 N 
ATOM      3  C   UNL A   1      32.138  28.348  27.161  1.00  0.00     0.252 C 
ATOM      4  O   UNL A   1      31.367  27.824  27.964  1.00  0.00    -0.269 OA
ATOM      5  H   UNL A   1      32.351  29.910  28.367  1.00  0.00     0.163 HD
BRANCH   3   6
ATOM      6  C   UNL A   1      32.508  27.607  25.931  1.00  0.00     0.058 A 
ATOM      7  C   UNL A   1      32.758  26.174  23.590  1.00  0.00     0.094 A 
ATOM      8  C   UNL A   1      33.603  25.885  24.653  1.00  0.00     0.030 A 
ATOM      9  N   UNL A   1      31.894  27.221  23.612  1.00  0.00    -0.255 NA
ATOM     10  C   UNL A   1      33.489  26.626  25.822  1.00  0.00     0.017 A 
ATOM     11  C   UNL A   1      31.783  27.899  24.780  1.00  0.00     0.125 A 
BRANCH   7  12
ATOM     12  C   UNL A   1      32.687  25.218  22.423  1.00  0.00     0.318 C 
BRANCH  12  13
ATOM     13  N   UNL A   1      31.832  24.069  22.740  1.00  0.00    -0.336 N 
ATOM     14  H   UNL A   1      31.338  24.252  23.613  1.00  0.00     0.346 HD
ATOM     15  H   UNL A   1      31.171  23.936  21.973  1.00  0.00     0.346 HD
BRANCH  13  16
ATOM     16  C   UNL A   1      32.626  22.836  22.887  1.00  0.00     0.332 C 
BRANCH  16  17
ATOM     17  C   UNL A   1      32.487  22.233  24.320  1.00  0.00     0.295 C 
ATOM     18  C   UNL A   1      29.879  22.971  27.006  1.00  0.00     0.333 C 
ATOM     19  N   UNL A   1      31.065  22.385  26.393  1.00  0.00    -0.328 N 
ATOM     20  C   UNL A   1      32.279  22.711  27.156  1.00  0.00     0.324 C 
ATOM     21  C   UNL A   1      31.249  22.880  25.012  1.00  0.00     0.334 C 
ATOM     22  H   UNL A   1      30.922  21.375  26.386  1.00  0.00     0.348 HD
ATOM     23  C   UNL A   1      33.519  22.037  26.533  1.00  0.00     0.324 C 
ATOM     24  N   UNL A   1      33.752  22.385  25.117  1.00  0.00    -0.321 N 
ATOM     25  C   UNL A   1      34.838  21.550  24.590  1.00  0.00     0.333 C 
ATOM     26  H   UNL A   1      34.033  23.363  25.041  1.00  0.00     0.348 HD
ENDBRANCH  16  17
ENDBRANCH  13  16
ENDBRANCH  12  13
ENDBRANCH   7  12
ENDBRANCH   3   6
ENDBRANCH   1   2
BRANCH   1  27
ATOM     27  C   UNL A   1      34.363  31.311  27.823  1.00  0.00     0.042 C 
BRANCH  27  28
ATOM     28  C   UNL A   1      35.542  30.578  28.450  1.00  0.00     0.118 C 
BRANCH  28  29
ATOM     29  N   UNL A   1      35.561  30.727  29.896  1.00  0.00    -0.352 N 
ATOM     30  C   UNL A   1      36.519  30.351  30.801  1.00  0.00     0.251 C 
ATOM     31  H   UNL A   1      34.768  31.164  30.282  1.00  0.00     0.163 HD
ATOM     32  O   UNL A   1      36.237  30.329  31.997  1.00  0.00    -0.269 OA
BRANCH  30  33
ATOM     33  C   UNL A   1      37.877  29.973  30.350  1.00  0.00     0.039 A 
ATOM     34  C   UNL A   1      38.199  30.121  28.998  1.00  0.00     0.014 A 
ATOM     35  C   UNL A   1      38.808  29.423  31.235  1.00  0.00     0.014 A 
ATOM     36  C   UNL A   1      39.468  29.754  28.543  1.00  0.00     0.010 A 
ATOM     37  C   UNL A   1      40.095  29.125  30.795  1.00  0.00     0.010 A 
ATOM     38  C   UNL A   1      40.433  29.273  29.442  1.00  0.00    -0.014 A 
BRANCH  38  39
ATOM     39  C   UNL A   1      41.794  28.899  28.982  1.00  0.00     0.031 A 
ATOM     40  C   UNL A   1      42.877  29.942  28.910  1.00  0.00     0.074 A 
ATOM     41  C   UNL A   1      42.035  27.638  28.574  1.00  0.00     0.049 A 
ATOM     42  N   UNL A   1      44.104  29.830  28.469  1.00  0.00    -0.248 NA
ATOM     43  C   UNL A   1      42.527  31.296  29.369  1.00  0.00     0.031 C 
ATOM     44  C   UNL A   1      41.050  26.554  28.554  1.00  0.00     0.029 A 
ATOM     45  N   UNL A   1      43.178  27.058  28.088  1.00  0.00    -0.354 N 
ATOM     46  C   UNL A   1      44.665  31.098  28.580  1.00  0.00     0.074 A 
ATOM     47  C   UNL A   1      43.629  31.974  29.084  1.00  0.00     0.031 C 
ATOM     48  C   UNL A   1      41.638  25.436  28.097  1.00  0.00     0.029 A 
ATOM     49  C   UNL A   1      43.026  25.731  27.762  1.00  0.00     0.049 A 
ATOM     50  H   UNL A   1      44.027  27.544  27.983  1.00  0.00     0.167 HD
ATOM     51  C   UNL A   1      45.932  31.490  28.306  1.00  0.00     0.037 A 
ATOM     52  C   UNL A   1      43.907  24.853  27.243  1.00  0.00     0.037 A 
ATOM     53  C   UNL A   1      46.964  30.603  27.833  1.00  0.00     0.049 A 
ATOM     54  C   UNL A   1      45.313  25.307  26.963  1.00  0.00     0.074 A 
ATOM     55  C   UNL A   1      48.294  30.886  27.581  1.00  0.00     0.029 A 
ATOM     56  N   UNL A   1      46.779  29.259  27.545  1.00  0.00    -0.354 N 
ATOM     57  N   UNL A   1      45.841  26.497  27.127  1.00  0.00    -0.248 NA
ATOM     58  C   UNL A   1      46.244  24.300  26.438  1.00  0.00     0.031 C 
ATOM     59  C   UNL A   1      48.906  29.721  27.106  1.00  0.00     0.029 A 
ATOM     60  C   UNL A   1      47.967  28.702  27.103  1.00  0.00     0.049 A 
ATOM     61  H   UNL A   1      45.928  28.772  27.639  1.00  0.00     0.167 HD
ATOM     62  C   UNL A   1      47.173  26.375  26.749  1.00  0.00     0.074 A 
ATOM     63  C   UNL A   1      47.372  24.994  26.360  1.00  0.00     0.031 C 
ATOM     64  C   UNL A   1      48.145  27.321  26.725  1.00  0.00     0.037 A 
BRANCH  51  65
ATOM     65  C   UNL A   1      46.274  32.940  28.519  1.00  0.00     0.058 A 
ATOM     66  C   UNL A   1      46.137  33.888  27.491  1.00  0.00     0.135 A 
ATOM     67  C   UNL A   1      46.718  33.394  29.771  1.00  0.00     0.135 A 
ATOM     68  F   UNL A   1      45.730  33.507  26.270  1.00  0.00    -0.206 F 
ATOM     69  C   UNL A   1      46.458  35.227  27.688  1.00  0.00     0.059 A 
ATOM     70  C   UNL A   1      47.019  34.735  29.998  1.00  0.00     0.059 A 
ATOM     71  F   UNL A   1      46.867  32.532  30.789  1.00  0.00    -0.206 F 
ATOM     72  C   UNL A   1      46.900  35.641  28.945  1.00  0.00     0.060 A 
BRANCH  72  73
ATOM     73  S   UNL A   1      47.313  37.382  29.184  1.00  0.00     0.124 S 
ATOM     74  O   UNL A   1      48.408  37.553  28.235  1.00  0.00    -0.237 OA
ATOM     75  O   UNL A   1      46.063  38.051  28.838  1.00  0.00    -0.237 OA
ATOM     76  O   UNL A   1      47.687  37.452  30.593  1.00  0.00    -0.744 OA
ENDBRANCH  72  73
ENDBRANCH  51  65
BRANCH  52  77
ATOM     77  C   UNL A   1      43.488  23.450  26.983  1.00  0.00     0.058 A 
ATOM     78  C   UNL A   1      43.344  22.535  28.035  1.00  0.00     0.135 A 
ATOM     79  C   UNL A   1      43.202  23.003  25.684  1.00  0.00     0.135 A 
ATOM     80  F   UNL A   1      43.610  22.915  29.295  1.00  0.00    -0.206 F 
ATOM     81  C   UNL A   1      42.944  21.221  27.810  1.00  0.00     0.059 A 
ATOM     82  C   UNL A   1      42.777  21.701  25.435  1.00  0.00     0.059 A 
ATOM     83  F   UNL A   1      43.305  23.846  24.644  1.00  0.00    -0.206 F 
ATOM     84  C   UNL A   1      42.661  20.815  26.505  1.00  0.00     0.060 A 
BRANCH  84  85
ATOM     85  S   UNL A   1      42.090  19.124  26.229  1.00  0.00     0.124 S 
ATOM     86  O   UNL A   1      42.276  18.532  27.548  1.00  0.00    -0.237 OA
ATOM     87  O   UNL A   1      40.708  19.331  25.809  1.00  0.00    -0.237 OA
ATOM     88  O   UNL A   1      42.987  18.635  25.185  1.00  0.00    -0.744 OA
ENDBRANCH  84  85
ENDBRANCH  52  77
BRANCH  64  89
ATOM     89  C   UNL A   1      49.518  26.887  26.295  1.00  0.00     0.058 A 
ATOM     90  C   UNL A   1      50.487  26.482  27.224  1.00  0.00     0.135 A 
ATOM     91  C   UNL A   1      49.850  26.835  24.932  1.00  0.00     0.135 A 
ATOM     92  F   UNL A   1      50.220  26.521  28.539  1.00  0.00    -0.206 F 
ATOM     93  C   UNL A   1      51.750  26.062  26.819  1.00  0.00     0.059 A 
ATOM     94  C   UNL A   1      51.097  26.393  24.502  1.00  0.00     0.059 A 
ATOM     95  F   UNL A   1      48.954  27.203  24.002  1.00  0.00    -0.206 F 
ATOM     96  C   UNL A   1      52.045  26.020  25.454  1.00  0.00     0.060 A 
BRANCH  96  97
ATOM     97  S   UNL A   1      53.677  25.445  24.938  1.00  0.00     0.124 S 
ATOM     98  O   UNL A   1      54.486  25.769  26.108  1.00  0.00    -0.237 OA
ATOM     99  O   UNL A   1      53.446  24.024  24.698  1.00  0.00    -0.237 OA
ATOM    100  O   UNL A   1      53.953  26.239  23.744  1.00  0.00    -0.744 OA
ENDBRANCH  96  97
ENDBRANCH  64  89
ENDBRANCH  38  39
ENDBRANCH  30  33
ENDBRANCH  28  29
ENDBRANCH  27  28
ENDBRANCH   1  27
TORSDOF 17
ENDMDL
