MODEL 1
REMARK VINA RESULT:     -12.2      0.000      0.000
REMARK SMILES CC1(C)CCC[C@H]1NS(=O)(=O)c1ccc(O)c(C(=O)NCCCNC(=O)c2ccc(-c3c4nc(c(-c5c(F)cc(S(=O)(=O)[O-])cc5F)c5ccc([nH]5)c(-c5c(F)cc(S(=O)(=O)[O-])cc5F)c5nc(c(-c6c(F)cc(S(=O)(=O)[O-])cc6F)c6ccc3[nH]6)C=C5)C=C4)cc2)c1
REMARK SMILES IDX 22 1 21 2 20 3 18 4 19 5 17 7 12 8 13 9 93 10 14 11 15 12
REMARK SMILES IDX 9 13 10 14 11 15 8 16 7 18 1 19 2 20 3 21 4 22 5 23 6 24
REMARK SMILES IDX 16 25 23 27 24 28 25 29 26 31 27 32 28 33 92 34 29 35 91 36
REMARK SMILES IDX 30 37 31 38 32 39 85 40 33 41 90 42 84 43 86 44 34 45 89 46
REMARK SMILES IDX 83 47 82 48 35 50 69 51 48 52 68 53 49 54 52 55 67 56 87 57
REMARK SMILES IDX 50 58 51 59 66 61 88 62 53 63 36 64 37 65 46 66 38 67 39 68
REMARK SMILES IDX 45 69 47 70 40 71 41 72 42 73 43 74 44 75 70 76 71 77 80 78
REMARK SMILES IDX 72 79 73 80 79 81 81 82 74 83 75 84 76 85 77 86 78 87 54 88
REMARK SMILES IDX 55 89 64 90 56 91 57 92 63 93 65 94 58 95 59 96 60 97 61 98
REMARK SMILES IDX 62 99
REMARK H PARENT 20 6 8 17 16 26 24 30 86 49 52 60
REMARK Flexibility Score: inf
ROOT
ATOM      1  C   UNL A   1      40.896  21.453  27.586  1.00  0.00     0.042 C 
ENDROOT
BRANCH   1   2
ATOM      2  C   UNL A   1      41.170  20.985  26.156  1.00  0.00     0.118 C 
BRANCH   2   3
ATOM      3  N   UNL A   1      41.513  19.577  26.139  1.00  0.00    -0.352 N 
ATOM      4  C   UNL A   1      42.663  18.909  25.811  1.00  0.00     0.255 C 
ATOM      5  O   UNL A   1      42.604  17.676  25.844  1.00  0.00    -0.269 OA
ATOM      6  H   UNL A   1      40.776  18.986  26.417  1.00  0.00     0.163 HD
BRANCH   4   7
ATOM      7  C   UNL A   1      43.985  19.547  25.526  1.00  0.00     0.082 A 
ATOM      8  C   UNL A   1      45.105  21.695  25.164  1.00  0.00     0.083 A 
ATOM      9  C   UNL A   1      46.307  21.048  24.907  1.00  0.00     0.025 A 
ATOM     10  C   UNL A   1      43.945  20.951  25.416  1.00  0.00     0.039 A 
ATOM     11  C   UNL A   1      46.380  19.670  25.081  1.00  0.00     0.048 A 
ATOM     12  C   UNL A   1      45.243  18.939  25.450  1.00  0.00     0.128 A 
BRANCH   8  13
ATOM     13  S   UNL A   1      44.990  23.452  25.348  1.00  0.00     0.240 S 
ATOM     14  O   UNL A   1      44.074  23.931  24.339  1.00  0.00    -0.207 OA
ATOM     15  O   UNL A   1      46.343  23.951  25.451  1.00  0.00    -0.207 OA
BRANCH  13  16
ATOM     16  N   UNL A   1      44.321  23.750  26.859  1.00  0.00    -0.208 NA
ATOM     17  H   UNL A   1      43.918  24.685  26.807  1.00  0.00     0.141 HD
BRANCH  16  18
ATOM     18  C   UNL A   1      45.104  23.715  28.106  1.00  0.00     0.075 C 
ATOM     19  C   UNL A   1      45.144  26.303  27.620  1.00  0.00     0.013 C 
ATOM     20  C   UNL A   1      45.399  25.164  28.623  1.00  0.00    -0.019 C 
ATOM     21  C   UNL A   1      46.875  25.268  29.063  1.00  0.00     0.013 C 
ATOM     22  C   UNL A   1      44.465  25.308  29.839  1.00  0.00     0.008 C 
ATOM     23  C   UNL A   1      44.447  23.921  30.455  1.00  0.00     0.002 C 
ATOM     24  C   UNL A   1      44.357  23.004  29.246  1.00  0.00     0.020 C 
ENDBRANCH  16  18
ENDBRANCH  13  16
ENDBRANCH   8  13
BRANCH  12  25
ATOM     25  O   UNL A   1      45.448  17.638  25.795  1.00  0.00    -0.507 OA
ATOM     26  H   UNL A   1      44.716  17.077  25.961  1.00  0.00     0.293 HD
ENDBRANCH  12  25
ENDBRANCH   4   7
ENDBRANCH   2   3
ENDBRANCH   1   2
BRANCH   1  27
ATOM     27  C   UNL A   1      41.169  22.934  27.804  1.00  0.00     0.118 C 
BRANCH  27  28
ATOM     28  N   UNL A   1      41.248  23.656  26.545  1.00  0.00    -0.352 N 
ATOM     29  C   UNL A   1      41.020  24.986  26.286  1.00  0.00     0.251 C 
ATOM     30  H   UNL A   1      41.501  23.114  25.763  1.00  0.00     0.163 HD
ATOM     31  O   UNL A   1      40.898  25.358  25.122  1.00  0.00    -0.269 OA
BRANCH  29  32
ATOM     32  C   UNL A   1      40.909  25.969  27.392  1.00  0.00     0.039 A 
ATOM     33  C   UNL A   1      39.855  25.841  28.302  1.00  0.00     0.014 A 
ATOM     34  C   UNL A   1      41.799  27.041  27.507  1.00  0.00     0.014 A 
ATOM     35  C   UNL A   1      39.715  26.761  29.345  1.00  0.00     0.010 A 
ATOM     36  C   UNL A   1      41.700  27.919  28.586  1.00  0.00     0.010 A 
ATOM     37  C   UNL A   1      40.648  27.798  29.507  1.00  0.00    -0.014 A 
BRANCH  37  38
ATOM     38  C   UNL A   1      40.520  28.789  30.605  1.00  0.00     0.031 A 
ATOM     39  C   UNL A   1      41.424  28.702  31.805  1.00  0.00     0.074 A 
ATOM     40  C   UNL A   1      39.556  29.729  30.553  1.00  0.00     0.049 A 
ATOM     41  N   UNL A   1      41.422  29.424  32.897  1.00  0.00    -0.248 NA
ATOM     42  C   UNL A   1      42.450  27.648  31.784  1.00  0.00     0.031 C 
ATOM     43  C   UNL A   1      38.595  29.896  29.462  1.00  0.00     0.029 A 
ATOM     44  N   UNL A   1      39.222  30.716  31.446  1.00  0.00    -0.354 N 
ATOM     45  C   UNL A   1      42.420  28.893  33.704  1.00  0.00     0.074 A 
ATOM     46  C   UNL A   1      42.986  27.767  32.990  1.00  0.00     0.031 C 
ATOM     47  C   UNL A   1      37.799  30.942  29.735  1.00  0.00     0.029 A 
ATOM     48  C   UNL A   1      38.169  31.497  31.034  1.00  0.00     0.049 A 
ATOM     49  H   UNL A   1      39.692  30.852  32.299  1.00  0.00     0.167 HD
ATOM     50  C   UNL A   1      42.840  29.312  34.922  1.00  0.00     0.037 A 
ATOM     51  C   UNL A   1      37.569  32.543  31.636  1.00  0.00     0.037 A 
ATOM     52  C   UNL A   1      42.308  30.457  35.610  1.00  0.00     0.049 A 
ATOM     53  C   UNL A   1      38.063  33.003  32.979  1.00  0.00     0.074 A 
ATOM     54  C   UNL A   1      42.719  31.011  36.811  1.00  0.00     0.029 A 
ATOM     55  N   UNL A   1      41.248  31.228  35.156  1.00  0.00    -0.354 N 
ATOM     56  N   UNL A   1      39.042  32.520  33.706  1.00  0.00    -0.248 NA
ATOM     57  C   UNL A   1      37.368  34.147  33.585  1.00  0.00     0.031 C 
ATOM     58  C   UNL A   1      41.889  32.102  37.094  1.00  0.00     0.029 A 
ATOM     59  C   UNL A   1      40.979  32.244  36.058  1.00  0.00     0.049 A 
ATOM     60  H   UNL A   1      40.759  31.075  34.315  1.00  0.00     0.167 HD
ATOM     61  C   UNL A   1      39.096  33.315  34.844  1.00  0.00     0.074 A 
ATOM     62  C   UNL A   1      38.053  34.312  34.709  1.00  0.00     0.031 C 
ATOM     63  C   UNL A   1      39.938  33.229  35.904  1.00  0.00     0.037 A 
BRANCH  50  64
ATOM     64  C   UNL A   1      43.928  28.513  35.583  1.00  0.00     0.058 A 
ATOM     65  C   UNL A   1      43.636  27.475  36.484  1.00  0.00     0.135 A 
ATOM     66  C   UNL A   1      45.278  28.800  35.328  1.00  0.00     0.135 A 
ATOM     67  F   UNL A   1      42.362  27.172  36.773  1.00  0.00    -0.206 F 
ATOM     68  C   UNL A   1      44.645  26.781  37.144  1.00  0.00     0.059 A 
ATOM     69  C   UNL A   1      46.303  28.102  35.961  1.00  0.00     0.059 A 
ATOM     70  F   UNL A   1      45.611  29.779  34.474  1.00  0.00    -0.206 F 
ATOM     71  C   UNL A   1      45.976  27.112  36.885  1.00  0.00     0.060 A 
BRANCH  71  72
ATOM     72  S   UNL A   1      47.279  26.235  37.776  1.00  0.00     0.124 S 
ATOM     73  O   UNL A   1      46.589  25.010  38.166  1.00  0.00    -0.237 OA
ATOM     74  O   UNL A   1      48.313  26.081  36.757  1.00  0.00    -0.237 OA
ATOM     75  O   UNL A   1      47.611  27.145  38.867  1.00  0.00    -0.744 OA
ENDBRANCH  71  72
ENDBRANCH  50  64
BRANCH  51  76
ATOM     76  C   UNL A   1      36.465  33.253  30.944  1.00  0.00     0.058 A 
ATOM     77  C   UNL A   1      35.147  33.144  31.411  1.00  0.00     0.135 A 
ATOM     78  C   UNL A   1      36.705  34.084  29.840  1.00  0.00     0.135 A 
ATOM     79  F   UNL A   1      34.870  32.354  32.459  1.00  0.00    -0.206 F 
ATOM     80  C   UNL A   1      34.102  33.838  30.810  1.00  0.00     0.059 A 
ATOM     81  C   UNL A   1      35.679  34.803  29.233  1.00  0.00     0.059 A 
ATOM     82  F   UNL A   1      37.952  34.231  29.367  1.00  0.00    -0.206 F 
ATOM     83  C   UNL A   1      34.380  34.670  29.724  1.00  0.00     0.060 A 
BRANCH  83  84
ATOM     84  S   UNL A   1      33.033  35.636  29.005  1.00  0.00     0.124 S 
ATOM     85  O   UNL A   1      33.762  36.702  28.330  1.00  0.00    -0.237 OA
ATOM     86  O   UNL A   1      32.379  34.659  28.139  1.00  0.00    -0.237 OA
ATOM     87  O   UNL A   1      32.255  36.042  30.172  1.00  0.00    -0.744 OA
ENDBRANCH  83  84
ENDBRANCH  51  76
BRANCH  63  88
ATOM     88  C   UNL A   1      39.780  34.252  36.990  1.00  0.00     0.058 A 
ATOM     89  C   UNL A   1      40.324  35.540  36.867  1.00  0.00     0.135 A 
ATOM     90  C   UNL A   1      39.038  33.957  38.144  1.00  0.00     0.135 A 
ATOM     91  F   UNL A   1      41.048  35.867  35.785  1.00  0.00    -0.206 F 
ATOM     92  C   UNL A   1      40.149  36.498  37.860  1.00  0.00     0.059 A 
ATOM     93  C   UNL A   1      38.836  34.904  39.142  1.00  0.00     0.059 A 
ATOM     94  F   UNL A   1      38.493  32.740  38.304  1.00  0.00    -0.206 F 
ATOM     95  C   UNL A   1      39.404  36.170  38.995  1.00  0.00     0.060 A 
BRANCH  95  96
ATOM     96  S   UNL A   1      39.150  37.429  40.264  1.00  0.00     0.124 S 
ATOM     97  O   UNL A   1      40.511  37.911  40.475  1.00  0.00    -0.237 OA
ATOM     98  O   UNL A   1      38.242  38.364  39.606  1.00  0.00    -0.237 OA
ATOM     99  O   UNL A   1      38.569  36.678  41.372  1.00  0.00    -0.744 OA
ENDBRANCH  95  96
ENDBRANCH  63  88
ENDBRANCH  37  38
ENDBRANCH  29  32
ENDBRANCH  27  28
ENDBRANCH   1  27
TORSDOF 17
ENDMDL
MODEL 2
REMARK VINA RESULT:     -12.0      0.434      8.180
REMARK SMILES CC1(C)CCC[C@H]1NS(=O)(=O)c1ccc(O)c(C(=O)NCCCNC(=O)c2ccc(-c3c4nc(c(-c5c(F)cc(S(=O)(=O)[O-])cc5F)c5ccc([nH]5)c(-c5c(F)cc(S(=O)(=O)[O-])cc5F)c5nc(c(-c6c(F)cc(S(=O)(=O)[O-])cc6F)c6ccc3[nH]6)C=C5)C=C4)cc2)c1
REMARK SMILES IDX 22 1 21 2 20 3 18 4 19 5 17 7 12 8 13 9 93 10 14 11 15 12
REMARK SMILES IDX 9 13 10 14 11 15 8 16 7 18 1 19 2 20 3 21 4 22 5 23 6 24
REMARK SMILES IDX 16 25 23 27 24 28 25 29 26 31 27 32 28 33 92 34 29 35 91 36
REMARK SMILES IDX 30 37 31 38 32 39 85 40 33 41 90 42 84 43 86 44 34 45 89 46
REMARK SMILES IDX 83 47 82 48 35 50 69 51 48 52 68 53 49 54 52 55 67 56 87 57
REMARK SMILES IDX 50 58 51 59 66 61 88 62 53 63 36 64 37 65 46 66 38 67 39 68
REMARK SMILES IDX 45 69 47 70 40 71 41 72 42 73 43 74 44 75 70 76 71 77 80 78
REMARK SMILES IDX 72 79 73 80 79 81 81 82 74 83 75 84 76 85 77 86 78 87 54 88
REMARK SMILES IDX 55 89 64 90 56 91 57 92 63 93 65 94 58 95 59 96 60 97 61 98
REMARK SMILES IDX 62 99
REMARK H PARENT 20 6 8 17 16 26 24 30 86 49 52 60
REMARK Flexibility Score: inf
ROOT
ATOM      1  C   UNL A   1      41.052  21.616  27.569  1.00  0.00     0.042 C 
ENDROOT
BRANCH   1   2
ATOM      2  C   UNL A   1      41.185  21.126  26.126  1.00  0.00     0.118 C 
BRANCH   2   3
ATOM      3  N   UNL A   1      41.498  19.712  26.097  1.00  0.00    -0.352 N 
ATOM      4  C   UNL A   1      42.632  19.021  25.755  1.00  0.00     0.255 C 
ATOM      5  O   UNL A   1      42.547  17.790  25.781  1.00  0.00    -0.269 OA
ATOM      6  H   UNL A   1      40.752  19.133  26.377  1.00  0.00     0.163 HD
BRANCH   4   7
ATOM      7  C   UNL A   1      43.964  19.634  25.464  1.00  0.00     0.082 A 
ATOM      8  C   UNL A   1      45.129  21.761  25.124  1.00  0.00     0.083 A 
ATOM      9  C   UNL A   1      46.312  21.091  24.840  1.00  0.00     0.025 A 
ATOM     10  C   UNL A   1      43.955  21.039  25.378  1.00  0.00     0.039 A 
ATOM     11  C   UNL A   1      46.356  19.709  24.989  1.00  0.00     0.048 A 
ATOM     12  C   UNL A   1      45.207  18.998  25.360  1.00  0.00     0.128 A 
BRANCH   8  13
ATOM     13  S   UNL A   1      45.058  23.516  25.340  1.00  0.00     0.240 S 
ATOM     14  O   UNL A   1      44.257  24.050  24.263  1.00  0.00    -0.207 OA
ATOM     15  O   UNL A   1      46.412  23.963  25.580  1.00  0.00    -0.207 OA
BRANCH  13  16
ATOM     16  N   UNL A   1      44.262  23.806  26.790  1.00  0.00    -0.208 NA
ATOM     17  H   UNL A   1      43.900  24.758  26.726  1.00  0.00     0.141 HD
BRANCH  16  18
ATOM     18  C   UNL A   1      44.921  23.711  28.103  1.00  0.00     0.075 C 
ATOM     19  C   UNL A   1      45.040  26.315  27.725  1.00  0.00     0.013 C 
ATOM     20  C   UNL A   1      45.184  25.134  28.702  1.00  0.00    -0.019 C 
ATOM     21  C   UNL A   1      46.612  25.197  29.284  1.00  0.00     0.013 C 
ATOM     22  C   UNL A   1      44.140  25.247  29.828  1.00  0.00     0.008 C 
ATOM     23  C   UNL A   1      44.046  23.838  30.385  1.00  0.00     0.002 C 
ATOM     24  C   UNL A   1      44.060  22.969  29.138  1.00  0.00     0.020 C 
ENDBRANCH  16  18
ENDBRANCH  13  16
ENDBRANCH   8  13
BRANCH  12  25
ATOM     25  O   UNL A   1      45.385  17.686  25.680  1.00  0.00    -0.507 OA
ATOM     26  H   UNL A   1      44.962  17.327  26.435  1.00  0.00     0.293 HD
ENDBRANCH  12  25
ENDBRANCH   4   7
ENDBRANCH   2   3
ENDBRANCH   1   2
BRANCH   1  27
ATOM     27  C   UNL A   1      40.570  23.055  27.681  1.00  0.00     0.118 C 
BRANCH  27  28
ATOM     28  N   UNL A   1      40.960  23.843  26.523  1.00  0.00    -0.352 N 
ATOM     29  C   UNL A   1      41.004  25.208  26.371  1.00  0.00     0.251 C 
ATOM     30  H   UNL A   1      41.232  23.323  25.732  1.00  0.00     0.163 HD
ATOM     31  O   UNL A   1      41.124  25.681  25.244  1.00  0.00    -0.269 OA
BRANCH  29  32
ATOM     32  C   UNL A   1      40.897  26.108  27.544  1.00  0.00     0.039 A 
ATOM     33  C   UNL A   1      39.852  25.909  28.452  1.00  0.00     0.014 A 
ATOM     34  C   UNL A   1      41.781  27.176  27.729  1.00  0.00     0.014 A 
ATOM     35  C   UNL A   1      39.715  26.751  29.559  1.00  0.00     0.010 A 
ATOM     36  C   UNL A   1      41.686  27.973  28.868  1.00  0.00     0.010 A 
ATOM     37  C   UNL A   1      40.643  27.780  29.787  1.00  0.00    -0.014 A 
BRANCH  37  38
ATOM     38  C   UNL A   1      40.518  28.689  30.954  1.00  0.00     0.031 A 
ATOM     39  C   UNL A   1      39.471  29.770  30.956  1.00  0.00     0.074 A 
ATOM     40  C   UNL A   1      41.379  28.582  31.985  1.00  0.00     0.049 A 
ATOM     41  N   UNL A   1      39.250  30.706  31.844  1.00  0.00    -0.248 NA
ATOM     42  C   UNL A   1      38.570  29.819  29.795  1.00  0.00     0.031 C 
ATOM     43  C   UNL A   1      42.459  27.599  32.087  1.00  0.00     0.029 A 
ATOM     44  N   UNL A   1      41.485  29.314  33.140  1.00  0.00    -0.354 N 
ATOM     45  C   UNL A   1      38.209  31.473  31.334  1.00  0.00     0.074 A 
ATOM     46  C   UNL A   1      37.865  30.912  30.045  1.00  0.00     0.031 C 
ATOM     47  C   UNL A   1      43.100  27.770  33.254  1.00  0.00     0.029 A 
ATOM     48  C   UNL A   1      42.500  28.895  33.967  1.00  0.00     0.049 A 
ATOM     49  H   UNL A   1      40.891  30.068  33.357  1.00  0.00     0.167 HD
ATOM     50  C   UNL A   1      37.585  32.537  31.894  1.00  0.00     0.037 A 
ATOM     51  C   UNL A   1      42.901  29.365  35.165  1.00  0.00     0.037 A 
ATOM     52  C   UNL A   1      37.898  33.065  33.195  1.00  0.00     0.049 A 
ATOM     53  C   UNL A   1      42.184  30.535  35.776  1.00  0.00     0.074 A 
ATOM     54  C   UNL A   1      37.272  34.089  33.885  1.00  0.00     0.029 A 
ATOM     55  N   UNL A   1      38.927  32.606  34.005  1.00  0.00    -0.354 N 
ATOM     56  N   UNL A   1      41.169  31.217  35.302  1.00  0.00    -0.248 NA
ATOM     57  C   UNL A   1      42.668  31.002  37.082  1.00  0.00     0.031 C 
ATOM     58  C   UNL A   1      37.940  34.266  35.103  1.00  0.00     0.029 A 
ATOM     59  C   UNL A   1      38.964  33.336  35.182  1.00  0.00     0.049 A 
ATOM     60  H   UNL A   1      39.540  31.870  33.777  1.00  0.00     0.167 HD
ATOM     61  C   UNL A   1      40.877  32.179  36.262  1.00  0.00     0.074 A 
ATOM     62  C   UNL A   1      41.822  31.989  37.345  1.00  0.00     0.031 C 
ATOM     63  C   UNL A   1      39.911  33.130  36.249  1.00  0.00     0.037 A 
BRANCH  50  64
ATOM     64  C   UNL A   1      36.504  33.199  31.087  1.00  0.00     0.058 A 
ATOM     65  C   UNL A   1      36.803  34.006  29.977  1.00  0.00     0.135 A 
ATOM     66  C   UNL A   1      35.154  33.040  31.439  1.00  0.00     0.135 A 
ATOM     67  F   UNL A   1      38.078  34.203  29.610  1.00  0.00    -0.206 F 
ATOM     68  C   UNL A   1      35.804  34.670  29.272  1.00  0.00     0.059 A 
ATOM     69  C   UNL A   1      34.138  33.677  30.732  1.00  0.00     0.059 A 
ATOM     70  F   UNL A   1      34.814  32.277  32.488  1.00  0.00    -0.206 F 
ATOM     71  C   UNL A   1      34.475  34.509  29.666  1.00  0.00     0.060 A 
BRANCH  71  72
ATOM     72  S   UNL A   1      33.188  35.406  28.773  1.00  0.00     0.124 S 
ATOM     73  O   UNL A   1      33.983  36.340  27.982  1.00  0.00    -0.237 OA
ATOM     74  O   UNL A   1      32.524  34.346  28.020  1.00  0.00    -0.237 OA
ATOM     75  O   UNL A   1      32.392  36.004  29.840  1.00  0.00    -0.744 OA
ENDBRANCH  71  72
ENDBRANCH  50  64
BRANCH  51  76
ATOM     76  C   UNL A   1      44.013  28.691  35.881  1.00  0.00     0.058 A 
ATOM     77  C   UNL A   1      43.753  27.622  36.752  1.00  0.00     0.135 A 
ATOM     78  C   UNL A   1      45.349  29.063  35.678  1.00  0.00     0.135 A 
ATOM     79  F   UNL A   1      42.488  27.237  36.981  1.00  0.00    -0.206 F 
ATOM     80  C   UNL A   1      44.781  26.942  37.396  1.00  0.00     0.059 A 
ATOM     81  C   UNL A   1      46.396  28.387  36.299  1.00  0.00     0.059 A 
ATOM     82  F   UNL A   1      45.648  30.070  34.843  1.00  0.00    -0.206 F 
ATOM     83  C   UNL A   1      46.101  27.329  37.159  1.00  0.00     0.060 A 
BRANCH  83  84
ATOM     84  S   UNL A   1      47.433  26.385  37.930  1.00  0.00     0.124 S 
ATOM     85  O   UNL A   1      48.330  27.446  38.370  1.00  0.00    -0.237 OA
ATOM     86  O   UNL A   1      46.731  25.662  38.986  1.00  0.00    -0.237 OA
ATOM     87  O   UNL A   1      47.927  25.552  36.837  1.00  0.00    -0.744 OA
ENDBRANCH  83  84
ENDBRANCH  51  76
BRANCH  63  88
ATOM     88  C   UNL A   1      39.813  34.024  37.451  1.00  0.00     0.058 A 
ATOM     89  C   UNL A   1      40.438  35.280  37.482  1.00  0.00     0.135 A 
ATOM     90  C   UNL A   1      39.049  33.639  38.563  1.00  0.00     0.135 A 
ATOM     91  F   UNL A   1      41.187  35.688  36.445  1.00  0.00    -0.206 F 
ATOM     92  C   UNL A   1      40.320  36.121  38.584  1.00  0.00     0.059 A 
ATOM     93  C   UNL A   1      38.903  34.471  39.668  1.00  0.00     0.059 A 
ATOM     94  F   UNL A   1      38.427  32.449  38.577  1.00  0.00    -0.206 F 
ATOM     95  C   UNL A   1      39.550  35.707  39.673  1.00  0.00     0.060 A 
BRANCH  95  96
ATOM     96  S   UNL A   1      39.371  36.817  41.085  1.00  0.00     0.124 S 
ATOM     97  O   UNL A   1      38.500  36.039  41.961  1.00  0.00    -0.237 OA
ATOM     98  O   UNL A   1      40.748  36.976  41.541  1.00  0.00    -0.237 OA
ATOM     99  O   UNL A   1      38.770  38.012  40.500  1.00  0.00    -0.744 OA
ENDBRANCH  95  96
ENDBRANCH  63  88
ENDBRANCH  37  38
ENDBRANCH  29  32
ENDBRANCH  27  28
ENDBRANCH   1  27
TORSDOF 17
ENDMDL
MODEL 3
REMARK VINA RESULT:     -11.8      6.584     13.307
REMARK SMILES CC1(C)CCC[C@H]1NS(=O)(=O)c1ccc(O)c(C(=O)NCCCNC(=O)c2ccc(-c3c4nc(c(-c5c(F)cc(S(=O)(=O)[O-])cc5F)c5ccc([nH]5)c(-c5c(F)cc(S(=O)(=O)[O-])cc5F)c5nc(c(-c6c(F)cc(S(=O)(=O)[O-])cc6F)c6ccc3[nH]6)C=C5)C=C4)cc2)c1
REMARK SMILES IDX 22 1 21 2 20 3 18 4 19 5 17 7 12 8 13 9 93 10 14 11 15 12
REMARK SMILES IDX 9 13 10 14 11 15 8 16 7 18 1 19 2 20 3 21 4 22 5 23 6 24
REMARK SMILES IDX 16 25 23 27 24 28 25 29 26 31 27 32 28 33 92 34 29 35 91 36
REMARK SMILES IDX 30 37 31 38 32 39 85 40 33 41 90 42 84 43 86 44 34 45 89 46
REMARK SMILES IDX 83 47 82 48 35 50 69 51 48 52 68 53 49 54 52 55 67 56 87 57
REMARK SMILES IDX 50 58 51 59 66 61 88 62 53 63 36 64 37 65 46 66 38 67 39 68
REMARK SMILES IDX 45 69 47 70 40 71 41 72 42 73 43 74 44 75 70 76 71 77 80 78
REMARK SMILES IDX 72 79 73 80 79 81 81 82 74 83 75 84 76 85 77 86 78 87 54 88
REMARK SMILES IDX 55 89 64 90 56 91 57 92 63 93 65 94 58 95 59 96 60 97 61 98
REMARK SMILES IDX 62 99
REMARK H PARENT 20 6 8 17 16 26 24 30 86 49 52 60
REMARK Flexibility Score: inf
ROOT
ATOM      1  C   UNL A   1      34.506  31.013  27.444  1.00  0.00     0.042 C 
ENDROOT
BRANCH   1   2
ATOM      2  C   UNL A   1      34.525  29.490  27.310  1.00  0.00     0.118 C 
BRANCH   2   3
ATOM      3  N   UNL A   1      33.261  28.926  27.741  1.00  0.00    -0.352 N 
ATOM      4  C   UNL A   1      32.412  28.013  27.170  1.00  0.00     0.255 C 
ATOM      5  O   UNL A   1      31.363  27.791  27.782  1.00  0.00    -0.269 OA
ATOM      6  H   UNL A   1      32.952  29.264  28.612  1.00  0.00     0.163 HD
BRANCH   4   7
ATOM      7  C   UNL A   1      32.704  27.206  25.947  1.00  0.00     0.082 A 
ATOM      8  C   UNL A   1      32.855  24.922  25.075  1.00  0.00     0.083 A 
ATOM      9  C   UNL A   1      33.284  25.399  23.843  1.00  0.00     0.025 A 
ATOM     10  C   UNL A   1      32.622  25.813  26.132  1.00  0.00     0.039 A 
ATOM     11  C   UNL A   1      33.303  26.772  23.622  1.00  0.00     0.048 A 
ATOM     12  C   UNL A   1      32.954  27.661  24.647  1.00  0.00     0.128 A 
BRANCH   8  13
ATOM     13  S   UNL A   1      32.429  23.226  25.343  1.00  0.00     0.240 S 
ATOM     14  O   UNL A   1      31.949  22.699  24.086  1.00  0.00    -0.207 OA
ATOM     15  O   UNL A   1      31.629  23.180  26.546  1.00  0.00    -0.207 OA
BRANCH  13  16
ATOM     16  N   UNL A   1      33.843  22.417  25.753  1.00  0.00    -0.208 NA
ATOM     17  H   UNL A   1      34.395  23.078  26.300  1.00  0.00     0.141 HD
BRANCH  16  18
ATOM     18  C   UNL A   1      34.764  21.850  24.754  1.00  0.00     0.075 C 
ATOM     19  C   UNL A   1      36.206  23.888  25.591  1.00  0.00     0.013 C 
ATOM     20  C   UNL A   1      36.156  22.567  24.804  1.00  0.00    -0.019 C 
ATOM     21  C   UNL A   1      36.634  22.874  23.369  1.00  0.00     0.013 C 
ATOM     22  C   UNL A   1      37.074  21.522  25.463  1.00  0.00     0.008 C 
ATOM     23  C   UNL A   1      36.558  20.195  24.937  1.00  0.00     0.002 C 
ATOM     24  C   UNL A   1      35.048  20.359  24.999  1.00  0.00     0.020 C 
ENDBRANCH  16  18
ENDBRANCH  13  16
ENDBRANCH   8  13
BRANCH  12  25
ATOM     25  O   UNL A   1      32.802  28.966  24.288  1.00  0.00    -0.507 OA
ATOM     26  H   UNL A   1      32.288  29.542  24.820  1.00  0.00     0.293 HD
ENDBRANCH  12  25
ENDBRANCH   4   7
ENDBRANCH   2   3
ENDBRANCH   1   2
BRANCH   1  27
ATOM     27  C   UNL A   1      35.664  31.566  28.263  1.00  0.00     0.118 C 
BRANCH  27  28
ATOM     28  N   UNL A   1      35.533  31.232  29.672  1.00  0.00    -0.352 N 
ATOM     29  C   UNL A   1      36.341  30.451  30.462  1.00  0.00     0.251 C 
ATOM     30  H   UNL A   1      34.751  31.622  30.126  1.00  0.00     0.163 HD
ATOM     31  O   UNL A   1      35.933  30.089  31.563  1.00  0.00    -0.269 OA
BRANCH  29  32
ATOM     32  C   UNL A   1      37.686  30.034  29.998  1.00  0.00     0.039 A 
ATOM     33  C   UNL A   1      38.641  29.665  30.951  1.00  0.00     0.014 A 
ATOM     34  C   UNL A   1      38.031  30.056  28.644  1.00  0.00     0.014 A 
ATOM     35  C   UNL A   1      39.923  29.282  30.546  1.00  0.00     0.010 A 
ATOM     36  C   UNL A   1      39.288  29.611  28.235  1.00  0.00     0.010 A 
ATOM     37  C   UNL A   1      40.252  29.234  29.182  1.00  0.00    -0.014 A 
BRANCH  37  38
ATOM     38  C   UNL A   1      41.607  28.834  28.727  1.00  0.00     0.031 A 
ATOM     39  C   UNL A   1      42.711  29.855  28.664  1.00  0.00     0.074 A 
ATOM     40  C   UNL A   1      41.833  27.571  28.318  1.00  0.00     0.049 A 
ATOM     41  N   UNL A   1      43.938  29.722  28.227  1.00  0.00    -0.248 NA
ATOM     42  C   UNL A   1      42.384  31.212  29.129  1.00  0.00     0.031 C 
ATOM     43  C   UNL A   1      40.838  26.496  28.299  1.00  0.00     0.029 A 
ATOM     44  N   UNL A   1      42.971  26.979  27.831  1.00  0.00    -0.354 N 
ATOM     45  C   UNL A   1      44.517  30.980  28.335  1.00  0.00     0.074 A 
ATOM     46  C   UNL A   1      43.497  31.871  28.848  1.00  0.00     0.031 C 
ATOM     47  C   UNL A   1      41.418  25.370  27.852  1.00  0.00     0.029 A 
ATOM     48  C   UNL A   1      42.812  25.650  27.521  1.00  0.00     0.049 A 
ATOM     49  H   UNL A   1      43.822  27.461  27.715  1.00  0.00     0.167 HD
ATOM     50  C   UNL A   1      45.786  31.359  28.050  1.00  0.00     0.037 A 
ATOM     51  C   UNL A   1      43.692  24.756  27.026  1.00  0.00     0.037 A 
ATOM     52  C   UNL A   1      46.810  30.463  27.583  1.00  0.00     0.049 A 
ATOM     53  C   UNL A   1      45.099  25.193  26.733  1.00  0.00     0.074 A 
ATOM     54  C   UNL A   1      48.147  30.731  27.341  1.00  0.00     0.029 A 
ATOM     55  N   UNL A   1      46.611  29.122  27.291  1.00  0.00    -0.354 N 
ATOM     56  N   UNL A   1      45.644  26.376  26.889  1.00  0.00    -0.248 NA
ATOM     57  C   UNL A   1      46.011  24.174  26.195  1.00  0.00     0.031 C 
ATOM     58  C   UNL A   1      48.750  29.556  26.876  1.00  0.00     0.029 A 
ATOM     59  C   UNL A   1      47.796  28.551  26.856  1.00  0.00     0.049 A 
ATOM     60  H   UNL A   1      45.754  28.646  27.380  1.00  0.00     0.167 HD
ATOM     61  C   UNL A   1      46.968  26.238  26.489  1.00  0.00     0.074 A 
ATOM     62  C   UNL A   1      47.143  24.857  26.087  1.00  0.00     0.031 C 
ATOM     63  C   UNL A   1      47.951  27.173  26.462  1.00  0.00     0.037 A 
BRANCH  50  64
ATOM     64  C   UNL A   1      46.124  32.811  28.232  1.00  0.00     0.058 A 
ATOM     65  C   UNL A   1      45.993  33.735  27.181  1.00  0.00     0.135 A 
ATOM     66  C   UNL A   1      46.605  33.282  29.464  1.00  0.00     0.135 A 
ATOM     67  F   UNL A   1      45.554  33.333  25.980  1.00  0.00    -0.206 F 
ATOM     68  C   UNL A   1      46.370  35.066  27.334  1.00  0.00     0.059 A 
ATOM     69  C   UNL A   1      46.965  34.615  29.644  1.00  0.00     0.059 A 
ATOM     70  F   UNL A   1      46.746  32.442  30.500  1.00  0.00    -0.206 F 
ATOM     71  C   UNL A   1      46.867  35.493  28.566  1.00  0.00     0.060 A 
BRANCH  71  72
ATOM     72  S   UNL A   1      47.392  37.211  28.745  1.00  0.00     0.124 S 
ATOM     73  O   UNL A   1      46.120  37.875  29.010  1.00  0.00    -0.237 OA
ATOM     74  O   UNL A   1      48.318  37.146  29.871  1.00  0.00    -0.237 OA
ATOM     75  O   UNL A   1      48.001  37.512  27.454  1.00  0.00    -0.744 OA
ENDBRANCH  71  72
ENDBRANCH  50  64
BRANCH  51  76
ATOM     76  C   UNL A   1      43.270  23.348  26.824  1.00  0.00     0.058 A 
ATOM     77  C   UNL A   1      43.163  22.817  25.530  1.00  0.00     0.135 A 
ATOM     78  C   UNL A   1      43.013  22.496  27.908  1.00  0.00     0.135 A 
ATOM     79  F   UNL A   1      43.393  23.598  24.464  1.00  0.00    -0.206 F 
ATOM     80  C   UNL A   1      42.819  21.486  25.316  1.00  0.00     0.059 A 
ATOM     81  C   UNL A   1      42.683  21.157  27.719  1.00  0.00     0.059 A 
ATOM     82  F   UNL A   1      43.117  22.955  29.164  1.00  0.00    -0.206 F 
ATOM     83  C   UNL A   1      42.586  20.662  26.418  1.00  0.00     0.060 A 
BRANCH  83  84
ATOM     84  S   UNL A   1      42.225  18.915  26.134  1.00  0.00     0.124 S 
ATOM     85  O   UNL A   1      43.070  18.623  24.984  1.00  0.00    -0.237 OA
ATOM     86  O   UNL A   1      42.629  18.306  27.397  1.00  0.00    -0.237 OA
ATOM     87  O   UNL A   1      40.787  18.910  25.880  1.00  0.00    -0.744 OA
ENDBRANCH  83  84
ENDBRANCH  51  76
BRANCH  63  88
ATOM     88  C   UNL A   1      49.308  26.726  26.003  1.00  0.00     0.058 A 
ATOM     89  C   UNL A   1      49.713  26.869  24.667  1.00  0.00     0.135 A 
ATOM     90  C   UNL A   1      50.228  26.193  26.918  1.00  0.00     0.135 A 
ATOM     91  F   UNL A   1      48.864  27.366  23.753  1.00  0.00    -0.206 F 
ATOM     92  C   UNL A   1      50.983  26.485  24.250  1.00  0.00     0.059 A 
ATOM     93  C   UNL A   1      51.510  25.818  26.527  1.00  0.00     0.059 A 
ATOM     94  F   UNL A   1      49.889  26.043  28.209  1.00  0.00    -0.206 F 
ATOM     95  C   UNL A   1      51.874  25.958  25.188  1.00  0.00     0.060 A 
BRANCH  95  96
ATOM     96  S   UNL A   1      53.534  25.495  24.648  1.00  0.00     0.124 S 
ATOM     97  O   UNL A   1      53.491  24.042  24.787  1.00  0.00    -0.237 OA
ATOM     98  O   UNL A   1      53.574  25.999  23.279  1.00  0.00    -0.237 OA
ATOM     99  O   UNL A   1      54.402  26.192  25.591  1.00  0.00    -0.744 OA
ENDBRANCH  95  96
ENDBRANCH  63  88
ENDBRANCH  37  38
ENDBRANCH  29  32
ENDBRANCH  27  28
ENDBRANCH   1  27
TORSDOF 17
ENDMDL
