MODEL 1
REMARK VINA RESULT:     -13.3      0.000      0.000
REMARK SMILES Cn1cc(-c2ccn(Cc3ccc(C(=O)NCCCNC(=O)c4ccc(-c5c6nc(c(-c7c(F)cc(S(=O)(=O)[O-])cc7F)c7ccc([nH]7)c(-c7c(F)cc(S(=O)(=O)[O-])cc7F)c7nc(c(-c8c(F)cc(S(=O)(=O)[O-])cc8F)c8ccc5[nH]8)C=C7)C=C6)cc4)cc3)n2)cn1
REMARK SMILES IDX 18 1 17 2 16 3 14 4 15 5 13 7 10 8 11 9 90 10 12 11 89 12
REMARK SMILES IDX 9 13 8 14 5 15 6 16 91 17 7 18 4 19 1 20 2 21 3 22 93 23
REMARK SMILES IDX 92 24 19 25 20 26 21 27 22 29 23 30 24 31 88 32 25 33 87 34
REMARK SMILES IDX 26 35 27 36 28 37 81 38 29 39 86 40 80 41 82 42 30 43 85 44
REMARK SMILES IDX 79 45 78 46 31 48 65 49 44 50 64 51 45 52 48 53 63 54 83 55
REMARK SMILES IDX 46 56 47 57 62 59 84 60 49 61 32 62 33 63 42 64 34 65 35 66
REMARK SMILES IDX 41 67 43 68 36 69 37 70 38 71 39 72 40 73 66 74 67 75 76 76
REMARK SMILES IDX 68 77 69 78 75 79 77 80 70 81 71 82 72 83 73 84 74 85 50 86
REMARK SMILES IDX 51 87 60 88 52 89 53 90 59 91 61 92 54 93 55 94 56 95 57 96
REMARK SMILES IDX 58 97
REMARK H PARENT 16 6 20 28 82 47 48 58
REMARK Flexibility Score: inf
ROOT
ATOM      1  C   UNL A   1      38.812  21.891  25.877  1.00  0.00     0.042 C 
ENDROOT
BRANCH   1   2
ATOM      2  C   UNL A   1      37.618  22.842  25.697  1.00  0.00     0.118 C 
BRANCH   2   3
ATOM      3  N   UNL A   1      36.454  22.426  26.470  1.00  0.00    -0.352 N 
ATOM      4  C   UNL A   1      35.108  22.599  26.239  1.00  0.00     0.251 C 
ATOM      5  O   UNL A   1      34.306  22.016  26.965  1.00  0.00    -0.269 OA
ATOM      6  H   UNL A   1      36.667  21.938  27.298  1.00  0.00     0.163 HD
BRANCH   4   7
ATOM      7  C   UNL A   1      34.596  23.412  25.104  1.00  0.00     0.039 A 
ATOM      8  C   UNL A   1      33.451  25.018  23.089  1.00  0.00    -0.026 A 
ATOM      9  C   UNL A   1      33.958  25.602  24.258  1.00  0.00     0.006 A 
ATOM     10  C   UNL A   1      33.611  23.643  22.904  1.00  0.00     0.006 A 
ATOM     11  C   UNL A   1      34.526  24.803  25.258  1.00  0.00     0.014 A 
ATOM     12  C   UNL A   1      34.197  22.859  23.889  1.00  0.00     0.014 A 
BRANCH   8  13
ATOM     13  C   UNL A   1      32.762  25.830  22.022  1.00  0.00     0.179 C 
BRANCH  13  14
ATOM     14  N   UNL A   1      31.483  26.395  22.457  1.00  0.00    -0.268 N 
ATOM     15  C   UNL A   1      29.946  27.835  22.712  1.00  0.00     0.095 A 
ATOM     16  C   UNL A   1      29.674  26.806  23.635  1.00  0.00     0.050 A 
ATOM     17  N   UNL A   1      31.060  27.603  22.012  1.00  0.00    -0.172 NA
ATOM     18  C   UNL A   1      30.678  25.885  23.442  1.00  0.00     0.110 A 
BRANCH  15  19
ATOM     19  C   UNL A   1      29.126  29.021  22.550  1.00  0.00     0.040 A 
ATOM     20  C   UNL A   1      28.164  32.352  21.606  1.00  0.00     0.173 C 
ATOM     21  N   UNL A   1      28.332  30.999  22.080  1.00  0.00    -0.275 N 
ATOM     22  C   UNL A   1      29.435  30.211  21.933  1.00  0.00     0.118 A 
ATOM     23  N   UNL A   1      27.336  30.411  22.770  1.00  0.00    -0.181 NA
ATOM     24  C   UNL A   1      27.817  29.189  23.033  1.00  0.00     0.145 A 
ENDBRANCH  15  19
ENDBRANCH  13  14
ENDBRANCH   8  13
ENDBRANCH   4   7
ENDBRANCH   2   3
ENDBRANCH   1   2
BRANCH   1  25
ATOM     25  C   UNL A   1      39.907  22.504  26.721  1.00  0.00     0.118 C 
BRANCH  25  26
ATOM     26  N   UNL A   1      41.246  22.330  26.138  1.00  0.00    -0.352 N 
ATOM     27  C   UNL A   1      42.146  23.310  25.730  1.00  0.00     0.251 C 
ATOM     28  H   UNL A   1      41.545  21.399  26.020  1.00  0.00     0.163 HD
ATOM     29  O   UNL A   1      43.057  23.048  24.964  1.00  0.00    -0.269 OA
BRANCH  27  30
ATOM     30  C   UNL A   1      41.965  24.672  26.265  1.00  0.00     0.039 A 
ATOM     31  C   UNL A   1      41.128  25.635  25.694  1.00  0.00     0.014 A 
ATOM     32  C   UNL A   1      42.638  24.940  27.443  1.00  0.00     0.014 A 
ATOM     33  C   UNL A   1      40.973  26.849  26.365  1.00  0.00     0.010 A 
ATOM     34  C   UNL A   1      42.172  25.919  28.254  1.00  0.00     0.010 A 
ATOM     35  C   UNL A   1      41.516  26.971  27.650  1.00  0.00    -0.014 A 
BRANCH  35  36
ATOM     36  C   UNL A   1      41.454  28.169  28.466  1.00  0.00     0.031 A 
ATOM     37  C   UNL A   1      42.534  29.144  28.191  1.00  0.00     0.074 A 
ATOM     38  C   UNL A   1      40.320  28.481  29.139  1.00  0.00     0.049 A 
ATOM     39  N   UNL A   1      43.525  29.462  28.953  1.00  0.00    -0.248 NA
ATOM     40  C   UNL A   1      42.635  29.692  26.826  1.00  0.00     0.031 C 
ATOM     41  C   UNL A   1      39.031  27.768  29.174  1.00  0.00     0.029 A 
ATOM     42  N   UNL A   1      40.045  29.604  29.849  1.00  0.00    -0.354 N 
ATOM     43  C   UNL A   1      44.236  30.438  28.261  1.00  0.00     0.074 A 
ATOM     44  C   UNL A   1      43.796  30.347  26.894  1.00  0.00     0.031 C 
ATOM     45  C   UNL A   1      38.068  28.581  29.661  1.00  0.00     0.029 A 
ATOM     46  C   UNL A   1      38.692  29.802  30.130  1.00  0.00     0.049 A 
ATOM     47  H   UNL A   1      40.744  30.231  30.145  1.00  0.00     0.167 HD
ATOM     48  C   UNL A   1      44.937  31.403  28.920  1.00  0.00     0.037 A 
ATOM     49  C   UNL A   1      38.155  30.931  30.661  1.00  0.00     0.037 A 
ATOM     50  C   UNL A   1      45.053  31.073  30.323  1.00  0.00     0.049 A 
ATOM     51  C   UNL A   1      39.288  31.659  31.311  1.00  0.00     0.074 A 
ATOM     52  C   UNL A   1      45.612  30.020  31.023  1.00  0.00     0.029 A 
ATOM     53  N   UNL A   1      44.170  31.671  31.193  1.00  0.00    -0.354 N 
ATOM     54  N   UNL A   1      39.959  31.181  32.329  1.00  0.00    -0.248 NA
ATOM     55  C   UNL A   1      40.004  32.632  30.499  1.00  0.00     0.031 C 
ATOM     56  C   UNL A   1      44.679  29.738  32.065  1.00  0.00     0.029 A 
ATOM     57  C   UNL A   1      43.657  30.685  32.001  1.00  0.00     0.049 A 
ATOM     58  H   UNL A   1      43.948  32.630  31.231  1.00  0.00     0.167 HD
ATOM     59  C   UNL A   1      41.292  31.472  32.056  1.00  0.00     0.074 A 
ATOM     60  C   UNL A   1      41.249  32.409  30.932  1.00  0.00     0.031 C 
ATOM     61  C   UNL A   1      42.313  30.705  32.549  1.00  0.00     0.037 A 
BRANCH  48  62
ATOM     62  C   UNL A   1      45.205  32.802  28.407  1.00  0.00     0.058 A 
ATOM     63  C   UNL A   1      46.543  33.196  28.187  1.00  0.00     0.135 A 
ATOM     64  C   UNL A   1      44.257  33.849  28.374  1.00  0.00     0.135 A 
ATOM     65  F   UNL A   1      47.532  32.289  28.169  1.00  0.00    -0.206 F 
ATOM     66  C   UNL A   1      46.920  34.533  28.053  1.00  0.00     0.059 A 
ATOM     67  C   UNL A   1      44.606  35.182  28.188  1.00  0.00     0.059 A 
ATOM     68  F   UNL A   1      42.956  33.656  28.609  1.00  0.00    -0.206 F 
ATOM     69  C   UNL A   1      45.943  35.521  28.080  1.00  0.00     0.060 A 
BRANCH  69  70
ATOM     70  S   UNL A   1      46.436  37.251  28.036  1.00  0.00     0.124 S 
ATOM     71  O   UNL A   1      47.835  37.163  28.441  1.00  0.00    -0.237 OA
ATOM     72  O   UNL A   1      46.194  37.599  26.640  1.00  0.00    -0.237 OA
ATOM     73  O   UNL A   1      45.539  37.881  28.999  1.00  0.00    -0.744 OA
ENDBRANCH  69  70
ENDBRANCH  48  62
BRANCH  49  74
ATOM     74  C   UNL A   1      36.871  31.585  30.275  1.00  0.00     0.058 A 
ATOM     75  C   UNL A   1      35.952  32.046  31.236  1.00  0.00     0.135 A 
ATOM     76  C   UNL A   1      36.640  32.016  28.951  1.00  0.00     0.135 A 
ATOM     77  F   UNL A   1      36.103  31.708  32.526  1.00  0.00    -0.206 F 
ATOM     78  C   UNL A   1      34.895  32.910  30.911  1.00  0.00     0.059 A 
ATOM     79  C   UNL A   1      35.592  32.868  28.601  1.00  0.00     0.059 A 
ATOM     80  F   UNL A   1      37.486  31.689  27.963  1.00  0.00    -0.206 F 
ATOM     81  C   UNL A   1      34.734  33.331  29.591  1.00  0.00     0.060 A 
BRANCH  81  82
ATOM     82  S   UNL A   1      33.479  34.574  29.190  1.00  0.00     0.124 S 
ATOM     83  O   UNL A   1      32.653  33.869  28.216  1.00  0.00    -0.237 OA
ATOM     84  O   UNL A   1      32.861  34.821  30.489  1.00  0.00    -0.237 OA
ATOM     85  O   UNL A   1      34.259  35.687  28.656  1.00  0.00    -0.744 OA
ENDBRANCH  81  82
ENDBRANCH  49  74
BRANCH  61  86
ATOM     86  C   UNL A   1      42.000  29.645  33.582  1.00  0.00     0.058 A 
ATOM     87  C   UNL A   1      41.743  28.293  33.284  1.00  0.00     0.135 A 
ATOM     88  C   UNL A   1      42.162  29.971  34.936  1.00  0.00     0.135 A 
ATOM     89  F   UNL A   1      41.678  27.867  32.018  1.00  0.00    -0.206 F 
ATOM     90  C   UNL A   1      41.620  27.321  34.283  1.00  0.00     0.059 A 
ATOM     91  C   UNL A   1      42.074  29.016  35.947  1.00  0.00     0.059 A 
ATOM     92  F   UNL A   1      42.474  31.228  35.290  1.00  0.00    -0.206 F 
ATOM     93  C   UNL A   1      41.790  27.693  35.615  1.00  0.00     0.060 A 
BRANCH  93  94
ATOM     94  S   UNL A   1      41.699  26.430  36.903  1.00  0.00     0.124 S 
ATOM     95  O   UNL A   1      42.903  26.699  37.682  1.00  0.00    -0.237 OA
ATOM     96  O   UNL A   1      40.434  26.739  37.564  1.00  0.00    -0.237 OA
ATOM     97  O   UNL A   1      41.709  25.176  36.153  1.00  0.00    -0.744 OA
ENDBRANCH  93  94
ENDBRANCH  61  86
ENDBRANCH  35  36
ENDBRANCH  27  30
ENDBRANCH  25  26
ENDBRANCH   1  25
TORSDOF 16
ENDMDL
MODEL 2
REMARK VINA RESULT:     -12.7      2.042      2.738
REMARK SMILES Cn1cc(-c2ccn(Cc3ccc(C(=O)NCCCNC(=O)c4ccc(-c5c6nc(c(-c7c(F)cc(S(=O)(=O)[O-])cc7F)c7ccc([nH]7)c(-c7c(F)cc(S(=O)(=O)[O-])cc7F)c7nc(c(-c8c(F)cc(S(=O)(=O)[O-])cc8F)c8ccc5[nH]8)C=C7)C=C6)cc4)cc3)n2)cn1
REMARK SMILES IDX 18 1 17 2 16 3 14 4 15 5 13 7 10 8 11 9 90 10 12 11 89 12
REMARK SMILES IDX 9 13 8 14 5 15 6 16 91 17 7 18 4 19 1 20 2 21 3 22 93 23
REMARK SMILES IDX 92 24 19 25 20 26 21 27 22 29 23 30 24 31 88 32 25 33 87 34
REMARK SMILES IDX 26 35 27 36 28 37 81 38 29 39 86 40 80 41 82 42 30 43 85 44
REMARK SMILES IDX 79 45 78 46 31 48 65 49 44 50 64 51 45 52 48 53 63 54 83 55
REMARK SMILES IDX 46 56 47 57 62 59 84 60 49 61 32 62 33 63 42 64 34 65 35 66
REMARK SMILES IDX 41 67 43 68 36 69 37 70 38 71 39 72 40 73 66 74 67 75 76 76
REMARK SMILES IDX 68 77 69 78 75 79 77 80 70 81 71 82 72 83 73 84 74 85 50 86
REMARK SMILES IDX 51 87 60 88 52 89 53 90 59 91 61 92 54 93 55 94 56 95 57 96
REMARK SMILES IDX 58 97
REMARK H PARENT 16 6 20 28 82 47 48 58
REMARK Flexibility Score: inf
ROOT
ATOM      1  C   UNL A   1      36.497  22.258  25.058  1.00  0.00     0.042 C 
ENDROOT
BRANCH   1   2
ATOM      2  C   UNL A   1      35.492  21.655  26.050  1.00  0.00     0.118 C 
BRANCH   2   3
ATOM      3  N   UNL A   1      34.860  20.445  25.536  1.00  0.00    -0.352 N 
ATOM      4  C   UNL A   1      33.711  20.271  24.799  1.00  0.00     0.251 C 
ATOM      5  O   UNL A   1      33.465  19.155  24.348  1.00  0.00    -0.269 OA
ATOM      6  H   UNL A   1      35.337  19.613  25.754  1.00  0.00     0.163 HD
BRANCH   4   7
ATOM      7  C   UNL A   1      32.796  21.397  24.476  1.00  0.00     0.039 A 
ATOM      8  C   UNL A   1      31.245  23.667  23.846  1.00  0.00    -0.026 A 
ATOM      9  C   UNL A   1      32.131  23.130  22.902  1.00  0.00     0.006 A 
ATOM     10  C   UNL A   1      31.079  23.001  25.063  1.00  0.00     0.006 A 
ATOM     11  C   UNL A   1      32.901  22.003  23.217  1.00  0.00     0.014 A 
ATOM     12  C   UNL A   1      31.828  21.869  25.359  1.00  0.00     0.014 A 
BRANCH   8  13
ATOM     13  C   UNL A   1      30.456  24.923  23.579  1.00  0.00     0.179 C 
BRANCH  13  14
ATOM     14  N   UNL A   1      31.266  26.141  23.636  1.00  0.00    -0.268 N 
ATOM     15  C   UNL A   1      32.130  27.900  24.449  1.00  0.00     0.095 A 
ATOM     16  C   UNL A   1      32.306  27.988  23.054  1.00  0.00     0.050 A 
ATOM     17  N   UNL A   1      31.475  26.793  24.806  1.00  0.00    -0.172 NA
ATOM     18  C   UNL A   1      31.746  26.833  22.555  1.00  0.00     0.110 A 
BRANCH  15  19
ATOM     19  C   UNL A   1      32.589  28.904  25.391  1.00  0.00     0.040 A 
ATOM     20  C   UNL A   1      34.740  30.635  27.691  1.00  0.00     0.173 C 
ATOM     21  N   UNL A   1      33.717  30.108  26.820  1.00  0.00    -0.275 N 
ATOM     22  C   UNL A   1      33.808  29.007  26.020  1.00  0.00     0.118 A 
ATOM     23  N   UNL A   1      32.514  30.714  26.771  1.00  0.00    -0.181 NA
ATOM     24  C   UNL A   1      31.834  29.987  25.874  1.00  0.00     0.145 A 
ENDBRANCH  15  19
ENDBRANCH  13  14
ENDBRANCH   8  13
ENDBRANCH   4   7
ENDBRANCH   2   3
ENDBRANCH   1   2
BRANCH   1  25
ATOM     25  C   UNL A   1      37.572  23.064  25.754  1.00  0.00     0.118 C 
BRANCH  25  26
ATOM     26  N   UNL A   1      38.742  22.256  26.128  1.00  0.00    -0.352 N 
ATOM     27  C   UNL A   1      39.989  22.691  26.567  1.00  0.00     0.251 C 
ATOM     28  H   UNL A   1      38.629  21.280  26.060  1.00  0.00     0.163 HD
ATOM     29  O   UNL A   1      40.963  21.960  26.518  1.00  0.00    -0.269 OA
BRANCH  27  30
ATOM     30  C   UNL A   1      40.088  24.061  27.102  1.00  0.00     0.039 A 
ATOM     31  C   UNL A   1      39.073  25.018  27.005  1.00  0.00     0.014 A 
ATOM     32  C   UNL A   1      41.253  24.346  27.791  1.00  0.00     0.014 A 
ATOM     33  C   UNL A   1      39.263  26.242  27.648  1.00  0.00     0.010 A 
ATOM     34  C   UNL A   1      41.243  25.337  28.712  1.00  0.00     0.010 A 
ATOM     35  C   UNL A   1      40.368  26.382  28.496  1.00  0.00    -0.014 A 
BRANCH  35  36
ATOM     36  C   UNL A   1      40.710  27.592  29.219  1.00  0.00     0.031 A 
ATOM     37  C   UNL A   1      41.765  28.405  28.572  1.00  0.00     0.074 A 
ATOM     38  C   UNL A   1      39.887  28.069  30.185  1.00  0.00     0.049 A 
ATOM     39  N   UNL A   1      42.974  28.598  28.978  1.00  0.00    -0.248 NA
ATOM     40  C   UNL A   1      41.508  28.908  27.211  1.00  0.00     0.031 C 
ATOM     41  C   UNL A   1      38.594  27.539  30.651  1.00  0.00     0.029 A 
ATOM     42  N   UNL A   1      39.986  29.232  30.877  1.00  0.00    -0.354 N 
ATOM     43  C   UNL A   1      43.553  29.455  28.046  1.00  0.00     0.074 A 
ATOM     44  C   UNL A   1      42.705  29.399  26.885  1.00  0.00     0.031 C 
ATOM     45  C   UNL A   1      37.937  28.485  31.358  1.00  0.00     0.029 A 
ATOM     46  C   UNL A   1      38.821  29.617  31.542  1.00  0.00     0.049 A 
ATOM     47  H   UNL A   1      40.815  29.762  30.909  1.00  0.00     0.167 HD
ATOM     48  C   UNL A   1      44.538  30.328  28.402  1.00  0.00     0.037 A 
ATOM     49  C   UNL A   1      38.619  30.819  32.143  1.00  0.00     0.037 A 
ATOM     50  C   UNL A   1      45.038  30.011  29.721  1.00  0.00     0.049 A 
ATOM     51  C   UNL A   1      39.979  31.397  32.374  1.00  0.00     0.074 A 
ATOM     52  C   UNL A   1      45.651  28.905  30.280  1.00  0.00     0.029 A 
ATOM     53  N   UNL A   1      44.548  30.740  30.781  1.00  0.00    -0.354 N 
ATOM     54  N   UNL A   1      40.866  30.852  33.167  1.00  0.00    -0.248 NA
ATOM     55  C   UNL A   1      40.524  32.249  31.326  1.00  0.00     0.031 C 
ATOM     56  C   UNL A   1      45.057  28.772  31.571  1.00  0.00     0.029 A 
ATOM     57  C   UNL A   1      44.191  29.849  31.764  1.00  0.00     0.049 A 
ATOM     58  H   UNL A   1      44.470  31.721  30.827  1.00  0.00     0.167 HD
ATOM     59  C   UNL A   1      42.076  30.952  32.486  1.00  0.00     0.074 A 
ATOM     60  C   UNL A   1      41.805  31.865  31.374  1.00  0.00     0.031 C 
ATOM     61  C   UNL A   1      43.095  30.062  32.691  1.00  0.00     0.037 A 
BRANCH  48  62
ATOM     62  C   UNL A   1      44.806  31.667  27.750  1.00  0.00     0.058 A 
ATOM     63  C   UNL A   1      46.011  31.842  27.036  1.00  0.00     0.135 A 
ATOM     64  C   UNL A   1      44.082  32.853  28.006  1.00  0.00     0.135 A 
ATOM     65  F   UNL A   1      46.775  30.786  26.710  1.00  0.00    -0.206 F 
ATOM     66  C   UNL A   1      46.510  33.100  26.700  1.00  0.00     0.059 A 
ATOM     67  C   UNL A   1      44.535  34.114  27.631  1.00  0.00     0.059 A 
ATOM     68  F   UNL A   1      42.946  32.871  28.708  1.00  0.00    -0.206 F 
ATOM     69  C   UNL A   1      45.773  34.233  27.025  1.00  0.00     0.060 A 
BRANCH  69  70
ATOM     70  S   UNL A   1      46.471  35.861  26.708  1.00  0.00     0.124 S 
ATOM     71  O   UNL A   1      46.973  35.700  25.348  1.00  0.00    -0.237 OA
ATOM     72  O   UNL A   1      45.305  36.725  26.863  1.00  0.00    -0.237 OA
ATOM     73  O   UNL A   1      47.489  35.998  27.745  1.00  0.00    -0.744 OA
ENDBRANCH  69  70
ENDBRANCH  48  62
BRANCH  49  74
ATOM     74  C   UNL A   1      37.371  31.635  32.126  1.00  0.00     0.058 A 
ATOM     75  C   UNL A   1      36.772  32.104  33.310  1.00  0.00     0.135 A 
ATOM     76  C   UNL A   1      36.884  32.201  30.928  1.00  0.00     0.135 A 
ATOM     77  F   UNL A   1      37.185  31.641  34.500  1.00  0.00    -0.206 F 
ATOM     78  C   UNL A   1      35.782  33.099  33.308  1.00  0.00     0.059 A 
ATOM     79  C   UNL A   1      35.896  33.186  30.899  1.00  0.00     0.059 A 
ATOM     80  F   UNL A   1      37.423  31.875  29.744  1.00  0.00    -0.206 F 
ATOM     81  C   UNL A   1      35.363  33.648  32.096  1.00  0.00     0.060 A 
BRANCH  81  82
ATOM     82  S   UNL A   1      34.211  35.046  32.092  1.00  0.00     0.124 S 
ATOM     83  O   UNL A   1      34.087  35.334  30.668  1.00  0.00    -0.237 OA
ATOM     84  O   UNL A   1      33.030  34.475  32.732  1.00  0.00    -0.237 OA
ATOM     85  O   UNL A   1      34.907  36.064  32.875  1.00  0.00    -0.744 OA
ENDBRANCH  81  82
ENDBRANCH  49  74
BRANCH  61  86
ATOM     86  C   UNL A   1      42.986  29.074  33.831  1.00  0.00     0.058 A 
ATOM     87  C   UNL A   1      43.247  29.381  35.180  1.00  0.00     0.135 A 
ATOM     88  C   UNL A   1      42.403  27.825  33.572  1.00  0.00     0.135 A 
ATOM     89  F   UNL A   1      43.704  30.587  35.535  1.00  0.00    -0.206 F 
ATOM     90  C   UNL A   1      42.976  28.481  36.215  1.00  0.00     0.059 A 
ATOM     91  C   UNL A   1      42.094  26.923  34.589  1.00  0.00     0.059 A 
ATOM     92  F   UNL A   1      42.064  27.491  32.316  1.00  0.00    -0.206 F 
ATOM     93  C   UNL A   1      42.395  27.251  35.908  1.00  0.00     0.060 A 
BRANCH  93  94
ATOM     94  S   UNL A   1      41.979  26.113  37.248  1.00  0.00     0.124 S 
ATOM     95  O   UNL A   1      43.046  26.369  38.210  1.00  0.00    -0.237 OA
ATOM     96  O   UNL A   1      40.647  26.560  37.645  1.00  0.00    -0.237 OA
ATOM     97  O   UNL A   1      42.020  24.801  36.607  1.00  0.00    -0.744 OA
ENDBRANCH  93  94
ENDBRANCH  61  86
ENDBRANCH  35  36
ENDBRANCH  27  30
ENDBRANCH  25  26
ENDBRANCH   1  25
TORSDOF 16
ENDMDL
MODEL 3
REMARK VINA RESULT:     -12.7      2.890      4.503
REMARK SMILES Cn1cc(-c2ccn(Cc3ccc(C(=O)NCCCNC(=O)c4ccc(-c5c6nc(c(-c7c(F)cc(S(=O)(=O)[O-])cc7F)c7ccc([nH]7)c(-c7c(F)cc(S(=O)(=O)[O-])cc7F)c7nc(c(-c8c(F)cc(S(=O)(=O)[O-])cc8F)c8ccc5[nH]8)C=C7)C=C6)cc4)cc3)n2)cn1
REMARK SMILES IDX 18 1 17 2 16 3 14 4 15 5 13 7 10 8 11 9 90 10 12 11 89 12
REMARK SMILES IDX 9 13 8 14 5 15 6 16 91 17 7 18 4 19 1 20 2 21 3 22 93 23
REMARK SMILES IDX 92 24 19 25 20 26 21 27 22 29 23 30 24 31 88 32 25 33 87 34
REMARK SMILES IDX 26 35 27 36 28 37 81 38 29 39 86 40 80 41 82 42 30 43 85 44
REMARK SMILES IDX 79 45 78 46 31 48 65 49 44 50 64 51 45 52 48 53 63 54 83 55
REMARK SMILES IDX 46 56 47 57 62 59 84 60 49 61 32 62 33 63 42 64 34 65 35 66
REMARK SMILES IDX 41 67 43 68 36 69 37 70 38 71 39 72 40 73 66 74 67 75 76 76
REMARK SMILES IDX 68 77 69 78 75 79 77 80 70 81 71 82 72 83 73 84 74 85 50 86
REMARK SMILES IDX 51 87 60 88 52 89 53 90 59 91 61 92 54 93 55 94 56 95 57 96
REMARK SMILES IDX 58 97
REMARK H PARENT 16 6 20 28 82 47 48 58
REMARK Flexibility Score: inf
ROOT
ATOM      1  C   UNL A   1      40.446  20.915  26.724  1.00  0.00     0.042 C 
ENDROOT
BRANCH   1   2
ATOM      2  C   UNL A   1      39.246  21.612  26.064  1.00  0.00     0.118 C 
BRANCH   2   3
ATOM      3  N   UNL A   1      39.228  23.048  26.319  1.00  0.00    -0.352 N 
ATOM      4  C   UNL A   1      38.204  23.965  26.244  1.00  0.00     0.251 C 
ATOM      5  O   UNL A   1      38.401  25.103  26.661  1.00  0.00    -0.269 OA
ATOM      6  H   UNL A   1      40.095  23.424  26.591  1.00  0.00     0.163 HD
BRANCH   4   7
ATOM      7  C   UNL A   1      36.853  23.607  25.737  1.00  0.00     0.039 A 
ATOM      8  C   UNL A   1      34.290  23.127  24.662  1.00  0.00    -0.026 A 
ATOM      9  C   UNL A   1      35.409  23.202  23.821  1.00  0.00     0.006 A 
ATOM     10  C   UNL A   1      34.485  23.199  26.043  1.00  0.00     0.006 A 
ATOM     11  C   UNL A   1      36.681  23.441  24.356  1.00  0.00     0.014 A 
ATOM     12  C   UNL A   1      35.754  23.411  26.570  1.00  0.00     0.014 A 
BRANCH   8  13
ATOM     13  C   UNL A   1      32.894  22.949  24.123  1.00  0.00     0.179 C 
BRANCH  13  14
ATOM     14  N   UNL A   1      32.619  21.589  23.658  1.00  0.00    -0.268 N 
ATOM     15  C   UNL A   1      32.731  19.472  23.573  1.00  0.00     0.095 A 
ATOM     16  C   UNL A   1      32.145  19.881  22.358  1.00  0.00     0.050 A 
ATOM     17  N   UNL A   1      33.045  20.507  24.355  1.00  0.00    -0.172 NA
ATOM     18  C   UNL A   1      32.076  21.253  22.445  1.00  0.00     0.110 A 
BRANCH  15  19
ATOM     19  C   UNL A   1      32.982  18.088  23.928  1.00  0.00     0.040 A 
ATOM     20  C   UNL A   1      32.701  14.944  25.645  1.00  0.00     0.173 C 
ATOM     21  N   UNL A   1      32.988  16.101  24.831  1.00  0.00    -0.275 N 
ATOM     22  C   UNL A   1      32.363  17.312  24.880  1.00  0.00     0.118 A 
ATOM     23  N   UNL A   1      33.986  16.044  23.929  1.00  0.00    -0.181 NA
ATOM     24  C   UNL A   1      33.963  17.256  23.360  1.00  0.00     0.145 A 
ENDBRANCH  15  19
ENDBRANCH  13  14
ENDBRANCH   8  13
ENDBRANCH   4   7
ENDBRANCH   2   3
ENDBRANCH   1   2
BRANCH   1  25
ATOM     25  C   UNL A   1      41.455  21.904  27.261  1.00  0.00     0.118 C 
BRANCH  25  26
ATOM     26  N   UNL A   1      42.675  21.981  26.443  1.00  0.00    -0.352 N 
ATOM     27  C   UNL A   1      43.277  23.107  25.890  1.00  0.00     0.251 C 
ATOM     28  H   UNL A   1      43.125  21.123  26.264  1.00  0.00     0.163 HD
ATOM     29  O   UNL A   1      44.069  23.008  24.969  1.00  0.00    -0.269 OA
BRANCH  27  30
ATOM     30  C   UNL A   1      42.931  24.420  26.463  1.00  0.00     0.039 A 
ATOM     31  C   UNL A   1      41.904  25.240  25.986  1.00  0.00     0.014 A 
ATOM     32  C   UNL A   1      43.656  24.788  27.583  1.00  0.00     0.014 A 
ATOM     33  C   UNL A   1      41.619  26.411  26.691  1.00  0.00     0.010 A 
ATOM     34  C   UNL A   1      43.116  25.677  28.449  1.00  0.00     0.010 A 
ATOM     35  C   UNL A   1      42.249  26.613  27.925  1.00  0.00    -0.014 A 
BRANCH  35  36
ATOM     36  C   UNL A   1      42.071  27.783  28.765  1.00  0.00     0.031 A 
ATOM     37  C   UNL A   1      43.142  28.795  28.625  1.00  0.00     0.074 A 
ATOM     38  C   UNL A   1      40.868  28.041  29.332  1.00  0.00     0.049 A 
ATOM     39  N   UNL A   1      44.044  29.116  29.489  1.00  0.00    -0.248 NA
ATOM     40  C   UNL A   1      43.359  29.388  27.293  1.00  0.00     0.031 C 
ATOM     41  C   UNL A   1      39.605  27.292  29.220  1.00  0.00     0.029 A 
ATOM     42  N   UNL A   1      40.491  29.133  30.044  1.00  0.00    -0.354 N 
ATOM     43  C   UNL A   1      44.789  30.133  28.898  1.00  0.00     0.074 A 
ATOM     44  C   UNL A   1      44.487  30.073  27.493  1.00  0.00     0.031 C 
ATOM     45  C   UNL A   1      38.574  28.062  29.634  1.00  0.00     0.029 A 
ATOM     46  C   UNL A   1      39.112  29.284  30.196  1.00  0.00     0.049 A 
ATOM     47  H   UNL A   1      41.139  29.770  30.425  1.00  0.00     0.167 HD
ATOM     48  C   UNL A   1      45.393  31.097  29.650  1.00  0.00     0.037 A 
ATOM     49  C   UNL A   1      38.491  30.381  30.705  1.00  0.00     0.037 A 
ATOM     50  C   UNL A   1      45.382  30.725  31.047  1.00  0.00     0.049 A 
ATOM     51  C   UNL A   1      39.533  31.119  31.483  1.00  0.00     0.074 A 
ATOM     52  C   UNL A   1      45.903  29.667  31.768  1.00  0.00     0.029 A 
ATOM     53  N   UNL A   1      44.400  31.271  31.844  1.00  0.00    -0.354 N 
ATOM     54  N   UNL A   1      40.116  30.629  32.548  1.00  0.00    -0.248 NA
ATOM     55  C   UNL A   1      40.294  32.137  30.773  1.00  0.00     0.031 C 
ATOM     56  C   UNL A   1      44.883  29.327  32.705  1.00  0.00     0.029 A 
ATOM     57  C   UNL A   1      43.842  30.246  32.569  1.00  0.00     0.049 A 
ATOM     58  H   UNL A   1      44.147  32.221  31.887  1.00  0.00     0.167 HD
ATOM     59  C   UNL A   1      41.460  30.965  32.415  1.00  0.00     0.074 A 
ATOM     60  C   UNL A   1      41.498  31.935  31.319  1.00  0.00     0.031 C 
ATOM     61  C   UNL A   1      42.452  30.211  32.983  1.00  0.00     0.037 A 
BRANCH  48  62
ATOM     62  C   UNL A   1      45.666  32.518  29.206  1.00  0.00     0.058 A 
ATOM     63  C   UNL A   1      44.579  33.317  28.791  1.00  0.00     0.135 A 
ATOM     64  C   UNL A   1      46.945  33.045  28.917  1.00  0.00     0.135 A 
ATOM     65  F   UNL A   1      43.315  32.935  29.032  1.00  0.00    -0.206 F 
ATOM     66  C   UNL A   1      44.747  34.489  28.053  1.00  0.00     0.059 A 
ATOM     67  C   UNL A   1      47.134  34.239  28.230  1.00  0.00     0.059 A 
ATOM     68  F   UNL A   1      48.077  32.396  29.200  1.00  0.00    -0.206 F 
ATOM     69  C   UNL A   1      46.032  34.928  27.756  1.00  0.00     0.060 A 
BRANCH  69  70
ATOM     70  S   UNL A   1      46.251  36.367  26.698  1.00  0.00     0.124 S 
ATOM     71  O   UNL A   1      44.882  36.859  26.593  1.00  0.00    -0.237 OA
ATOM     72  O   UNL A   1      47.167  37.184  27.485  1.00  0.00    -0.237 OA
ATOM     73  O   UNL A   1      46.814  35.803  25.476  1.00  0.00    -0.744 OA
ENDBRANCH  69  70
ENDBRANCH  48  62
BRANCH  49  74
ATOM     74  C   UNL A   1      37.231  31.011  30.214  1.00  0.00     0.058 A 
ATOM     75  C   UNL A   1      36.271  31.540  31.096  1.00  0.00     0.135 A 
ATOM     76  C   UNL A   1      37.065  31.349  28.853  1.00  0.00     0.135 A 
ATOM     77  F   UNL A   1      36.359  31.293  32.412  1.00  0.00    -0.206 F 
ATOM     78  C   UNL A   1      35.236  32.382  30.661  1.00  0.00     0.059 A 
ATOM     79  C   UNL A   1      36.041  32.178  28.396  1.00  0.00     0.059 A 
ATOM     80  F   UNL A   1      37.955  30.951  27.931  1.00  0.00    -0.206 F 
ATOM     81  C   UNL A   1      35.140  32.711  29.309  1.00  0.00     0.060 A 
BRANCH  81  82
ATOM     82  S   UNL A   1      33.914  33.927  28.764  1.00  0.00     0.124 S 
ATOM     83  O   UNL A   1      34.743  34.908  28.072  1.00  0.00    -0.237 OA
ATOM     84  O   UNL A   1      33.037  33.125  27.916  1.00  0.00    -0.237 OA
ATOM     85  O   UNL A   1      33.313  34.390  30.012  1.00  0.00    -0.744 OA
ENDBRANCH  81  82
ENDBRANCH  49  74
BRANCH  61  86
ATOM     86  C   UNL A   1      42.072  29.111  33.949  1.00  0.00     0.058 A 
ATOM     87  C   UNL A   1      41.952  27.752  33.603  1.00  0.00     0.135 A 
ATOM     88  C   UNL A   1      42.024  29.418  35.317  1.00  0.00     0.135 A 
ATOM     89  F   UNL A   1      42.090  27.350  32.335  1.00  0.00    -0.206 F 
ATOM     90  C   UNL A   1      41.759  26.753  34.563  1.00  0.00     0.059 A 
ATOM     91  C   UNL A   1      41.864  28.437  36.294  1.00  0.00     0.059 A 
ATOM     92  F   UNL A   1      42.199  30.685  35.726  1.00  0.00    -0.206 F 
ATOM     93  C   UNL A   1      41.719  27.107  35.910  1.00  0.00     0.060 A 
BRANCH  93  94
ATOM     94  S   UNL A   1      41.538  25.812  37.158  1.00  0.00     0.124 S 
ATOM     95  O   UNL A   1      41.700  24.598  36.365  1.00  0.00    -0.237 OA
ATOM     96  O   UNL A   1      42.624  26.112  38.087  1.00  0.00    -0.237 OA
ATOM     97  O   UNL A   1      40.196  26.035  37.689  1.00  0.00    -0.744 OA
ENDBRANCH  93  94
ENDBRANCH  61  86
ENDBRANCH  35  36
ENDBRANCH  27  30
ENDBRANCH  25  26
ENDBRANCH   1  25
TORSDOF 16
ENDMDL
