MODEL 1
REMARK VINA RESULT:     -11.9      0.000      0.000
REMARK SMILES C[C@H](Oc1cc2oc(=O)cc(-c3ccccc3)c2cc1Cl)C(=O)NCCCNC(=O)c1ccc(-c2c3nc(c(-c4c(F)cc(S(=O)(=O)[O-])cc4F)c4ccc([nH]4)c(-c4c(F)cc(S(=O)(=O)[O-])cc4F)c4nc(c(-c5c(F)cc(S(=O)(=O)[O-])cc5F)c5ccc2[nH]5)C=C4)C=C3)cc1
REMARK SMILES IDX 26 1 25 2 24 3 22 4 23 5 2 7 1 8 3 9 4 10 5 11 20 12 6 13
REMARK SMILES IDX 19 14 21 15 7 16 18 17 8 18 11 19 9 20 10 21 12 22 13 23
REMARK SMILES IDX 17 24 14 25 16 26 15 27 27 28 28 29 29 30 30 32 31 33 32 34
REMARK SMILES IDX 96 35 33 36 95 37 34 38 35 39 36 40 89 41 37 42 94 43 88 44
REMARK SMILES IDX 90 45 38 46 93 47 87 48 86 49 39 51 73 52 52 53 72 54 53 55
REMARK SMILES IDX 56 56 71 57 91 58 54 59 55 60 70 62 92 63 57 64 40 65 41 66
REMARK SMILES IDX 50 67 42 68 43 69 49 70 51 71 44 72 45 73 46 74 47 75 48 76
REMARK SMILES IDX 74 77 75 78 84 79 76 80 77 81 83 82 85 83 78 84 79 85 80 86
REMARK SMILES IDX 81 87 82 88 58 89 59 90 68 91 60 92 61 93 67 94 69 95 62 96
REMARK SMILES IDX 63 97 64 98 65 99 66 100
REMARK H PARENT 24 6 28 31 90 50 56 61
REMARK Flexibility Score: inf
ROOT
ATOM      1  C   UNL A   1      32.837  27.053  26.297  1.00  0.00     0.042 C 
ENDROOT
BRANCH   1   2
ATOM      2  C   UNL A   1      31.593  27.871  25.992  1.00  0.00     0.118 C 
BRANCH   2   3
ATOM      3  N   UNL A   1      30.483  27.056  25.523  1.00  0.00    -0.353 N 
ATOM      4  C   UNL A   1      30.085  26.796  24.238  1.00  0.00     0.260 C 
ATOM      5  O   UNL A   1      29.118  26.049  24.064  1.00  0.00    -0.271 OA
ATOM      6  H   UNL A   1      29.942  26.633  26.228  1.00  0.00     0.163 HD
BRANCH   4   7
ATOM      7  C   UNL A   1      30.882  27.364  23.053  1.00  0.00     0.258 C 
ATOM      8  C   UNL A   1      30.029  28.447  22.379  1.00  0.00     0.064 C 
BRANCH   7   9
ATOM      9  O   UNL A   1      31.234  26.229  22.258  1.00  0.00    -0.479 OA
BRANCH   9  10
ATOM     10  C   UNL A   1      32.029  25.223  22.718  1.00  0.00     0.142 A 
ATOM     11  C   UNL A   1      31.614  23.914  22.926  1.00  0.00     0.096 A 
ATOM     12  C   UNL A   1      33.350  25.567  23.056  1.00  0.00     0.084 A 
ATOM     13  C   UNL A   1      32.461  23.020  23.588  1.00  0.00     0.142 A 
ATOM     14  C   UNL A   1      34.208  24.642  23.666  1.00  0.00     0.037 A 
ATOM     15  Cl  UNL A   1      33.968  27.155  22.755  1.00  0.00    -0.080 Cl
ATOM     16  O   UNL A   1      31.912  21.758  23.877  1.00  0.00    -0.423 OA
ATOM     17  C   UNL A   1      33.753  23.361  23.983  1.00  0.00     0.027 A 
ATOM     18  C   UNL A   1      32.603  20.847  24.655  1.00  0.00     0.336 A 
ATOM     19  C   UNL A   1      34.563  22.374  24.718  1.00  0.00    -0.000 A 
ATOM     20  O   UNL A   1      32.118  19.778  24.993  1.00  0.00    -0.246 OA
ATOM     21  C   UNL A   1      33.975  21.209  25.041  1.00  0.00     0.103 A 
BRANCH  19  22
ATOM     22  C   UNL A   1      35.958  22.547  25.180  1.00  0.00    -0.017 A 
ATOM     23  C   UNL A   1      36.894  21.517  24.997  1.00  0.00     0.009 A 
ATOM     24  C   UNL A   1      36.366  23.734  25.802  1.00  0.00     0.009 A 
ATOM     25  C   UNL A   1      38.211  21.672  25.432  1.00  0.00     0.001 A 
ATOM     26  C   UNL A   1      37.688  23.891  26.226  1.00  0.00     0.001 A 
ATOM     27  C   UNL A   1      38.608  22.859  26.042  1.00  0.00     0.000 A 
ENDBRANCH  19  22
ENDBRANCH   9  10
ENDBRANCH   7   9
ENDBRANCH   4   7
ENDBRANCH   2   3
ENDBRANCH   1   2
BRANCH   1  28
ATOM     28  C   UNL A   1      34.065  27.884  26.640  1.00  0.00     0.118 C 
BRANCH  28  29
ATOM     29  N   UNL A   1      33.732  29.231  27.078  1.00  0.00    -0.352 N 
ATOM     30  C   UNL A   1      34.473  30.142  27.790  1.00  0.00     0.251 C 
ATOM     31  H   UNL A   1      32.832  29.539  26.825  1.00  0.00     0.163 HD
ATOM     32  O   UNL A   1      33.927  31.163  28.200  1.00  0.00    -0.269 OA
BRANCH  30  33
ATOM     33  C   UNL A   1      35.904  29.896  28.083  1.00  0.00     0.039 A 
ATOM     34  C   UNL A   1      36.262  29.467  29.364  1.00  0.00     0.014 A 
ATOM     35  C   UNL A   1      36.893  30.112  27.121  1.00  0.00     0.014 A 
ATOM     36  C   UNL A   1      37.600  29.199  29.657  1.00  0.00     0.010 A 
ATOM     37  C   UNL A   1      38.214  29.757  27.387  1.00  0.00     0.010 A 
ATOM     38  C   UNL A   1      38.585  29.309  28.662  1.00  0.00    -0.014 A 
BRANCH  38  39
ATOM     39  C   UNL A   1      40.002  28.965  28.946  1.00  0.00     0.031 A 
ATOM     40  C   UNL A   1      40.923  29.982  29.568  1.00  0.00     0.074 A 
ATOM     41  C   UNL A   1      40.473  27.749  28.603  1.00  0.00     0.049 A 
ATOM     42  N   UNL A   1      42.191  29.871  29.872  1.00  0.00    -0.248 NA
ATOM     43  C   UNL A   1      40.353  31.308  29.863  1.00  0.00     0.031 C 
ATOM     44  C   UNL A   1      39.697  26.700  27.936  1.00  0.00     0.029 A 
ATOM     45  N   UNL A   1      41.715  27.190  28.763  1.00  0.00    -0.354 N 
ATOM     46  C   UNL A   1      42.571  31.108  30.379  1.00  0.00     0.074 A 
ATOM     47  C   UNL A   1      41.415  31.974  30.288  1.00  0.00     0.031 C 
ATOM     48  C   UNL A   1      40.471  25.615  27.775  1.00  0.00     0.029 A 
ATOM     49  C   UNL A   1      41.805  25.900  28.294  1.00  0.00     0.049 A 
ATOM     50  H   UNL A   1      42.472  27.666  29.175  1.00  0.00     0.167 HD
ATOM     51  C   UNL A   1      43.764  31.481  30.901  1.00  0.00     0.037 A 
ATOM     52  C   UNL A   1      42.844  25.042  28.285  1.00  0.00     0.037 A 
ATOM     53  C   UNL A   1      44.902  30.608  31.014  1.00  0.00     0.049 A 
ATOM     54  C   UNL A   1      44.153  25.474  28.887  1.00  0.00     0.074 A 
ATOM     55  C   UNL A   1      46.137  30.870  31.581  1.00  0.00     0.029 A 
ATOM     56  N   UNL A   1      44.946  29.300  30.551  1.00  0.00    -0.354 N 
ATOM     57  N   UNL A   1      44.473  26.625  29.428  1.00  0.00    -0.248 NA
ATOM     58  C   UNL A   1      45.241  24.485  28.887  1.00  0.00     0.031 C 
ATOM     59  C   UNL A   1      46.942  29.736  31.424  1.00  0.00     0.029 A 
ATOM     60  C   UNL A   1      46.192  28.750  30.803  1.00  0.00     0.049 A 
ATOM     61  H   UNL A   1      44.202  28.832  30.107  1.00  0.00     0.167 HD
ATOM     62  C   UNL A   1      45.788  26.491  29.857  1.00  0.00     0.074 A 
ATOM     63  C   UNL A   1      46.199  25.142  29.526  1.00  0.00     0.031 C 
ATOM     64  C   UNL A   1      46.584  27.403  30.471  1.00  0.00     0.037 A 
BRANCH  51  65
ATOM     65  C   UNL A   1      43.896  32.896  31.400  1.00  0.00     0.058 A 
ATOM     66  C   UNL A   1      43.589  33.242  32.725  1.00  0.00     0.135 A 
ATOM     67  C   UNL A   1      44.367  33.913  30.553  1.00  0.00     0.135 A 
ATOM     68  F   UNL A   1      43.119  32.314  33.575  1.00  0.00    -0.206 F 
ATOM     69  C   UNL A   1      43.714  34.548  33.186  1.00  0.00     0.059 A 
ATOM     70  C   UNL A   1      44.529  35.222  31.000  1.00  0.00     0.059 A 
ATOM     71  F   UNL A   1      44.677  33.640  29.276  1.00  0.00    -0.206 F 
ATOM     72  C   UNL A   1      44.185  35.533  32.315  1.00  0.00     0.060 A 
BRANCH  72  73
ATOM     73  S   UNL A   1      44.348  37.221  32.931  1.00  0.00     0.124 S 
ATOM     74  O   UNL A   1      43.168  37.336  33.783  1.00  0.00    -0.237 OA
ATOM     75  O   UNL A   1      45.630  37.178  33.627  1.00  0.00    -0.237 OA
ATOM     76  O   UNL A   1      44.325  38.030  31.716  1.00  0.00    -0.744 OA
ENDBRANCH  72  73
ENDBRANCH  51  65
BRANCH  52  77
ATOM     77  C   UNL A   1      42.675  23.678  27.715  1.00  0.00     0.058 A 
ATOM     78  C   UNL A   1      42.434  22.574  28.547  1.00  0.00     0.135 A 
ATOM     79  C   UNL A   1      42.738  23.452  26.332  1.00  0.00     0.135 A 
ATOM     80  F   UNL A   1      42.370  22.737  29.878  1.00  0.00    -0.206 F 
ATOM     81  C   UNL A   1      42.277  21.291  28.030  1.00  0.00     0.059 A 
ATOM     82  C   UNL A   1      42.558  22.184  25.789  1.00  0.00     0.059 A 
ATOM     83  F   UNL A   1      42.948  24.478  25.492  1.00  0.00    -0.206 F 
ATOM     84  C   UNL A   1      42.338  21.107  26.647  1.00  0.00     0.060 A 
BRANCH  84  85
ATOM     85  S   UNL A   1      42.084  19.448  25.981  1.00  0.00     0.124 S 
ATOM     86  O   UNL A   1      42.895  19.489  24.771  1.00  0.00    -0.237 OA
ATOM     87  O   UNL A   1      42.586  18.604  27.061  1.00  0.00    -0.237 OA
ATOM     88  O   UNL A   1      40.640  19.389  25.773  1.00  0.00    -0.744 OA
ENDBRANCH  84  85
ENDBRANCH  52  77
BRANCH  64  89
ATOM     89  C   UNL A   1      47.970  26.959  30.853  1.00  0.00     0.058 A 
ATOM     90  C   UNL A   1      49.080  27.213  30.034  1.00  0.00     0.135 A 
ATOM     91  C   UNL A   1      48.192  26.299  32.073  1.00  0.00     0.135 A 
ATOM     92  F   UNL A   1      48.923  27.836  28.855  1.00  0.00    -0.206 F 
ATOM     93  C   UNL A   1      50.358  26.798  30.394  1.00  0.00     0.059 A 
ATOM     94  C   UNL A   1      49.466  25.902  32.466  1.00  0.00     0.059 A 
ATOM     95  F   UNL A   1      47.166  26.042  32.900  1.00  0.00    -0.206 F 
ATOM     96  C   UNL A   1      50.541  26.141  31.613  1.00  0.00     0.060 A 
BRANCH  96  97
ATOM     97  S   UNL A   1      52.206  25.620  32.075  1.00  0.00     0.124 S 
ATOM     98  O   UNL A   1      52.495  26.516  33.189  1.00  0.00    -0.237 OA
ATOM     99  O   UNL A   1      52.010  24.216  32.425  1.00  0.00    -0.237 OA
ATOM    100  O   UNL A   1      52.983  25.855  30.862  1.00  0.00    -0.744 OA
ENDBRANCH  96  97
ENDBRANCH  64  89
ENDBRANCH  38  39
ENDBRANCH  30  33
ENDBRANCH  28  29
ENDBRANCH   1  28
TORSDOF 16
ENDMDL
MODEL 2
REMARK VINA RESULT:     -11.9      2.967      4.125
REMARK SMILES C[C@H](Oc1cc2oc(=O)cc(-c3ccccc3)c2cc1Cl)C(=O)NCCCNC(=O)c1ccc(-c2c3nc(c(-c4c(F)cc(S(=O)(=O)[O-])cc4F)c4ccc([nH]4)c(-c4c(F)cc(S(=O)(=O)[O-])cc4F)c4nc(c(-c5c(F)cc(S(=O)(=O)[O-])cc5F)c5ccc2[nH]5)C=C4)C=C3)cc1
REMARK SMILES IDX 26 1 25 2 24 3 22 4 23 5 2 7 1 8 3 9 4 10 5 11 20 12 6 13
REMARK SMILES IDX 19 14 21 15 7 16 18 17 8 18 11 19 9 20 10 21 12 22 13 23
REMARK SMILES IDX 17 24 14 25 16 26 15 27 27 28 28 29 29 30 30 32 31 33 32 34
REMARK SMILES IDX 96 35 33 36 95 37 34 38 35 39 36 40 89 41 37 42 94 43 88 44
REMARK SMILES IDX 90 45 38 46 93 47 87 48 86 49 39 51 73 52 52 53 72 54 53 55
REMARK SMILES IDX 56 56 71 57 91 58 54 59 55 60 70 62 92 63 57 64 40 65 41 66
REMARK SMILES IDX 50 67 42 68 43 69 49 70 51 71 44 72 45 73 46 74 47 75 48 76
REMARK SMILES IDX 74 77 75 78 84 79 76 80 77 81 83 82 85 83 78 84 79 85 80 86
REMARK SMILES IDX 81 87 82 88 58 89 59 90 68 91 60 92 61 93 67 94 69 95 62 96
REMARK SMILES IDX 63 97 64 98 65 99 66 100
REMARK H PARENT 24 6 28 31 90 50 56 61
REMARK Flexibility Score: inf
ROOT
ATOM      1  C   UNL A   1      33.751  29.265  27.249  1.00  0.00     0.042 C 
ENDROOT
BRANCH   1   2
ATOM      2  C   UNL A   1      33.527  28.043  26.373  1.00  0.00     0.118 C 
BRANCH   2   3
ATOM      3  N   UNL A   1      32.354  28.167  25.521  1.00  0.00    -0.353 N 
ATOM      4  C   UNL A   1      32.148  27.676  24.258  1.00  0.00     0.260 C 
ATOM      5  O   UNL A   1      31.057  27.881  23.721  1.00  0.00    -0.271 OA
ATOM      6  H   UNL A   1      31.604  28.676  25.905  1.00  0.00     0.163 HD
BRANCH   4   7
ATOM      7  C   UNL A   1      33.231  26.826  23.574  1.00  0.00     0.258 C 
ATOM      8  C   UNL A   1      33.682  27.558  22.304  1.00  0.00     0.064 C 
BRANCH   7   9
ATOM      9  O   UNL A   1      32.643  25.534  23.405  1.00  0.00    -0.479 OA
BRANCH   9  10
ATOM     10  C   UNL A   1      33.212  24.393  23.885  1.00  0.00     0.142 A 
ATOM     11  C   UNL A   1      34.514  24.292  24.360  1.00  0.00     0.096 A 
ATOM     12  C   UNL A   1      32.428  23.227  23.836  1.00  0.00     0.084 A 
ATOM     13  C   UNL A   1      35.050  23.032  24.639  1.00  0.00     0.142 A 
ATOM     14  C   UNL A   1      32.962  21.977  24.176  1.00  0.00     0.037 A 
ATOM     15  Cl  UNL A   1      30.773  23.281  23.332  1.00  0.00    -0.080 Cl
ATOM     16  O   UNL A   1      36.413  23.010  24.984  1.00  0.00    -0.423 OA
ATOM     17  C   UNL A   1      34.305  21.859  24.539  1.00  0.00     0.027 A 
ATOM     18  C   UNL A   1      37.085  21.811  25.138  1.00  0.00     0.336 A 
ATOM     19  C   UNL A   1      34.959  20.567  24.805  1.00  0.00    -0.000 A 
ATOM     20  O   UNL A   1      38.286  21.760  25.353  1.00  0.00    -0.246 OA
ATOM     21  C   UNL A   1      36.280  20.583  25.057  1.00  0.00     0.103 A 
BRANCH  19  22
ATOM     22  C   UNL A   1      34.319  19.233  24.785  1.00  0.00    -0.017 A 
ATOM     23  C   UNL A   1      33.010  19.072  25.264  1.00  0.00     0.009 A 
ATOM     24  C   UNL A   1      35.005  18.116  24.290  1.00  0.00     0.009 A 
ATOM     25  C   UNL A   1      32.401  17.816  25.250  1.00  0.00     0.001 A 
ATOM     26  C   UNL A   1      34.388  16.862  24.267  1.00  0.00     0.001 A 
ATOM     27  C   UNL A   1      33.089  16.714  24.748  1.00  0.00     0.000 A 
ENDBRANCH  19  22
ENDBRANCH   9  10
ENDBRANCH   7   9
ENDBRANCH   4   7
ENDBRANCH   2   3
ENDBRANCH   1   2
BRANCH   1  28
ATOM     28  C   UNL A   1      35.186  29.442  27.722  1.00  0.00     0.118 C 
BRANCH  28  29
ATOM     29  N   UNL A   1      35.284  30.204  28.959  1.00  0.00    -0.352 N 
ATOM     30  C   UNL A   1      36.345  30.379  29.812  1.00  0.00     0.251 C 
ATOM     31  H   UNL A   1      34.457  30.666  29.227  1.00  0.00     0.163 HD
ATOM     32  O   UNL A   1      36.155  30.927  30.895  1.00  0.00    -0.269 OA
BRANCH  30  33
ATOM     33  C   UNL A   1      37.699  29.900  29.451  1.00  0.00     0.039 A 
ATOM     34  C   UNL A   1      38.050  29.838  28.100  1.00  0.00     0.014 A 
ATOM     35  C   UNL A   1      38.611  29.486  30.425  1.00  0.00     0.014 A 
ATOM     36  C   UNL A   1      39.330  29.418  27.734  1.00  0.00     0.010 A 
ATOM     37  C   UNL A   1      39.915  29.156  30.065  1.00  0.00     0.010 A 
ATOM     38  C   UNL A   1      40.287  29.106  28.714  1.00  0.00    -0.014 A 
BRANCH  38  39
ATOM     39  C   UNL A   1      41.671  28.720  28.337  1.00  0.00     0.031 A 
ATOM     40  C   UNL A   1      42.765  29.756  28.291  1.00  0.00     0.074 A 
ATOM     41  C   UNL A   1      41.935  27.444  27.994  1.00  0.00     0.049 A 
ATOM     42  N   UNL A   1      44.024  29.612  27.968  1.00  0.00    -0.248 NA
ATOM     43  C   UNL A   1      42.389  31.140  28.624  1.00  0.00     0.031 C 
ATOM     44  C   UNL A   1      40.949  26.362  27.938  1.00  0.00     0.029 A 
ATOM     45  N   UNL A   1      43.109  26.838  27.624  1.00  0.00    -0.354 N 
ATOM     46  C   UNL A   1      44.586  30.881  28.047  1.00  0.00     0.074 A 
ATOM     47  C   UNL A   1      43.516  31.793  28.391  1.00  0.00     0.031 C 
ATOM     48  C   UNL A   1      41.565  25.222  27.589  1.00  0.00     0.029 A 
ATOM     49  C   UNL A   1      42.981  25.494  27.363  1.00  0.00     0.049 A 
ATOM     50  H   UNL A   1      43.965  27.320  27.553  1.00  0.00     0.167 HD
ATOM     51  C   UNL A   1      45.878  31.250  27.877  1.00  0.00     0.037 A 
ATOM     52  C   UNL A   1      43.899  24.583  26.987  1.00  0.00     0.037 A 
ATOM     53  C   UNL A   1      46.942  30.334  27.562  1.00  0.00     0.049 A 
ATOM     54  C   UNL A   1      45.331  25.014  26.824  1.00  0.00     0.074 A 
ATOM     55  C   UNL A   1      48.294  30.596  27.429  1.00  0.00     0.029 A 
ATOM     56  N   UNL A   1      46.776  28.976  27.331  1.00  0.00    -0.354 N 
ATOM     57  N   UNL A   1      45.856  26.206  26.973  1.00  0.00    -0.248 NA
ATOM     58  C   UNL A   1      46.298  23.972  26.451  1.00  0.00     0.031 C 
ATOM     59  C   UNL A   1      48.940  29.406  27.076  1.00  0.00     0.029 A 
ATOM     60  C   UNL A   1      47.997  28.392  27.038  1.00  0.00     0.049 A 
ATOM     61  H   UNL A   1      45.916  28.497  27.368  1.00  0.00     0.167 HD
ATOM     62  C   UNL A   1      47.218  26.054  26.740  1.00  0.00     0.074 A 
ATOM     63  C   UNL A   1      47.437  24.651  26.455  1.00  0.00     0.031 C 
ATOM     64  C   UNL A   1      48.199  26.991  26.760  1.00  0.00     0.037 A 
BRANCH  51  65
ATOM     65  C   UNL A   1      46.214  32.709  28.041  1.00  0.00     0.058 A 
ATOM     66  C   UNL A   1      46.729  33.216  29.244  1.00  0.00     0.135 A 
ATOM     67  C   UNL A   1      46.053  33.605  26.971  1.00  0.00     0.135 A 
ATOM     68  F   UNL A   1      46.889  32.409  30.306  1.00  0.00    -0.206 F 
ATOM     69  C   UNL A   1      47.043  34.563  29.393  1.00  0.00     0.059 A 
ATOM     70  C   UNL A   1      46.389  34.951  27.087  1.00  0.00     0.059 A 
ATOM     71  F   UNL A   1      45.566  33.175  25.796  1.00  0.00    -0.206 F 
ATOM     72  C   UNL A   1      46.869  35.424  28.308  1.00  0.00     0.060 A 
BRANCH  72  73
ATOM     73  S   UNL A   1      47.288  37.168  28.515  1.00  0.00     0.124 S 
ATOM     74  O   UNL A   1      47.058  37.685  27.169  1.00  0.00    -0.237 OA
ATOM     75  O   UNL A   1      46.333  37.599  29.531  1.00  0.00    -0.237 OA
ATOM     76  O   UNL A   1      48.683  37.134  28.944  1.00  0.00    -0.744 OA
ENDBRANCH  72  73
ENDBRANCH  51  65
BRANCH  52  77
ATOM     77  C   UNL A   1      43.495  23.167  26.773  1.00  0.00     0.058 A 
ATOM     78  C   UNL A   1      43.445  22.619  25.482  1.00  0.00     0.135 A 
ATOM     79  C   UNL A   1      43.166  22.331  27.850  1.00  0.00     0.135 A 
ATOM     80  F   UNL A   1      43.745  23.380  24.418  1.00  0.00    -0.206 F 
ATOM     81  C   UNL A   1      43.066  21.298  25.265  1.00  0.00     0.059 A 
ATOM     82  C   UNL A   1      42.811  21.000  27.661  1.00  0.00     0.059 A 
ATOM     83  F   UNL A   1      43.218  22.802  29.106  1.00  0.00    -0.206 F 
ATOM     84  C   UNL A   1      42.753  20.495  26.363  1.00  0.00     0.060 A 
BRANCH  84  85
ATOM     85  S   UNL A   1      42.312  18.767  26.075  1.00  0.00     0.124 S 
ATOM     86  O   UNL A   1      40.904  18.880  25.714  1.00  0.00    -0.237 OA
ATOM     87  O   UNL A   1      43.221  18.394  24.997  1.00  0.00    -0.237 OA
ATOM     88  O   UNL A   1      42.586  18.133  27.361  1.00  0.00    -0.744 OA
ENDBRANCH  84  85
ENDBRANCH  52  77
BRANCH  64  89
ATOM     89  C   UNL A   1      49.604  26.522  26.498  1.00  0.00     0.058 A 
ATOM     90  C   UNL A   1      50.397  25.961  27.510  1.00  0.00     0.135 A 
ATOM     91  C   UNL A   1      50.150  26.607  25.206  1.00  0.00     0.135 A 
ATOM     92  F   UNL A   1      49.925  25.861  28.763  1.00  0.00    -0.206 F 
ATOM     93  C   UNL A   1      51.697  25.531  27.260  1.00  0.00     0.059 A 
ATOM     94  C   UNL A   1      51.437  26.156  24.928  1.00  0.00     0.059 A 
ATOM     95  F   UNL A   1      49.430  27.125  24.199  1.00  0.00    -0.206 F 
ATOM     96  C   UNL A   1      52.208  25.635  25.964  1.00  0.00     0.060 A 
BRANCH  96  97
ATOM     97  S   UNL A   1      53.890  25.061  25.649  1.00  0.00     0.124 S 
ATOM     98  O   UNL A   1      53.684  23.627  25.480  1.00  0.00    -0.237 OA
ATOM     99  O   UNL A   1      54.252  25.796  24.442  1.00  0.00    -0.237 OA
ATOM    100  O   UNL A   1      54.613  25.453  26.855  1.00  0.00    -0.744 OA
ENDBRANCH  96  97
ENDBRANCH  64  89
ENDBRANCH  38  39
ENDBRANCH  30  33
ENDBRANCH  28  29
ENDBRANCH   1  28
TORSDOF 16
ENDMDL
MODEL 3
REMARK VINA RESULT:     -11.8      3.003      4.105
REMARK SMILES C[C@H](Oc1cc2oc(=O)cc(-c3ccccc3)c2cc1Cl)C(=O)NCCCNC(=O)c1ccc(-c2c3nc(c(-c4c(F)cc(S(=O)(=O)[O-])cc4F)c4ccc([nH]4)c(-c4c(F)cc(S(=O)(=O)[O-])cc4F)c4nc(c(-c5c(F)cc(S(=O)(=O)[O-])cc5F)c5ccc2[nH]5)C=C4)C=C3)cc1
REMARK SMILES IDX 26 1 25 2 24 3 22 4 23 5 2 7 1 8 3 9 4 10 5 11 20 12 6 13
REMARK SMILES IDX 19 14 21 15 7 16 18 17 8 18 11 19 9 20 10 21 12 22 13 23
REMARK SMILES IDX 17 24 14 25 16 26 15 27 27 28 28 29 29 30 30 32 31 33 32 34
REMARK SMILES IDX 96 35 33 36 95 37 34 38 35 39 36 40 89 41 37 42 94 43 88 44
REMARK SMILES IDX 90 45 38 46 93 47 87 48 86 49 39 51 73 52 52 53 72 54 53 55
REMARK SMILES IDX 56 56 71 57 91 58 54 59 55 60 70 62 92 63 57 64 40 65 41 66
REMARK SMILES IDX 50 67 42 68 43 69 49 70 51 71 44 72 45 73 46 74 47 75 48 76
REMARK SMILES IDX 74 77 75 78 84 79 76 80 77 81 83 82 85 83 78 84 79 85 80 86
REMARK SMILES IDX 81 87 82 88 58 89 59 90 68 91 60 92 61 93 67 94 69 95 62 96
REMARK SMILES IDX 63 97 64 98 65 99 66 100
REMARK H PARENT 24 6 28 31 90 50 56 61
REMARK Flexibility Score: inf
ROOT
ATOM      1  C   UNL A   1      34.170  29.215  27.582  1.00  0.00     0.042 C 
ENDROOT
BRANCH   1   2
ATOM      2  C   UNL A   1      34.084  28.833  26.114  1.00  0.00     0.118 C 
BRANCH   2   3
ATOM      3  N   UNL A   1      32.731  28.500  25.696  1.00  0.00    -0.353 N 
ATOM      4  C   UNL A   1      32.318  27.680  24.678  1.00  0.00     0.260 C 
ATOM      5  O   UNL A   1      31.107  27.518  24.511  1.00  0.00    -0.271 OA
ATOM      6  H   UNL A   1      32.011  28.924  26.218  1.00  0.00     0.163 HD
BRANCH   4   7
ATOM      7  C   UNL A   1      33.352  26.928  23.825  1.00  0.00     0.258 C 
ATOM      8  C   UNL A   1      33.682  27.792  22.601  1.00  0.00     0.064 C 
BRANCH   7   9
ATOM      9  O   UNL A   1      32.771  25.645  23.576  1.00  0.00    -0.479 OA
BRANCH   9  10
ATOM     10  C   UNL A   1      33.322  24.483  24.026  1.00  0.00     0.142 A 
ATOM     11  C   UNL A   1      34.624  24.349  24.491  1.00  0.00     0.096 A 
ATOM     12  C   UNL A   1      32.516  23.333  23.954  1.00  0.00     0.084 A 
ATOM     13  C   UNL A   1      35.139  23.072  24.737  1.00  0.00     0.142 A 
ATOM     14  C   UNL A   1      33.030  22.066  24.261  1.00  0.00     0.037 A 
ATOM     15  Cl  UNL A   1      30.861  23.429  23.460  1.00  0.00    -0.080 Cl
ATOM     16  O   UNL A   1      36.503  23.018  25.073  1.00  0.00    -0.423 OA
ATOM     17  C   UNL A   1      34.372  21.916  24.614  1.00  0.00     0.027 A 
ATOM     18  C   UNL A   1      37.154  21.804  25.195  1.00  0.00     0.336 A 
ATOM     19  C   UNL A   1      35.005  20.606  24.845  1.00  0.00    -0.000 A 
ATOM     20  O   UNL A   1      38.356  21.727  25.402  1.00  0.00    -0.246 OA
ATOM     21  C   UNL A   1      36.327  20.593  25.090  1.00  0.00     0.103 A 
BRANCH  19  22
ATOM     22  C   UNL A   1      34.341  19.285  24.797  1.00  0.00    -0.017 A 
ATOM     23  C   UNL A   1      33.040  19.130  25.300  1.00  0.00     0.009 A 
ATOM     24  C   UNL A   1      34.996  18.173  24.251  1.00  0.00     0.009 A 
ATOM     25  C   UNL A   1      32.409  17.886  25.260  1.00  0.00     0.001 A 
ATOM     26  C   UNL A   1      34.357  16.931  24.202  1.00  0.00     0.001 A 
ATOM     27  C   UNL A   1      33.066  16.789  24.708  1.00  0.00     0.000 A 
ENDBRANCH  19  22
ENDBRANCH   9  10
ENDBRANCH   7   9
ENDBRANCH   4   7
ENDBRANCH   2   3
ENDBRANCH   1   2
BRANCH   1  28
ATOM     28  C   UNL A   1      35.336  30.130  27.924  1.00  0.00     0.118 C 
BRANCH  28  29
ATOM     29  N   UNL A   1      35.385  30.482  29.336  1.00  0.00    -0.352 N 
ATOM     30  C   UNL A   1      36.421  30.412  30.234  1.00  0.00     0.251 C 
ATOM     31  H   UNL A   1      34.539  30.823  29.707  1.00  0.00     0.163 HD
ATOM     32  O   UNL A   1      36.190  30.601  31.426  1.00  0.00    -0.269 OA
BRANCH  30  33
ATOM     33  C   UNL A   1      37.796  30.094  29.786  1.00  0.00     0.039 A 
ATOM     34  C   UNL A   1      38.762  29.793  30.750  1.00  0.00     0.014 A 
ATOM     35  C   UNL A   1      38.147  30.119  28.434  1.00  0.00     0.014 A 
ATOM     36  C   UNL A   1      40.059  29.460  30.352  1.00  0.00     0.010 A 
ATOM     37  C   UNL A   1      39.414  29.698  28.035  1.00  0.00     0.010 A 
ATOM     38  C   UNL A   1      40.388  29.376  28.989  1.00  0.00    -0.014 A 
BRANCH  38  39
ATOM     39  C   UNL A   1      41.747  28.961  28.555  1.00  0.00     0.031 A 
ATOM     40  C   UNL A   1      42.862  29.971  28.468  1.00  0.00     0.074 A 
ATOM     41  C   UNL A   1      41.967  27.680  28.194  1.00  0.00     0.049 A 
ATOM     42  N   UNL A   1      44.103  29.800  28.094  1.00  0.00    -0.248 NA
ATOM     43  C   UNL A   1      42.531  31.361  28.823  1.00  0.00     0.031 C 
ATOM     44  C   UNL A   1      40.954  26.622  28.174  1.00  0.00     0.029 A 
ATOM     45  N   UNL A   1      43.111  27.050  27.775  1.00  0.00    -0.354 N 
ATOM     46  C   UNL A   1      44.696  31.055  28.156  1.00  0.00     0.074 A 
ATOM     47  C   UNL A   1      43.663  31.990  28.547  1.00  0.00     0.031 C 
ATOM     48  C   UNL A   1      41.529  25.469  27.795  1.00  0.00     0.029 A 
ATOM     49  C   UNL A   1      42.940  25.711  27.513  1.00  0.00     0.049 A 
ATOM     50  H   UNL A   1      43.974  27.513  27.670  1.00  0.00     0.167 HD
ATOM     51  C   UNL A   1      45.989  31.395  27.936  1.00  0.00     0.037 A 
ATOM     52  C   UNL A   1      43.821  24.781  27.095  1.00  0.00     0.037 A 
ATOM     53  C   UNL A   1      47.018  30.457  27.573  1.00  0.00     0.049 A 
ATOM     54  C   UNL A   1      45.254  25.179  26.876  1.00  0.00     0.074 A 
ATOM     55  C   UNL A   1      48.369  30.688  27.387  1.00  0.00     0.029 A 
ATOM     56  N   UNL A   1      46.811  29.104  27.343  1.00  0.00    -0.354 N 
ATOM     57  N   UNL A   1      45.813  26.358  27.009  1.00  0.00    -0.248 NA
ATOM     58  C   UNL A   1      46.181  24.118  26.459  1.00  0.00     0.031 C 
ATOM     59  C   UNL A   1      48.972  29.486  27.001  1.00  0.00     0.029 A 
ATOM     60  C   UNL A   1      48.005  28.493  26.998  1.00  0.00     0.049 A 
ATOM     61  H   UNL A   1      45.942  28.645  27.412  1.00  0.00     0.167 HD
ATOM     62  C   UNL A   1      47.160  26.176  26.720  1.00  0.00     0.074 A 
ATOM     63  C   UNL A   1      47.335  24.770  26.420  1.00  0.00     0.031 C 
ATOM     64  C   UNL A   1      48.163  27.090  26.705  1.00  0.00     0.037 A 
BRANCH  51  65
ATOM     65  C   UNL A   1      46.366  32.845  28.092  1.00  0.00     0.058 A 
ATOM     66  C   UNL A   1      46.220  33.762  27.039  1.00  0.00     0.135 A 
ATOM     67  C   UNL A   1      46.846  33.332  29.319  1.00  0.00     0.135 A 
ATOM     68  F   UNL A   1      45.781  33.350  25.839  1.00  0.00    -0.206 F 
ATOM     69  C   UNL A   1      46.564  35.101  27.186  1.00  0.00     0.059 A 
ATOM     70  C   UNL A   1      47.168  34.674  29.498  1.00  0.00     0.059 A 
ATOM     71  F   UNL A   1      47.004  32.501  30.361  1.00  0.00    -0.206 F 
ATOM     72  C   UNL A   1      47.038  35.549  28.420  1.00  0.00     0.060 A 
BRANCH  72  73
ATOM     73  S   UNL A   1      47.474  37.292  28.595  1.00  0.00     0.124 S 
ATOM     74  O   UNL A   1      46.336  37.943  27.953  1.00  0.00    -0.237 OA
ATOM     75  O   UNL A   1      47.559  37.448  30.043  1.00  0.00    -0.237 OA
ATOM     76  O   UNL A   1      48.743  37.399  27.880  1.00  0.00    -0.744 OA
ENDBRANCH  72  73
ENDBRANCH  51  65
BRANCH  52  77
ATOM     77  C   UNL A   1      43.376  23.376  26.891  1.00  0.00     0.058 A 
ATOM     78  C   UNL A   1      43.172  22.865  25.600  1.00  0.00     0.135 A 
ATOM     79  C   UNL A   1      43.160  22.513  27.976  1.00  0.00     0.135 A 
ATOM     80  F   UNL A   1      43.360  23.651  24.529  1.00  0.00    -0.206 F 
ATOM     81  C   UNL A   1      42.753  21.554  25.392  1.00  0.00     0.059 A 
ATOM     82  C   UNL A   1      42.767  21.192  27.793  1.00  0.00     0.059 A 
ATOM     83  F   UNL A   1      43.360  22.948  29.230  1.00  0.00    -0.206 F 
ATOM     84  C   UNL A   1      42.555  20.724  26.497  1.00  0.00     0.060 A 
BRANCH  84  85
ATOM     85  S   UNL A   1      42.061  19.010  26.216  1.00  0.00     0.124 S 
ATOM     86  O   UNL A   1      40.682  19.171  25.772  1.00  0.00    -0.237 OA
ATOM     87  O   UNL A   1      43.015  18.578  25.199  1.00  0.00    -0.237 OA
ATOM     88  O   UNL A   1      42.234  18.392  27.527  1.00  0.00    -0.744 OA
ENDBRANCH  84  85
ENDBRANCH  52  77
BRANCH  64  89
ATOM     89  C   UNL A   1      49.545  26.591  26.384  1.00  0.00     0.058 A 
ATOM     90  C   UNL A   1      50.101  26.724  25.102  1.00  0.00     0.135 A 
ATOM     91  C   UNL A   1      50.335  25.998  27.383  1.00  0.00     0.135 A 
ATOM     92  F   UNL A   1      49.387  27.278  24.109  1.00  0.00    -0.206 F 
ATOM     93  C   UNL A   1      51.379  26.258  24.813  1.00  0.00     0.059 A 
ATOM     94  C   UNL A   1      51.627  25.552  27.123  1.00  0.00     0.059 A 
ATOM     95  F   UNL A   1      49.856  25.856  28.629  1.00  0.00    -0.206 F 
ATOM     96  C   UNL A   1      52.134  25.671  25.831  1.00  0.00     0.060 A 
BRANCH  96  97
ATOM     97  S   UNL A   1      53.796  25.082  25.446  1.00  0.00     0.124 S 
ATOM     98  O   UNL A   1      54.569  25.640  26.551  1.00  0.00    -0.237 OA
ATOM     99  O   UNL A   1      53.627  23.632  25.459  1.00  0.00    -0.237 OA
ATOM    100  O   UNL A   1      54.066  25.664  24.135  1.00  0.00    -0.744 OA
ENDBRANCH  96  97
ENDBRANCH  64  89
ENDBRANCH  38  39
ENDBRANCH  30  33
ENDBRANCH  28  29
ENDBRANCH   1  28
TORSDOF 16
ENDMDL
