MODEL 1
REMARK VINA RESULT:     -10.6      0.000      0.000
REMARK SMILES Nc1nc(N2CC(C(=O)NCCCNC(=O)c3ccc(-c4c5nc(c(-c6c(F)cc(S(=O)(=O)[O-])cc6F)c6ccc([nH]6)c(-c6c(F)cc(S(=O)(=O)[O-])cc6F)c6nc(c(-c7c(F)cc(S(=O)(=O)[O-])cc7F)c7ccc4[nH]7)C=C6)C=C5)cc3)C2)ccc1[N+](=O)[O-]
REMARK SMILES IDX 12 1 11 2 10 3 8 4 9 5 7 7 5 8 6 9 83 10 4 11 2 12 3 13
REMARK SMILES IDX 86 14 85 15 84 16 1 17 87 20 88 21 89 22 13 23 14 24 15 25
REMARK SMILES IDX 16 27 17 28 18 29 82 30 19 31 81 32 20 33 21 34 22 35 75 36
REMARK SMILES IDX 23 37 80 38 74 39 76 40 24 41 79 42 73 43 72 44 25 46 59 47
REMARK SMILES IDX 38 48 58 49 39 50 42 51 57 52 77 53 40 54 41 55 56 57 78 58
REMARK SMILES IDX 43 59 26 60 27 61 36 62 28 63 29 64 35 65 37 66 30 67 31 68
REMARK SMILES IDX 32 69 33 70 34 71 60 72 61 73 70 74 62 75 63 76 69 77 71 78
REMARK SMILES IDX 64 79 65 80 66 81 67 82 68 83 44 84 45 85 54 86 46 87 47 88
REMARK SMILES IDX 53 89 55 90 48 91 49 92 50 93 51 94 52 95
REMARK H PARENT 10 6 1 18 1 19 14 26 76 45 42 56
REMARK Flexibility Score: inf
ROOT
ATOM      1  C   UNL A   1      33.349  33.609  28.051  1.00  0.00     0.042 C 
ENDROOT
BRANCH   1   2
ATOM      2  C   UNL A   1      33.754  34.922  28.713  1.00  0.00     0.117 C 
BRANCH   2   3
ATOM      3  N   UNL A   1      33.081  35.119  29.984  1.00  0.00    -0.356 N 
ATOM      4  C   UNL A   1      33.455  34.805  31.267  1.00  0.00     0.226 C 
ATOM      5  O   UNL A   1      32.637  35.107  32.149  1.00  0.00    -0.275 OA
ATOM      6  H   UNL A   1      32.202  35.555  29.915  1.00  0.00     0.163 HD
BRANCH   4   7
ATOM      7  C   UNL A   1      34.790  34.147  31.609  1.00  0.00     0.117 C 
ATOM      8  N   UNL A   1      35.543  32.907  33.088  1.00  0.00    -0.355 N 
ATOM      9  C   UNL A   1      34.865  32.645  31.854  1.00  0.00     0.133 C 
ATOM     10  C   UNL A   1      35.474  34.335  32.958  1.00  0.00     0.133 C 
BRANCH   8  11
ATOM     11  C   UNL A   1      36.648  32.202  33.593  1.00  0.00     0.131 A 
ATOM     12  C   UNL A   1      38.084  31.716  35.371  1.00  0.00     0.204 A 
ATOM     13  N   UNL A   1      37.027  32.396  34.877  1.00  0.00    -0.207 NA
ATOM     14  C   UNL A   1      38.830  30.857  34.568  1.00  0.00     0.311 A 
ATOM     15  C   UNL A   1      38.453  30.663  33.236  1.00  0.00     0.093 A 
ATOM     16  C   UNL A   1      37.336  31.336  32.750  1.00  0.00     0.054 A 
BRANCH  12  17
ATOM     17  N   UNL A   1      38.374  32.026  36.684  1.00  0.00    -0.378 N 
ATOM     18  H   UNL A   1      39.227  31.734  37.082  1.00  0.00     0.158 HD
ATOM     19  H   UNL A   1      37.730  32.539  37.223  1.00  0.00     0.158 HD
ENDBRANCH  12  17
BRANCH  14  20
ATOM     20  N   UNL A   1      39.986  30.139  35.091  1.00  0.00     0.066 N 
ATOM     21  O   UNL A   1      41.011  30.125  34.394  1.00  0.00    -0.258 OA
ATOM     22  O   UNL A   1      39.878  29.554  36.181  1.00  0.00    -0.258 OA
ENDBRANCH  14  20
ENDBRANCH   8  11
ENDBRANCH   4   7
ENDBRANCH   2   3
ENDBRANCH   1   2
BRANCH   1  23
ATOM     23  C   UNL A   1      34.343  32.471  28.260  1.00  0.00     0.118 C 
BRANCH  23  24
ATOM     24  N   UNL A   1      33.758  31.160  28.014  1.00  0.00    -0.352 N 
ATOM     25  C   UNL A   1      34.353  29.930  27.891  1.00  0.00     0.251 C 
ATOM     26  H   UNL A   1      32.778  31.155  27.921  1.00  0.00     0.163 HD
ATOM     27  O   UNL A   1      33.681  28.976  27.494  1.00  0.00    -0.269 OA
BRANCH  25  28
ATOM     28  C   UNL A   1      35.786  29.741  28.208  1.00  0.00     0.039 A 
ATOM     29  C   UNL A   1      36.145  29.353  29.502  1.00  0.00     0.014 A 
ATOM     30  C   UNL A   1      36.778  29.970  27.252  1.00  0.00     0.014 A 
ATOM     31  C   UNL A   1      37.490  29.131  29.815  1.00  0.00     0.010 A 
ATOM     32  C   UNL A   1      38.107  29.669  27.540  1.00  0.00     0.010 A 
ATOM     33  C   UNL A   1      38.480  29.249  28.826  1.00  0.00    -0.014 A 
BRANCH  33  34
ATOM     34  C   UNL A   1      39.903  28.933  29.116  1.00  0.00     0.031 A 
ATOM     35  C   UNL A   1      40.810  29.977  29.712  1.00  0.00     0.074 A 
ATOM     36  C   UNL A   1      40.397  27.723  28.783  1.00  0.00     0.049 A 
ATOM     37  N   UNL A   1      42.090  29.909  29.970  1.00  0.00    -0.248 NA
ATOM     38  C   UNL A   1      40.204  31.279  30.034  1.00  0.00     0.031 C 
ATOM     39  C   UNL A   1      39.634  26.642  28.153  1.00  0.00     0.029 A 
ATOM     40  N   UNL A   1      41.660  27.201  28.914  1.00  0.00    -0.354 N 
ATOM     41  C   UNL A   1      42.445  31.157  30.469  1.00  0.00     0.074 A 
ATOM     42  C   UNL A   1      41.257  31.981  30.427  1.00  0.00     0.031 C 
ATOM     43  C   UNL A   1      40.438  25.581  27.975  1.00  0.00     0.029 A 
ATOM     44  C   UNL A   1      41.781  25.918  28.435  1.00  0.00     0.049 A 
ATOM     45  H   UNL A   1      42.410  27.699  29.315  1.00  0.00     0.167 HD
ATOM     46  C   UNL A   1      43.647  31.573  30.939  1.00  0.00     0.037 A 
ATOM     47  C   UNL A   1      42.854  25.105  28.363  1.00  0.00     0.037 A 
ATOM     48  C   UNL A   1      44.820  30.740  31.001  1.00  0.00     0.049 A 
ATOM     49  C   UNL A   1      44.177  25.588  28.894  1.00  0.00     0.074 A 
ATOM     50  C   UNL A   1      46.066  31.047  31.519  1.00  0.00     0.029 A 
ATOM     51  N   UNL A   1      44.896  29.437  30.527  1.00  0.00    -0.354 N 
ATOM     52  N   UNL A   1      44.478  26.750  29.424  1.00  0.00    -0.248 NA
ATOM     53  C   UNL A   1      45.305  24.648  28.824  1.00  0.00     0.031 C 
ATOM     54  C   UNL A   1      46.909  29.951  31.311  1.00  0.00     0.029 A 
ATOM     55  C   UNL A   1      46.174  28.938  30.718  1.00  0.00     0.049 A 
ATOM     56  H   UNL A   1      44.151  28.942  30.116  1.00  0.00     0.167 HD
ATOM     57  C   UNL A   1      45.820  26.671  29.777  1.00  0.00     0.074 A 
ATOM     58  C   UNL A   1      46.270  25.343  29.411  1.00  0.00     0.031 C 
ATOM     59  C   UNL A   1      46.608  27.612  30.354  1.00  0.00     0.037 A 
BRANCH  46  60
ATOM     60  C   UNL A   1      43.756  32.993  31.427  1.00  0.00     0.058 A 
ATOM     61  C   UNL A   1      44.055  34.054  30.557  1.00  0.00     0.135 A 
ATOM     62  C   UNL A   1      43.516  33.304  32.776  1.00  0.00     0.135 A 
ATOM     63  F   UNL A   1      44.307  33.815  29.260  1.00  0.00    -0.206 F 
ATOM     64  C   UNL A   1      44.141  35.366  31.010  1.00  0.00     0.059 A 
ATOM     65  C   UNL A   1      43.566  34.613  33.246  1.00  0.00     0.059 A 
ATOM     66  F   UNL A   1      43.225  32.331  33.653  1.00  0.00    -0.206 F 
ATOM     67  C   UNL A   1      43.894  35.637  32.357  1.00  0.00     0.060 A 
BRANCH  67  68
ATOM     68  S   UNL A   1      44.001  37.346  32.927  1.00  0.00     0.124 S 
ATOM     69  O   UNL A   1      45.321  37.361  33.551  1.00  0.00    -0.237 OA
ATOM     70  O   UNL A   1      43.881  38.098  31.682  1.00  0.00    -0.237 OA
ATOM     71  O   UNL A   1      42.873  37.472  33.844  1.00  0.00    -0.744 OA
ENDBRANCH  67  68
ENDBRANCH  46  60
BRANCH  47  72
ATOM     72  C   UNL A   1      42.715  23.742  27.780  1.00  0.00     0.058 A 
ATOM     73  C   UNL A   1      42.508  22.623  28.599  1.00  0.00     0.135 A 
ATOM     74  C   UNL A   1      42.767  23.536  26.393  1.00  0.00     0.135 A 
ATOM     75  F   UNL A   1      42.456  22.767  29.932  1.00  0.00    -0.206 F 
ATOM     76  C   UNL A   1      42.374  21.345  28.067  1.00  0.00     0.059 A 
ATOM     77  C   UNL A   1      42.608  22.271  25.835  1.00  0.00     0.059 A 
ATOM     78  F   UNL A   1      42.946  24.576  25.564  1.00  0.00    -0.206 F 
ATOM     79  C   UNL A   1      42.421  21.180  26.682  1.00  0.00     0.060 A 
BRANCH  79  80
ATOM     80  S   UNL A   1      42.189  19.524  25.998  1.00  0.00     0.124 S 
ATOM     81  O   UNL A   1      42.668  18.685  27.090  1.00  0.00    -0.237 OA
ATOM     82  O   UNL A   1      40.751  19.495  25.750  1.00  0.00    -0.237 OA
ATOM     83  O   UNL A   1      43.023  19.538  24.799  1.00  0.00    -0.744 OA
ENDBRANCH  79  80
ENDBRANCH  47  72
BRANCH  59  84
ATOM     84  C   UNL A   1      48.031  27.231  30.663  1.00  0.00     0.058 A 
ATOM     85  C   UNL A   1      48.387  26.612  31.871  1.00  0.00     0.135 A 
ATOM     86  C   UNL A   1      49.045  27.446  29.713  1.00  0.00     0.135 A 
ATOM     87  F   UNL A   1      47.459  26.389  32.815  1.00  0.00    -0.206 F 
ATOM     88  C   UNL A   1      49.701  26.242  32.138  1.00  0.00     0.059 A 
ATOM     89  C   UNL A   1      50.359  27.056  29.947  1.00  0.00     0.059 A 
ATOM     90  F   UNL A   1      48.757  28.025  28.537  1.00  0.00    -0.206 F 
ATOM     91  C   UNL A   1      50.680  26.466  31.168  1.00  0.00     0.060 A 
BRANCH  91  92
ATOM     92  S   UNL A   1      52.376  25.952  31.515  1.00  0.00     0.124 S 
ATOM     93  O   UNL A   1      52.176  24.591  32.002  1.00  0.00    -0.237 OA
ATOM     94  O   UNL A   1      53.013  26.070  30.207  1.00  0.00    -0.237 OA
ATOM     95  O   UNL A   1      52.826  26.916  32.515  1.00  0.00    -0.744 OA
ENDBRANCH  91  92
ENDBRANCH  59  84
ENDBRANCH  33  34
ENDBRANCH  25  28
ENDBRANCH  23  24
ENDBRANCH   1  23
TORSDOF 16
ENDMDL
MODEL 2
REMARK VINA RESULT:     -10.5      3.328     11.227
REMARK SMILES Nc1nc(N2CC(C(=O)NCCCNC(=O)c3ccc(-c4c5nc(c(-c6c(F)cc(S(=O)(=O)[O-])cc6F)c6ccc([nH]6)c(-c6c(F)cc(S(=O)(=O)[O-])cc6F)c6nc(c(-c7c(F)cc(S(=O)(=O)[O-])cc7F)c7ccc4[nH]7)C=C6)C=C5)cc3)C2)ccc1[N+](=O)[O-]
REMARK SMILES IDX 12 1 11 2 10 3 8 4 9 5 7 7 5 8 6 9 83 10 4 11 2 12 3 13
REMARK SMILES IDX 86 14 85 15 84 16 1 17 87 20 88 21 89 22 13 23 14 24 15 25
REMARK SMILES IDX 16 27 17 28 18 29 82 30 19 31 81 32 20 33 21 34 22 35 75 36
REMARK SMILES IDX 23 37 80 38 74 39 76 40 24 41 79 42 73 43 72 44 25 46 59 47
REMARK SMILES IDX 38 48 58 49 39 50 42 51 57 52 77 53 40 54 41 55 56 57 78 58
REMARK SMILES IDX 43 59 26 60 27 61 36 62 28 63 29 64 35 65 37 66 30 67 31 68
REMARK SMILES IDX 32 69 33 70 34 71 60 72 61 73 70 74 62 75 63 76 69 77 71 78
REMARK SMILES IDX 64 79 65 80 66 81 67 82 68 83 44 84 45 85 54 86 46 87 47 88
REMARK SMILES IDX 53 89 55 90 48 91 49 92 50 93 51 94 52 95
REMARK H PARENT 10 6 1 18 1 19 14 26 76 45 42 56
REMARK Flexibility Score: inf
ROOT
ATOM      1  C   UNL A   1      40.632  20.123  26.163  1.00  0.00     0.042 C 
ENDROOT
BRANCH   1   2
ATOM      2  C   UNL A   1      41.852  19.566  26.888  1.00  0.00     0.117 C 
BRANCH   2   3
ATOM      3  N   UNL A   1      42.985  19.402  25.997  1.00  0.00    -0.356 N 
ATOM      4  C   UNL A   1      43.780  20.322  25.359  1.00  0.00     0.226 C 
ATOM      5  O   UNL A   1      44.679  19.848  24.650  1.00  0.00    -0.275 OA
ATOM      6  H   UNL A   1      43.229  18.465  25.819  1.00  0.00     0.163 HD
BRANCH   4   7
ATOM      7  C   UNL A   1      43.597  21.830  25.513  1.00  0.00     0.117 C 
ATOM      8  N   UNL A   1      44.780  23.471  25.957  1.00  0.00    -0.355 N 
ATOM      9  C   UNL A   1      44.480  22.794  24.732  1.00  0.00     0.133 C 
ATOM     10  C   UNL A   1      44.007  22.581  26.775  1.00  0.00     0.133 C 
BRANCH   8  11
ATOM     11  C   UNL A   1      44.856  24.862  26.140  1.00  0.00     0.131 A 
ATOM     12  C   UNL A   1      44.133  27.010  25.570  1.00  0.00     0.204 A 
ATOM     13  N   UNL A   1      44.072  25.672  25.392  1.00  0.00    -0.207 NA
ATOM     14  C   UNL A   1      45.030  27.579  26.471  1.00  0.00     0.311 A 
ATOM     15  C   UNL A   1      45.854  26.748  27.236  1.00  0.00     0.093 A 
ATOM     16  C   UNL A   1      45.751  25.369  27.076  1.00  0.00     0.054 A 
BRANCH  12  17
ATOM     17  N   UNL A   1      43.300  27.717  24.727  1.00  0.00    -0.378 N 
ATOM     18  H   UNL A   1      43.601  27.948  23.818  1.00  0.00     0.158 HD
ATOM     19  H   UNL A   1      42.407  27.991  25.035  1.00  0.00     0.158 HD
ENDBRANCH  12  17
BRANCH  14  20
ATOM     20  N   UNL A   1      45.117  29.023  26.648  1.00  0.00     0.066 N 
ATOM     21  O   UNL A   1      44.724  29.490  27.727  1.00  0.00    -0.258 OA
ATOM     22  O   UNL A   1      45.545  29.711  25.707  1.00  0.00    -0.258 OA
ENDBRANCH  14  20
ENDBRANCH   8  11
ENDBRANCH   4   7
ENDBRANCH   2   3
ENDBRANCH   1   2
BRANCH   1  23
ATOM     23  C   UNL A   1      40.230  21.528  26.603  1.00  0.00     0.118 C 
BRANCH  23  24
ATOM     24  N   UNL A   1      39.140  22.077  25.809  1.00  0.00    -0.352 N 
ATOM     25  C   UNL A   1      38.541  23.311  25.854  1.00  0.00     0.251 C 
ATOM     26  H   UNL A   1      38.774  21.466  25.129  1.00  0.00     0.163 HD
ATOM     27  O   UNL A   1      37.505  23.497  25.213  1.00  0.00    -0.269 OA
BRANCH  25  28
ATOM     28  C   UNL A   1      39.109  24.404  26.673  1.00  0.00     0.039 A 
ATOM     29  C   UNL A   1      39.972  25.322  26.068  1.00  0.00     0.014 A 
ATOM     30  C   UNL A   1      38.820  24.516  28.035  1.00  0.00     0.014 A 
ATOM     31  C   UNL A   1      40.490  26.386  26.812  1.00  0.00     0.010 A 
ATOM     32  C   UNL A   1      39.270  25.622  28.754  1.00  0.00     0.010 A 
ATOM     33  C   UNL A   1      40.112  26.569  28.152  1.00  0.00    -0.014 A 
BRANCH  33  34
ATOM     34  C   UNL A   1      40.583  27.742  28.935  1.00  0.00     0.031 A 
ATOM     35  C   UNL A   1      41.939  27.727  29.589  1.00  0.00     0.074 A 
ATOM     36  C   UNL A   1      39.762  28.798  29.110  1.00  0.00     0.049 A 
ATOM     37  N   UNL A   1      42.492  28.625  30.364  1.00  0.00    -0.248 NA
ATOM     38  C   UNL A   1      42.772  26.534  29.367  1.00  0.00     0.031 C 
ATOM     39  C   UNL A   1      38.405  28.912  28.570  1.00  0.00     0.029 A 
ATOM     40  N   UNL A   1      39.941  29.970  29.801  1.00  0.00    -0.354 N 
ATOM     41  C   UNL A   1      43.726  28.101  30.732  1.00  0.00     0.074 A 
ATOM     42  C   UNL A   1      43.819  26.785  30.141  1.00  0.00     0.031 C 
ATOM     43  C   UNL A   1      37.885  30.096  28.932  1.00  0.00     0.029 A 
ATOM     44  C   UNL A   1      38.850  30.807  29.763  1.00  0.00     0.049 A 
ATOM     45  H   UNL A   1      40.773  30.191  30.280  1.00  0.00     0.167 HD
ATOM     46  C   UNL A   1      44.702  28.674  31.479  1.00  0.00     0.037 A 
ATOM     47  C   UNL A   1      38.644  32.007  30.341  1.00  0.00     0.037 A 
ATOM     48  C   UNL A   1      44.613  29.995  32.045  1.00  0.00     0.049 A 
ATOM     49  C   UNL A   1      39.744  32.624  31.162  1.00  0.00     0.074 A 
ATOM     50  C   UNL A   1      45.572  30.690  32.761  1.00  0.00     0.029 A 
ATOM     51  N   UNL A   1      43.501  30.822  31.964  1.00  0.00    -0.354 N 
ATOM     52  N   UNL A   1      40.931  32.143  31.444  1.00  0.00    -0.248 NA
ATOM     53  C   UNL A   1      39.480  33.950  31.739  1.00  0.00     0.031 C 
ATOM     54  C   UNL A   1      45.022  31.913  33.158  1.00  0.00     0.029 A 
ATOM     55  C   UNL A   1      43.742  32.008  32.639  1.00  0.00     0.049 A 
ATOM     56  H   UNL A   1      42.664  30.597  31.496  1.00  0.00     0.167 HD
ATOM     57  C   UNL A   1      41.566  33.118  32.206  1.00  0.00     0.074 A 
ATOM     58  C   UNL A   1      40.636  34.221  32.330  1.00  0.00     0.031 C 
ATOM     59  C   UNL A   1      42.808  33.101  32.751  1.00  0.00     0.037 A 
BRANCH  46  60
ATOM     60  C   UNL A   1      45.955  27.876  31.726  1.00  0.00     0.058 A 
ATOM     61  C   UNL A   1      46.069  26.996  32.814  1.00  0.00     0.135 A 
ATOM     62  C   UNL A   1      47.041  27.962  30.839  1.00  0.00     0.135 A 
ATOM     63  F   UNL A   1      45.069  26.884  33.702  1.00  0.00    -0.206 F 
ATOM     64  C   UNL A   1      47.224  26.252  33.031  1.00  0.00     0.059 A 
ATOM     65  C   UNL A   1      48.194  27.203  31.018  1.00  0.00     0.059 A 
ATOM     66  F   UNL A   1      46.988  28.786  29.782  1.00  0.00    -0.206 F 
ATOM     67  C   UNL A   1      48.282  26.361  32.126  1.00  0.00     0.060 A 
BRANCH  67  68
ATOM     68  S   UNL A   1      49.769  25.381  32.418  1.00  0.00     0.124 S 
ATOM     69  O   UNL A   1      49.275  24.375  33.353  1.00  0.00    -0.237 OA
ATOM     70  O   UNL A   1      50.092  24.897  31.079  1.00  0.00    -0.237 OA
ATOM     71  O   UNL A   1      50.710  26.347  32.977  1.00  0.00    -0.744 OA
ENDBRANCH  67  68
ENDBRANCH  46  60
BRANCH  47  72
ATOM     72  C   UNL A   1      37.348  32.712  30.145  1.00  0.00     0.058 A 
ATOM     73  C   UNL A   1      36.264  32.485  31.007  1.00  0.00     0.135 A 
ATOM     74  C   UNL A   1      37.172  33.637  29.105  1.00  0.00     0.135 A 
ATOM     75  F   UNL A   1      36.380  31.606  32.013  1.00  0.00    -0.206 F 
ATOM     76  C   UNL A   1      35.049  33.139  30.836  1.00  0.00     0.059 A 
ATOM     77  C   UNL A   1      35.975  34.323  28.930  1.00  0.00     0.059 A 
ATOM     78  F   UNL A   1      38.183  33.902  28.263  1.00  0.00    -0.206 F 
ATOM     79  C   UNL A   1      34.915  34.060  29.796  1.00  0.00     0.060 A 
BRANCH  79  80
ATOM     80  S   UNL A   1      33.350  34.944  29.618  1.00  0.00     0.124 S 
ATOM     81  O   UNL A   1      32.871  34.976  30.995  1.00  0.00    -0.237 OA
ATOM     82  O   UNL A   1      33.783  36.221  29.060  1.00  0.00    -0.237 OA
ATOM     83  O   UNL A   1      32.589  34.096  28.703  1.00  0.00    -0.744 OA
ENDBRANCH  79  80
ENDBRANCH  47  72
BRANCH  59  84
ATOM     84  C   UNL A   1      43.253  34.327  33.501  1.00  0.00     0.058 A 
ATOM     85  C   UNL A   1      43.844  35.421  32.850  1.00  0.00     0.135 A 
ATOM     86  C   UNL A   1      43.039  34.428  34.887  1.00  0.00     0.135 A 
ATOM     87  F   UNL A   1      44.077  35.376  31.528  1.00  0.00    -0.206 F 
ATOM     88  C   UNL A   1      44.230  36.561  33.548  1.00  0.00     0.059 A 
ATOM     89  C   UNL A   1      43.389  35.569  35.600  1.00  0.00     0.059 A 
ATOM     90  F   UNL A   1      42.468  33.415  35.557  1.00  0.00    -0.206 F 
ATOM     91  C   UNL A   1      43.996  36.626  34.924  1.00  0.00     0.060 A 
BRANCH  91  92
ATOM     92  S   UNL A   1      44.474  38.124  35.812  1.00  0.00     0.124 S 
ATOM     93  O   UNL A   1      45.921  37.960  35.905  1.00  0.00    -0.237 OA
ATOM     94  O   UNL A   1      44.011  39.179  34.917  1.00  0.00    -0.237 OA
ATOM     95  O   UNL A   1      43.748  38.016  37.075  1.00  0.00    -0.744 OA
ENDBRANCH  91  92
ENDBRANCH  59  84
ENDBRANCH  33  34
ENDBRANCH  25  28
ENDBRANCH  23  24
ENDBRANCH   1  23
TORSDOF 16
ENDMDL
MODEL 3
REMARK VINA RESULT:     -10.4      4.829     12.416
REMARK SMILES Nc1nc(N2CC(C(=O)NCCCNC(=O)c3ccc(-c4c5nc(c(-c6c(F)cc(S(=O)(=O)[O-])cc6F)c6ccc([nH]6)c(-c6c(F)cc(S(=O)(=O)[O-])cc6F)c6nc(c(-c7c(F)cc(S(=O)(=O)[O-])cc7F)c7ccc4[nH]7)C=C6)C=C5)cc3)C2)ccc1[N+](=O)[O-]
REMARK SMILES IDX 12 1 11 2 10 3 8 4 9 5 7 7 5 8 6 9 83 10 4 11 2 12 3 13
REMARK SMILES IDX 86 14 85 15 84 16 1 17 87 20 88 21 89 22 13 23 14 24 15 25
REMARK SMILES IDX 16 27 17 28 18 29 82 30 19 31 81 32 20 33 21 34 22 35 75 36
REMARK SMILES IDX 23 37 80 38 74 39 76 40 24 41 79 42 73 43 72 44 25 46 59 47
REMARK SMILES IDX 38 48 58 49 39 50 42 51 57 52 77 53 40 54 41 55 56 57 78 58
REMARK SMILES IDX 43 59 26 60 27 61 36 62 28 63 29 64 35 65 37 66 30 67 31 68
REMARK SMILES IDX 32 69 33 70 34 71 60 72 61 73 70 74 62 75 63 76 69 77 71 78
REMARK SMILES IDX 64 79 65 80 66 81 67 82 68 83 44 84 45 85 54 86 46 87 47 88
REMARK SMILES IDX 53 89 55 90 48 91 49 92 50 93 51 94 52 95
REMARK H PARENT 10 6 1 18 1 19 14 26 76 45 42 56
REMARK Flexibility Score: inf
ROOT
ATOM      1  C   UNL A   1      40.191  21.494  27.049  1.00  0.00     0.042 C 
ENDROOT
BRANCH   1   2
ATOM      2  C   UNL A   1      41.298  20.632  27.646  1.00  0.00     0.117 C 
BRANCH   2   3
ATOM      3  N   UNL A   1      42.063  19.946  26.621  1.00  0.00    -0.356 N 
ATOM      4  C   UNL A   1      42.936  20.417  25.671  1.00  0.00     0.226 C 
ATOM      5  O   UNL A   1      43.430  19.555  24.929  1.00  0.00    -0.275 OA
ATOM      6  H   UNL A   1      41.935  18.970  26.604  1.00  0.00     0.163 HD
BRANCH   4   7
ATOM      7  C   UNL A   1      43.302  21.892  25.534  1.00  0.00     0.117 C 
ATOM      8  N   UNL A   1      45.018  23.017  25.248  1.00  0.00    -0.355 N 
ATOM      9  C   UNL A   1      44.117  22.374  24.341  1.00  0.00     0.133 C 
ATOM     10  C   UNL A   1      44.336  22.567  26.428  1.00  0.00     0.133 C 
BRANCH   8  11
ATOM     11  C   UNL A   1      45.585  24.293  25.091  1.00  0.00     0.131 A 
ATOM     12  C   UNL A   1      45.327  26.613  24.998  1.00  0.00     0.204 A 
ATOM     13  N   UNL A   1      44.786  25.384  25.140  1.00  0.00    -0.207 NA
ATOM     14  C   UNL A   1      46.686  26.781  24.745  1.00  0.00     0.311 A 
ATOM     15  C   UNL A   1      47.515  25.656  24.678  1.00  0.00     0.093 A 
ATOM     16  C   UNL A   1      46.954  24.397  24.869  1.00  0.00     0.054 A 
BRANCH  12  17
ATOM     17  N   UNL A   1      44.398  27.633  25.045  1.00  0.00    -0.378 N 
ATOM     18  H   UNL A   1      43.525  27.484  25.478  1.00  0.00     0.158 HD
ATOM     19  H   UNL A   1      44.606  28.507  24.646  1.00  0.00     0.158 HD
ENDBRANCH  12  17
BRANCH  14  20
ATOM     20  N   UNL A   1      47.270  28.104  24.567  1.00  0.00     0.066 N 
ATOM     21  O   UNL A   1      46.766  28.838  23.703  1.00  0.00    -0.258 OA
ATOM     22  O   UNL A   1      48.253  28.417  25.258  1.00  0.00    -0.258 OA
ENDBRANCH  14  20
ENDBRANCH   8  11
ENDBRANCH   4   7
ENDBRANCH   2   3
ENDBRANCH   1   2
BRANCH   1  23
ATOM     23  C   UNL A   1      40.307  22.979  27.381  1.00  0.00     0.118 C 
BRANCH  23  24
ATOM     24  N   UNL A   1      40.760  23.776  26.250  1.00  0.00    -0.352 N 
ATOM     25  C   UNL A   1      40.944  25.130  26.134  1.00  0.00     0.251 C 
ATOM     26  H   UNL A   1      40.969  23.260  25.438  1.00  0.00     0.163 HD
ATOM     27  O   UNL A   1      41.155  25.613  25.019  1.00  0.00    -0.269 OA
BRANCH  25  28
ATOM     28  C   UNL A   1      40.872  26.014  27.318  1.00  0.00     0.039 A 
ATOM     29  C   UNL A   1      41.905  26.929  27.540  1.00  0.00     0.014 A 
ATOM     30  C   UNL A   1      39.813  25.929  28.225  1.00  0.00     0.014 A 
ATOM     31  C   UNL A   1      41.840  27.801  28.631  1.00  0.00     0.010 A 
ATOM     32  C   UNL A   1      39.708  26.853  29.263  1.00  0.00     0.010 A 
ATOM     33  C   UNL A   1      40.722  27.798  29.480  1.00  0.00    -0.014 A 
BRANCH  33  34
ATOM     34  C   UNL A   1      40.594  28.775  30.593  1.00  0.00     0.031 A 
ATOM     35  C   UNL A   1      41.436  28.633  31.833  1.00  0.00     0.074 A 
ATOM     36  C   UNL A   1      39.672  29.757  30.514  1.00  0.00     0.049 A 
ATOM     37  N   UNL A   1      41.417  29.344  32.931  1.00  0.00    -0.248 NA
ATOM     38  C   UNL A   1      42.409  27.528  31.854  1.00  0.00     0.031 C 
ATOM     39  C   UNL A   1      38.760  29.971  29.388  1.00  0.00     0.029 A 
ATOM     40  N   UNL A   1      39.339  30.750  31.401  1.00  0.00    -0.354 N 
ATOM     41  C   UNL A   1      42.359  28.767  33.776  1.00  0.00     0.074 A 
ATOM     42  C   UNL A   1      42.894  27.615  33.085  1.00  0.00     0.031 C 
ATOM     43  C   UNL A   1      37.988  31.040  29.643  1.00  0.00     0.029 A 
ATOM     44  C   UNL A   1      38.318  31.561  30.966  1.00  0.00     0.049 A 
ATOM     45  H   UNL A   1      39.789  30.869  32.269  1.00  0.00     0.167 HD
ATOM     46  C   UNL A   1      42.757  29.172  35.006  1.00  0.00     0.037 A 
ATOM     47  C   UNL A   1      37.707  32.603  31.565  1.00  0.00     0.037 A 
ATOM     48  C   UNL A   1      42.237  30.335  35.678  1.00  0.00     0.049 A 
ATOM     49  C   UNL A   1      38.168  33.036  32.930  1.00  0.00     0.074 A 
ATOM     50  C   UNL A   1      42.621  30.867  36.898  1.00  0.00     0.029 A 
ATOM     51  N   UNL A   1      41.220  31.146  35.193  1.00  0.00    -0.354 N 
ATOM     52  N   UNL A   1      39.108  32.518  33.686  1.00  0.00    -0.248 NA
ATOM     53  C   UNL A   1      37.493  34.199  33.523  1.00  0.00     0.031 C 
ATOM     54  C   UNL A   1      41.800  31.965  37.174  1.00  0.00     0.029 A 
ATOM     55  C   UNL A   1      40.946  32.157  36.101  1.00  0.00     0.049 A 
ATOM     56  H   UNL A   1      40.760  31.020  34.332  1.00  0.00     0.167 HD
ATOM     57  C   UNL A   1      39.156  33.309  34.829  1.00  0.00     0.074 A 
ATOM     58  C   UNL A   1      38.159  34.347  34.660  1.00  0.00     0.031 C 
ATOM     59  C   UNL A   1      39.954  33.188  35.918  1.00  0.00     0.037 A 
BRANCH  46  60
ATOM     60  C   UNL A   1      43.808  28.355  35.708  1.00  0.00     0.058 A 
ATOM     61  C   UNL A   1      43.472  27.317  36.591  1.00  0.00     0.135 A 
ATOM     62  C   UNL A   1      45.172  28.586  35.462  1.00  0.00     0.135 A 
ATOM     63  F   UNL A   1      42.185  27.061  36.875  1.00  0.00    -0.206 F 
ATOM     64  C   UNL A   1      44.447  26.556  37.227  1.00  0.00     0.059 A 
ATOM     65  C   UNL A   1      46.165  27.816  36.063  1.00  0.00     0.059 A 
ATOM     66  F   UNL A   1      45.553  29.564  34.626  1.00  0.00    -0.206 F 
ATOM     67  C   UNL A   1      45.792  26.812  36.955  1.00  0.00     0.060 A 
BRANCH  67  68
ATOM     68  S   UNL A   1      47.044  25.809  37.782  1.00  0.00     0.124 S 
ATOM     69  O   UNL A   1      48.276  26.427  37.300  1.00  0.00    -0.237 OA
ATOM     70  O   UNL A   1      46.737  26.026  39.192  1.00  0.00    -0.237 OA
ATOM     71  O   UNL A   1      46.784  24.461  37.286  1.00  0.00    -0.744 OA
ENDBRANCH  67  68
ENDBRANCH  46  60
BRANCH  47  72
ATOM     72  C   UNL A   1      36.604  33.317  30.867  1.00  0.00     0.058 A 
ATOM     73  C   UNL A   1      35.270  33.163  31.275  1.00  0.00     0.135 A 
ATOM     74  C   UNL A   1      36.862  34.180  29.792  1.00  0.00     0.135 A 
ATOM     75  F   UNL A   1      34.971  32.344  32.295  1.00  0.00    -0.206 F 
ATOM     76  C   UNL A   1      34.231  33.828  30.633  1.00  0.00     0.059 A 
ATOM     77  C   UNL A   1      35.842  34.877  29.151  1.00  0.00     0.059 A 
ATOM     78  F   UNL A   1      38.122  34.376  29.374  1.00  0.00    -0.206 F 
ATOM     79  C   UNL A   1      34.527  34.686  29.573  1.00  0.00     0.060 A 
BRANCH  79  80
ATOM     80  S   UNL A   1      33.176  35.586  28.783  1.00  0.00     0.124 S 
ATOM     81  O   UNL A   1      33.901  36.595  28.019  1.00  0.00    -0.237 OA
ATOM     82  O   UNL A   1      32.526  34.538  28.003  1.00  0.00    -0.237 OA
ATOM     83  O   UNL A   1      32.400  36.087  29.915  1.00  0.00    -0.744 OA
ENDBRANCH  79  80
ENDBRANCH  47  72
BRANCH  59  84
ATOM     84  C   UNL A   1      39.814  34.224  37.001  1.00  0.00     0.058 A 
ATOM     85  C   UNL A   1      40.489  35.452  36.943  1.00  0.00     0.135 A 
ATOM     86  C   UNL A   1      38.951  34.001  38.088  1.00  0.00     0.135 A 
ATOM     87  F   UNL A   1      41.330  35.715  35.929  1.00  0.00    -0.206 F 
ATOM     88  C   UNL A   1      40.334  36.414  37.936  1.00  0.00     0.059 A 
ATOM     89  C   UNL A   1      38.758  34.960  39.076  1.00  0.00     0.059 A 
ATOM     90  F   UNL A   1      38.273  32.847  38.187  1.00  0.00    -0.206 F 
ATOM     91  C   UNL A   1      39.464  36.159  38.998  1.00  0.00     0.060 A 
BRANCH  91  92
ATOM     92  S   UNL A   1      39.249  37.429  40.264  1.00  0.00     0.124 S 
ATOM     93  O   UNL A   1      38.149  38.211  39.710  1.00  0.00    -0.237 OA
ATOM     94  O   UNL A   1      38.931  36.638  41.449  1.00  0.00    -0.237 OA
ATOM     95  O   UNL A   1      40.544  38.102  40.295  1.00  0.00    -0.744 OA
ENDBRANCH  91  92
ENDBRANCH  59  84
ENDBRANCH  33  34
ENDBRANCH  25  28
ENDBRANCH  23  24
ENDBRANCH   1  23
TORSDOF 16
ENDMDL
