MODEL 1
REMARK VINA RESULT:     -13.2      0.000      0.000
REMARK SMILES Cc1n[nH]c2c1[C@@]1(C(=O)N([C@@H](C)C(=O)NCCCNC(=O)c3ccc(-c4c5nc(c(-c6c(F)cc(S(=O)(=O)[O-])cc6F)c6ccc([nH]6)c(-c6c(F)cc(S(=O)(=O)[O-])cc6F)c6nc(c(-c7c(F)cc(S(=O)(=O)[O-])cc7F)c7ccc4[nH]7)C=C6)C=C5)cc3)c3ccccc31)C(C#N)=C(N)O2
REMARK SMILES IDX 17 1 16 2 15 3 13 4 14 5 11 7 12 8 10 9 1 10 2 11 3 12 6 13
REMARK SMILES IDX 4 14 5 15 7 16 99 18 8 19 93 20 94 21 97 22 9 23 88 24 92 25
REMARK SMILES IDX 89 26 91 27 90 28 95 29 96 30 98 31 18 34 19 35 20 36 21 38
REMARK SMILES IDX 22 39 23 40 87 41 24 42 86 43 25 44 26 45 27 46 80 47 28 48
REMARK SMILES IDX 85 49 79 50 81 51 29 52 84 53 78 54 77 55 30 57 64 58 43 59
REMARK SMILES IDX 63 60 44 61 47 62 62 63 82 64 45 65 46 66 61 68 83 69 48 70
REMARK SMILES IDX 31 71 32 72 41 73 33 74 34 75 40 76 42 77 35 78 36 79 37 80
REMARK SMILES IDX 38 81 39 82 65 83 66 84 75 85 67 86 68 87 74 88 76 89 69 90
REMARK SMILES IDX 70 91 71 92 72 93 73 94 49 95 50 96 59 97 51 98 52 99 58 100
REMARK SMILES IDX 60 101 53 102 54 103 55 104 56 105 57 106
REMARK H PARENT 15 6 4 17 98 32 98 33 19 37 81 56 47 67
REMARK Flexibility Score: inf
ROOT
ATOM      1  C   UNL A   1      36.294  21.261  25.212  1.00  0.00     0.042 C 
ENDROOT
BRANCH   1   2
ATOM      2  C   UNL A   1      34.882  21.866  25.208  1.00  0.00     0.117 C 
BRANCH   2   3
ATOM      3  N   UNL A   1      34.580  22.573  23.972  1.00  0.00    -0.354 N 
ATOM      4  C   UNL A   1      34.504  23.888  23.637  1.00  0.00     0.242 C 
ATOM      5  O   UNL A   1      34.253  24.117  22.443  1.00  0.00    -0.273 OA
ATOM      6  H   UNL A   1      34.391  21.970  23.218  1.00  0.00     0.163 HD
BRANCH   4   7
ATOM      7  C   UNL A   1      34.699  25.086  24.602  1.00  0.00     0.176 C 
ATOM      8  C   UNL A   1      35.508  24.767  25.855  1.00  0.00     0.042 C 
BRANCH   7   9
ATOM      9  N   UNL A   1      33.488  25.867  24.844  1.00  0.00    -0.298 N 
ATOM     10  C   UNL A   1      31.286  26.314  21.787  1.00  0.00     0.069 C 
ATOM     11  C   UNL A   1      30.809  27.564  22.428  1.00  0.00     0.068 A 
ATOM     12  N   UNL A   1      30.093  28.429  21.702  1.00  0.00    -0.177 NA
ATOM     13  C   UNL A   1      31.066  28.081  23.722  1.00  0.00     0.063 A 
ATOM     14  N   UNL A   1      29.993  29.534  22.469  1.00  0.00    -0.246 N 
ATOM     15  C   UNL A   1      30.574  29.362  23.690  1.00  0.00     0.222 A 
ATOM     16  C   UNL A   1      31.911  27.649  24.860  1.00  0.00     0.149 C 
ATOM     17  H   UNL A   1      29.552  30.366  22.181  1.00  0.00     0.193 HD
ATOM     18  O   UNL A   1      30.728  30.317  24.601  1.00  0.00    -0.422 OA
ATOM     19  C   UNL A   1      33.242  27.125  24.292  1.00  0.00     0.248 C 
ATOM     20  C   UNL A   1      31.338  26.403  25.481  1.00  0.00     0.002 A 
ATOM     21  C   UNL A   1      32.125  28.788  25.858  1.00  0.00     0.114 C 
ATOM     22  C   UNL A   1      31.553  30.013  25.702  1.00  0.00     0.208 C 
ATOM     23  O   UNL A   1      33.897  27.677  23.422  1.00  0.00    -0.273 OA
ATOM     24  C   UNL A   1      32.323  25.399  25.491  1.00  0.00     0.050 A 
ATOM     25  C   UNL A   1      30.083  26.194  26.036  1.00  0.00     0.008 A 
ATOM     26  C   UNL A   1      32.055  24.154  26.030  1.00  0.00     0.027 A 
ATOM     27  C   UNL A   1      29.806  24.938  26.572  1.00  0.00     0.001 A 
ATOM     28  C   UNL A   1      30.780  23.926  26.564  1.00  0.00     0.002 A 
BRANCH  21  29
ATOM     29  C   UNL A   1      32.954  28.533  26.997  1.00  0.00     0.102 C 
ATOM     30  N   UNL A   1      33.643  28.327  27.899  1.00  0.00    -0.193 NA
ENDBRANCH  21  29
BRANCH  22  31
ATOM     31  N   UNL A   1      31.701  31.065  26.561  1.00  0.00    -0.369 N 
ATOM     32  H   UNL A   1      31.076  31.178  27.313  1.00  0.00     0.159 HD
ATOM     33  H   UNL A   1      32.432  31.710  26.427  1.00  0.00     0.159 HD
ENDBRANCH  22  31
ENDBRANCH   7   9
ENDBRANCH   4   7
ENDBRANCH   2   3
ENDBRANCH   1   2
BRANCH   1  34
ATOM     34  C   UNL A   1      37.413  22.274  25.053  1.00  0.00     0.118 C 
BRANCH  34  35
ATOM     35  N   UNL A   1      38.707  21.724  25.366  1.00  0.00    -0.352 N 
ATOM     36  C   UNL A   1      39.761  22.108  26.139  1.00  0.00     0.251 C 
ATOM     37  H   UNL A   1      38.869  20.864  24.913  1.00  0.00     0.163 HD
ATOM     38  O   UNL A   1      40.713  21.321  26.143  1.00  0.00    -0.269 OA
BRANCH  36  39
ATOM     39  C   UNL A   1      39.884  23.390  26.884  1.00  0.00     0.039 A 
ATOM     40  C   UNL A   1      39.045  24.508  26.809  1.00  0.00     0.014 A 
ATOM     41  C   UNL A   1      41.008  23.451  27.727  1.00  0.00     0.014 A 
ATOM     42  C   UNL A   1      39.411  25.702  27.441  1.00  0.00     0.010 A 
ATOM     43  C   UNL A   1      41.356  24.619  28.378  1.00  0.00     0.010 A 
ATOM     44  C   UNL A   1      40.605  25.768  28.168  1.00  0.00    -0.014 A 
BRANCH  44  45
ATOM     45  C   UNL A   1      40.992  26.978  28.896  1.00  0.00     0.031 A 
ATOM     46  C   UNL A   1      42.171  27.661  28.278  1.00  0.00     0.074 A 
ATOM     47  C   UNL A   1      40.207  27.494  29.876  1.00  0.00     0.049 A 
ATOM     48  N   UNL A   1      43.311  27.922  28.829  1.00  0.00    -0.248 NA
ATOM     49  C   UNL A   1      42.163  27.914  26.820  1.00  0.00     0.031 C 
ATOM     50  C   UNL A   1      38.940  26.953  30.389  1.00  0.00     0.029 A 
ATOM     51  N   UNL A   1      40.307  28.677  30.561  1.00  0.00    -0.354 N 
ATOM     52  C   UNL A   1      44.051  28.612  27.870  1.00  0.00     0.074 A 
ATOM     53  C   UNL A   1      43.387  28.401  26.614  1.00  0.00     0.031 C 
ATOM     54  C   UNL A   1      38.281  27.900  31.096  1.00  0.00     0.029 A 
ATOM     55  C   UNL A   1      39.119  29.076  31.209  1.00  0.00     0.049 A 
ATOM     56  H   UNL A   1      41.138  29.203  30.598  1.00  0.00     0.167 HD
ATOM     57  C   UNL A   1      45.003  29.515  28.234  1.00  0.00     0.037 A 
ATOM     58  C   UNL A   1      38.859  30.303  31.756  1.00  0.00     0.037 A 
ATOM     59  C   UNL A   1      45.378  29.332  29.611  1.00  0.00     0.049 A 
ATOM     60  C   UNL A   1      40.184  30.940  31.988  1.00  0.00     0.074 A 
ATOM     61  C   UNL A   1      45.977  28.310  30.319  1.00  0.00     0.029 A 
ATOM     62  N   UNL A   1      44.749  30.128  30.536  1.00  0.00    -0.354 N 
ATOM     63  N   UNL A   1      41.054  30.475  32.846  1.00  0.00    -0.248 NA
ATOM     64  C   UNL A   1      40.732  31.719  30.888  1.00  0.00     0.031 C 
ATOM     65  C   UNL A   1      45.286  28.274  31.563  1.00  0.00     0.029 A 
ATOM     66  C   UNL A   1      44.386  29.338  31.597  1.00  0.00     0.049 A 
ATOM     67  H   UNL A   1      44.588  31.096  30.453  1.00  0.00     0.167 HD
ATOM     68  C   UNL A   1      42.261  30.506  32.162  1.00  0.00     0.074 A 
ATOM     69  C   UNL A   1      42.001  31.305  30.963  1.00  0.00     0.031 C 
ATOM     70  C   UNL A   1      43.265  29.632  32.461  1.00  0.00     0.037 A 
BRANCH  57  71
ATOM     71  C   UNL A   1      45.298  30.793  27.489  1.00  0.00     0.058 A 
ATOM     72  C   UNL A   1      46.598  31.020  26.993  1.00  0.00     0.135 A 
ATOM     73  C   UNL A   1      44.442  31.917  27.498  1.00  0.00     0.135 A 
ATOM     74  F   UNL A   1      47.499  30.025  26.957  1.00  0.00    -0.206 F 
ATOM     75  C   UNL A   1      47.032  32.282  26.585  1.00  0.00     0.059 A 
ATOM     76  C   UNL A   1      44.839  33.173  27.051  1.00  0.00     0.059 A 
ATOM     77  F   UNL A   1      43.213  31.872  28.025  1.00  0.00    -0.206 F 
ATOM     78  C   UNL A   1      46.145  33.355  26.623  1.00  0.00     0.060 A 
BRANCH  78  79
ATOM     79  S   UNL A   1      46.725  34.992  26.147  1.00  0.00     0.124 S 
ATOM     80  O   UNL A   1      47.372  35.446  27.373  1.00  0.00    -0.237 OA
ATOM     81  O   UNL A   1      47.615  34.678  25.033  1.00  0.00    -0.237 OA
ATOM     82  O   UNL A   1      45.497  35.693  25.783  1.00  0.00    -0.744 OA
ENDBRANCH  78  79
ENDBRANCH  57  71
BRANCH  58  83
ATOM     83  C   UNL A   1      37.595  31.110  31.726  1.00  0.00     0.058 A 
ATOM     84  C   UNL A   1      36.922  31.505  32.905  1.00  0.00     0.135 A 
ATOM     85  C   UNL A   1      37.192  31.776  30.553  1.00  0.00     0.135 A 
ATOM     86  F   UNL A   1      37.242  30.946  34.083  1.00  0.00    -0.206 F 
ATOM     87  C   UNL A   1      35.955  32.529  32.924  1.00  0.00     0.059 A 
ATOM     88  C   UNL A   1      36.234  32.793  30.546  1.00  0.00     0.059 A 
ATOM     89  F   UNL A   1      37.789  31.520  29.381  1.00  0.00    -0.206 F 
ATOM     90  C   UNL A   1      35.638  33.187  31.738  1.00  0.00     0.060 A 
BRANCH  90  91
ATOM     91  S   UNL A   1      34.538  34.630  31.765  1.00  0.00     0.124 S 
ATOM     92  O   UNL A   1      35.329  35.607  32.505  1.00  0.00    -0.237 OA
ATOM     93  O   UNL A   1      34.352  34.905  30.344  1.00  0.00    -0.237 OA
ATOM     94  O   UNL A   1      33.349  34.138  32.459  1.00  0.00    -0.744 OA
ENDBRANCH  90  91
ENDBRANCH  58  83
BRANCH  70  95
ATOM     95  C   UNL A   1      43.132  28.775  33.695  1.00  0.00     0.058 A 
ATOM     96  C   UNL A   1      43.315  29.229  35.015  1.00  0.00     0.135 A 
ATOM     97  C   UNL A   1      42.610  27.485  33.530  1.00  0.00     0.135 A 
ATOM     98  F   UNL A   1      43.713  30.485  35.263  1.00  0.00    -0.206 F 
ATOM     99  C   UNL A   1      43.019  28.423  36.119  1.00  0.00     0.059 A 
ATOM    100  C   UNL A   1      42.278  26.678  34.611  1.00  0.00     0.059 A 
ATOM    101  F   UNL A   1      42.348  27.022  32.297  1.00  0.00    -0.206 F 
ATOM    102  C   UNL A   1      42.494  27.147  35.903  1.00  0.00     0.060 A 
BRANCH 102 103
ATOM    103  S   UNL A   1      42.032  26.128  37.319  1.00  0.00     0.124 S 
ATOM    104  O   UNL A   1      43.067  26.461  38.290  1.00  0.00    -0.237 OA
ATOM    105  O   UNL A   1      40.689  26.614  37.618  1.00  0.00    -0.237 OA
ATOM    106  O   UNL A   1      42.087  24.766  36.793  1.00  0.00    -0.744 OA
ENDBRANCH 102 103
ENDBRANCH  70  95
ENDBRANCH  44  45
ENDBRANCH  36  39
ENDBRANCH  34  35
ENDBRANCH   1  34
TORSDOF 16
ENDMDL
MODEL 2
REMARK VINA RESULT:     -13.2      1.436      2.120
REMARK SMILES Cc1n[nH]c2c1[C@@]1(C(=O)N([C@@H](C)C(=O)NCCCNC(=O)c3ccc(-c4c5nc(c(-c6c(F)cc(S(=O)(=O)[O-])cc6F)c6ccc([nH]6)c(-c6c(F)cc(S(=O)(=O)[O-])cc6F)c6nc(c(-c7c(F)cc(S(=O)(=O)[O-])cc7F)c7ccc4[nH]7)C=C6)C=C5)cc3)c3ccccc31)C(C#N)=C(N)O2
REMARK SMILES IDX 17 1 16 2 15 3 13 4 14 5 11 7 12 8 10 9 1 10 2 11 3 12 6 13
REMARK SMILES IDX 4 14 5 15 7 16 99 18 8 19 93 20 94 21 97 22 9 23 88 24 92 25
REMARK SMILES IDX 89 26 91 27 90 28 95 29 96 30 98 31 18 34 19 35 20 36 21 38
REMARK SMILES IDX 22 39 23 40 87 41 24 42 86 43 25 44 26 45 27 46 80 47 28 48
REMARK SMILES IDX 85 49 79 50 81 51 29 52 84 53 78 54 77 55 30 57 64 58 43 59
REMARK SMILES IDX 63 60 44 61 47 62 62 63 82 64 45 65 46 66 61 68 83 69 48 70
REMARK SMILES IDX 31 71 32 72 41 73 33 74 34 75 40 76 42 77 35 78 36 79 37 80
REMARK SMILES IDX 38 81 39 82 65 83 66 84 75 85 67 86 68 87 74 88 76 89 69 90
REMARK SMILES IDX 70 91 71 92 72 93 73 94 49 95 50 96 59 97 51 98 52 99 58 100
REMARK SMILES IDX 60 101 53 102 54 103 55 104 56 105 57 106
REMARK H PARENT 15 6 4 17 98 32 98 33 19 37 81 56 47 67
REMARK Flexibility Score: inf
ROOT
ATOM      1  C   UNL A   1      35.265  21.806  25.824  1.00  0.00     0.042 C 
ENDROOT
BRANCH   1   2
ATOM      2  C   UNL A   1      33.915  22.346  25.329  1.00  0.00     0.117 C 
BRANCH   2   3
ATOM      3  N   UNL A   1      33.061  22.796  26.418  1.00  0.00    -0.354 N 
ATOM      4  C   UNL A   1      31.857  23.425  26.468  1.00  0.00     0.242 C 
ATOM      5  O   UNL A   1      31.406  23.618  27.608  1.00  0.00    -0.273 OA
ATOM      6  H   UNL A   1      33.435  22.606  27.308  1.00  0.00     0.163 HD
BRANCH   4   7
ATOM      7  C   UNL A   1      31.029  23.906  25.247  1.00  0.00     0.176 C 
ATOM      8  C   UNL A   1      31.097  22.986  24.032  1.00  0.00     0.042 C 
BRANCH   7   9
ATOM      9  N   UNL A   1      31.177  25.327  24.942  1.00  0.00    -0.298 N 
ATOM     10  C   UNL A   1      32.950  26.041  21.664  1.00  0.00     0.069 C 
ATOM     11  C   UNL A   1      33.357  27.331  22.273  1.00  0.00     0.068 A 
ATOM     12  N   UNL A   1      34.295  28.064  21.663  1.00  0.00    -0.177 NA
ATOM     13  C   UNL A   1      32.976  27.920  23.503  1.00  0.00     0.063 A 
ATOM     14  N   UNL A   1      34.601  29.043  22.539  1.00  0.00    -0.246 N 
ATOM     15  C   UNL A   1      33.831  28.982  23.663  1.00  0.00     0.222 A 
ATOM     16  C   UNL A   1      32.126  27.488  24.638  1.00  0.00     0.149 C 
ATOM     17  H   UNL A   1      35.299  29.721  22.386  1.00  0.00     0.193 HD
ATOM     18  O   UNL A   1      33.991  29.745  24.739  1.00  0.00    -0.422 OA
ATOM     19  C   UNL A   1      32.401  25.996  24.898  1.00  0.00     0.248 C 
ATOM     20  C   UNL A   1      30.681  27.457  24.214  1.00  0.00     0.002 A 
ATOM     21  C   UNL A   1      32.381  28.342  25.881  1.00  0.00     0.114 C 
ATOM     22  C   UNL A   1      33.255  29.385  25.884  1.00  0.00     0.208 C 
ATOM     23  O   UNL A   1      33.509  25.487  24.940  1.00  0.00    -0.273 OA
ATOM     24  C   UNL A   1      30.156  26.176  24.459  1.00  0.00     0.050 A 
ATOM     25  C   UNL A   1      29.890  28.481  23.712  1.00  0.00     0.008 A 
ATOM     26  C   UNL A   1      28.834  25.889  24.174  1.00  0.00     0.027 A 
ATOM     27  C   UNL A   1      28.559  28.194  23.415  1.00  0.00     0.001 A 
ATOM     28  C   UNL A   1      28.038  26.909  23.638  1.00  0.00     0.002 A 
BRANCH  21  29
ATOM     29  C   UNL A   1      31.657  28.020  27.074  1.00  0.00     0.102 C 
ATOM     30  N   UNL A   1      31.095  27.751  28.044  1.00  0.00    -0.193 NA
ENDBRANCH  21  29
BRANCH  22  31
ATOM     31  N   UNL A   1      33.519  30.186  26.959  1.00  0.00    -0.369 N 
ATOM     32  H   UNL A   1      32.779  30.596  27.461  1.00  0.00     0.159 HD
ATOM     33  H   UNL A   1      34.451  30.353  27.230  1.00  0.00     0.159 HD
ENDBRANCH  22  31
ENDBRANCH   7   9
ENDBRANCH   4   7
ENDBRANCH   2   3
ENDBRANCH   1   2
BRANCH   1  34
ATOM     34  C   UNL A   1      36.389  22.827  25.825  1.00  0.00     0.118 C 
BRANCH  34  35
ATOM     35  N   UNL A   1      37.693  22.216  25.770  1.00  0.00    -0.352 N 
ATOM     36  C   UNL A   1      38.927  22.524  26.258  1.00  0.00     0.251 C 
ATOM     37  H   UNL A   1      37.692  21.376  25.257  1.00  0.00     0.163 HD
ATOM     38  O   UNL A   1      39.810  21.704  25.984  1.00  0.00    -0.269 OA
BRANCH  36  39
ATOM     39  C   UNL A   1      39.298  23.761  26.996  1.00  0.00     0.039 A 
ATOM     40  C   UNL A   1      38.661  25.007  26.954  1.00  0.00     0.014 A 
ATOM     41  C   UNL A   1      40.448  23.624  27.793  1.00  0.00     0.014 A 
ATOM     42  C   UNL A   1      39.251  26.117  27.569  1.00  0.00     0.010 A 
ATOM     43  C   UNL A   1      41.018  24.711  28.428  1.00  0.00     0.010 A 
ATOM     44  C   UNL A   1      40.467  25.973  28.247  1.00  0.00    -0.014 A 
BRANCH  44  45
ATOM     45  C   UNL A   1      41.085  27.094  28.957  1.00  0.00     0.031 A 
ATOM     46  C   UNL A   1      42.353  27.549  28.307  1.00  0.00     0.074 A 
ATOM     47  C   UNL A   1      40.430  27.747  29.951  1.00  0.00     0.049 A 
ATOM     48  N   UNL A   1      43.534  27.601  28.830  1.00  0.00    -0.248 NA
ATOM     49  C   UNL A   1      42.357  27.795  26.848  1.00  0.00     0.031 C 
ATOM     50  C   UNL A   1      39.099  27.448  30.496  1.00  0.00     0.029 A 
ATOM     51  N   UNL A   1      40.761  28.894  30.625  1.00  0.00    -0.354 N 
ATOM     52  C   UNL A   1      44.365  28.142  27.850  1.00  0.00     0.074 A 
ATOM     53  C   UNL A   1      43.644  28.051  26.610  1.00  0.00     0.031 C 
ATOM     54  C   UNL A   1      38.640  28.501  31.212  1.00  0.00     0.029 A 
ATOM     55  C   UNL A   1      39.680  29.505  31.297  1.00  0.00     0.049 A 
ATOM     56  H   UNL A   1      41.674  29.261  30.640  1.00  0.00     0.167 HD
ATOM     57  C   UNL A   1      45.474  28.858  28.185  1.00  0.00     0.037 A 
ATOM     58  C   UNL A   1      39.661  30.760  31.841  1.00  0.00     0.037 A 
ATOM     59  C   UNL A   1      45.842  28.613  29.554  1.00  0.00     0.049 A 
ATOM     60  C   UNL A   1      41.085  31.146  32.038  1.00  0.00     0.074 A 
ATOM     61  C   UNL A   1      46.261  27.501  30.255  1.00  0.00     0.029 A 
ATOM     62  N   UNL A   1      45.391  29.513  30.488  1.00  0.00    -0.354 N 
ATOM     63  N   UNL A   1      41.876  30.533  32.879  1.00  0.00    -0.248 NA
ATOM     64  C   UNL A   1      41.739  31.809  30.920  1.00  0.00     0.031 C 
ATOM     65  C   UNL A   1      45.605  27.595  31.515  1.00  0.00     0.029 A 
ATOM     66  C   UNL A   1      44.915  28.806  31.562  1.00  0.00     0.049 A 
ATOM     67  H   UNL A   1      45.406  30.494  30.401  1.00  0.00     0.167 HD
ATOM     68  C   UNL A   1      43.052  30.342  32.168  1.00  0.00     0.074 A 
ATOM     69  C   UNL A   1      42.913  31.172  30.969  1.00  0.00     0.031 C 
ATOM     70  C   UNL A   1      43.887  29.301  32.450  1.00  0.00     0.037 A 
BRANCH  57  71
ATOM     71  C   UNL A   1      45.978  30.059  27.424  1.00  0.00     0.058 A 
ATOM     72  C   UNL A   1      47.360  30.195  27.187  1.00  0.00     0.135 A 
ATOM     73  C   UNL A   1      45.198  31.210  27.177  1.00  0.00     0.135 A 
ATOM     74  F   UNL A   1      48.197  29.169  27.407  1.00  0.00    -0.206 F 
ATOM     75  C   UNL A   1      47.933  31.403  26.784  1.00  0.00     0.059 A 
ATOM     76  C   UNL A   1      45.741  32.410  26.730  1.00  0.00     0.059 A 
ATOM     77  F   UNL A   1      43.888  31.254  27.446  1.00  0.00    -0.206 F 
ATOM     78  C   UNL A   1      47.114  32.507  26.564  1.00  0.00     0.060 A 
BRANCH  78  79
ATOM     79  S   UNL A   1      47.863  34.078  26.097  1.00  0.00     0.124 S 
ATOM     80  O   UNL A   1      49.139  33.644  25.541  1.00  0.00    -0.237 OA
ATOM     81  O   UNL A   1      46.891  34.597  25.140  1.00  0.00    -0.237 OA
ATOM     82  O   UNL A   1      47.940  34.804  27.361  1.00  0.00    -0.744 OA
ENDBRANCH  78  79
ENDBRANCH  57  71
BRANCH  58  83
ATOM     83  C   UNL A   1      38.565  31.784  31.835  1.00  0.00     0.058 A 
ATOM     84  C   UNL A   1      38.066  32.352  30.640  1.00  0.00     0.135 A 
ATOM     85  C   UNL A   1      37.770  31.997  32.977  1.00  0.00     0.135 A 
ATOM     86  F   UNL A   1      38.737  32.194  29.488  1.00  0.00    -0.206 F 
ATOM     87  C   UNL A   1      36.836  33.034  30.576  1.00  0.00     0.059 A 
ATOM     88  C   UNL A   1      36.547  32.672  32.940  1.00  0.00     0.059 A 
ATOM     89  F   UNL A   1      38.116  31.468  34.160  1.00  0.00    -0.206 F 
ATOM     90  C   UNL A   1      36.070  33.165  31.732  1.00  0.00     0.060 A 
BRANCH  90  91
ATOM     91  S   UNL A   1      34.401  33.874  31.641  1.00  0.00     0.124 S 
ATOM     92  O   UNL A   1      34.650  35.286  31.911  1.00  0.00    -0.237 OA
ATOM     93  O   UNL A   1      34.000  33.547  30.277  1.00  0.00    -0.237 OA
ATOM     94  O   UNL A   1      33.672  33.161  32.688  1.00  0.00    -0.744 OA
ENDBRANCH  90  91
ENDBRANCH  58  83
BRANCH  70  95
ATOM     95  C   UNL A   1      43.630  28.486  33.693  1.00  0.00     0.058 A 
ATOM     96  C   UNL A   1      43.938  28.897  35.004  1.00  0.00     0.135 A 
ATOM     97  C   UNL A   1      42.863  27.321  33.552  1.00  0.00     0.135 A 
ATOM     98  F   UNL A   1      44.579  30.052  35.231  1.00  0.00    -0.206 F 
ATOM     99  C   UNL A   1      43.527  28.163  36.121  1.00  0.00     0.059 A 
ATOM    100  C   UNL A   1      42.417  26.594  34.647  1.00  0.00     0.059 A 
ATOM    101  F   UNL A   1      42.479  26.917  32.330  1.00  0.00    -0.206 F 
ATOM    102  C   UNL A   1      42.760  27.013  35.929  1.00  0.00     0.060 A 
BRANCH 102 103
ATOM    103  S   UNL A   1      42.154  26.102  37.365  1.00  0.00     0.124 S 
ATOM    104  O   UNL A   1      42.161  24.726  36.884  1.00  0.00    -0.237 OA
ATOM    105  O   UNL A   1      43.152  26.434  38.378  1.00  0.00    -0.237 OA
ATOM    106  O   UNL A   1      40.830  26.674  37.599  1.00  0.00    -0.744 OA
ENDBRANCH 102 103
ENDBRANCH  70  95
ENDBRANCH  44  45
ENDBRANCH  36  39
ENDBRANCH  34  35
ENDBRANCH   1  34
TORSDOF 16
ENDMDL
MODEL 3
REMARK VINA RESULT:     -13.0      2.769      9.263
REMARK SMILES Cc1n[nH]c2c1[C@@]1(C(=O)N([C@@H](C)C(=O)NCCCNC(=O)c3ccc(-c4c5nc(c(-c6c(F)cc(S(=O)(=O)[O-])cc6F)c6ccc([nH]6)c(-c6c(F)cc(S(=O)(=O)[O-])cc6F)c6nc(c(-c7c(F)cc(S(=O)(=O)[O-])cc7F)c7ccc4[nH]7)C=C6)C=C5)cc3)c3ccccc31)C(C#N)=C(N)O2
REMARK SMILES IDX 17 1 16 2 15 3 13 4 14 5 11 7 12 8 10 9 1 10 2 11 3 12 6 13
REMARK SMILES IDX 4 14 5 15 7 16 99 18 8 19 93 20 94 21 97 22 9 23 88 24 92 25
REMARK SMILES IDX 89 26 91 27 90 28 95 29 96 30 98 31 18 34 19 35 20 36 21 38
REMARK SMILES IDX 22 39 23 40 87 41 24 42 86 43 25 44 26 45 27 46 80 47 28 48
REMARK SMILES IDX 85 49 79 50 81 51 29 52 84 53 78 54 77 55 30 57 64 58 43 59
REMARK SMILES IDX 63 60 44 61 47 62 62 63 82 64 45 65 46 66 61 68 83 69 48 70
REMARK SMILES IDX 31 71 32 72 41 73 33 74 34 75 40 76 42 77 35 78 36 79 37 80
REMARK SMILES IDX 38 81 39 82 65 83 66 84 75 85 67 86 68 87 74 88 76 89 69 90
REMARK SMILES IDX 70 91 71 92 72 93 73 94 49 95 50 96 59 97 51 98 52 99 58 100
REMARK SMILES IDX 60 101 53 102 54 103 55 104 56 105 57 106
REMARK H PARENT 15 6 4 17 98 32 98 33 19 37 81 56 47 67
REMARK Flexibility Score: inf
ROOT
ATOM      1  C   UNL A   1      32.821  29.612  25.213  1.00  0.00     0.042 C 
ENDROOT
BRANCH   1   2
ATOM      2  C   UNL A   1      33.146  28.460  24.250  1.00  0.00     0.117 C 
BRANCH   2   3
ATOM      3  N   UNL A   1      31.964  27.700  23.871  1.00  0.00    -0.354 N 
ATOM      4  C   UNL A   1      31.773  26.546  23.178  1.00  0.00     0.242 C 
ATOM      5  O   UNL A   1      30.593  26.173  23.086  1.00  0.00    -0.273 OA
ATOM      6  H   UNL A   1      31.125  28.108  24.183  1.00  0.00     0.163 HD
BRANCH   4   7
ATOM      7  C   UNL A   1      32.882  25.688  22.514  1.00  0.00     0.176 C 
ATOM      8  C   UNL A   1      32.733  25.515  21.006  1.00  0.00     0.042 C 
BRANCH   7   9
ATOM      9  N   UNL A   1      33.205  24.459  23.237  1.00  0.00    -0.298 N 
ATOM     10  C   UNL A   1      31.121  23.892  26.356  1.00  0.00     0.069 C 
ATOM     11  C   UNL A   1      32.269  23.104  26.867  1.00  0.00     0.068 A 
ATOM     12  N   UNL A   1      32.288  22.756  28.158  1.00  0.00    -0.177 NA
ATOM     13  C   UNL A   1      33.464  22.706  26.218  1.00  0.00     0.063 A 
ATOM     14  N   UNL A   1      33.522  22.251  28.368  1.00  0.00    -0.246 N 
ATOM     15  C   UNL A   1      34.260  22.214  27.222  1.00  0.00     0.222 A 
ATOM     16  C   UNL A   1      34.046  22.955  24.878  1.00  0.00     0.149 C 
ATOM     17  H   UNL A   1      33.851  21.947  29.245  1.00  0.00     0.193 HD
ATOM     18  O   UNL A   1      35.543  21.876  27.153  1.00  0.00    -0.422 OA
ATOM     19  C   UNL A   1      33.778  24.425  24.508  1.00  0.00     0.248 C 
ATOM     20  C   UNL A   1      33.244  22.231  23.828  1.00  0.00     0.002 A 
ATOM     21  C   UNL A   1      35.537  22.620  24.848  1.00  0.00     0.114 C 
ATOM     22  C   UNL A   1      36.195  22.116  25.928  1.00  0.00     0.208 C 
ATOM     23  O   UNL A   1      33.940  25.375  25.258  1.00  0.00    -0.273 OA
ATOM     24  C   UNL A   1      32.813  23.156  22.860  1.00  0.00     0.050 A 
ATOM     25  C   UNL A   1      32.969  20.876  23.710  1.00  0.00     0.008 A 
ATOM     26  C   UNL A   1      32.070  22.740  21.770  1.00  0.00     0.027 A 
ATOM     27  C   UNL A   1      32.213  20.454  22.619  1.00  0.00     0.001 A 
ATOM     28  C   UNL A   1      31.763  21.378  21.661  1.00  0.00     0.002 A 
BRANCH  21  29
ATOM     29  C   UNL A   1      36.249  22.844  23.626  1.00  0.00     0.102 C 
ATOM     30  N   UNL A   1      36.844  23.018  22.654  1.00  0.00    -0.193 NA
ENDBRANCH  21  29
BRANCH  22  31
ATOM     31  N   UNL A   1      37.521  21.792  25.959  1.00  0.00    -0.369 N 
ATOM     32  H   UNL A   1      37.903  21.355  26.754  1.00  0.00     0.159 HD
ATOM     33  H   UNL A   1      38.096  21.996  25.186  1.00  0.00     0.159 HD
ENDBRANCH  22  31
ENDBRANCH   7   9
ENDBRANCH   4   7
ENDBRANCH   2   3
ENDBRANCH   1   2
BRANCH   1  34
ATOM     34  C   UNL A   1      33.260  29.376  26.647  1.00  0.00     0.118 C 
BRANCH  34  35
ATOM     35  N   UNL A   1      33.500  30.603  27.363  1.00  0.00    -0.352 N 
ATOM     36  C   UNL A   1      34.590  31.200  27.922  1.00  0.00     0.251 C 
ATOM     37  H   UNL A   1      32.681  31.139  27.475  1.00  0.00     0.163 HD
ATOM     38  O   UNL A   1      34.364  32.293  28.453  1.00  0.00    -0.269 OA
BRANCH  36  39
ATOM     39  C   UNL A   1      35.959  30.626  28.012  1.00  0.00     0.039 A 
ATOM     40  C   UNL A   1      36.362  29.322  27.702  1.00  0.00     0.014 A 
ATOM     41  C   UNL A   1      36.922  31.526  28.500  1.00  0.00     0.014 A 
ATOM     42  C   UNL A   1      37.657  28.895  28.020  1.00  0.00     0.010 A 
ATOM     43  C   UNL A   1      38.210  31.117  28.787  1.00  0.00     0.010 A 
ATOM     44  C   UNL A   1      38.553  29.781  28.626  1.00  0.00    -0.014 A 
BRANCH  44  45
ATOM     45  C   UNL A   1      39.935  29.393  28.916  1.00  0.00     0.031 A 
ATOM     46  C   UNL A   1      40.217  29.351  30.385  1.00  0.00     0.074 A 
ATOM     47  C   UNL A   1      40.756  28.924  27.943  1.00  0.00     0.049 A 
ATOM     48  N   UNL A   1      41.107  30.023  31.038  1.00  0.00    -0.248 NA
ATOM     49  C   UNL A   1      39.278  28.625  31.269  1.00  0.00     0.031 C 
ATOM     50  C   UNL A   1      40.456  28.773  26.511  1.00  0.00     0.029 A 
ATOM     51  N   UNL A   1      42.009  28.374  28.028  1.00  0.00    -0.354 N 
ATOM     52  C   UNL A   1      41.016  29.597  32.362  1.00  0.00     0.074 A 
ATOM     53  C   UNL A   1      39.763  28.903  32.480  1.00  0.00     0.031 C 
ATOM     54  C   UNL A   1      41.369  27.964  25.926  1.00  0.00     0.029 A 
ATOM     55  C   UNL A   1      42.398  27.635  26.892  1.00  0.00     0.049 A 
ATOM     56  H   UNL A   1      42.588  28.485  28.816  1.00  0.00     0.167 HD
ATOM     57  C   UNL A   1      42.100  29.625  33.185  1.00  0.00     0.037 A 
ATOM     58  C   UNL A   1      43.472  26.793  26.793  1.00  0.00     0.037 A 
ATOM     59  C   UNL A   1      43.124  30.482  32.650  1.00  0.00     0.049 A 
ATOM     60  C   UNL A   1      44.403  27.182  27.887  1.00  0.00     0.074 A 
ATOM     61  C   UNL A   1      43.205  31.833  32.380  1.00  0.00     0.029 A 
ATOM     62  N   UNL A   1      44.117  29.880  31.918  1.00  0.00    -0.354 N 
ATOM     63  N   UNL A   1      45.009  28.340  27.925  1.00  0.00    -0.248 NA
ATOM     64  C   UNL A   1      44.205  26.527  29.171  1.00  0.00     0.031 C 
ATOM     65  C   UNL A   1      43.917  31.918  31.151  1.00  0.00     0.029 A 
ATOM     66  C   UNL A   1      44.331  30.635  30.793  1.00  0.00     0.049 A 
ATOM     67  H   UNL A   1      44.592  29.052  32.158  1.00  0.00     0.167 HD
ATOM     68  C   UNL A   1      44.857  28.764  29.237  1.00  0.00     0.074 A 
ATOM     69  C   UNL A   1      44.370  27.590  29.965  1.00  0.00     0.031 C 
ATOM     70  C   UNL A   1      44.837  30.091  29.553  1.00  0.00     0.037 A 
BRANCH  57  71
ATOM     71  C   UNL A   1      42.396  28.591  34.244  1.00  0.00     0.058 A 
ATOM     72  C   UNL A   1      42.418  28.976  35.599  1.00  0.00     0.135 A 
ATOM     73  C   UNL A   1      42.941  27.318  33.961  1.00  0.00     0.135 A 
ATOM     74  F   UNL A   1      41.944  30.174  35.977  1.00  0.00    -0.206 F 
ATOM     75  C   UNL A   1      42.986  28.178  36.593  1.00  0.00     0.059 A 
ATOM     76  C   UNL A   1      43.468  26.486  34.942  1.00  0.00     0.059 A 
ATOM     77  F   UNL A   1      43.070  26.862  32.709  1.00  0.00    -0.206 F 
ATOM     78  C   UNL A   1      43.514  26.935  36.253  1.00  0.00     0.060 A 
BRANCH  78  79
ATOM     79  S   UNL A   1      44.294  25.933  37.530  1.00  0.00     0.124 S 
ATOM     80  O   UNL A   1      43.845  24.593  37.172  1.00  0.00    -0.237 OA
ATOM     81  O   UNL A   1      45.709  26.215  37.305  1.00  0.00    -0.237 OA
ATOM     82  O   UNL A   1      43.742  26.474  38.768  1.00  0.00    -0.744 OA
ENDBRANCH  78  79
ENDBRANCH  57  71
BRANCH  58  83
ATOM     83  C   UNL A   1      43.580  25.463  26.107  1.00  0.00     0.058 A 
ATOM     84  C   UNL A   1      44.655  25.140  25.248  1.00  0.00     0.135 A 
ATOM     85  C   UNL A   1      42.796  24.371  26.524  1.00  0.00     0.135 A 
ATOM     86  F   UNL A   1      45.477  26.105  24.804  1.00  0.00    -0.206 F 
ATOM     87  C   UNL A   1      44.962  23.818  24.875  1.00  0.00     0.059 A 
ATOM     88  C   UNL A   1      43.079  23.049  26.166  1.00  0.00     0.059 A 
ATOM     89  F   UNL A   1      41.777  24.546  27.377  1.00  0.00    -0.206 F 
ATOM     90  C   UNL A   1      44.179  22.774  25.364  1.00  0.00     0.060 A 
BRANCH  90  91
ATOM     91  S   UNL A   1      44.662  21.052  25.053  1.00  0.00     0.124 S 
ATOM     92  O   UNL A   1      46.024  21.014  25.574  1.00  0.00    -0.237 OA
ATOM     93  O   UNL A   1      43.667  20.308  25.817  1.00  0.00    -0.237 OA
ATOM     94  O   UNL A   1      44.549  20.925  23.601  1.00  0.00    -0.744 OA
ENDBRANCH  90  91
ENDBRANCH  58  83
BRANCH  70  95
ATOM     95  C   UNL A   1      45.205  31.092  28.487  1.00  0.00     0.058 A 
ATOM     96  C   UNL A   1      44.327  31.578  27.500  1.00  0.00     0.135 A 
ATOM     97  C   UNL A   1      46.453  31.721  28.598  1.00  0.00     0.135 A 
ATOM     98  F   UNL A   1      43.078  31.102  27.393  1.00  0.00    -0.206 F 
ATOM     99  C   UNL A   1      44.688  32.623  26.644  1.00  0.00     0.059 A 
ATOM    100  C   UNL A   1      46.821  32.782  27.781  1.00  0.00     0.059 A 
ATOM    101  F   UNL A   1      47.306  31.348  29.565  1.00  0.00    -0.206 F 
ATOM    102  C   UNL A   1      45.939  33.223  26.798  1.00  0.00     0.060 A 
BRANCH 102 103
ATOM    103  S   UNL A   1      46.385  34.625  25.754  1.00  0.00     0.124 S 
ATOM    104  O   UNL A   1      46.134  35.759  26.635  1.00  0.00    -0.237 OA
ATOM    105  O   UNL A   1      47.785  34.345  25.449  1.00  0.00    -0.237 OA
ATOM    106  O   UNL A   1      45.475  34.507  24.616  1.00  0.00    -0.744 OA
ENDBRANCH 102 103
ENDBRANCH  70  95
ENDBRANCH  44  45
ENDBRANCH  36  39
ENDBRANCH  34  35
ENDBRANCH   1  34
TORSDOF 16
ENDMDL
