MODEL 1
REMARK VINA RESULT:     -12.4      0.000      0.000
REMARK SMILES CC(C)n1c([C@H](O)CC(=O)NCCCNC(=O)c2ccc(-c3c4nc(c(-c5c(F)cc(S(=O)(=O)[O-])cc5F)c5ccc([nH]5)c(-c5c(F)cc(S(=O)(=O)[O-])cc5F)c5nc(c(-c6c(F)cc(S(=O)(=O)[O-])cc6F)c6ccc3[nH]6)C=C5)C=C4)cc2)nc2cc(Cl)ccc21
REMARK SMILES IDX 13 1 12 2 11 3 9 4 10 5 8 7 6 8 5 9 4 10 91 11 84 12 85 13
REMARK SMILES IDX 90 14 86 15 89 16 87 17 88 18 2 19 1 20 3 21 7 22 14 24
REMARK SMILES IDX 15 25 16 26 17 28 18 29 19 30 83 31 20 32 82 33 21 34 22 35
REMARK SMILES IDX 23 36 76 37 24 38 81 39 75 40 77 41 25 42 80 43 74 44 73 45
REMARK SMILES IDX 26 47 60 48 39 49 59 50 40 51 43 52 58 53 78 54 41 55 42 56
REMARK SMILES IDX 57 58 79 59 44 60 27 61 28 62 37 63 29 64 30 65 36 66 38 67
REMARK SMILES IDX 31 68 32 69 33 70 34 71 35 72 61 73 62 74 71 75 63 76 64 77
REMARK SMILES IDX 70 78 72 79 65 80 66 81 67 82 68 83 69 84 45 85 46 86 55 87
REMARK SMILES IDX 47 88 48 89 54 90 56 91 49 92 50 93 51 94 52 95 53 96
REMARK H PARENT 11 6 7 23 15 27 77 46 43 57
REMARK Flexibility Score: inf
ROOT
ATOM      1  C   UNL A   1      36.965  21.162  24.692  1.00  0.00     0.042 C 
ENDROOT
BRANCH   1   2
ATOM      2  C   UNL A   1      35.592  20.715  25.193  1.00  0.00     0.117 C 
BRANCH   2   3
ATOM      3  N   UNL A   1      35.206  21.387  26.426  1.00  0.00    -0.356 N 
ATOM      4  C   UNL A   1      34.018  21.914  26.833  1.00  0.00     0.223 C 
ATOM      5  O   UNL A   1      34.004  22.496  27.922  1.00  0.00    -0.275 OA
ATOM      6  H   UNL A   1      35.934  21.476  27.082  1.00  0.00     0.163 HD
BRANCH   4   7
ATOM      7  C   UNL A   1      32.725  21.698  26.070  1.00  0.00     0.140 C 
BRANCH   7   8
ATOM      8  C   UNL A   1      31.599  22.685  26.316  1.00  0.00     0.190 C 
BRANCH   8   9
ATOM      9  C   UNL A   1      31.863  24.146  25.990  1.00  0.00     0.139 A 
ATOM     10  N   UNL A   1      32.691  24.716  25.023  1.00  0.00    -0.323 N 
ATOM     11  C   UNL A   1      32.808  26.073  25.316  1.00  0.00     0.069 A 
ATOM     12  N   UNL A   1      31.370  25.101  26.770  1.00  0.00    -0.230 NA
ATOM     13  C   UNL A   1      31.980  26.271  26.412  1.00  0.00     0.090 A 
ATOM     14  C   UNL A   1      33.549  27.120  24.743  1.00  0.00     0.030 A 
ATOM     15  C   UNL A   1      31.876  27.548  26.985  1.00  0.00     0.051 A 
ATOM     16  C   UNL A   1      33.442  28.386  25.325  1.00  0.00     0.023 A 
ATOM     17  C   UNL A   1      32.618  28.593  26.428  1.00  0.00     0.043 A 
ATOM     18  Cl  UNL A   1      32.502  30.174  27.105  1.00  0.00    -0.084 Cl
BRANCH  10  19
ATOM     19  C   UNL A   1      33.319  24.155  23.827  1.00  0.00     0.083 C 
ATOM     20  C   UNL A   1      32.788  24.646  22.486  1.00  0.00     0.031 C 
ATOM     21  C   UNL A   1      34.847  24.121  23.936  1.00  0.00     0.031 C 
ENDBRANCH  10  19
ENDBRANCH   8   9
BRANCH   8  22
ATOM     22  O   UNL A   1      31.120  22.669  27.652  1.00  0.00    -0.385 OA
ATOM     23  H   UNL A   1      31.701  22.115  28.198  1.00  0.00     0.211 HD
ENDBRANCH   8  22
ENDBRANCH   7   8
ENDBRANCH   4   7
ENDBRANCH   2   3
ENDBRANCH   1   2
BRANCH   1  24
ATOM     24  C   UNL A   1      37.805  21.886  25.743  1.00  0.00     0.118 C 
BRANCH  24  25
ATOM     25  N   UNL A   1      39.232  21.665  25.608  1.00  0.00    -0.352 N 
ATOM     26  C   UNL A   1      40.354  22.264  26.111  1.00  0.00     0.251 C 
ATOM     27  H   UNL A   1      39.441  20.907  25.015  1.00  0.00     0.163 HD
ATOM     28  O   UNL A   1      41.416  21.681  25.876  1.00  0.00    -0.269 OA
BRANCH  26  29
ATOM     29  C   UNL A   1      40.391  23.550  26.864  1.00  0.00     0.039 A 
ATOM     30  C   UNL A   1      39.510  24.617  26.698  1.00  0.00     0.014 A 
ATOM     31  C   UNL A   1      41.467  23.708  27.761  1.00  0.00     0.014 A 
ATOM     32  C   UNL A   1      39.746  25.835  27.335  1.00  0.00     0.010 A 
ATOM     33  C   UNL A   1      41.690  24.914  28.421  1.00  0.00     0.010 A 
ATOM     34  C   UNL A   1      40.853  25.997  28.174  1.00  0.00    -0.014 A 
BRANCH  34  35
ATOM     35  C   UNL A   1      41.027  27.291  28.840  1.00  0.00     0.031 A 
ATOM     36  C   UNL A   1      42.131  28.139  28.302  1.00  0.00     0.074 A 
ATOM     37  C   UNL A   1      40.207  27.785  29.790  1.00  0.00     0.049 A 
ATOM     38  N   UNL A   1      43.215  28.524  28.894  1.00  0.00    -0.248 NA
ATOM     39  C   UNL A   1      42.056  28.525  26.884  1.00  0.00     0.031 C 
ATOM     40  C   UNL A   1      38.920  27.251  30.243  1.00  0.00     0.029 A 
ATOM     41  N   UNL A   1      40.322  28.948  30.497  1.00  0.00    -0.354 N 
ATOM     42  C   UNL A   1      43.867  29.369  27.997  1.00  0.00     0.074 A 
ATOM     43  C   UNL A   1      43.188  29.217  26.737  1.00  0.00     0.031 C 
ATOM     44  C   UNL A   1      38.282  28.190  30.979  1.00  0.00     0.029 A 
ATOM     45  C   UNL A   1      39.169  29.326  31.171  1.00  0.00     0.049 A 
ATOM     46  H   UNL A   1      41.154  29.474  30.526  1.00  0.00     0.167 HD
ATOM     47  C   UNL A   1      44.792  30.284  28.404  1.00  0.00     0.037 A 
ATOM     48  C   UNL A   1      38.941  30.506  31.800  1.00  0.00     0.037 A 
ATOM     49  C   UNL A   1      45.293  29.986  29.720  1.00  0.00     0.049 A 
ATOM     50  C   UNL A   1      40.261  31.113  32.100  1.00  0.00     0.074 A 
ATOM     51  C   UNL A   1      45.947  28.915  30.297  1.00  0.00     0.029 A 
ATOM     52  N   UNL A   1      44.859  30.762  30.766  1.00  0.00    -0.354 N 
ATOM     53  N   UNL A   1      41.113  30.633  32.963  1.00  0.00    -0.248 NA
ATOM     54  C   UNL A   1      40.811  32.061  31.143  1.00  0.00     0.031 C 
ATOM     55  C   UNL A   1      45.447  28.851  31.630  1.00  0.00     0.029 A 
ATOM     56  C   UNL A   1      44.550  29.909  31.792  1.00  0.00     0.049 A 
ATOM     57  H   UNL A   1      44.784  31.744  30.777  1.00  0.00     0.167 HD
ATOM     58  C   UNL A   1      42.359  30.890  32.414  1.00  0.00     0.074 A 
ATOM     59  C   UNL A   1      42.113  31.858  31.350  1.00  0.00     0.031 C 
ATOM     60  C   UNL A   1      43.434  30.096  32.691  1.00  0.00     0.037 A 
BRANCH  47  61
ATOM     61  C   UNL A   1      44.987  31.645  27.770  1.00  0.00     0.058 A 
ATOM     62  C   UNL A   1      46.237  31.970  27.199  1.00  0.00     0.135 A 
ATOM     63  C   UNL A   1      44.116  32.736  27.983  1.00  0.00     0.135 A 
ATOM     64  F   UNL A   1      47.143  31.012  26.944  1.00  0.00    -0.206 F 
ATOM     65  C   UNL A   1      46.631  33.287  26.959  1.00  0.00     0.059 A 
ATOM     66  C   UNL A   1      44.468  34.051  27.699  1.00  0.00     0.059 A 
ATOM     67  F   UNL A   1      42.923  32.594  28.571  1.00  0.00    -0.206 F 
ATOM     68  C   UNL A   1      45.746  34.322  27.240  1.00  0.00     0.060 A 
BRANCH  68  69
ATOM     69  S   UNL A   1      46.303  36.029  27.089  1.00  0.00     0.124 S 
ATOM     70  O   UNL A   1      47.182  36.147  28.246  1.00  0.00    -0.237 OA
ATOM     71  O   UNL A   1      46.957  36.020  25.785  1.00  0.00    -0.237 OA
ATOM     72  O   UNL A   1      45.061  36.793  27.157  1.00  0.00    -0.744 OA
ENDBRANCH  68  69
ENDBRANCH  47  61
BRANCH  48  73
ATOM     73  C   UNL A   1      37.671  31.273  31.912  1.00  0.00     0.058 A 
ATOM     74  C   UNL A   1      37.113  31.587  33.165  1.00  0.00     0.135 A 
ATOM     75  C   UNL A   1      37.131  31.957  30.804  1.00  0.00     0.135 A 
ATOM     76  F   UNL A   1      37.580  31.001  34.279  1.00  0.00    -0.206 F 
ATOM     77  C   UNL A   1      36.117  32.558  33.318  1.00  0.00     0.059 A 
ATOM     78  C   UNL A   1      36.130  32.920  30.930  1.00  0.00     0.059 A 
ATOM     79  F   UNL A   1      37.628  31.777  29.572  1.00  0.00    -0.206 F 
ATOM     80  C   UNL A   1      35.646  33.235  32.193  1.00  0.00     0.060 A 
BRANCH  80  81
ATOM     81  S   UNL A   1      34.484  34.606  32.404  1.00  0.00     0.124 S 
ATOM     82  O   UNL A   1      35.256  35.534  33.225  1.00  0.00    -0.237 OA
ATOM     83  O   UNL A   1      34.246  35.021  31.026  1.00  0.00    -0.237 OA
ATOM     84  O   UNL A   1      33.343  33.985  33.072  1.00  0.00    -0.744 OA
ENDBRANCH  80  81
ENDBRANCH  48  73
BRANCH  60  85
ATOM     85  C   UNL A   1      43.353  29.146  33.853  1.00  0.00     0.058 A 
ATOM     86  C   UNL A   1      43.524  29.527  35.195  1.00  0.00     0.135 A 
ATOM     87  C   UNL A   1      42.882  27.848  33.606  1.00  0.00     0.135 A 
ATOM     88  F   UNL A   1      43.882  30.779  35.517  1.00  0.00    -0.206 F 
ATOM     89  C   UNL A   1      43.247  28.649  36.244  1.00  0.00     0.059 A 
ATOM     90  C   UNL A   1      42.573  26.965  34.636  1.00  0.00     0.059 A 
ATOM     91  F   UNL A   1      42.647  27.447  32.344  1.00  0.00    -0.206 F 
ATOM     92  C   UNL A   1      42.759  27.375  35.955  1.00  0.00     0.060 A 
BRANCH  92  93
ATOM     93  S   UNL A   1      42.267  26.290  37.314  1.00  0.00     0.124 S 
ATOM     94  O   UNL A   1      40.886  26.711  37.555  1.00  0.00    -0.237 OA
ATOM     95  O   UNL A   1      42.422  24.958  36.723  1.00  0.00    -0.237 OA
ATOM     96  O   UNL A   1      43.211  26.607  38.370  1.00  0.00    -0.744 OA
ENDBRANCH  92  93
ENDBRANCH  60  85
ENDBRANCH  34  35
ENDBRANCH  26  29
ENDBRANCH  24  25
ENDBRANCH   1  24
TORSDOF 17
ENDMDL
MODEL 2
REMARK VINA RESULT:     -12.3      1.290      1.936
REMARK SMILES CC(C)n1c([C@H](O)CC(=O)NCCCNC(=O)c2ccc(-c3c4nc(c(-c5c(F)cc(S(=O)(=O)[O-])cc5F)c5ccc([nH]5)c(-c5c(F)cc(S(=O)(=O)[O-])cc5F)c5nc(c(-c6c(F)cc(S(=O)(=O)[O-])cc6F)c6ccc3[nH]6)C=C5)C=C4)cc2)nc2cc(Cl)ccc21
REMARK SMILES IDX 13 1 12 2 11 3 9 4 10 5 8 7 6 8 5 9 4 10 91 11 84 12 85 13
REMARK SMILES IDX 90 14 86 15 89 16 87 17 88 18 2 19 1 20 3 21 7 22 14 24
REMARK SMILES IDX 15 25 16 26 17 28 18 29 19 30 83 31 20 32 82 33 21 34 22 35
REMARK SMILES IDX 23 36 76 37 24 38 81 39 75 40 77 41 25 42 80 43 74 44 73 45
REMARK SMILES IDX 26 47 60 48 39 49 59 50 40 51 43 52 58 53 78 54 41 55 42 56
REMARK SMILES IDX 57 58 79 59 44 60 27 61 28 62 37 63 29 64 30 65 36 66 38 67
REMARK SMILES IDX 31 68 32 69 33 70 34 71 35 72 61 73 62 74 71 75 63 76 64 77
REMARK SMILES IDX 70 78 72 79 65 80 66 81 67 82 68 83 69 84 45 85 46 86 55 87
REMARK SMILES IDX 47 88 48 89 54 90 56 91 49 92 50 93 51 94 52 95 53 96
REMARK H PARENT 11 6 7 23 15 27 77 46 43 57
REMARK Flexibility Score: inf
ROOT
ATOM      1  C   UNL A   1      35.724  22.667  25.282  1.00  0.00     0.042 C 
ENDROOT
BRANCH   1   2
ATOM      2  C   UNL A   1      34.557  22.582  24.298  1.00  0.00     0.117 C 
BRANCH   2   3
ATOM      3  N   UNL A   1      33.417  21.866  24.850  1.00  0.00    -0.356 N 
ATOM      4  C   UNL A   1      32.167  22.285  25.194  1.00  0.00     0.223 C 
ATOM      5  O   UNL A   1      31.417  21.453  25.714  1.00  0.00    -0.275 OA
ATOM      6  H   UNL A   1      33.578  20.907  25.003  1.00  0.00     0.163 HD
BRANCH   4   7
ATOM      7  C   UNL A   1      31.645  23.666  24.845  1.00  0.00     0.140 C 
BRANCH   7   8
ATOM      8  C   UNL A   1      30.899  24.421  25.929  1.00  0.00     0.190 C 
BRANCH   8   9
ATOM      9  C   UNL A   1      31.116  25.924  26.014  1.00  0.00     0.139 A 
ATOM     10  N   UNL A   1      30.960  26.911  25.041  1.00  0.00    -0.323 N 
ATOM     11  C   UNL A   1      31.555  28.074  25.524  1.00  0.00     0.069 A 
ATOM     12  N   UNL A   1      31.650  26.457  27.106  1.00  0.00    -0.230 NA
ATOM     13  C   UNL A   1      31.978  27.750  26.804  1.00  0.00     0.090 A 
ATOM     14  C   UNL A   1      31.763  29.349  24.970  1.00  0.00     0.030 A 
ATOM     15  C   UNL A   1      32.647  28.709  27.582  1.00  0.00     0.051 A 
ATOM     16  C   UNL A   1      32.434  30.294  25.750  1.00  0.00     0.023 A 
ATOM     17  C   UNL A   1      32.868  29.976  27.034  1.00  0.00     0.043 A 
ATOM     18  Cl  UNL A   1      33.677  31.177  27.969  1.00  0.00    -0.084 Cl
BRANCH  10  19
ATOM     19  C   UNL A   1      30.263  26.908  23.755  1.00  0.00     0.083 C 
ATOM     20  C   UNL A   1      31.029  26.339  22.567  1.00  0.00     0.031 C 
ATOM     21  C   UNL A   1      28.818  26.413  23.879  1.00  0.00     0.031 C 
ENDBRANCH  10  19
ENDBRANCH   8   9
BRANCH   8  22
ATOM     22  O   UNL A   1      31.148  23.922  27.234  1.00  0.00    -0.385 OA
ATOM     23  H   UNL A   1      31.983  23.427  27.238  1.00  0.00     0.211 HD
ENDBRANCH   8  22
ENDBRANCH   7   8
ENDBRANCH   4   7
ENDBRANCH   2   3
ENDBRANCH   1   2
BRANCH   1  24
ATOM     24  C   UNL A   1      37.085  22.871  24.617  1.00  0.00     0.118 C 
BRANCH  24  25
ATOM     25  N   UNL A   1      38.135  22.032  25.162  1.00  0.00    -0.352 N 
ATOM     26  C   UNL A   1      39.076  22.180  26.145  1.00  0.00     0.251 C 
ATOM     27  H   UNL A   1      38.182  21.152  24.723  1.00  0.00     0.163 HD
ATOM     28  O   UNL A   1      39.713  21.160  26.424  1.00  0.00    -0.269 OA
BRANCH  26  29
ATOM     29  C   UNL A   1      39.405  23.450  26.852  1.00  0.00     0.039 A 
ATOM     30  C   UNL A   1      38.660  24.627  26.801  1.00  0.00     0.014 A 
ATOM     31  C   UNL A   1      40.621  23.462  27.563  1.00  0.00     0.014 A 
ATOM     32  C   UNL A   1      39.155  25.803  27.364  1.00  0.00     0.010 A 
ATOM     33  C   UNL A   1      41.106  24.628  28.151  1.00  0.00     0.010 A 
ATOM     34  C   UNL A   1      40.394  25.814  28.013  1.00  0.00    -0.014 A 
BRANCH  34  35
ATOM     35  C   UNL A   1      40.843  27.074  28.612  1.00  0.00     0.031 A 
ATOM     36  C   UNL A   1      42.086  27.650  28.021  1.00  0.00     0.074 A 
ATOM     37  C   UNL A   1      40.162  27.770  29.545  1.00  0.00     0.049 A 
ATOM     38  N   UNL A   1      43.239  27.830  28.582  1.00  0.00    -0.248 NA
ATOM     39  C   UNL A   1      42.064  27.978  26.587  1.00  0.00     0.031 C 
ATOM     40  C   UNL A   1      38.802  27.535  30.038  1.00  0.00     0.029 A 
ATOM     41  N   UNL A   1      40.528  28.915  30.192  1.00  0.00    -0.354 N 
ATOM     42  C   UNL A   1      44.032  28.481  27.637  1.00  0.00     0.074 A 
ATOM     43  C   UNL A   1      43.310  28.414  26.393  1.00  0.00     0.031 C 
ATOM     44  C   UNL A   1      38.387  28.618  30.733  1.00  0.00     0.029 A 
ATOM     45  C   UNL A   1      39.491  29.554  30.860  1.00  0.00     0.049 A 
ATOM     46  H   UNL A   1      41.451  29.259  30.186  1.00  0.00     0.167 HD
ATOM     47  C   UNL A   1      45.133  29.203  27.988  1.00  0.00     0.037 A 
ATOM     48  C   UNL A   1      39.524  30.784  31.432  1.00  0.00     0.037 A 
ATOM     49  C   UNL A   1      45.589  28.869  29.312  1.00  0.00     0.049 A 
ATOM     50  C   UNL A   1      40.946  31.119  31.687  1.00  0.00     0.074 A 
ATOM     51  C   UNL A   1      46.021  27.715  29.935  1.00  0.00     0.029 A 
ATOM     52  N   UNL A   1      45.346  29.766  30.323  1.00  0.00    -0.354 N 
ATOM     53  N   UNL A   1      41.699  30.513  32.564  1.00  0.00    -0.248 NA
ATOM     54  C   UNL A   1      41.660  31.887  30.678  1.00  0.00     0.031 C 
ATOM     55  C   UNL A   1      45.546  27.817  31.275  1.00  0.00     0.029 A 
ATOM     56  C   UNL A   1      44.889  29.043  31.393  1.00  0.00     0.049 A 
ATOM     57  H   UNL A   1      45.474  30.741  30.286  1.00  0.00     0.167 HD
ATOM     58  C   UNL A   1      42.960  30.482  31.989  1.00  0.00     0.074 A 
ATOM     59  C   UNL A   1      42.896  31.430  30.881  1.00  0.00     0.031 C 
ATOM     60  C   UNL A   1      43.855  29.497  32.293  1.00  0.00     0.037 A 
BRANCH  47  61
ATOM     61  C   UNL A   1      45.591  30.464  27.286  1.00  0.00     0.058 A 
ATOM     62  C   UNL A   1      46.966  30.652  27.028  1.00  0.00     0.135 A 
ATOM     63  C   UNL A   1      44.785  31.615  27.148  1.00  0.00     0.135 A 
ATOM     64  F   UNL A   1      47.826  29.625  27.120  1.00  0.00    -0.206 F 
ATOM     65  C   UNL A   1      47.513  31.908  26.760  1.00  0.00     0.059 A 
ATOM     66  C   UNL A   1      45.301  32.865  26.827  1.00  0.00     0.059 A 
ATOM     67  F   UNL A   1      43.474  31.607  27.418  1.00  0.00    -0.206 F 
ATOM     68  C   UNL A   1      46.671  33.013  26.689  1.00  0.00     0.060 A 
BRANCH  68  69
ATOM     69  S   UNL A   1      47.384  34.658  26.507  1.00  0.00     0.124 S 
ATOM     70  O   UNL A   1      48.568  34.552  27.352  1.00  0.00    -0.237 OA
ATOM     71  O   UNL A   1      47.626  34.726  25.070  1.00  0.00    -0.237 OA
ATOM     72  O   UNL A   1      46.329  35.536  27.003  1.00  0.00    -0.744 OA
ENDBRANCH  68  69
ENDBRANCH  47  61
BRANCH  48  73
ATOM     73  C   UNL A   1      38.441  31.800  31.519  1.00  0.00     0.058 A 
ATOM     74  C   UNL A   1      37.846  32.337  30.362  1.00  0.00     0.135 A 
ATOM     75  C   UNL A   1      37.772  32.053  32.734  1.00  0.00     0.135 A 
ATOM     76  F   UNL A   1      38.401  32.128  29.158  1.00  0.00    -0.206 F 
ATOM     77  C   UNL A   1      36.636  33.039  30.401  1.00  0.00     0.059 A 
ATOM     78  C   UNL A   1      36.572  32.759  32.799  1.00  0.00     0.059 A 
ATOM     79  F   UNL A   1      38.220  31.539  33.889  1.00  0.00    -0.206 F 
ATOM     80  C   UNL A   1      35.994  33.226  31.625  1.00  0.00     0.060 A 
BRANCH  80  81
ATOM     81  S   UNL A   1      34.350  33.981  31.659  1.00  0.00     0.124 S 
ATOM     82  O   UNL A   1      33.914  33.820  30.276  1.00  0.00    -0.237 OA
ATOM     83  O   UNL A   1      33.657  33.160  32.645  1.00  0.00    -0.237 OA
ATOM     84  O   UNL A   1      34.617  35.357  32.072  1.00  0.00    -0.744 OA
ENDBRANCH  80  81
ENDBRANCH  48  73
BRANCH  60  85
ATOM     85  C   UNL A   1      43.604  28.640  33.502  1.00  0.00     0.058 A 
ATOM     86  C   UNL A   1      43.869  29.043  34.823  1.00  0.00     0.135 A 
ATOM     87  C   UNL A   1      42.880  27.451  33.323  1.00  0.00     0.135 A 
ATOM     88  F   UNL A   1      44.473  30.212  35.079  1.00  0.00    -0.206 F 
ATOM     89  C   UNL A   1      43.438  28.288  35.915  1.00  0.00     0.059 A 
ATOM     90  C   UNL A   1      42.417  26.699  34.398  1.00  0.00     0.059 A 
ATOM     91  F   UNL A   1      42.550  27.046  32.085  1.00  0.00    -0.206 F 
ATOM     92  C   UNL A   1      42.702  27.125  35.694  1.00  0.00     0.060 A 
BRANCH  92  93
ATOM     93  S   UNL A   1      42.025  26.226  37.107  1.00  0.00     0.124 S 
ATOM     94  O   UNL A   1      43.079  26.393  38.108  1.00  0.00    -0.237 OA
ATOM     95  O   UNL A   1      40.784  26.956  37.376  1.00  0.00    -0.237 OA
ATOM     96  O   UNL A   1      41.846  24.875  36.605  1.00  0.00    -0.744 OA
ENDBRANCH  92  93
ENDBRANCH  60  85
ENDBRANCH  34  35
ENDBRANCH  26  29
ENDBRANCH  24  25
ENDBRANCH   1  24
TORSDOF 17
ENDMDL
MODEL 3
REMARK VINA RESULT:     -12.3      3.179      9.432
REMARK SMILES CC(C)n1c([C@H](O)CC(=O)NCCCNC(=O)c2ccc(-c3c4nc(c(-c5c(F)cc(S(=O)(=O)[O-])cc5F)c5ccc([nH]5)c(-c5c(F)cc(S(=O)(=O)[O-])cc5F)c5nc(c(-c6c(F)cc(S(=O)(=O)[O-])cc6F)c6ccc3[nH]6)C=C5)C=C4)cc2)nc2cc(Cl)ccc21
REMARK SMILES IDX 13 1 12 2 11 3 9 4 10 5 8 7 6 8 5 9 4 10 91 11 84 12 85 13
REMARK SMILES IDX 90 14 86 15 89 16 87 17 88 18 2 19 1 20 3 21 7 22 14 24
REMARK SMILES IDX 15 25 16 26 17 28 18 29 19 30 83 31 20 32 82 33 21 34 22 35
REMARK SMILES IDX 23 36 76 37 24 38 81 39 75 40 77 41 25 42 80 43 74 44 73 45
REMARK SMILES IDX 26 47 60 48 39 49 59 50 40 51 43 52 58 53 78 54 41 55 42 56
REMARK SMILES IDX 57 58 79 59 44 60 27 61 28 62 37 63 29 64 30 65 36 66 38 67
REMARK SMILES IDX 31 68 32 69 33 70 34 71 35 72 61 73 62 74 71 75 63 76 64 77
REMARK SMILES IDX 70 78 72 79 65 80 66 81 67 82 68 83 69 84 45 85 46 86 55 87
REMARK SMILES IDX 47 88 48 89 54 90 56 91 49 92 50 93 51 94 52 95 53 96
REMARK H PARENT 11 6 7 23 15 27 77 46 43 57
REMARK Flexibility Score: inf
ROOT
ATOM      1  C   UNL A   1      32.055  30.505  26.111  1.00  0.00     0.042 C 
ENDROOT
BRANCH   1   2
ATOM      2  C   UNL A   1      31.791  29.460  25.027  1.00  0.00     0.117 C 
BRANCH   2   3
ATOM      3  N   UNL A   1      32.889  29.359  24.076  1.00  0.00    -0.356 N 
ATOM      4  C   UNL A   1      33.104  28.512  23.031  1.00  0.00     0.223 C 
ATOM      5  O   UNL A   1      34.178  28.618  22.432  1.00  0.00    -0.275 OA
ATOM      6  H   UNL A   1      33.604  30.021  24.214  1.00  0.00     0.163 HD
BRANCH   4   7
ATOM      7  C   UNL A   1      32.037  27.563  22.518  1.00  0.00     0.140 C 
BRANCH   7   8
ATOM      8  C   UNL A   1      32.504  26.241  21.938  1.00  0.00     0.190 C 
BRANCH   8   9
ATOM      9  C   UNL A   1      33.116  25.231  22.895  1.00  0.00     0.139 A 
ATOM     10  N   UNL A   1      32.641  24.745  24.113  1.00  0.00    -0.323 N 
ATOM     11  C   UNL A   1      33.690  24.069  24.733  1.00  0.00     0.069 A 
ATOM     12  N   UNL A   1      34.346  24.775  22.684  1.00  0.00    -0.230 NA
ATOM     13  C   UNL A   1      34.732  24.117  23.819  1.00  0.00     0.090 A 
ATOM     14  C   UNL A   1      33.823  23.440  25.983  1.00  0.00     0.030 A 
ATOM     15  C   UNL A   1      35.968  23.534  24.139  1.00  0.00     0.051 A 
ATOM     16  C   UNL A   1      35.059  22.868  26.294  1.00  0.00     0.023 A 
ATOM     17  C   UNL A   1      36.112  22.915  25.384  1.00  0.00     0.043 A 
ATOM     18  Cl  UNL A   1      37.616  22.183  25.801  1.00  0.00    -0.084 Cl
BRANCH  10  19
ATOM     19  C   UNL A   1      31.313  24.780  24.723  1.00  0.00     0.083 C 
ATOM     20  C   UNL A   1      31.036  25.928  25.685  1.00  0.00     0.031 C 
ATOM     21  C   UNL A   1      30.198  24.519  23.703  1.00  0.00     0.031 C 
ENDBRANCH  10  19
ENDBRANCH   8   9
BRANCH   8  22
ATOM     22  O   UNL A   1      33.444  26.391  20.885  1.00  0.00    -0.385 OA
ATOM     23  H   UNL A   1      33.048  26.091  20.051  1.00  0.00     0.211 HD
ENDBRANCH   8  22
ENDBRANCH   7   8
ENDBRANCH   4   7
ENDBRANCH   2   3
ENDBRANCH   1   2
BRANCH   1  24
ATOM     24  C   UNL A   1      33.383  30.319  26.844  1.00  0.00     0.118 C 
BRANCH  24  25
ATOM     25  N   UNL A   1      33.595  31.267  27.921  1.00  0.00    -0.352 N 
ATOM     26  C   UNL A   1      34.674  31.651  28.670  1.00  0.00     0.251 C 
ATOM     27  H   UNL A   1      32.771  31.744  28.172  1.00  0.00     0.163 HD
ATOM     28  O   UNL A   1      34.484  32.619  29.413  1.00  0.00    -0.269 OA
BRANCH  26  29
ATOM     29  C   UNL A   1      36.006  30.984  28.684  1.00  0.00     0.039 A 
ATOM     30  C   UNL A   1      36.236  29.619  28.516  1.00  0.00     0.014 A 
ATOM     31  C   UNL A   1      37.108  31.813  28.975  1.00  0.00     0.014 A 
ATOM     32  C   UNL A   1      37.508  29.085  28.720  1.00  0.00     0.010 A 
ATOM     33  C   UNL A   1      38.386  31.287  29.152  1.00  0.00     0.010 A 
ATOM     34  C   UNL A   1      38.580  29.913  29.069  1.00  0.00    -0.014 A 
BRANCH  34  35
ATOM     35  C   UNL A   1      39.898  29.295  29.238  1.00  0.00     0.031 A 
ATOM     36  C   UNL A   1      40.381  29.203  30.646  1.00  0.00     0.074 A 
ATOM     37  C   UNL A   1      40.614  28.725  28.247  1.00  0.00     0.049 A 
ATOM     38  N   UNL A   1      41.404  29.783  31.189  1.00  0.00    -0.248 NA
ATOM     39  C   UNL A   1      39.556  28.440  31.595  1.00  0.00     0.031 C 
ATOM     40  C   UNL A   1      40.197  28.450  26.869  1.00  0.00     0.029 A 
ATOM     41  N   UNL A   1      41.864  28.177  28.303  1.00  0.00    -0.354 N 
ATOM     42  C   UNL A   1      41.473  29.301  32.496  1.00  0.00     0.074 A 
ATOM     43  C   UNL A   1      40.239  28.599  32.731  1.00  0.00     0.031 C 
ATOM     44  C   UNL A   1      41.084  27.605  26.295  1.00  0.00     0.029 A 
ATOM     45  C   UNL A   1      42.199  27.397  27.204  1.00  0.00     0.049 A 
ATOM     46  H   UNL A   1      42.476  28.324  29.060  1.00  0.00     0.167 HD
ATOM     47  C   UNL A   1      42.625  29.343  33.223  1.00  0.00     0.037 A 
ATOM     48  C   UNL A   1      43.289  26.601  27.069  1.00  0.00     0.037 A 
ATOM     49  C   UNL A   1      43.571  30.275  32.670  1.00  0.00     0.049 A 
ATOM     50  C   UNL A   1      44.309  27.076  28.036  1.00  0.00     0.074 A 
ATOM     51  C   UNL A   1      43.567  31.631  32.407  1.00  0.00     0.029 A 
ATOM     52  N   UNL A   1      44.655  29.771  31.994  1.00  0.00    -0.354 N 
ATOM     53  N   UNL A   1      44.933  28.219  27.945  1.00  0.00    -0.248 NA
ATOM     54  C   UNL A   1      44.363  26.439  29.343  1.00  0.00     0.031 C 
ATOM     55  C   UNL A   1      44.334  31.780  31.215  1.00  0.00     0.029 A 
ATOM     56  C   UNL A   1      44.788  30.511  30.849  1.00  0.00     0.049 A 
ATOM     57  H   UNL A   1      45.226  29.021  32.277  1.00  0.00     0.167 HD
ATOM     58  C   UNL A   1      45.101  28.637  29.255  1.00  0.00     0.074 A 
ATOM     59  C   UNL A   1      44.824  27.458  30.070  1.00  0.00     0.031 C 
ATOM     60  C   UNL A   1      45.183  29.962  29.572  1.00  0.00     0.037 A 
BRANCH  47  61
ATOM     61  C   UNL A   1      43.044  28.287  34.225  1.00  0.00     0.058 A 
ATOM     62  C   UNL A   1      43.350  28.672  35.548  1.00  0.00     0.135 A 
ATOM     63  C   UNL A   1      43.459  26.988  33.860  1.00  0.00     0.135 A 
ATOM     64  F   UNL A   1      42.997  29.883  36.008  1.00  0.00    -0.206 F 
ATOM     65  C   UNL A   1      44.104  27.870  36.406  1.00  0.00     0.059 A 
ATOM     66  C   UNL A   1      44.163  26.150  34.717  1.00  0.00     0.059 A 
ATOM     67  F   UNL A   1      43.294  26.505  32.623  1.00  0.00    -0.206 F 
ATOM     68  C   UNL A   1      44.529  26.620  35.968  1.00  0.00     0.060 A 
BRANCH  68  69
ATOM     69  S   UNL A   1      45.638  25.648  37.004  1.00  0.00     0.124 S 
ATOM     70  O   UNL A   1      45.081  25.895  38.329  1.00  0.00    -0.237 OA
ATOM     71  O   UNL A   1      45.450  24.303  36.471  1.00  0.00    -0.237 OA
ATOM     72  O   UNL A   1      46.945  26.245  36.745  1.00  0.00    -0.744 OA
ENDBRANCH  68  69
ENDBRANCH  47  61
BRANCH  48  73
ATOM     73  C   UNL A   1      43.408  25.295  26.367  1.00  0.00     0.058 A 
ATOM     74  C   UNL A   1      44.340  25.103  25.331  1.00  0.00     0.135 A 
ATOM     75  C   UNL A   1      42.812  24.129  26.889  1.00  0.00     0.135 A 
ATOM     76  F   UNL A   1      44.975  26.155  24.789  1.00  0.00    -0.206 F 
ATOM     77  C   UNL A   1      44.698  23.829  24.874  1.00  0.00     0.059 A 
ATOM     78  C   UNL A   1      43.144  22.850  26.441  1.00  0.00     0.059 A 
ATOM     79  F   UNL A   1      41.954  24.192  27.917  1.00  0.00    -0.206 F 
ATOM     80  C   UNL A   1      44.109  22.706  25.452  1.00  0.00     0.060 A 
BRANCH  80  81
ATOM     81  S   UNL A   1      44.691  21.058  24.984  1.00  0.00     0.124 S 
ATOM     82  O   UNL A   1      46.041  21.046  25.536  1.00  0.00    -0.237 OA
ATOM     83  O   UNL A   1      43.723  20.192  25.648  1.00  0.00    -0.237 OA
ATOM     84  O   UNL A   1      44.614  21.072  23.525  1.00  0.00    -0.744 OA
ENDBRANCH  80  81
ENDBRANCH  48  73
BRANCH  60  85
ATOM     85  C   UNL A   1      45.434  30.956  28.472  1.00  0.00     0.058 A 
ATOM     86  C   UNL A   1      44.433  31.462  27.625  1.00  0.00     0.135 A 
ATOM     87  C   UNL A   1      46.697  31.565  28.416  1.00  0.00     0.135 A 
ATOM     88  F   UNL A   1      43.178  30.995  27.684  1.00  0.00    -0.206 F 
ATOM     89  C   UNL A   1      44.685  32.522  26.753  1.00  0.00     0.059 A 
ATOM     90  C   UNL A   1      46.961  32.642  27.576  1.00  0.00     0.059 A 
ATOM     91  F   UNL A   1      47.676  31.159  29.243  1.00  0.00    -0.206 F 
ATOM     92  C   UNL A   1      45.947  33.115  26.745  1.00  0.00     0.060 A 
BRANCH  92  93
ATOM     93  S   UNL A   1      46.229  34.576  25.721  1.00  0.00     0.124 S 
ATOM     94  O   UNL A   1      45.242  34.397  24.655  1.00  0.00    -0.237 OA
ATOM     95  O   UNL A   1      45.953  35.671  26.655  1.00  0.00    -0.237 OA
ATOM     96  O   UNL A   1      47.618  34.451  25.314  1.00  0.00    -0.744 OA
ENDBRANCH  92  93
ENDBRANCH  60  85
ENDBRANCH  34  35
ENDBRANCH  26  29
ENDBRANCH  24  25
ENDBRANCH   1  24
TORSDOF 17
ENDMDL
