MODEL 1
REMARK VINA RESULT:     -11.1      0.000      0.000
REMARK SMILES CC(=C/C(=O)NCCCNC(=O)c1ccc(-c2c3nc(c(-c4c(F)cc(S(=O)(=O)[O-])cc4F)c4ccc([nH]4)c(-c4c(F)cc(S(=O)(=O)[O-])cc4F)c4nc(c(-c5c(F)cc(S(=O)(=O)[O-])cc5F)c5ccc2[nH]5)C=C4)C=C3)cc1)/C=C/c1ccc2ccccc2c1
REMARK SMILES IDX 8 1 7 2 6 3 4 4 5 5 3 7 1 8 2 9 79 10 80 11 81 12 82 13
REMARK SMILES IDX 90 14 83 15 89 16 84 17 88 18 85 19 87 20 86 21 9 22 10 23
REMARK SMILES IDX 11 24 12 26 13 27 14 28 78 29 15 30 77 31 16 32 17 33 18 34
REMARK SMILES IDX 71 35 19 36 76 37 70 38 72 39 20 40 75 41 69 42 68 43 21 45
REMARK SMILES IDX 55 46 34 47 54 48 35 49 38 50 53 51 73 52 36 53 37 54 52 56
REMARK SMILES IDX 74 57 39 58 22 59 23 60 32 61 24 62 25 63 31 64 33 65 26 66
REMARK SMILES IDX 27 67 28 68 29 69 30 70 56 71 57 72 66 73 58 74 59 75 65 76
REMARK SMILES IDX 67 77 60 78 61 79 62 80 63 81 64 82 40 83 41 84 50 85 42 86
REMARK SMILES IDX 43 87 49 88 51 89 44 90 45 91 46 92 47 93 48 94
REMARK H PARENT 6 6 10 25 72 44 38 55
REMARK Flexibility Score: inf
ROOT
ATOM      1  C   UNL A   1      40.844  21.334  27.158  1.00  0.00     0.042 C 
ENDROOT
BRANCH   1   2
ATOM      2  C   UNL A   1      42.077  20.702  26.556  1.00  0.00     0.118 C 
BRANCH   2   3
ATOM      3  N   UNL A   1      42.416  19.369  26.996  1.00  0.00    -0.352 N 
ATOM      4  C   UNL A   1      43.214  18.442  26.401  1.00  0.00     0.244 C 
ATOM      5  O   UNL A   1      43.392  17.368  26.982  1.00  0.00    -0.270 OA
ATOM      6  H   UNL A   1      42.011  19.093  27.850  1.00  0.00     0.163 HD
BRANCH   4   7
ATOM      7  C   UNL A   1      43.788  18.586  25.026  1.00  0.00     0.074 C 
ATOM      8  C   UNL A   1      44.926  19.181  22.923  1.00  0.00     0.044 C 
ATOM      9  C   UNL A   1      44.741  19.326  24.418  1.00  0.00    -0.046 C 
BRANCH   9  10
ATOM     10  C   UNL A   1      45.571  20.331  25.081  1.00  0.00     0.004 C 
ATOM     11  C   UNL A   1      45.587  21.609  24.653  1.00  0.00     0.008 C 
BRANCH  11  12
ATOM     12  C   UNL A   1      45.876  22.803  25.474  1.00  0.00    -0.025 A 
ATOM     13  C   UNL A   1      46.483  23.877  24.805  1.00  0.00     0.009 A 
ATOM     14  C   UNL A   1      45.535  22.968  26.821  1.00  0.00     0.016 A 
ATOM     15  C   UNL A   1      46.735  25.088  25.449  1.00  0.00     0.009 A 
ATOM     16  C   UNL A   1      45.789  24.189  27.494  1.00  0.00    -0.018 A 
ATOM     17  C   UNL A   1      46.397  25.258  26.792  1.00  0.00    -0.018 A 
ATOM     18  C   UNL A   1      45.453  24.386  28.844  1.00  0.00     0.009 A 
ATOM     19  C   UNL A   1      46.655  26.474  27.445  1.00  0.00     0.009 A 
ATOM     20  C   UNL A   1      45.722  25.600  29.485  1.00  0.00     0.001 A 
ATOM     21  C   UNL A   1      46.327  26.640  28.788  1.00  0.00     0.001 A 
ENDBRANCH  11  12
ENDBRANCH   9  10
ENDBRANCH   4   7
ENDBRANCH   2   3
ENDBRANCH   1   2
BRANCH   1  22
ATOM     22  C   UNL A   1      40.576  22.775  26.774  1.00  0.00     0.118 C 
BRANCH  22  23
ATOM     23  N   UNL A   1      41.564  23.368  25.881  1.00  0.00    -0.352 N 
ATOM     24  C   UNL A   1      42.319  24.521  25.955  1.00  0.00     0.251 C 
ATOM     25  H   UNL A   1      41.722  22.842  25.063  1.00  0.00     0.163 HD
ATOM     26  O   UNL A   1      43.070  24.796  25.031  1.00  0.00    -0.269 OA
BRANCH  24  27
ATOM     27  C   UNL A   1      42.213  25.440  27.116  1.00  0.00     0.039 A 
ATOM     28  C   UNL A   1      42.940  26.636  27.099  1.00  0.00     0.014 A 
ATOM     29  C   UNL A   1      41.425  25.140  28.225  1.00  0.00     0.014 A 
ATOM     30  C   UNL A   1      42.787  27.568  28.131  1.00  0.00     0.010 A 
ATOM     31  C   UNL A   1      41.180  26.110  29.189  1.00  0.00     0.010 A 
ATOM     32  C   UNL A   1      41.864  27.332  29.159  1.00  0.00    -0.014 A 
BRANCH  32  33
ATOM     33  C   UNL A   1      41.622  28.312  30.247  1.00  0.00     0.031 A 
ATOM     34  C   UNL A   1      42.425  28.212  31.518  1.00  0.00     0.074 A 
ATOM     35  C   UNL A   1      40.620  29.206  30.138  1.00  0.00     0.049 A 
ATOM     36  N   UNL A   1      42.279  28.861  32.643  1.00  0.00    -0.248 NA
ATOM     37  C   UNL A   1      43.515  27.220  31.539  1.00  0.00     0.031 C 
ATOM     38  C   UNL A   1      39.731  29.351  28.981  1.00  0.00     0.029 A 
ATOM     39  N   UNL A   1      40.156  30.145  31.026  1.00  0.00    -0.354 N 
ATOM     40  C   UNL A   1      43.228  28.333  33.510  1.00  0.00     0.074 A 
ATOM     41  C   UNL A   1      43.917  27.280  32.800  1.00  0.00     0.031 C 
ATOM     42  C   UNL A   1      38.835  30.321  29.231  1.00  0.00     0.029 A 
ATOM     43  C   UNL A   1      39.059  30.844  30.575  1.00  0.00     0.049 A 
ATOM     44  H   UNL A   1      40.570  30.305  31.905  1.00  0.00     0.167 HD
ATOM     45  C   UNL A   1      43.513  28.708  34.778  1.00  0.00     0.037 A 
ATOM     46  C   UNL A   1      38.311  31.784  31.185  1.00  0.00     0.037 A 
ATOM     47  C   UNL A   1      42.862  29.796  35.455  1.00  0.00     0.049 A 
ATOM     48  C   UNL A   1      38.682  32.214  32.580  1.00  0.00     0.074 A 
ATOM     49  C   UNL A   1      43.140  30.321  36.705  1.00  0.00     0.029 A 
ATOM     50  N   UNL A   1      41.804  30.527  34.936  1.00  0.00    -0.354 N 
ATOM     51  N   UNL A   1      39.642  31.764  33.354  1.00  0.00    -0.248 NA
ATOM     52  C   UNL A   1      37.878  33.286  33.185  1.00  0.00     0.031 C 
ATOM     53  C   UNL A   1      42.224  31.348  36.957  1.00  0.00     0.029 A 
ATOM     54  C   UNL A   1      41.405  31.488  35.848  1.00  0.00     0.049 A 
ATOM     55  H   UNL A   1      41.398  30.384  34.051  1.00  0.00     0.167 HD
ATOM     56  C   UNL A   1      39.571  32.513  34.523  1.00  0.00     0.074 A 
ATOM     57  C   UNL A   1      38.486  33.455  34.351  1.00  0.00     0.031 C 
ATOM     58  C   UNL A   1      40.334  32.428  35.642  1.00  0.00     0.037 A 
BRANCH  45  59
ATOM     59  C   UNL A   1      44.583  27.951  35.513  1.00  0.00     0.058 A 
ATOM     60  C   UNL A   1      45.932  28.338  35.456  1.00  0.00     0.135 A 
ATOM     61  C   UNL A   1      44.249  26.858  36.328  1.00  0.00     0.135 A 
ATOM     62  F   UNL A   1      46.309  29.364  34.676  1.00  0.00    -0.206 F 
ATOM     63  C   UNL A   1      46.913  27.659  36.169  1.00  0.00     0.059 A 
ATOM     64  C   UNL A   1      45.211  26.179  37.070  1.00  0.00     0.059 A 
ATOM     65  F   UNL A   1      42.975  26.442  36.412  1.00  0.00    -0.206 F 
ATOM     66  C   UNL A   1      46.543  26.583  36.977  1.00  0.00     0.060 A 
BRANCH  66  67
ATOM     67  S   UNL A   1      47.825  25.735  37.926  1.00  0.00     0.124 S 
ATOM     68  O   UNL A   1      47.753  24.387  37.370  1.00  0.00    -0.237 OA
ATOM     69  O   UNL A   1      49.020  26.499  37.584  1.00  0.00    -0.237 OA
ATOM     70  O   UNL A   1      47.371  25.870  39.306  1.00  0.00    -0.744 OA
ENDBRANCH  66  67
ENDBRANCH  45  59
BRANCH  46  71
ATOM     71  C   UNL A   1      37.142  32.389  30.490  1.00  0.00     0.058 A 
ATOM     72  C   UNL A   1      37.301  33.471  29.611  1.00  0.00     0.135 A 
ATOM     73  C   UNL A   1      35.841  31.912  30.708  1.00  0.00     0.135 A 
ATOM     74  F   UNL A   1      38.525  33.965  29.372  1.00  0.00    -0.206 F 
ATOM     75  C   UNL A   1      36.211  34.082  28.999  1.00  0.00     0.059 A 
ATOM     76  C   UNL A   1      34.736  32.490  30.087  1.00  0.00     0.059 A 
ATOM     77  F   UNL A   1      35.633  30.866  31.523  1.00  0.00    -0.206 F 
ATOM     78  C   UNL A   1      34.930  33.586  29.248  1.00  0.00     0.060 A 
BRANCH  78  79
ATOM     79  S   UNL A   1      33.520  34.373  28.437  1.00  0.00     0.124 S 
ATOM     80  O   UNL A   1      32.972  33.266  27.663  1.00  0.00    -0.237 OA
ATOM     81  O   UNL A   1      32.720  34.819  29.572  1.00  0.00    -0.237 OA
ATOM     82  O   UNL A   1      34.139  35.442  27.659  1.00  0.00    -0.744 OA
ENDBRANCH  78  79
ENDBRANCH  46  71
BRANCH  58  83
ATOM     83  C   UNL A   1      40.048  33.402  36.749  1.00  0.00     0.058 A 
ATOM     84  C   UNL A   1      39.170  33.087  37.797  1.00  0.00     0.135 A 
ATOM     85  C   UNL A   1      40.716  34.636  36.797  1.00  0.00     0.135 A 
ATOM     86  F   UNL A   1      38.504  31.921  37.793  1.00  0.00    -0.206 F 
ATOM     87  C   UNL A   1      38.950  33.970  38.848  1.00  0.00     0.059 A 
ATOM     88  C   UNL A   1      40.530  35.523  37.851  1.00  0.00     0.059 A 
ATOM     89  F   UNL A   1      41.576  34.978  35.824  1.00  0.00    -0.206 F 
ATOM     90  C   UNL A   1      39.637  35.185  38.867  1.00  0.00     0.060 A 
BRANCH  90  91
ATOM     91  S   UNL A   1      39.377  36.305  40.258  1.00  0.00     0.124 S 
ATOM     92  O   UNL A   1      40.682  36.272  40.909  1.00  0.00    -0.237 OA
ATOM     93  O   UNL A   1      39.031  37.558  39.593  1.00  0.00    -0.237 OA
ATOM     94  O   UNL A   1      38.289  35.676  41.000  1.00  0.00    -0.744 OA
ENDBRANCH  90  91
ENDBRANCH  58  83
ENDBRANCH  32  33
ENDBRANCH  24  27
ENDBRANCH  22  23
ENDBRANCH   1  22
TORSDOF 15
ENDMDL
MODEL 2
REMARK VINA RESULT:     -11.0      4.674     11.935
REMARK SMILES CC(=C/C(=O)NCCCNC(=O)c1ccc(-c2c3nc(c(-c4c(F)cc(S(=O)(=O)[O-])cc4F)c4ccc([nH]4)c(-c4c(F)cc(S(=O)(=O)[O-])cc4F)c4nc(c(-c5c(F)cc(S(=O)(=O)[O-])cc5F)c5ccc2[nH]5)C=C4)C=C3)cc1)/C=C/c1ccc2ccccc2c1
REMARK SMILES IDX 8 1 7 2 6 3 4 4 5 5 3 7 1 8 2 9 79 10 80 11 81 12 82 13
REMARK SMILES IDX 90 14 83 15 89 16 84 17 88 18 85 19 87 20 86 21 9 22 10 23
REMARK SMILES IDX 11 24 12 26 13 27 14 28 78 29 15 30 77 31 16 32 17 33 18 34
REMARK SMILES IDX 71 35 19 36 76 37 70 38 72 39 20 40 75 41 69 42 68 43 21 45
REMARK SMILES IDX 55 46 34 47 54 48 35 49 38 50 53 51 73 52 36 53 37 54 52 56
REMARK SMILES IDX 74 57 39 58 22 59 23 60 32 61 24 62 25 63 31 64 33 65 26 66
REMARK SMILES IDX 27 67 28 68 29 69 30 70 56 71 57 72 66 73 58 74 59 75 65 76
REMARK SMILES IDX 67 77 60 78 61 79 62 80 63 81 64 82 40 83 41 84 50 85 42 86
REMARK SMILES IDX 43 87 49 88 51 89 44 90 45 91 46 92 47 93 48 94
REMARK H PARENT 6 6 10 25 72 44 38 55
REMARK Flexibility Score: inf
ROOT
ATOM      1  C   UNL A   1      35.015  32.759  30.861  1.00  0.00     0.042 C 
ENDROOT
BRANCH   1   2
ATOM      2  C   UNL A   1      35.275  34.068  31.569  1.00  0.00     0.118 C 
BRANCH   2   3
ATOM      3  N   UNL A   1      36.618  34.594  31.509  1.00  0.00    -0.352 N 
ATOM      4  C   UNL A   1      37.652  34.418  32.375  1.00  0.00     0.244 C 
ATOM      5  O   UNL A   1      38.736  34.940  32.102  1.00  0.00    -0.270 OA
ATOM      6  H   UNL A   1      36.813  35.162  30.729  1.00  0.00     0.163 HD
BRANCH   4   7
ATOM      7  C   UNL A   1      37.529  33.740  33.704  1.00  0.00     0.074 C 
ATOM      8  C   UNL A   1      37.461  32.266  35.677  1.00  0.00     0.044 C 
ATOM      9  C   UNL A   1      37.890  32.561  34.256  1.00  0.00    -0.046 C 
BRANCH   9  10
ATOM     10  C   UNL A   1      38.608  31.495  33.560  1.00  0.00     0.004 C 
ATOM     11  C   UNL A   1      39.929  31.595  33.312  1.00  0.00     0.008 C 
BRANCH  11  12
ATOM     12  C   UNL A   1      40.878  30.473  33.160  1.00  0.00    -0.025 A 
ATOM     13  C   UNL A   1      40.337  29.268  32.685  1.00  0.00     0.009 A 
ATOM     14  C   UNL A   1      42.259  30.538  33.382  1.00  0.00     0.016 A 
ATOM     15  C   UNL A   1      41.143  28.160  32.424  1.00  0.00     0.009 A 
ATOM     16  C   UNL A   1      43.092  29.420  33.129  1.00  0.00    -0.018 A 
ATOM     17  C   UNL A   1      42.520  28.220  32.644  1.00  0.00    -0.018 A 
ATOM     18  C   UNL A   1      44.482  29.458  33.337  1.00  0.00     0.009 A 
ATOM     19  C   UNL A   1      43.332  27.104  32.387  1.00  0.00     0.009 A 
ATOM     20  C   UNL A   1      45.279  28.336  33.085  1.00  0.00     0.001 A 
ATOM     21  C   UNL A   1      44.705  27.160  32.616  1.00  0.00     0.001 A 
ENDBRANCH  11  12
ENDBRANCH   9  10
ENDBRANCH   4   7
ENDBRANCH   2   3
ENDBRANCH   1   2
BRANCH   1  22
ATOM     22  C   UNL A   1      34.974  32.813  29.348  1.00  0.00     0.118 C 
BRANCH  22  23
ATOM     23  N   UNL A   1      34.237  31.727  28.713  1.00  0.00    -0.352 N 
ATOM     24  C   UNL A   1      34.610  30.467  28.289  1.00  0.00     0.251 C 
ATOM     25  H   UNL A   1      33.288  31.933  28.555  1.00  0.00     0.163 HD
ATOM     26  O   UNL A   1      33.776  29.753  27.754  1.00  0.00    -0.269 OA
BRANCH  24  27
ATOM     27  C   UNL A   1      36.004  29.982  28.444  1.00  0.00     0.039 A 
ATOM     28  C   UNL A   1      36.871  30.058  27.347  1.00  0.00     0.014 A 
ATOM     29  C   UNL A   1      36.469  29.440  29.640  1.00  0.00     0.014 A 
ATOM     30  C   UNL A   1      38.217  29.701  27.487  1.00  0.00     0.010 A 
ATOM     31  C   UNL A   1      37.826  29.197  29.815  1.00  0.00     0.010 A 
ATOM     32  C   UNL A   1      38.714  29.316  28.739  1.00  0.00    -0.014 A 
BRANCH  32  33
ATOM     33  C   UNL A   1      40.145  28.980  28.955  1.00  0.00     0.031 A 
ATOM     34  C   UNL A   1      41.098  30.068  29.375  1.00  0.00     0.074 A 
ATOM     35  C   UNL A   1      40.598  27.744  28.669  1.00  0.00     0.049 A 
ATOM     36  N   UNL A   1      42.401  30.033  29.474  1.00  0.00    -0.248 NA
ATOM     37  C   UNL A   1      40.511  31.383  29.688  1.00  0.00     0.031 C 
ATOM     38  C   UNL A   1      39.777  26.627  28.190  1.00  0.00     0.029 A 
ATOM     39  N   UNL A   1      41.868  27.223  28.710  1.00  0.00    -0.354 N 
ATOM     40  C   UNL A   1      42.788  31.322  29.823  1.00  0.00     0.074 A 
ATOM     41  C   UNL A   1      41.590  32.128  29.876  1.00  0.00     0.031 C 
ATOM     42  C   UNL A   1      40.564  25.557  27.984  1.00  0.00     0.029 A 
ATOM     43  C   UNL A   1      41.946  25.917  28.282  1.00  0.00     0.049 A 
ATOM     44  H   UNL A   1      42.649  27.737  29.016  1.00  0.00     0.167 HD
ATOM     45  C   UNL A   1      44.029  31.786  30.096  1.00  0.00     0.037 A 
ATOM     46  C   UNL A   1      43.016  25.111  28.130  1.00  0.00     0.037 A 
ATOM     47  C   UNL A   1      45.207  30.962  30.098  1.00  0.00     0.049 A 
ATOM     48  C   UNL A   1      44.381  25.642  28.487  1.00  0.00     0.074 A 
ATOM     49  C   UNL A   1      46.499  31.308  30.454  1.00  0.00     0.029 A 
ATOM     50  N   UNL A   1      45.234  29.625  29.730  1.00  0.00    -0.354 N 
ATOM     51  N   UNL A   1      44.717  26.841  28.901  1.00  0.00    -0.248 NA
ATOM     52  C   UNL A   1      45.512  24.710  28.366  1.00  0.00     0.031 C 
ATOM     53  C   UNL A   1      47.315  30.190  30.264  1.00  0.00     0.029 A 
ATOM     54  C   UNL A   1      46.525  29.136  29.832  1.00  0.00     0.049 A 
ATOM     55  H   UNL A   1      44.453  29.102  29.440  1.00  0.00     0.167 HD
ATOM     56  C   UNL A   1      46.090  26.799  29.113  1.00  0.00     0.074 A 
ATOM     57  C   UNL A   1      46.522  25.454  28.796  1.00  0.00     0.031 C 
ATOM     58  C   UNL A   1      46.923  27.786  29.530  1.00  0.00     0.037 A 
BRANCH  45  59
ATOM     59  C   UNL A   1      44.180  33.243  30.430  1.00  0.00     0.058 A 
ATOM     60  C   UNL A   1      44.253  34.226  29.430  1.00  0.00     0.135 A 
ATOM     61  C   UNL A   1      44.197  33.668  31.768  1.00  0.00     0.135 A 
ATOM     62  F   UNL A   1      44.261  33.873  28.134  1.00  0.00    -0.206 F 
ATOM     63  C   UNL A   1      44.352  35.576  29.744  1.00  0.00     0.059 A 
ATOM     64  C   UNL A   1      44.270  35.016  32.105  1.00  0.00     0.059 A 
ATOM     65  F   UNL A   1      44.138  32.768  32.763  1.00  0.00    -0.206 F 
ATOM     66  C   UNL A   1      44.356  35.963  31.085  1.00  0.00     0.060 A 
BRANCH  66  67
ATOM     67  S   UNL A   1      44.447  37.723  31.476  1.00  0.00     0.124 S 
ATOM     68  O   UNL A   1      45.890  37.928  31.556  1.00  0.00    -0.237 OA
ATOM     69  O   UNL A   1      43.784  38.331  30.328  1.00  0.00    -0.237 OA
ATOM     70  O   UNL A   1      43.727  37.828  32.741  1.00  0.00    -0.744 OA
ENDBRANCH  66  67
ENDBRANCH  45  59
BRANCH  46  71
ATOM     71  C   UNL A   1      42.850  23.722  27.624  1.00  0.00     0.058 A 
ATOM     72  C   UNL A   1      43.009  23.423  26.262  1.00  0.00     0.135 A 
ATOM     73  C   UNL A   1      42.507  22.670  28.486  1.00  0.00     0.135 A 
ATOM     74  F   UNL A   1      43.333  24.395  25.396  1.00  0.00    -0.206 F 
ATOM     75  C   UNL A   1      42.801  22.140  25.766  1.00  0.00     0.059 A 
ATOM     76  C   UNL A   1      42.319  21.371  28.019  1.00  0.00     0.059 A 
ATOM     77  F   UNL A   1      42.363  22.895  29.801  1.00  0.00    -0.206 F 
ATOM     78  C   UNL A   1      42.451  21.120  26.654  1.00  0.00     0.060 A 
BRANCH  78  79
ATOM     79  S   UNL A   1      42.199  19.452  26.006  1.00  0.00     0.124 S 
ATOM     80  O   UNL A   1      43.051  19.466  24.823  1.00  0.00    -0.237 OA
ATOM     81  O   UNL A   1      42.655  18.619  27.114  1.00  0.00    -0.237 OA
ATOM     82  O   UNL A   1      40.762  19.409  25.750  1.00  0.00    -0.744 OA
ENDBRANCH  78  79
ENDBRANCH  46  71
BRANCH  58  83
ATOM     83  C   UNL A   1      48.374  27.439  29.704  1.00  0.00     0.058 A 
ATOM     84  C   UNL A   1      49.291  27.564  28.650  1.00  0.00     0.135 A 
ATOM     85  C   UNL A   1      48.862  27.045  30.960  1.00  0.00     0.135 A 
ATOM     86  F   UNL A   1      48.872  27.932  27.429  1.00  0.00    -0.206 F 
ATOM     87  C   UNL A   1      50.642  27.293  28.830  1.00  0.00     0.059 A 
ATOM     88  C   UNL A   1      50.213  26.794  31.169  1.00  0.00     0.059 A 
ATOM     89  F   UNL A   1      48.025  26.923  32.003  1.00  0.00    -0.206 F 
ATOM     90  C   UNL A   1      51.094  26.911  30.096  1.00  0.00     0.060 A 
BRANCH  90  91
ATOM     91  S   UNL A   1      52.858  26.604  30.329  1.00  0.00     0.124 S 
ATOM     92  O   UNL A   1      53.311  27.886  30.856  1.00  0.00    -0.237 OA
ATOM     93  O   UNL A   1      52.861  25.492  31.275  1.00  0.00    -0.237 OA
ATOM     94  O   UNL A   1      53.325  26.277  28.985  1.00  0.00    -0.744 OA
ENDBRANCH  90  91
ENDBRANCH  58  83
ENDBRANCH  32  33
ENDBRANCH  24  27
ENDBRANCH  22  23
ENDBRANCH   1  22
TORSDOF 15
ENDMDL
MODEL 3
REMARK VINA RESULT:     -11.0      2.405      4.794
REMARK SMILES CC(=C/C(=O)NCCCNC(=O)c1ccc(-c2c3nc(c(-c4c(F)cc(S(=O)(=O)[O-])cc4F)c4ccc([nH]4)c(-c4c(F)cc(S(=O)(=O)[O-])cc4F)c4nc(c(-c5c(F)cc(S(=O)(=O)[O-])cc5F)c5ccc2[nH]5)C=C4)C=C3)cc1)/C=C/c1ccc2ccccc2c1
REMARK SMILES IDX 8 1 7 2 6 3 4 4 5 5 3 7 1 8 2 9 79 10 80 11 81 12 82 13
REMARK SMILES IDX 90 14 83 15 89 16 84 17 88 18 85 19 87 20 86 21 9 22 10 23
REMARK SMILES IDX 11 24 12 26 13 27 14 28 78 29 15 30 77 31 16 32 17 33 18 34
REMARK SMILES IDX 71 35 19 36 76 37 70 38 72 39 20 40 75 41 69 42 68 43 21 45
REMARK SMILES IDX 55 46 34 47 54 48 35 49 38 50 53 51 73 52 36 53 37 54 52 56
REMARK SMILES IDX 74 57 39 58 22 59 23 60 32 61 24 62 25 63 31 64 33 65 26 66
REMARK SMILES IDX 27 67 28 68 29 69 30 70 56 71 57 72 66 73 58 74 59 75 65 76
REMARK SMILES IDX 67 77 60 78 61 79 62 80 63 81 64 82 40 83 41 84 50 85 42 86
REMARK SMILES IDX 43 87 49 88 51 89 44 90 45 91 46 92 47 93 48 94
REMARK H PARENT 6 6 10 25 72 44 38 55
REMARK Flexibility Score: inf
ROOT
ATOM      1  C   UNL A   1      43.470  25.676  25.031  1.00  0.00     0.042 C 
ENDROOT
BRANCH   1   2
ATOM      2  C   UNL A   1      44.904  26.080  25.282  1.00  0.00     0.118 C 
BRANCH   2   3
ATOM      3  N   UNL A   1      45.315  27.380  24.809  1.00  0.00    -0.352 N 
ATOM      4  C   UNL A   1      46.175  28.270  25.373  1.00  0.00     0.244 C 
ATOM      5  O   UNL A   1      46.408  29.319  24.767  1.00  0.00    -0.270 OA
ATOM      6  H   UNL A   1      44.916  27.662  23.955  1.00  0.00     0.163 HD
BRANCH   4   7
ATOM      7  C   UNL A   1      46.758  28.122  26.744  1.00  0.00     0.074 C 
ATOM      8  C   UNL A   1      47.457  28.214  29.105  1.00  0.00     0.044 C 
ATOM      9  C   UNL A   1      46.507  28.586  27.988  1.00  0.00    -0.046 C 
BRANCH   9  10
ATOM     10  C   UNL A   1      45.419  29.498  28.338  1.00  0.00     0.004 C 
ATOM     11  C   UNL A   1      44.734  29.349  29.489  1.00  0.00     0.008 C 
BRANCH  11  12
ATOM     12  C   UNL A   1      44.051  30.420  30.245  1.00  0.00    -0.025 A 
ATOM     13  C   UNL A   1      44.506  30.635  31.556  1.00  0.00     0.009 A 
ATOM     14  C   UNL A   1      43.054  31.265  29.742  1.00  0.00     0.016 A 
ATOM     15  C   UNL A   1      43.997  31.668  32.344  1.00  0.00     0.009 A 
ATOM     16  C   UNL A   1      42.521  32.314  30.531  1.00  0.00    -0.018 A 
ATOM     17  C   UNL A   1      43.003  32.512  31.846  1.00  0.00    -0.018 A 
ATOM     18  C   UNL A   1      41.524  33.181  30.051  1.00  0.00     0.009 A 
ATOM     19  C   UNL A   1      42.485  33.548  32.640  1.00  0.00     0.009 A 
ATOM     20  C   UNL A   1      41.010  34.205  30.854  1.00  0.00     0.001 A 
ATOM     21  C   UNL A   1      41.486  34.384  32.148  1.00  0.00     0.001 A 
ENDBRANCH  11  12
ENDBRANCH   9  10
ENDBRANCH   4   7
ENDBRANCH   2   3
ENDBRANCH   1   2
BRANCH   1  22
ATOM     22  C   UNL A   1      42.880  24.667  25.995  1.00  0.00     0.118 C 
BRANCH  22  23
ATOM     23  N   UNL A   1      41.462  24.389  25.804  1.00  0.00    -0.352 N 
ATOM     24  C   UNL A   1      40.326  24.841  26.444  1.00  0.00     0.251 C 
ATOM     25  H   UNL A   1      41.279  23.753  25.075  1.00  0.00     0.163 HD
ATOM     26  O   UNL A   1      39.238  24.415  26.088  1.00  0.00    -0.269 OA
BRANCH  24  27
ATOM     27  C   UNL A   1      40.407  25.805  27.571  1.00  0.00     0.039 A 
ATOM     28  C   UNL A   1      41.314  26.868  27.485  1.00  0.00     0.014 A 
ATOM     29  C   UNL A   1      39.621  25.673  28.713  1.00  0.00     0.014 A 
ATOM     30  C   UNL A   1      41.346  27.849  28.483  1.00  0.00     0.010 A 
ATOM     31  C   UNL A   1      39.566  26.703  29.644  1.00  0.00     0.010 A 
ATOM     32  C   UNL A   1      40.434  27.798  29.546  1.00  0.00    -0.014 A 
BRANCH  32  33
ATOM     33  C   UNL A   1      40.388  28.842  30.601  1.00  0.00     0.031 A 
ATOM     34  C   UNL A   1      41.262  28.693  31.819  1.00  0.00     0.074 A 
ATOM     35  C   UNL A   1      39.495  29.848  30.516  1.00  0.00     0.049 A 
ATOM     36  N   UNL A   1      41.274  29.398  32.920  1.00  0.00    -0.248 NA
ATOM     37  C   UNL A   1      42.223  27.576  31.816  1.00  0.00     0.031 C 
ATOM     38  C   UNL A   1      38.552  30.056  29.414  1.00  0.00     0.029 A 
ATOM     39  N   UNL A   1      39.212  30.870  31.388  1.00  0.00    -0.354 N 
ATOM     40  C   UNL A   1      42.212  28.790  33.747  1.00  0.00     0.074 A 
ATOM     41  C   UNL A   1      42.717  27.634  33.043  1.00  0.00     0.031 C 
ATOM     42  C   UNL A   1      37.798  31.137  29.676  1.00  0.00     0.029 A 
ATOM     43  C   UNL A   1      38.177  31.679  30.977  1.00  0.00     0.049 A 
ATOM     44  H   UNL A   1      39.703  31.011  32.229  1.00  0.00     0.167 HD
ATOM     45  C   UNL A   1      42.628  29.176  34.975  1.00  0.00     0.037 A 
ATOM     46  C   UNL A   1      37.592  32.727  31.590  1.00  0.00     0.037 A 
ATOM     47  C   UNL A   1      42.162  30.361  35.642  1.00  0.00     0.049 A 
ATOM     48  C   UNL A   1      38.110  33.162  32.937  1.00  0.00     0.074 A 
ATOM     49  C   UNL A   1      42.588  30.896  36.844  1.00  0.00     0.029 A 
ATOM     50  N   UNL A   1      41.166  31.196  35.159  1.00  0.00    -0.354 N 
ATOM     51  N   UNL A   1      39.061  32.627  33.667  1.00  0.00    -0.248 NA
ATOM     52  C   UNL A   1      37.484  34.347  33.542  1.00  0.00     0.031 C 
ATOM     53  C   UNL A   1      41.822  32.035  37.108  1.00  0.00     0.029 A 
ATOM     54  C   UNL A   1      40.949  32.233  36.049  1.00  0.00     0.049 A 
ATOM     55  H   UNL A   1      40.684  31.070  34.310  1.00  0.00     0.167 HD
ATOM     56  C   UNL A   1      39.163  33.423  34.801  1.00  0.00     0.074 A 
ATOM     57  C   UNL A   1      38.189  34.484  34.657  1.00  0.00     0.031 C 
ATOM     58  C   UNL A   1      39.987  33.289  35.871  1.00  0.00     0.037 A 
BRANCH  45  59
ATOM     59  C   UNL A   1      43.649  28.322  35.673  1.00  0.00     0.058 A 
ATOM     60  C   UNL A   1      45.027  28.505  35.470  1.00  0.00     0.135 A 
ATOM     61  C   UNL A   1      43.248  27.345  36.597  1.00  0.00     0.135 A 
ATOM     62  F   UNL A   1      45.465  29.411  34.582  1.00  0.00    -0.206 F 
ATOM     63  C   UNL A   1      45.969  27.740  36.147  1.00  0.00     0.059 A 
ATOM     64  C   UNL A   1      44.173  26.585  37.305  1.00  0.00     0.059 A 
ATOM     65  F   UNL A   1      41.942  27.125  36.823  1.00  0.00    -0.206 F 
ATOM     66  C   UNL A   1      45.533  26.784  37.067  1.00  0.00     0.060 A 
BRANCH  66  67
ATOM     67  S   UNL A   1      46.770  25.824  37.966  1.00  0.00     0.124 S 
ATOM     68  O   UNL A   1      45.985  24.673  38.401  1.00  0.00    -0.237 OA
ATOM     69  O   UNL A   1      47.767  25.558  36.934  1.00  0.00    -0.237 OA
ATOM     70  O   UNL A   1      47.197  26.730  39.027  1.00  0.00    -0.744 OA
ENDBRANCH  66  67
ENDBRANCH  45  59
BRANCH  46  71
ATOM     71  C   UNL A   1      36.458  33.443  30.946  1.00  0.00     0.058 A 
ATOM     72  C   UNL A   1      36.661  34.262  29.824  1.00  0.00     0.135 A 
ATOM     73  C   UNL A   1      35.153  33.343  31.451  1.00  0.00     0.135 A 
ATOM     74  F   UNL A   1      37.891  34.395  29.306  1.00  0.00    -0.206 F 
ATOM     75  C   UNL A   1      35.619  34.983  29.248  1.00  0.00     0.059 A 
ATOM     76  C   UNL A   1      34.089  34.033  30.876  1.00  0.00     0.059 A 
ATOM     77  F   UNL A   1      34.899  32.557  32.509  1.00  0.00    -0.206 F 
ATOM     78  C   UNL A   1      34.336  34.864  29.784  1.00  0.00     0.060 A 
BRANCH  78  79
ATOM     79  S   UNL A   1      32.985  35.788  29.019  1.00  0.00     0.124 S 
ATOM     80  O   UNL A   1      32.214  36.199  30.186  1.00  0.00    -0.237 OA
ATOM     81  O   UNL A   1      33.697  36.851  28.316  1.00  0.00    -0.237 OA
ATOM     82  O   UNL A   1      32.348  34.796  28.158  1.00  0.00    -0.744 OA
ENDBRANCH  78  79
ENDBRANCH  46  71
BRANCH  58  83
ATOM     83  C   UNL A   1      39.898  34.332  36.947  1.00  0.00     0.058 A 
ATOM     84  C   UNL A   1      40.564  35.561  36.836  1.00  0.00     0.135 A 
ATOM     85  C   UNL A   1      39.081  34.124  38.069  1.00  0.00     0.135 A 
ATOM     86  F   UNL A   1      41.362  35.805  35.784  1.00  0.00    -0.206 F 
ATOM     87  C   UNL A   1      40.437  36.545  37.809  1.00  0.00     0.059 A 
ATOM     88  C   UNL A   1      38.918  35.104  39.042  1.00  0.00     0.059 A 
ATOM     89  F   UNL A   1      38.412  32.968  38.215  1.00  0.00    -0.206 F 
ATOM     90  C   UNL A   1      39.609  36.307  38.909  1.00  0.00     0.060 A 
BRANCH  90  91
ATOM     91  S   UNL A   1      39.416  37.608  40.145  1.00  0.00     0.124 S 
ATOM     92  O   UNL A   1      40.763  38.166  40.196  1.00  0.00    -0.237 OA
ATOM     93  O   UNL A   1      38.397  38.464  39.545  1.00  0.00    -0.237 OA
ATOM     94  O   UNL A   1      38.991  36.881  41.338  1.00  0.00    -0.744 OA
ENDBRANCH  90  91
ENDBRANCH  58  83
ENDBRANCH  32  33
ENDBRANCH  24  27
ENDBRANCH  22  23
ENDBRANCH   1  22
TORSDOF 15
ENDMDL
