MODEL 1
REMARK VINA RESULT:     -10.2      0.000      0.000
REMARK SMILES CC(C)C[C@H](NC(=O)CNC(=O)[C@@H]([NH3+])C(C)C)C(=O)NCCCNC(=O)c1ccc(-c2c3nc(c(-c4c(F)cc(S(=O)(=O)[O-])cc4F)c4ccc([nH]4)c(-c4c(F)cc(S(=O)(=O)[O-])cc4F)c4nc(c(-c5c(F)cc(S(=O)(=O)[O-])cc5F)c5ccc2[nH]5)C=C4)C=C3)cc1
REMARK SMILES IDX 21 1 20 2 18 3 19 4 5 6 4 7 2 8 1 9 3 10 6 11 7 12 8 14 9 15
REMARK SMILES IDX 10 16 11 17 12 19 13 20 14 21 15 25 16 26 17 27 22 28 23 29
REMARK SMILES IDX 24 30 25 31 26 33 27 34 28 35 92 36 29 37 91 38 30 39 31 40
REMARK SMILES IDX 32 41 85 42 33 43 90 44 84 45 86 46 34 47 89 48 83 49 82 50
REMARK SMILES IDX 35 52 69 53 48 54 68 55 49 56 52 57 67 58 87 59 50 60 51 61
REMARK SMILES IDX 66 63 88 64 53 65 36 66 37 67 46 68 38 69 39 70 45 71 47 72
REMARK SMILES IDX 40 73 41 74 42 75 43 76 44 77 70 78 71 79 80 80 72 81 73 82
REMARK SMILES IDX 79 83 81 84 74 85 75 86 76 87 77 88 78 89 54 90 55 91 64 92
REMARK SMILES IDX 56 93 57 94 63 95 65 96 58 97 59 98 60 99 61 100 62 101
REMARK H PARENT 20 5 6 13 10 18 14 22 14 23 14 24 24 32 86 51 52 62
REMARK Flexibility Score: inf
ROOT
ATOM      1  C   UNL A   1      32.869  26.585  25.273  1.00  0.00     0.117 C 
ENDROOT
BRANCH   1   2
ATOM      2  N   UNL A   1      33.182  25.766  24.119  1.00  0.00    -0.354 N 
ATOM      3  C   UNL A   1      33.571  24.465  24.054  1.00  0.00     0.242 C 
ATOM      4  O   UNL A   1      33.753  23.965  22.941  1.00  0.00    -0.273 OA
ATOM      5  H   UNL A   1      33.101  26.221  23.250  1.00  0.00     0.163 HD
BRANCH   3   6
ATOM      6  C   UNL A   1      33.687  23.623  25.332  1.00  0.00     0.171 C 
BRANCH   6   7
ATOM      7  C   UNL A   1      35.029  22.878  25.437  1.00  0.00     0.038 C 
BRANCH   7   8
ATOM      8  C   UNL A   1      36.275  23.651  24.944  1.00  0.00    -0.015 C 
ATOM      9  C   UNL A   1      37.342  23.885  26.012  1.00  0.00     0.007 C 
ATOM     10  C   UNL A   1      36.897  22.898  23.765  1.00  0.00     0.007 C 
ENDBRANCH   7   8
ENDBRANCH   6   7
BRANCH   6  11
ATOM     11  N   UNL A   1      32.516  22.756  25.489  1.00  0.00    -0.343 N 
ATOM     12  C   UNL A   1      32.314  21.482  25.045  1.00  0.00     0.240 C 
ATOM     13  H   UNL A   1      31.766  23.150  25.990  1.00  0.00     0.164 HD
ATOM     14  O   UNL A   1      31.369  20.858  25.537  1.00  0.00    -0.273 OA
BRANCH  12  15
ATOM     15  C   UNL A   1      33.288  20.791  24.079  1.00  0.00     0.216 C 
BRANCH  15  16
ATOM     16  N   UNL A   1      32.702  19.644  23.410  1.00  0.00    -0.342 N 
ATOM     17  C   UNL A   1      32.809  18.313  23.657  1.00  0.00     0.278 C 
ATOM     18  H   UNL A   1      32.126  19.870  22.643  1.00  0.00     0.164 HD
ATOM     19  O   UNL A   1      32.271  17.555  22.841  1.00  0.00    -0.268 OA
BRANCH  17  20
ATOM     20  C   UNL A   1      33.482  17.730  24.928  1.00  0.00     0.273 C 
BRANCH  20  21
ATOM     21  N   UNL A   1      32.718  18.012  26.158  1.00  0.00    -0.347 N 
ATOM     22  H   UNL A   1      32.482  17.135  26.622  1.00  0.00     0.345 HD
ATOM     23  H   UNL A   1      31.861  18.512  25.919  1.00  0.00     0.345 HD
ATOM     24  H   UNL A   1      33.282  18.587  26.784  1.00  0.00     0.345 HD
ENDBRANCH  20  21
BRANCH  20  25
ATOM     25  C   UNL A   1      33.762  16.225  24.737  1.00  0.00     0.051 C 
ATOM     26  C   UNL A   1      35.166  15.875  25.251  1.00  0.00     0.014 C 
ATOM     27  C   UNL A   1      32.738  15.357  25.478  1.00  0.00     0.014 C 
ENDBRANCH  20  25
ENDBRANCH  17  20
ENDBRANCH  15  16
ENDBRANCH  12  15
ENDBRANCH   6  11
ENDBRANCH   3   6
ENDBRANCH   1   2
BRANCH   1  28
ATOM     28  C   UNL A   1      33.723  27.838  25.304  1.00  0.00     0.042 C 
BRANCH  28  29
ATOM     29  C   UNL A   1      34.309  28.111  26.677  1.00  0.00     0.118 C 
BRANCH  29  30
ATOM     30  N   UNL A   1      34.020  29.466  27.130  1.00  0.00    -0.352 N 
ATOM     31  C   UNL A   1      34.744  30.282  27.962  1.00  0.00     0.251 C 
ATOM     32  H   UNL A   1      33.181  29.852  26.789  1.00  0.00     0.163 HD
ATOM     33  O   UNL A   1      34.209  31.266  28.460  1.00  0.00    -0.269 OA
BRANCH  31  34
ATOM     34  C   UNL A   1      36.157  29.965  28.245  1.00  0.00     0.039 A 
ATOM     35  C   UNL A   1      36.508  29.474  29.504  1.00  0.00     0.014 A 
ATOM     36  C   UNL A   1      37.139  30.181  27.276  1.00  0.00     0.014 A 
ATOM     37  C   UNL A   1      37.843  29.174  29.773  1.00  0.00     0.010 A 
ATOM     38  C   UNL A   1      38.442  29.765  27.502  1.00  0.00     0.010 A 
ATOM     39  C   UNL A   1      38.817  29.300  28.768  1.00  0.00    -0.014 A 
BRANCH  39  40
ATOM     40  C   UNL A   1      40.246  29.025  29.045  1.00  0.00     0.031 A 
ATOM     41  C   UNL A   1      40.831  27.685  28.682  1.00  0.00     0.074 A 
ATOM     42  C   UNL A   1      41.000  29.963  29.649  1.00  0.00     0.049 A 
ATOM     43  N   UNL A   1      42.051  27.244  28.848  1.00  0.00    -0.248 NA
ATOM     44  C   UNL A   1      39.917  26.693  28.087  1.00  0.00     0.031 C 
ATOM     45  C   UNL A   1      40.521  31.269  30.109  1.00  0.00     0.029 A 
ATOM     46  N   UNL A   1      42.330  29.963  29.977  1.00  0.00    -0.354 N 
ATOM     47  C   UNL A   1      42.044  25.929  28.395  1.00  0.00     0.074 A 
ATOM     48  C   UNL A   1      40.685  25.616  28.019  1.00  0.00     0.031 C 
ATOM     49  C   UNL A   1      41.553  31.960  30.620  1.00  0.00     0.029 A 
ATOM     50  C   UNL A   1      42.755  31.136  30.553  1.00  0.00     0.049 A 
ATOM     51  H   UNL A   1      42.925  29.196  29.816  1.00  0.00     0.167 HD
ATOM     52  C   UNL A   1      43.083  25.071  28.267  1.00  0.00     0.037 A 
ATOM     53  C   UNL A   1      43.982  31.507  30.966  1.00  0.00     0.037 A 
ATOM     54  C   UNL A   1      44.439  25.407  28.609  1.00  0.00     0.049 A 
ATOM     55  C   UNL A   1      45.129  30.553  30.775  1.00  0.00     0.074 A 
ATOM     56  C   UNL A   1      45.579  24.637  28.472  1.00  0.00     0.029 A 
ATOM     57  N   UNL A   1      44.838  26.621  29.150  1.00  0.00    -0.354 N 
ATOM     58  N   UNL A   1      45.117  29.336  30.285  1.00  0.00    -0.248 NA
ATOM     59  C   UNL A   1      46.459  31.029  31.174  1.00  0.00     0.031 C 
ATOM     60  C   UNL A   1      46.663  25.371  28.965  1.00  0.00     0.029 A 
ATOM     61  C   UNL A   1      46.205  26.619  29.360  1.00  0.00     0.049 A 
ATOM     62  H   UNL A   1      44.236  27.374  29.355  1.00  0.00     0.167 HD
ATOM     63  C   UNL A   1      46.442  28.914  30.282  1.00  0.00     0.074 A 
ATOM     64  C   UNL A   1      47.227  30.013  30.809  1.00  0.00     0.031 C 
ATOM     65  C   UNL A   1      46.966  27.729  29.876  1.00  0.00     0.037 A 
BRANCH  52  66
ATOM     66  C   UNL A   1      42.790  23.698  27.724  1.00  0.00     0.058 A 
ATOM     67  C   UNL A   1      42.485  22.618  28.569  1.00  0.00     0.135 A 
ATOM     68  C   UNL A   1      42.797  23.461  26.340  1.00  0.00     0.135 A 
ATOM     69  F   UNL A   1      42.483  22.781  29.902  1.00  0.00    -0.206 F 
ATOM     70  C   UNL A   1      42.231  21.347  28.066  1.00  0.00     0.059 A 
ATOM     71  C   UNL A   1      42.514  22.203  25.813  1.00  0.00     0.059 A 
ATOM     72  F   UNL A   1      43.085  24.454  25.486  1.00  0.00    -0.206 F 
ATOM     73  C   UNL A   1      42.248  21.149  26.684  1.00  0.00     0.060 A 
BRANCH  73  74
ATOM     74  S   UNL A   1      41.910  19.495  26.047  1.00  0.00     0.124 S 
ATOM     75  O   UNL A   1      42.403  18.658  27.136  1.00  0.00    -0.237 OA
ATOM     76  O   UNL A   1      40.462  19.517  25.871  1.00  0.00    -0.237 OA
ATOM     77  O   UNL A   1      42.688  19.440  24.813  1.00  0.00    -0.744 OA
ENDBRANCH  73  74
ENDBRANCH  52  66
BRANCH  53  78
ATOM     78  C   UNL A   1      44.193  32.859  31.549  1.00  0.00     0.058 A 
ATOM     79  C   UNL A   1      44.478  33.962  30.730  1.00  0.00     0.135 A 
ATOM     80  C   UNL A   1      44.099  33.079  32.932  1.00  0.00     0.135 A 
ATOM     81  F   UNL A   1      44.577  33.803  29.401  1.00  0.00    -0.206 F 
ATOM     82  C   UNL A   1      44.689  35.230  31.261  1.00  0.00     0.059 A 
ATOM     83  C   UNL A   1      44.278  34.344  33.485  1.00  0.00     0.059 A 
ATOM     84  F   UNL A   1      43.805  32.062  33.757  1.00  0.00    -0.206 F 
ATOM     85  C   UNL A   1      44.586  35.411  32.642  1.00  0.00     0.060 A 
BRANCH  85  86
ATOM     86  S   UNL A   1      44.821  37.069  33.318  1.00  0.00     0.124 S 
ATOM     87  O   UNL A   1      45.820  37.617  32.408  1.00  0.00    -0.237 OA
ATOM     88  O   UNL A   1      43.480  37.636  33.211  1.00  0.00    -0.237 OA
ATOM     89  O   UNL A   1      45.278  36.813  34.680  1.00  0.00    -0.744 OA
ENDBRANCH  85  86
ENDBRANCH  53  78
BRANCH  65  90
ATOM     90  C   UNL A   1      48.461  27.584  29.938  1.00  0.00     0.058 A 
ATOM     91  C   UNL A   1      49.289  27.954  28.866  1.00  0.00     0.135 A 
ATOM     92  C   UNL A   1      49.074  27.085  31.099  1.00  0.00     0.135 A 
ATOM     93  F   UNL A   1      48.753  28.436  27.734  1.00  0.00    -0.206 F 
ATOM     94  C   UNL A   1      50.669  27.789  28.927  1.00  0.00     0.059 A 
ATOM     95  C   UNL A   1      50.453  26.943  31.193  1.00  0.00     0.059 A 
ATOM     96  F   UNL A   1      48.328  26.733  32.159  1.00  0.00    -0.206 F 
ATOM     97  C   UNL A   1      51.240  27.277  30.092  1.00  0.00     0.060 A 
BRANCH  97  98
ATOM     98  S   UNL A   1      53.031  27.061  30.158  1.00  0.00     0.124 S 
ATOM     99  O   UNL A   1      53.314  26.566  28.815  1.00  0.00    -0.237 OA
ATOM    100  O   UNL A   1      53.499  28.413  30.448  1.00  0.00    -0.237 OA
ATOM    101  O   UNL A   1      53.217  26.095  31.236  1.00  0.00    -0.744 OA
ENDBRANCH  97  98
ENDBRANCH  65  90
ENDBRANCH  39  40
ENDBRANCH  31  34
ENDBRANCH  29  30
ENDBRANCH  28  29
ENDBRANCH   1  28
TORSDOF 21
ENDMDL
MODEL 2
REMARK VINA RESULT:      -9.9      4.421     11.095
REMARK SMILES CC(C)C[C@H](NC(=O)CNC(=O)[C@@H]([NH3+])C(C)C)C(=O)NCCCNC(=O)c1ccc(-c2c3nc(c(-c4c(F)cc(S(=O)(=O)[O-])cc4F)c4ccc([nH]4)c(-c4c(F)cc(S(=O)(=O)[O-])cc4F)c4nc(c(-c5c(F)cc(S(=O)(=O)[O-])cc5F)c5ccc2[nH]5)C=C4)C=C3)cc1
REMARK SMILES IDX 21 1 20 2 18 3 19 4 5 6 4 7 2 8 1 9 3 10 6 11 7 12 8 14 9 15
REMARK SMILES IDX 10 16 11 17 12 19 13 20 14 21 15 25 16 26 17 27 22 28 23 29
REMARK SMILES IDX 24 30 25 31 26 33 27 34 28 35 92 36 29 37 91 38 30 39 31 40
REMARK SMILES IDX 32 41 85 42 33 43 90 44 84 45 86 46 34 47 89 48 83 49 82 50
REMARK SMILES IDX 35 52 69 53 48 54 68 55 49 56 52 57 67 58 87 59 50 60 51 61
REMARK SMILES IDX 66 63 88 64 53 65 36 66 37 67 46 68 38 69 39 70 45 71 47 72
REMARK SMILES IDX 40 73 41 74 42 75 43 76 44 77 70 78 71 79 80 80 72 81 73 82
REMARK SMILES IDX 79 83 81 84 74 85 75 86 76 87 77 88 78 89 54 90 55 91 64 92
REMARK SMILES IDX 56 93 57 94 63 95 65 96 58 97 59 98 60 99 61 100 62 101
REMARK H PARENT 20 5 6 13 10 18 14 22 14 23 14 24 24 32 86 51 52 62
REMARK Flexibility Score: inf
ROOT
ATOM      1  C   UNL A   1      43.006  21.689  26.385  1.00  0.00     0.117 C 
ENDROOT
BRANCH   1   2
ATOM      2  N   UNL A   1      43.717  22.094  25.189  1.00  0.00    -0.354 N 
ATOM      3  C   UNL A   1      44.240  23.302  24.854  1.00  0.00     0.242 C 
ATOM      4  O   UNL A   1      44.838  23.402  23.779  1.00  0.00    -0.273 OA
ATOM      5  H   UNL A   1      43.840  21.385  24.517  1.00  0.00     0.163 HD
BRANCH   3   6
ATOM      6  C   UNL A   1      44.164  24.482  25.833  1.00  0.00     0.171 C 
BRANCH   6   7
ATOM      7  C   UNL A   1      43.893  24.040  27.282  1.00  0.00     0.038 C 
BRANCH   7   8
ATOM      8  C   UNL A   1      45.142  23.800  28.163  1.00  0.00    -0.015 C 
ATOM      9  C   UNL A   1      46.120  24.973  28.211  1.00  0.00     0.007 C 
ATOM     10  C   UNL A   1      44.693  23.459  29.586  1.00  0.00     0.007 C 
ENDBRANCH   7   8
ENDBRANCH   6   7
BRANCH   6  11
ATOM     11  N   UNL A   1      43.235  25.504  25.343  1.00  0.00    -0.343 N 
ATOM     12  C   UNL A   1      43.446  26.833  25.123  1.00  0.00     0.240 C 
ATOM     13  H   UNL A   1      42.326  25.184  25.143  1.00  0.00     0.164 HD
ATOM     14  O   UNL A   1      42.604  27.432  24.447  1.00  0.00    -0.273 OA
BRANCH  12  15
ATOM     15  C   UNL A   1      44.734  27.540  25.571  1.00  0.00     0.216 C 
BRANCH  15  16
ATOM     16  N   UNL A   1      45.639  27.816  24.470  1.00  0.00    -0.342 N 
ATOM     17  C   UNL A   1      46.909  27.397  24.230  1.00  0.00     0.278 C 
ATOM     18  H   UNL A   1      45.270  28.410  23.778  1.00  0.00     0.164 HD
ATOM     19  O   UNL A   1      47.475  27.889  23.246  1.00  0.00    -0.268 OA
BRANCH  17  20
ATOM     20  C   UNL A   1      47.618  26.297  25.061  1.00  0.00     0.273 C 
BRANCH  20  21
ATOM     21  N   UNL A   1      47.563  24.970  24.418  1.00  0.00    -0.347 N 
ATOM     22  H   UNL A   1      46.722  24.479  24.721  1.00  0.00     0.345 HD
ATOM     23  H   UNL A   1      48.387  24.430  24.683  1.00  0.00     0.345 HD
ATOM     24  H   UNL A   1      47.544  25.084  23.405  1.00  0.00     0.345 HD
ENDBRANCH  20  21
BRANCH  20  25
ATOM     25  C   UNL A   1      49.060  26.732  25.398  1.00  0.00     0.051 C 
ATOM     26  C   UNL A   1      49.050  28.064  26.161  1.00  0.00     0.014 C 
ATOM     27  C   UNL A   1      49.787  25.684  26.249  1.00  0.00     0.014 C 
ENDBRANCH  20  25
ENDBRANCH  17  20
ENDBRANCH  15  16
ENDBRANCH  12  15
ENDBRANCH   6  11
ENDBRANCH   3   6
ENDBRANCH   1   2
BRANCH   1  28
ATOM     28  C   UNL A   1      41.597  21.233  26.057  1.00  0.00     0.042 C 
BRANCH  28  29
ATOM     29  C   UNL A   1      40.543  21.969  26.864  1.00  0.00     0.118 C 
BRANCH  29  30
ATOM     30  N   UNL A   1      39.426  22.400  26.032  1.00  0.00    -0.352 N 
ATOM     31  C   UNL A   1      38.660  23.534  26.118  1.00  0.00     0.251 C 
ATOM     32  H   UNL A   1      39.188  21.786  25.301  1.00  0.00     0.163 HD
ATOM     33  O   UNL A   1      37.590  23.589  25.522  1.00  0.00    -0.269 OA
BRANCH  31  34
ATOM     34  C   UNL A   1      39.134  24.675  26.926  1.00  0.00     0.039 A 
ATOM     35  C   UNL A   1      39.938  25.648  26.329  1.00  0.00     0.014 A 
ATOM     36  C   UNL A   1      38.807  24.766  28.281  1.00  0.00     0.014 A 
ATOM     37  C   UNL A   1      40.385  26.726  27.092  1.00  0.00     0.010 A 
ATOM     38  C   UNL A   1      39.147  25.900  29.003  1.00  0.00     0.010 A 
ATOM     39  C   UNL A   1      39.978  26.869  28.430  1.00  0.00    -0.014 A 
BRANCH  39  40
ATOM     40  C   UNL A   1      40.474  27.985  29.268  1.00  0.00     0.031 A 
ATOM     41  C   UNL A   1      39.604  29.195  29.490  1.00  0.00     0.074 A 
ATOM     42  C   UNL A   1      41.713  27.923  29.795  1.00  0.00     0.049 A 
ATOM     43  N   UNL A   1      39.856  30.277  30.181  1.00  0.00    -0.248 NA
ATOM     44  C   UNL A   1      38.292  29.210  28.820  1.00  0.00     0.031 C 
ATOM     45  C   UNL A   1      42.669  26.832  29.587  1.00  0.00     0.029 A 
ATOM     46  N   UNL A   1      42.377  28.794  30.617  1.00  0.00    -0.354 N 
ATOM     47  C   UNL A   1      38.746  31.099  30.013  1.00  0.00     0.074 A 
ATOM     48  C   UNL A   1      37.854  30.428  29.097  1.00  0.00     0.031 C 
ATOM     49  C   UNL A   1      43.780  27.081  30.299  1.00  0.00     0.029 A 
ATOM     50  C   UNL A   1      43.627  28.359  30.986  1.00  0.00     0.049 A 
ATOM     51  H   UNL A   1      41.995  29.651  30.915  1.00  0.00     0.167 HD
ATOM     52  C   UNL A   1      38.476  32.289  30.600  1.00  0.00     0.037 A 
ATOM     53  C   UNL A   1      44.539  28.924  31.799  1.00  0.00     0.037 A 
ATOM     54  C   UNL A   1      39.356  32.929  31.541  1.00  0.00     0.049 A 
ATOM     55  C   UNL A   1      44.200  30.226  32.474  1.00  0.00     0.074 A 
ATOM     56  C   UNL A   1      39.162  34.107  32.238  1.00  0.00     0.029 A 
ATOM     57  N   UNL A   1      40.596  32.436  31.923  1.00  0.00    -0.354 N 
ATOM     58  N   UNL A   1      43.118  30.959  32.356  1.00  0.00    -0.248 NA
ATOM     59  C   UNL A   1      45.196  30.766  33.407  1.00  0.00     0.031 C 
ATOM     60  C   UNL A   1      40.302  34.347  33.014  1.00  0.00     0.029 A 
ATOM     61  C   UNL A   1      41.182  33.290  32.840  1.00  0.00     0.049 A 
ATOM     62  H   UNL A   1      40.999  31.602  31.591  1.00  0.00     0.167 HD
ATOM     63  C   UNL A   1      43.287  32.029  33.227  1.00  0.00     0.074 A 
ATOM     64  C   UNL A   1      44.571  31.838  33.873  1.00  0.00     0.031 C 
ATOM     65  C   UNL A   1      42.456  33.073  33.477  1.00  0.00     0.037 A 
BRANCH  52  66
ATOM     66  C   UNL A   1      37.175  32.959  30.249  1.00  0.00     0.058 A 
ATOM     67  C   UNL A   1      37.047  33.775  29.113  1.00  0.00     0.135 A 
ATOM     68  C   UNL A   1      36.036  32.772  31.048  1.00  0.00     0.135 A 
ATOM     69  F   UNL A   1      38.108  34.007  28.322  1.00  0.00    -0.206 F 
ATOM     70  C   UNL A   1      35.849  34.408  28.799  1.00  0.00     0.059 A 
ATOM     71  C   UNL A   1      34.818  33.370  30.736  1.00  0.00     0.059 A 
ATOM     72  F   UNL A   1      36.101  32.007  32.148  1.00  0.00    -0.206 F 
ATOM     73  C   UNL A   1      34.739  34.198  29.619  1.00  0.00     0.060 A 
BRANCH  73  74
ATOM     74  S   UNL A   1      33.189  35.021  29.195  1.00  0.00     0.124 S 
ATOM     75  O   UNL A   1      32.494  35.011  30.478  1.00  0.00    -0.237 OA
ATOM     76  O   UNL A   1      33.646  36.328  28.732  1.00  0.00    -0.237 OA
ATOM     77  O   UNL A   1      32.617  34.159  28.164  1.00  0.00    -0.744 OA
ENDBRANCH  73  74
ENDBRANCH  52  66
BRANCH  53  78
ATOM     78  C   UNL A   1      45.832  28.236  32.060  1.00  0.00     0.058 A 
ATOM     79  C   UNL A   1      45.959  27.311  33.107  1.00  0.00     0.135 A 
ATOM     80  C   UNL A   1      46.959  28.475  31.258  1.00  0.00     0.135 A 
ATOM     81  F   UNL A   1      44.910  27.047  33.901  1.00  0.00    -0.206 F 
ATOM     82  C   UNL A   1      47.164  26.668  33.369  1.00  0.00     0.059 A 
ATOM     83  C   UNL A   1      48.167  27.822  31.483  1.00  0.00     0.059 A 
ATOM     84  F   UNL A   1      46.883  29.332  30.229  1.00  0.00    -0.206 F 
ATOM     85  C   UNL A   1      48.264  26.930  32.549  1.00  0.00     0.060 A 
BRANCH  85  86
ATOM     86  S   UNL A   1      49.813  26.059  32.873  1.00  0.00     0.124 S 
ATOM     87  O   UNL A   1      49.654  25.690  34.275  1.00  0.00    -0.237 OA
ATOM     88  O   UNL A   1      49.753  24.961  31.913  1.00  0.00    -0.237 OA
ATOM     89  O   UNL A   1      50.829  27.069  32.596  1.00  0.00    -0.744 OA
ENDBRANCH  85  86
ENDBRANCH  53  78
BRANCH  65  90
ATOM     90  C   UNL A   1      42.889  34.056  34.530  1.00  0.00     0.058 A 
ATOM     91  C   UNL A   1      43.687  35.170  34.225  1.00  0.00     0.135 A 
ATOM     92  C   UNL A   1      42.479  33.886  35.862  1.00  0.00     0.135 A 
ATOM     93  F   UNL A   1      44.105  35.377  32.966  1.00  0.00    -0.206 F 
ATOM     94  C   UNL A   1      44.101  36.055  35.213  1.00  0.00     0.059 A 
ATOM     95  C   UNL A   1      42.855  34.777  36.860  1.00  0.00     0.059 A 
ATOM     96  F   UNL A   1      41.700  32.847  36.204  1.00  0.00    -0.206 F 
ATOM     97  C   UNL A   1      43.685  35.847  36.529  1.00  0.00     0.060 A 
BRANCH  97  98
ATOM     98  S   UNL A   1      44.235  36.999  37.806  1.00  0.00     0.124 S 
ATOM     99  O   UNL A   1      45.657  36.684  37.890  1.00  0.00    -0.237 OA
ATOM    100  O   UNL A   1      43.905  38.295  37.221  1.00  0.00    -0.237 OA
ATOM    101  O   UNL A   1      43.437  36.622  38.969  1.00  0.00    -0.744 OA
ENDBRANCH  97  98
ENDBRANCH  65  90
ENDBRANCH  39  40
ENDBRANCH  31  34
ENDBRANCH  29  30
ENDBRANCH  28  29
ENDBRANCH   1  28
TORSDOF 21
ENDMDL
MODEL 3
REMARK VINA RESULT:      -9.4      4.364     10.467
REMARK SMILES CC(C)C[C@H](NC(=O)CNC(=O)[C@@H]([NH3+])C(C)C)C(=O)NCCCNC(=O)c1ccc(-c2c3nc(c(-c4c(F)cc(S(=O)(=O)[O-])cc4F)c4ccc([nH]4)c(-c4c(F)cc(S(=O)(=O)[O-])cc4F)c4nc(c(-c5c(F)cc(S(=O)(=O)[O-])cc5F)c5ccc2[nH]5)C=C4)C=C3)cc1
REMARK SMILES IDX 21 1 20 2 18 3 19 4 5 6 4 7 2 8 1 9 3 10 6 11 7 12 8 14 9 15
REMARK SMILES IDX 10 16 11 17 12 19 13 20 14 21 15 25 16 26 17 27 22 28 23 29
REMARK SMILES IDX 24 30 25 31 26 33 27 34 28 35 92 36 29 37 91 38 30 39 31 40
REMARK SMILES IDX 32 41 85 42 33 43 90 44 84 45 86 46 34 47 89 48 83 49 82 50
REMARK SMILES IDX 35 52 69 53 48 54 68 55 49 56 52 57 67 58 87 59 50 60 51 61
REMARK SMILES IDX 66 63 88 64 53 65 36 66 37 67 46 68 38 69 39 70 45 71 47 72
REMARK SMILES IDX 40 73 41 74 42 75 43 76 44 77 70 78 71 79 80 80 72 81 73 82
REMARK SMILES IDX 79 83 81 84 74 85 75 86 76 87 77 88 78 89 54 90 55 91 64 92
REMARK SMILES IDX 56 93 57 94 63 95 65 96 58 97 59 98 60 99 61 100 62 101
REMARK H PARENT 20 5 6 13 10 18 14 22 14 23 14 24 24 32 86 51 52 62
REMARK Flexibility Score: inf
ROOT
ATOM      1  C   UNL A   1      43.383  21.333  26.363  1.00  0.00     0.117 C 
ENDROOT
BRANCH   1   2
ATOM      2  N   UNL A   1      44.553  21.706  25.595  1.00  0.00    -0.354 N 
ATOM      3  C   UNL A   1      45.594  22.513  25.929  1.00  0.00     0.242 C 
ATOM      4  O   UNL A   1      46.505  22.660  25.111  1.00  0.00    -0.273 OA
ATOM      5  H   UNL A   1      44.602  21.315  24.692  1.00  0.00     0.163 HD
BRANCH   3   6
ATOM      6  C   UNL A   1      45.670  23.146  27.325  1.00  0.00     0.171 C 
BRANCH   6   7
ATOM      7  C   UNL A   1      44.314  23.691  27.810  1.00  0.00     0.038 C 
BRANCH   7   8
ATOM      8  C   UNL A   1      43.791  23.114  29.147  1.00  0.00    -0.015 C 
ATOM      9  C   UNL A   1      44.532  23.611  30.386  1.00  0.00     0.007 C 
ATOM     10  C   UNL A   1      42.302  23.443  29.284  1.00  0.00     0.007 C 
ENDBRANCH   7   8
ENDBRANCH   6   7
BRANCH   6  11
ATOM     11  N   UNL A   1      46.758  24.126  27.392  1.00  0.00    -0.343 N 
ATOM     12  C   UNL A   1      46.779  25.428  26.986  1.00  0.00     0.240 C 
ATOM     13  H   UNL A   1      47.596  23.796  27.789  1.00  0.00     0.164 HD
ATOM     14  O   UNL A   1      47.706  26.131  27.399  1.00  0.00    -0.273 OA
BRANCH  12  15
ATOM     15  C   UNL A   1      45.636  26.045  26.165  1.00  0.00     0.216 C 
BRANCH  15  16
ATOM     16  N   UNL A   1      46.074  27.146  25.326  1.00  0.00    -0.342 N 
ATOM     17  C   UNL A   1      46.121  28.483  25.558  1.00  0.00     0.278 C 
ATOM     18  H   UNL A   1      46.391  26.877  24.434  1.00  0.00     0.164 HD
ATOM     19  O   UNL A   1      46.447  29.198  24.602  1.00  0.00    -0.268 OA
BRANCH  17  20
ATOM     20  C   UNL A   1      45.877  29.119  26.952  1.00  0.00     0.273 C 
BRANCH  20  21
ATOM     21  N   UNL A   1      46.974  30.012  27.372  1.00  0.00    -0.347 N 
ATOM     22  H   UNL A   1      47.796  29.838  26.793  1.00  0.00     0.345 HD
ATOM     23  H   UNL A   1      47.203  29.831  28.350  1.00  0.00     0.345 HD
ATOM     24  H   UNL A   1      46.682  30.983  27.266  1.00  0.00     0.345 HD
ENDBRANCH  20  21
BRANCH  20  25
ATOM     25  C   UNL A   1      44.501  29.817  26.983  1.00  0.00     0.051 C 
ATOM     26  C   UNL A   1      43.376  28.786  26.818  1.00  0.00     0.014 C 
ATOM     27  C   UNL A   1      44.280  30.579  28.295  1.00  0.00     0.014 C 
ENDBRANCH  20  25
ENDBRANCH  17  20
ENDBRANCH  15  16
ENDBRANCH  12  15
ENDBRANCH   6  11
ENDBRANCH   3   6
ENDBRANCH   1   2
BRANCH   1  28
ATOM     28  C   UNL A   1      42.107  21.713  25.637  1.00  0.00     0.042 C 
BRANCH  28  29
ATOM     29  C   UNL A   1      40.968  22.037  26.588  1.00  0.00     0.118 C 
BRANCH  29  30
ATOM     30  N   UNL A   1      39.733  22.332  25.875  1.00  0.00    -0.352 N 
ATOM     31  C   UNL A   1      38.830  23.346  26.072  1.00  0.00     0.251 C 
ATOM     32  H   UNL A   1      39.514  21.712  25.142  1.00  0.00     0.163 HD
ATOM     33  O   UNL A   1      37.713  23.268  25.574  1.00  0.00    -0.269 OA
BRANCH  31  34
ATOM     34  C   UNL A   1      39.216  24.518  26.882  1.00  0.00     0.039 A 
ATOM     35  C   UNL A   1      40.034  25.499  26.319  1.00  0.00     0.014 A 
ATOM     36  C   UNL A   1      38.794  24.631  28.209  1.00  0.00     0.014 A 
ATOM     37  C   UNL A   1      40.399  26.606  27.083  1.00  0.00     0.010 A 
ATOM     38  C   UNL A   1      39.053  25.790  28.924  1.00  0.00     0.010 A 
ATOM     39  C   UNL A   1      39.896  26.768  28.386  1.00  0.00    -0.014 A 
BRANCH  39  40
ATOM     40  C   UNL A   1      40.303  27.917  29.228  1.00  0.00     0.031 A 
ATOM     41  C   UNL A   1      41.641  27.897  29.921  1.00  0.00     0.074 A 
ATOM     42  C   UNL A   1      39.459  28.954  29.395  1.00  0.00     0.049 A 
ATOM     43  N   UNL A   1      42.179  28.796  30.705  1.00  0.00    -0.248 NA
ATOM     44  C   UNL A   1      42.473  26.694  29.739  1.00  0.00     0.031 C 
ATOM     45  C   UNL A   1      38.110  29.047  28.829  1.00  0.00     0.029 A 
ATOM     46  N   UNL A   1      39.612  30.127  30.083  1.00  0.00    -0.354 N 
ATOM     47  C   UNL A   1      43.394  28.260  31.117  1.00  0.00     0.074 A 
ATOM     48  C   UNL A   1      43.483  26.929  30.562  1.00  0.00     0.031 C 
ATOM     49  C   UNL A   1      37.577  30.234  29.161  1.00  0.00     0.029 A 
ATOM     50  C   UNL A   1      38.531  30.970  29.984  1.00  0.00     0.049 A 
ATOM     51  H   UNL A   1      40.420  30.347  30.601  1.00  0.00     0.167 HD
ATOM     52  C   UNL A   1      44.367  28.838  31.860  1.00  0.00     0.037 A 
ATOM     53  C   UNL A   1      38.340  32.203  30.490  1.00  0.00     0.037 A 
ATOM     54  C   UNL A   1      44.283  30.178  32.376  1.00  0.00     0.049 A 
ATOM     55  C   UNL A   1      39.452  32.842  31.277  1.00  0.00     0.074 A 
ATOM     56  C   UNL A   1      45.229  30.886  33.095  1.00  0.00     0.029 A 
ATOM     57  N   UNL A   1      43.189  31.017  32.217  1.00  0.00    -0.354 N 
ATOM     58  N   UNL A   1      40.623  32.347  31.604  1.00  0.00    -0.248 NA
ATOM     59  C   UNL A   1      39.225  34.214  31.746  1.00  0.00     0.031 C 
ATOM     60  C   UNL A   1      44.692  32.140  33.405  1.00  0.00     0.029 A 
ATOM     61  C   UNL A   1      43.432  32.232  32.832  1.00  0.00     0.049 A 
ATOM     62  H   UNL A   1      42.361  30.782  31.739  1.00  0.00     0.167 HD
ATOM     63  C   UNL A   1      41.287  33.360  32.285  1.00  0.00     0.074 A 
ATOM     64  C   UNL A   1      40.390  34.498  32.312  1.00  0.00     0.031 C 
ATOM     65  C   UNL A   1      42.528  33.354  32.836  1.00  0.00     0.037 A 
BRANCH  52  66
ATOM     66  C   UNL A   1      45.603  28.026  32.143  1.00  0.00     0.058 A 
ATOM     67  C   UNL A   1      46.699  28.019  31.264  1.00  0.00     0.135 A 
ATOM     68  C   UNL A   1      45.701  27.259  33.314  1.00  0.00     0.135 A 
ATOM     69  F   UNL A   1      46.653  28.718  30.119  1.00  0.00    -0.206 F 
ATOM     70  C   UNL A   1      47.833  27.256  31.519  1.00  0.00     0.059 A 
ATOM     71  C   UNL A   1      46.840  26.512  33.605  1.00  0.00     0.059 A 
ATOM     72  F   UNL A   1      44.684  27.225  34.188  1.00  0.00    -0.206 F 
ATOM     73  C   UNL A   1      47.894  26.504  32.693  1.00  0.00     0.060 A 
BRANCH  73  74
ATOM     74  S   UNL A   1      49.375  25.523  33.012  1.00  0.00     0.124 S 
ATOM     75  O   UNL A   1      50.089  26.374  33.959  1.00  0.00    -0.237 OA
ATOM     76  O   UNL A   1      48.822  24.289  33.560  1.00  0.00    -0.237 OA
ATOM     77  O   UNL A   1      49.991  25.400  31.693  1.00  0.00    -0.744 OA
ENDBRANCH  73  74
ENDBRANCH  52  66
BRANCH  53  78
ATOM     78  C   UNL A   1      37.071  32.929  30.221  1.00  0.00     0.058 A 
ATOM     79  C   UNL A   1      36.960  33.816  29.139  1.00  0.00     0.135 A 
ATOM     80  C   UNL A   1      35.938  32.740  31.029  1.00  0.00     0.135 A 
ATOM     81  F   UNL A   1      38.015  34.030  28.338  1.00  0.00    -0.206 F 
ATOM     82  C   UNL A   1      35.783  34.510  28.883  1.00  0.00     0.059 A 
ATOM     83  C   UNL A   1      34.740  33.401  30.775  1.00  0.00     0.059 A 
ATOM     84  F   UNL A   1      35.984  31.884  32.061  1.00  0.00    -0.206 F 
ATOM     85  C   UNL A   1      34.677  34.294  29.707  1.00  0.00     0.060 A 
BRANCH  85  86
ATOM     86  S   UNL A   1      33.140  35.170  29.340  1.00  0.00     0.124 S 
ATOM     87  O   UNL A   1      32.482  34.239  28.431  1.00  0.00    -0.237 OA
ATOM     88  O   UNL A   1      32.539  35.302  30.664  1.00  0.00    -0.237 OA
ATOM     89  O   UNL A   1      33.601  36.419  28.741  1.00  0.00    -0.744 OA
ENDBRANCH  85  86
ENDBRANCH  53  78
BRANCH  65  90
ATOM     90  C   UNL A   1      43.004  34.635  33.464  1.00  0.00     0.058 A 
ATOM     91  C   UNL A   1      43.561  35.674  32.703  1.00  0.00     0.135 A 
ATOM     92  C   UNL A   1      42.881  34.829  34.850  1.00  0.00     0.135 A 
ATOM     93  F   UNL A   1      43.702  35.539  31.375  1.00  0.00    -0.206 F 
ATOM     94  C   UNL A   1      44.022  36.843  33.300  1.00  0.00     0.059 A 
ATOM     95  C   UNL A   1      43.305  36.001  35.463  1.00  0.00     0.059 A 
ATOM     96  F   UNL A   1      42.339  33.872  35.621  1.00  0.00    -0.206 F 
ATOM     97  C   UNL A   1      43.895  36.994  34.682  1.00  0.00     0.060 A 
BRANCH  97  98
ATOM     98  S   UNL A   1      44.503  38.511  35.448  1.00  0.00     0.124 S 
ATOM     99  O   UNL A   1      44.016  38.363  36.815  1.00  0.00    -0.237 OA
ATOM    100  O   UNL A   1      45.947  38.393  35.272  1.00  0.00    -0.237 OA
ATOM    101  O   UNL A   1      43.866  39.565  34.664  1.00  0.00    -0.744 OA
ENDBRANCH  97  98
ENDBRANCH  65  90
ENDBRANCH  39  40
ENDBRANCH  31  34
ENDBRANCH  29  30
ENDBRANCH  28  29
ENDBRANCH   1  28
TORSDOF 21
ENDMDL
