MODEL 1
REMARK VINA RESULT:     -11.3      0.000      0.000
REMARK SMILES COc1ccc(OCc2nc(C)no2)c(/C=C/C(=O)NCCCNC(=O)c2ccc(-c3c4nc(c(-c5c(F)cc(S(=O)(=O)[O-])cc5F)c5ccc([nH]5)c(-c5c(F)cc(S(=O)(=O)[O-])cc5F)c5nc(c(-c6c(F)cc(S(=O)(=O)[O-])cc6F)c6ccc3[nH]6)C=C5)C=C4)cc2)c1
REMARK SMILES IDX 21 1 20 2 18 3 19 4 17 6 16 7 15 8 3 9 4 10 93 11 5 12 6 13
REMARK SMILES IDX 2 14 1 15 7 16 8 17 9 18 10 19 14 20 11 21 13 22 12 23 22 24
REMARK SMILES IDX 23 25 24 26 25 27 26 29 27 30 28 31 92 32 29 33 91 34 30 35
REMARK SMILES IDX 31 36 32 37 85 38 33 39 90 40 84 41 86 42 34 43 89 44 83 45
REMARK SMILES IDX 82 46 35 48 69 49 48 50 68 51 49 52 52 53 67 54 87 55 50 56
REMARK SMILES IDX 51 57 66 59 88 60 53 61 36 62 37 63 46 64 38 65 39 66 45 67
REMARK SMILES IDX 47 68 40 69 41 70 42 71 43 72 44 73 70 74 71 75 80 76 72 77
REMARK SMILES IDX 73 78 79 79 81 80 74 81 75 82 76 83 77 84 78 85 54 86 55 87
REMARK SMILES IDX 64 88 56 89 57 90 63 91 65 92 58 93 59 94 60 95 61 96 62 97
REMARK H PARENT 20 5 24 28 86 47 52 58
REMARK Flexibility Score: inf
ROOT
ATOM      1  C   UNL A   1      32.694  28.112  24.167  1.00  0.00     0.118 C 
ENDROOT
BRANCH   1   2
ATOM      2  N   UNL A   1      32.862  27.477  22.872  1.00  0.00    -0.352 N 
ATOM      3  C   UNL A   1      33.340  26.266  22.497  1.00  0.00     0.244 C 
ATOM      4  O   UNL A   1      33.489  26.034  21.295  1.00  0.00    -0.270 OA
ATOM      5  H   UNL A   1      32.572  28.038  22.116  1.00  0.00     0.163 HD
BRANCH   3   6
ATOM      6  C   UNL A   1      33.672  25.182  23.454  1.00  0.00     0.072 C 
ATOM      7  C   UNL A   1      34.193  24.010  23.073  1.00  0.00     0.018 C 
BRANCH   7   8
ATOM      8  C   UNL A   1      34.901  23.045  23.921  1.00  0.00     0.020 A 
ATOM      9  C   UNL A   1      36.805  22.764  25.429  1.00  0.00     0.119 A 
ATOM     10  C   UNL A   1      36.351  21.494  25.759  1.00  0.00     0.050 A 
ATOM     11  C   UNL A   1      36.109  23.515  24.481  1.00  0.00     0.058 A 
ATOM     12  C   UNL A   1      35.158  21.022  25.216  1.00  0.00     0.051 A 
ATOM     13  C   UNL A   1      34.387  21.807  24.345  1.00  0.00     0.127 A 
BRANCH   9  14
ATOM     14  O   UNL A   1      37.945  23.173  26.064  1.00  0.00    -0.497 OA
ATOM     15  C   UNL A   1      38.971  22.187  26.140  1.00  0.00     0.278 C 
ENDBRANCH   9  14
BRANCH  13  16
ATOM     16  O   UNL A   1      33.181  21.216  24.098  1.00  0.00    -0.483 OA
BRANCH  16  17
ATOM     17  C   UNL A   1      32.447  20.408  25.027  1.00  0.00     0.329 C 
BRANCH  17  18
ATOM     18  C   UNL A   1      32.752  18.952  24.977  1.00  0.00     0.264 A 
ATOM     19  N   UNL A   1      32.608  17.991  25.867  1.00  0.00    -0.193 NA
ATOM     20  O   UNL A   1      33.093  18.478  23.738  1.00  0.00    -0.336 OA
ATOM     21  C   UNL A   1      32.763  16.864  25.105  1.00  0.00     0.169 A 
ATOM     22  N   UNL A   1      33.091  17.086  23.827  1.00  0.00    -0.063 NA
ATOM     23  C   UNL A   1      32.425  15.520  25.608  1.00  0.00     0.093 C 
ENDBRANCH  17  18
ENDBRANCH  16  17
ENDBRANCH  13  16
ENDBRANCH   7   8
ENDBRANCH   3   6
ENDBRANCH   1   2
BRANCH   1  24
ATOM     24  C   UNL A   1      34.022  28.483  24.808  1.00  0.00     0.042 C 
BRANCH  24  25
ATOM     25  C   UNL A   1      33.955  28.448  26.331  1.00  0.00     0.118 C 
BRANCH  25  26
ATOM     26  N   UNL A   1      33.746  29.781  26.888  1.00  0.00    -0.352 N 
ATOM     27  C   UNL A   1      34.490  30.462  27.816  1.00  0.00     0.251 C 
ATOM     28  H   UNL A   1      32.955  30.260  26.548  1.00  0.00     0.163 HD
ATOM     29  O   UNL A   1      34.007  31.444  28.383  1.00  0.00    -0.269 OA
BRANCH  27  30
ATOM     30  C   UNL A   1      35.862  30.020  28.128  1.00  0.00     0.039 A 
ATOM     31  C   UNL A   1      36.854  30.118  27.152  1.00  0.00     0.014 A 
ATOM     32  C   UNL A   1      36.158  29.484  29.386  1.00  0.00     0.014 A 
ATOM     33  C   UNL A   1      38.161  29.732  27.457  1.00  0.00     0.010 A 
ATOM     34  C   UNL A   1      37.471  29.173  29.711  1.00  0.00     0.010 A 
ATOM     35  C   UNL A   1      38.483  29.287  28.749  1.00  0.00    -0.014 A 
BRANCH  35  36
ATOM     36  C   UNL A   1      39.873  28.929  29.124  1.00  0.00     0.031 A 
ATOM     37  C   UNL A   1      40.755  29.952  29.786  1.00  0.00     0.074 A 
ATOM     38  C   UNL A   1      40.359  27.720  28.786  1.00  0.00     0.049 A 
ATOM     39  N   UNL A   1      42.026  29.876  30.085  1.00  0.00    -0.248 NA
ATOM     40  C   UNL A   1      40.134  31.242  30.128  1.00  0.00     0.031 C 
ATOM     41  C   UNL A   1      39.609  26.668  28.096  1.00  0.00     0.029 A 
ATOM     42  N   UNL A   1      41.608  27.178  28.957  1.00  0.00    -0.354 N 
ATOM     43  C   UNL A   1      42.360  31.111  30.628  1.00  0.00     0.074 A 
ATOM     44  C   UNL A   1      41.172  31.934  30.574  1.00  0.00     0.031 C 
ATOM     45  C   UNL A   1      40.406  25.605  27.915  1.00  0.00     0.029 A 
ATOM     46  C   UNL A   1      41.734  25.911  28.437  1.00  0.00     0.049 A 
ATOM     47  H   UNL A   1      42.343  27.651  29.409  1.00  0.00     0.167 HD
ATOM     48  C   UNL A   1      43.547  31.513  31.142  1.00  0.00     0.037 A 
ATOM     49  C   UNL A   1      42.805  25.095  28.376  1.00  0.00     0.037 A 
ATOM     50  C   UNL A   1      44.714  30.674  31.217  1.00  0.00     0.049 A 
ATOM     51  C   UNL A   1      44.109  25.561  28.962  1.00  0.00     0.074 A 
ATOM     52  C   UNL A   1      45.944  30.959  31.780  1.00  0.00     0.029 A 
ATOM     53  N   UNL A   1      44.792  29.384  30.711  1.00  0.00    -0.354 N 
ATOM     54  N   UNL A   1      44.392  26.709  29.531  1.00  0.00    -0.248 NA
ATOM     55  C   UNL A   1      45.238  24.623  28.901  1.00  0.00     0.031 C 
ATOM     56  C   UNL A   1      46.781  29.855  31.579  1.00  0.00     0.029 A 
ATOM     57  C   UNL A   1      46.058  28.867  30.931  1.00  0.00     0.049 A 
ATOM     58  H   UNL A   1      44.058  28.907  30.261  1.00  0.00     0.167 HD
ATOM     59  C   UNL A   1      45.724  26.623  29.917  1.00  0.00     0.074 A 
ATOM     60  C   UNL A   1      46.188  25.306  29.527  1.00  0.00     0.031 C 
ATOM     61  C   UNL A   1      46.496  27.549  30.538  1.00  0.00     0.037 A 
BRANCH  48  62
ATOM     62  C   UNL A   1      43.639  32.920  31.670  1.00  0.00     0.058 A 
ATOM     63  C   UNL A   1      43.476  33.207  33.034  1.00  0.00     0.135 A 
ATOM     64  C   UNL A   1      43.921  33.990  30.805  1.00  0.00     0.135 A 
ATOM     65  F   UNL A   1      43.190  32.225  33.903  1.00  0.00    -0.206 F 
ATOM     66  C   UNL A   1      43.560  34.508  33.520  1.00  0.00     0.059 A 
ATOM     67  C   UNL A   1      44.037  35.296  31.273  1.00  0.00     0.059 A 
ATOM     68  F   UNL A   1      44.085  33.773  29.491  1.00  0.00    -0.206 F 
ATOM     69  C   UNL A   1      43.840  35.547  32.630  1.00  0.00     0.060 A 
BRANCH  69  70
ATOM     70  S   UNL A   1      43.946  37.228  33.277  1.00  0.00     0.124 S 
ATOM     71  O   UNL A   1      42.660  37.363  33.952  1.00  0.00    -0.237 OA
ATOM     72  O   UNL A   1      45.114  37.155  34.149  1.00  0.00    -0.237 OA
ATOM     73  O   UNL A   1      44.114  38.044  32.077  1.00  0.00    -0.744 OA
ENDBRANCH  69  70
ENDBRANCH  48  62
BRANCH  49  74
ATOM     74  C   UNL A   1      42.676  23.751  27.756  1.00  0.00     0.058 A 
ATOM     75  C   UNL A   1      42.833  23.580  26.372  1.00  0.00     0.135 A 
ATOM     76  C   UNL A   1      42.421  22.609  28.531  1.00  0.00     0.135 A 
ATOM     77  F   UNL A   1      43.074  24.642  25.589  1.00  0.00    -0.206 F 
ATOM     78  C   UNL A   1      42.731  22.328  25.776  1.00  0.00     0.059 A 
ATOM     79  C   UNL A   1      42.338  21.343  27.961  1.00  0.00     0.059 A 
ATOM     80  F   UNL A   1      42.281  22.716  29.861  1.00  0.00    -0.206 F 
ATOM     81  C   UNL A   1      42.487  21.213  26.581  1.00  0.00     0.060 A 
BRANCH  81  82
ATOM     82  S   UNL A   1      42.412  19.584  25.803  1.00  0.00     0.124 S 
ATOM     83  O   UNL A   1      41.009  19.506  25.419  1.00  0.00    -0.237 OA
ATOM     84  O   UNL A   1      43.369  19.723  24.709  1.00  0.00    -0.237 OA
ATOM     85  O   UNL A   1      42.826  18.684  26.875  1.00  0.00    -0.744 OA
ENDBRANCH  81  82
ENDBRANCH  49  74
BRANCH  61  86
ATOM     86  C   UNL A   1      47.912  27.166  30.860  1.00  0.00     0.058 A 
ATOM     87  C   UNL A   1      48.972  27.478  29.996  1.00  0.00     0.135 A 
ATOM     88  C   UNL A   1      48.218  26.538  32.078  1.00  0.00     0.135 A 
ATOM     89  F   UNL A   1      48.731  28.070  28.816  1.00  0.00    -0.206 F 
ATOM     90  C   UNL A   1      50.288  27.168  30.323  1.00  0.00     0.059 A 
ATOM     91  C   UNL A   1      49.529  26.242  32.437  1.00  0.00     0.059 A 
ATOM     92  F   UNL A   1      47.239  26.226  32.943  1.00  0.00    -0.206 F 
ATOM     93  C   UNL A   1      50.557  26.553  31.548  1.00  0.00     0.060 A 
BRANCH  93  94
ATOM     94  S   UNL A   1      52.273  26.200  31.982  1.00  0.00     0.124 S 
ATOM     95  O   UNL A   1      52.114  25.129  32.960  1.00  0.00    -0.237 OA
ATOM     96  O   UNL A   1      52.845  25.806  30.697  1.00  0.00    -0.237 OA
ATOM     97  O   UNL A   1      52.757  27.470  32.513  1.00  0.00    -0.744 OA
ENDBRANCH  93  94
ENDBRANCH  61  86
ENDBRANCH  35  36
ENDBRANCH  27  30
ENDBRANCH  25  26
ENDBRANCH  24  25
ENDBRANCH   1  24
TORSDOF 18
ENDMDL
MODEL 2
REMARK VINA RESULT:     -11.2      2.678      3.503
REMARK SMILES COc1ccc(OCc2nc(C)no2)c(/C=C/C(=O)NCCCNC(=O)c2ccc(-c3c4nc(c(-c5c(F)cc(S(=O)(=O)[O-])cc5F)c5ccc([nH]5)c(-c5c(F)cc(S(=O)(=O)[O-])cc5F)c5nc(c(-c6c(F)cc(S(=O)(=O)[O-])cc6F)c6ccc3[nH]6)C=C5)C=C4)cc2)c1
REMARK SMILES IDX 21 1 20 2 18 3 19 4 17 6 16 7 15 8 3 9 4 10 93 11 5 12 6 13
REMARK SMILES IDX 2 14 1 15 7 16 8 17 9 18 10 19 14 20 11 21 13 22 12 23 22 24
REMARK SMILES IDX 23 25 24 26 25 27 26 29 27 30 28 31 92 32 29 33 91 34 30 35
REMARK SMILES IDX 31 36 32 37 85 38 33 39 90 40 84 41 86 42 34 43 89 44 83 45
REMARK SMILES IDX 82 46 35 48 69 49 48 50 68 51 49 52 52 53 67 54 87 55 50 56
REMARK SMILES IDX 51 57 66 59 88 60 53 61 36 62 37 63 46 64 38 65 39 66 45 67
REMARK SMILES IDX 47 68 40 69 41 70 42 71 43 72 44 73 70 74 71 75 80 76 72 77
REMARK SMILES IDX 73 78 79 79 81 80 74 81 75 82 76 83 77 84 78 85 54 86 55 87
REMARK SMILES IDX 64 88 56 89 57 90 63 91 65 92 58 93 59 94 60 95 61 96 62 97
REMARK H PARENT 20 5 24 28 86 47 52 58
REMARK Flexibility Score: inf
ROOT
ATOM      1  C   UNL A   1      32.683  27.701  23.997  1.00  0.00     0.118 C 
ENDROOT
BRANCH   1   2
ATOM      2  N   UNL A   1      32.776  27.104  22.676  1.00  0.00    -0.352 N 
ATOM      3  C   UNL A   1      33.194  25.890  22.243  1.00  0.00     0.244 C 
ATOM      4  O   UNL A   1      33.286  25.693  21.029  1.00  0.00    -0.270 OA
ATOM      5  H   UNL A   1      32.474  27.699  21.952  1.00  0.00     0.163 HD
BRANCH   3   6
ATOM      6  C   UNL A   1      33.528  24.764  23.151  1.00  0.00     0.072 C 
ATOM      7  C   UNL A   1      34.126  23.644  22.730  1.00  0.00     0.018 C 
BRANCH   7   8
ATOM      8  C   UNL A   1      34.833  22.661  23.557  1.00  0.00     0.020 A 
ATOM      9  C   UNL A   1      36.886  22.256  24.823  1.00  0.00     0.119 A 
ATOM     10  C   UNL A   1      36.345  21.076  25.315  1.00  0.00     0.050 A 
ATOM     11  C   UNL A   1      36.152  23.018  23.914  1.00  0.00     0.058 A 
ATOM     12  C   UNL A   1      35.043  20.715  24.974  1.00  0.00     0.051 A 
ATOM     13  C   UNL A   1      34.250  21.527  24.147  1.00  0.00     0.127 A 
BRANCH   9  14
ATOM     14  O   UNL A   1      38.141  22.566  25.268  1.00  0.00    -0.497 OA
ATOM     15  C   UNL A   1      38.799  21.518  25.974  1.00  0.00     0.278 C 
ENDBRANCH   9  14
BRANCH  13  16
ATOM     16  O   UNL A   1      32.963  21.070  24.110  1.00  0.00    -0.483 OA
BRANCH  16  17
ATOM     17  C   UNL A   1      32.008  21.193  25.172  1.00  0.00     0.329 C 
BRANCH  17  18
ATOM     18  C   UNL A   1      31.702  22.589  25.587  1.00  0.00     0.264 A 
ATOM     19  N   UNL A   1      31.001  23.546  25.012  1.00  0.00    -0.193 NA
ATOM     20  O   UNL A   1      32.071  22.902  26.869  1.00  0.00    -0.336 OA
ATOM     21  C   UNL A   1      30.841  24.444  26.034  1.00  0.00     0.169 A 
ATOM     22  N   UNL A   1      31.487  24.135  27.164  1.00  0.00    -0.063 NA
ATOM     23  C   UNL A   1      29.893  25.569  25.953  1.00  0.00     0.093 C 
ENDBRANCH  17  18
ENDBRANCH  16  17
ENDBRANCH  13  16
ENDBRANCH   7   8
ENDBRANCH   3   6
ENDBRANCH   1   2
BRANCH   1  24
ATOM     24  C   UNL A   1      33.989  28.347  24.434  1.00  0.00     0.042 C 
BRANCH  24  25
ATOM     25  C   UNL A   1      34.060  28.535  25.945  1.00  0.00     0.118 C 
BRANCH  25  26
ATOM     26  N   UNL A   1      33.803  29.922  26.323  1.00  0.00    -0.352 N 
ATOM     27  C   UNL A   1      34.360  30.665  27.331  1.00  0.00     0.251 C 
ATOM     28  H   UNL A   1      33.132  30.390  25.776  1.00  0.00     0.163 HD
ATOM     29  O   UNL A   1      33.816  31.712  27.688  1.00  0.00    -0.269 OA
BRANCH  27  30
ATOM     30  C   UNL A   1      35.605  30.213  27.978  1.00  0.00     0.039 A 
ATOM     31  C   UNL A   1      36.827  30.413  27.333  1.00  0.00     0.014 A 
ATOM     32  C   UNL A   1      35.558  29.568  29.218  1.00  0.00     0.014 A 
ATOM     33  C   UNL A   1      38.010  30.017  27.959  1.00  0.00     0.010 A 
ATOM     34  C   UNL A   1      36.739  29.244  29.872  1.00  0.00     0.010 A 
ATOM     35  C   UNL A   1      37.975  29.459  29.247  1.00  0.00    -0.014 A 
BRANCH  35  36
ATOM     36  C   UNL A   1      39.217  29.084  29.967  1.00  0.00     0.031 A 
ATOM     37  C   UNL A   1      39.632  29.856  31.191  1.00  0.00     0.074 A 
ATOM     38  C   UNL A   1      40.007  28.117  29.465  1.00  0.00     0.049 A 
ATOM     39  N   UNL A   1      40.734  29.763  31.889  1.00  0.00    -0.248 NA
ATOM     40  C   UNL A   1      38.700  30.888  31.673  1.00  0.00     0.031 C 
ATOM     41  C   UNL A   1      39.728  27.339  28.256  1.00  0.00     0.029 A 
ATOM     42  N   UNL A   1      41.217  27.636  29.896  1.00  0.00    -0.354 N 
ATOM     43  C   UNL A   1      40.637  30.737  32.876  1.00  0.00     0.074 A 
ATOM     44  C   UNL A   1      39.392  31.440  32.658  1.00  0.00     0.031 C 
ATOM     45  C   UNL A   1      40.730  26.470  28.051  1.00  0.00     0.029 A 
ATOM     46  C   UNL A   1      41.740  26.656  29.087  1.00  0.00     0.049 A 
ATOM     47  H   UNL A   1      41.668  27.962  30.708  1.00  0.00     0.167 HD
ATOM     48  C   UNL A   1      41.500  31.005  33.884  1.00  0.00     0.037 A 
ATOM     49  C   UNL A   1      42.911  25.993  29.163  1.00  0.00     0.037 A 
ATOM     50  C   UNL A   1      42.722  30.277  34.107  1.00  0.00     0.049 A 
ATOM     51  C   UNL A   1      43.849  26.303  30.297  1.00  0.00     0.074 A 
ATOM     52  C   UNL A   1      43.634  30.422  35.137  1.00  0.00     0.029 A 
ATOM     53  N   UNL A   1      43.202  29.268  33.285  1.00  0.00    -0.354 N 
ATOM     54  N   UNL A   1      43.714  27.182  31.261  1.00  0.00    -0.248 NA
ATOM     55  C   UNL A   1      45.098  25.531  30.356  1.00  0.00     0.031 C 
ATOM     56  C   UNL A   1      44.686  29.527  34.916  1.00  0.00     0.029 A 
ATOM     57  C   UNL A   1      44.408  28.794  33.773  1.00  0.00     0.049 A 
ATOM     58  H   UNL A   1      42.753  28.938  32.474  1.00  0.00     0.167 HD
ATOM     59  C   UNL A   1      44.847  27.054  32.055  1.00  0.00     0.074 A 
ATOM     60  C   UNL A   1      45.653  26.003  31.465  1.00  0.00     0.031 C 
ATOM     61  C   UNL A   1      45.191  27.742  33.172  1.00  0.00     0.037 A 
BRANCH  48  62
ATOM     62  C   UNL A   1      41.150  32.127  34.824  1.00  0.00     0.058 A 
ATOM     63  C   UNL A   1      40.346  31.917  35.954  1.00  0.00     0.135 A 
ATOM     64  C   UNL A   1      41.649  33.422  34.608  1.00  0.00     0.135 A 
ATOM     65  F   UNL A   1      39.829  30.703  36.201  1.00  0.00    -0.206 F 
ATOM     66  C   UNL A   1      40.021  32.956  36.822  1.00  0.00     0.059 A 
ATOM     67  C   UNL A   1      41.361  34.470  35.477  1.00  0.00     0.059 A 
ATOM     68  F   UNL A   1      42.423  33.680  33.543  1.00  0.00    -0.206 F 
ATOM     69  C   UNL A   1      40.534  34.231  36.573  1.00  0.00     0.060 A 
BRANCH  69  70
ATOM     70  S   UNL A   1      40.105  35.566  37.709  1.00  0.00     0.124 S 
ATOM     71  O   UNL A   1      39.848  36.665  36.783  1.00  0.00    -0.237 OA
ATOM     72  O   UNL A   1      38.933  35.030  38.394  1.00  0.00    -0.237 OA
ATOM     73  O   UNL A   1      41.301  35.707  38.535  1.00  0.00    -0.744 OA
ENDBRANCH  69  70
ENDBRANCH  48  62
BRANCH  49  74
ATOM     74  C   UNL A   1      43.245  24.961  28.148  1.00  0.00     0.058 A 
ATOM     75  C   UNL A   1      42.820  23.633  28.307  1.00  0.00     0.135 A 
ATOM     76  C   UNL A   1      43.967  25.282  26.989  1.00  0.00     0.135 A 
ATOM     77  F   UNL A   1      42.129  23.277  29.400  1.00  0.00    -0.206 F 
ATOM     78  C   UNL A   1      43.109  22.657  27.359  1.00  0.00     0.059 A 
ATOM     79  C   UNL A   1      44.249  24.328  26.016  1.00  0.00     0.059 A 
ATOM     80  F   UNL A   1      44.380  26.541  26.780  1.00  0.00    -0.206 F 
ATOM     81  C   UNL A   1      43.822  23.016  26.214  1.00  0.00     0.060 A 
BRANCH  81  82
ATOM     82  S   UNL A   1      44.144  21.752  24.963  1.00  0.00     0.124 S 
ATOM     83  O   UNL A   1      43.827  22.468  23.734  1.00  0.00    -0.237 OA
ATOM     84  O   UNL A   1      45.557  21.455  25.184  1.00  0.00    -0.237 OA
ATOM     85  O   UNL A   1      43.223  20.680  25.328  1.00  0.00    -0.744 OA
ENDBRANCH  81  82
ENDBRANCH  49  74
BRANCH  61  86
ATOM     86  C   UNL A   1      46.479  27.366  33.847  1.00  0.00     0.058 A 
ATOM     87  C   UNL A   1      47.695  27.972  33.498  1.00  0.00     0.135 A 
ATOM     88  C   UNL A   1      46.484  26.435  34.898  1.00  0.00     0.135 A 
ATOM     89  F   UNL A   1      47.744  28.860  32.494  1.00  0.00    -0.206 F 
ATOM     90  C   UNL A   1      48.877  27.658  34.161  1.00  0.00     0.059 A 
ATOM     91  C   UNL A   1      47.649  26.126  35.593  1.00  0.00     0.059 A 
ATOM     92  F   UNL A   1      45.344  25.834  35.275  1.00  0.00    -0.206 F 
ATOM     93  C   UNL A   1      48.843  26.736  35.210  1.00  0.00     0.060 A 
BRANCH  93  94
ATOM     94  S   UNL A   1      50.374  26.375  36.095  1.00  0.00     0.124 S 
ATOM     95  O   UNL A   1      50.380  27.423  37.111  1.00  0.00    -0.237 OA
ATOM     96  O   UNL A   1      50.140  25.019  36.585  1.00  0.00    -0.237 OA
ATOM     97  O   UNL A   1      51.399  26.494  35.064  1.00  0.00    -0.744 OA
ENDBRANCH  93  94
ENDBRANCH  61  86
ENDBRANCH  35  36
ENDBRANCH  27  30
ENDBRANCH  25  26
ENDBRANCH  24  25
ENDBRANCH   1  24
TORSDOF 18
ENDMDL
MODEL 3
REMARK VINA RESULT:     -11.1      4.540     10.087
REMARK SMILES COc1ccc(OCc2nc(C)no2)c(/C=C/C(=O)NCCCNC(=O)c2ccc(-c3c4nc(c(-c5c(F)cc(S(=O)(=O)[O-])cc5F)c5ccc([nH]5)c(-c5c(F)cc(S(=O)(=O)[O-])cc5F)c5nc(c(-c6c(F)cc(S(=O)(=O)[O-])cc6F)c6ccc3[nH]6)C=C5)C=C4)cc2)c1
REMARK SMILES IDX 21 1 20 2 18 3 19 4 17 6 16 7 15 8 3 9 4 10 93 11 5 12 6 13
REMARK SMILES IDX 2 14 1 15 7 16 8 17 9 18 10 19 14 20 11 21 13 22 12 23 22 24
REMARK SMILES IDX 23 25 24 26 25 27 26 29 27 30 28 31 92 32 29 33 91 34 30 35
REMARK SMILES IDX 31 36 32 37 85 38 33 39 90 40 84 41 86 42 34 43 89 44 83 45
REMARK SMILES IDX 82 46 35 48 69 49 48 50 68 51 49 52 52 53 67 54 87 55 50 56
REMARK SMILES IDX 51 57 66 59 88 60 53 61 36 62 37 63 46 64 38 65 39 66 45 67
REMARK SMILES IDX 47 68 40 69 41 70 42 71 43 72 44 73 70 74 71 75 80 76 72 77
REMARK SMILES IDX 73 78 79 79 81 80 74 81 75 82 76 83 77 84 78 85 54 86 55 87
REMARK SMILES IDX 64 88 56 89 57 90 63 91 65 92 58 93 59 94 60 95 61 96 62 97
REMARK H PARENT 20 5 24 28 86 47 52 58
REMARK Flexibility Score: inf
ROOT
ATOM      1  C   UNL A   1      39.075  22.957  26.649  1.00  0.00     0.118 C 
ENDROOT
BRANCH   1   2
ATOM      2  N   UNL A   1      38.409  22.477  25.450  1.00  0.00    -0.352 N 
ATOM      3  C   UNL A   1      37.179  22.703  24.928  1.00  0.00     0.244 C 
ATOM      4  O   UNL A   1      36.825  22.052  23.944  1.00  0.00    -0.270 OA
ATOM      5  H   UNL A   1      38.961  21.866  24.910  1.00  0.00     0.163 HD
BRANCH   3   6
ATOM      6  C   UNL A   1      36.235  23.716  25.461  1.00  0.00     0.072 C 
ATOM      7  C   UNL A   1      35.060  23.991  24.882  1.00  0.00     0.018 C 
BRANCH   7   8
ATOM      8  C   UNL A   1      33.911  24.661  25.499  1.00  0.00     0.020 A 
ATOM      9  C   UNL A   1      32.978  26.844  26.086  1.00  0.00     0.119 A 
ATOM     10  C   UNL A   1      31.786  26.231  26.449  1.00  0.00     0.050 A 
ATOM     11  C   UNL A   1      34.048  26.057  25.659  1.00  0.00     0.058 A 
ATOM     12  C   UNL A   1      31.638  24.854  26.293  1.00  0.00     0.051 A 
ATOM     13  C   UNL A   1      32.667  24.062  25.760  1.00  0.00     0.127 A 
BRANCH   9  14
ATOM     14  O   UNL A   1      33.008  28.205  26.205  1.00  0.00    -0.497 OA
ATOM     15  C   UNL A   1      34.176  28.722  26.838  1.00  0.00     0.278 C 
ENDBRANCH   9  14
BRANCH  13  16
ATOM     16  O   UNL A   1      32.227  22.791  25.526  1.00  0.00    -0.483 OA
BRANCH  16  17
ATOM     17  C   UNL A   1      32.980  21.595  25.765  1.00  0.00     0.329 C 
BRANCH  17  18
ATOM     18  C   UNL A   1      32.554  20.411  24.969  1.00  0.00     0.264 A 
ATOM     19  N   UNL A   1      32.507  20.195  23.670  1.00  0.00    -0.193 NA
ATOM     20  O   UNL A   1      32.322  19.278  25.702  1.00  0.00    -0.336 OA
ATOM     21  C   UNL A   1      32.343  18.836  23.607  1.00  0.00     0.169 A 
ATOM     22  N   UNL A   1      32.190  18.230  24.790  1.00  0.00    -0.063 NA
ATOM     23  C   UNL A   1      32.499  18.081  22.351  1.00  0.00     0.093 C 
ENDBRANCH  17  18
ENDBRANCH  16  17
ENDBRANCH  13  16
ENDBRANCH   7   8
ENDBRANCH   3   6
ENDBRANCH   1   2
BRANCH   1  24
ATOM     24  C   UNL A   1      40.317  22.147  26.986  1.00  0.00     0.042 C 
BRANCH  24  25
ATOM     25  C   UNL A   1      41.492  23.034  27.382  1.00  0.00     0.118 C 
BRANCH  25  26
ATOM     26  N   UNL A   1      42.021  23.764  26.233  1.00  0.00    -0.352 N 
ATOM     27  C   UNL A   1      42.017  25.111  25.982  1.00  0.00     0.251 C 
ATOM     28  H   UNL A   1      42.441  23.207  25.538  1.00  0.00     0.163 HD
ATOM     29  O   UNL A   1      42.239  25.519  24.840  1.00  0.00    -0.269 OA
BRANCH  27  30
ATOM     30  C   UNL A   1      41.753  26.063  27.076  1.00  0.00     0.039 A 
ATOM     31  C   UNL A   1      40.718  25.804  27.978  1.00  0.00     0.014 A 
ATOM     32  C   UNL A   1      42.517  27.228  27.193  1.00  0.00     0.014 A 
ATOM     33  C   UNL A   1      40.489  26.687  29.034  1.00  0.00     0.010 A 
ATOM     34  C   UNL A   1      42.337  28.064  28.287  1.00  0.00     0.010 A 
ATOM     35  C   UNL A   1      41.318  27.807  29.213  1.00  0.00    -0.014 A 
BRANCH  35  36
ATOM     36  C   UNL A   1      41.141  28.731  30.360  1.00  0.00     0.031 A 
ATOM     37  C   UNL A   1      41.996  28.569  31.588  1.00  0.00     0.074 A 
ATOM     38  C   UNL A   1      40.155  29.647  30.326  1.00  0.00     0.049 A 
ATOM     39  N   UNL A   1      41.919  29.193  32.734  1.00  0.00    -0.248 NA
ATOM     40  C   UNL A   1      43.055  27.548  31.530  1.00  0.00     0.031 C 
ATOM     41  C   UNL A   1      39.233  29.857  29.208  1.00  0.00     0.029 A 
ATOM     42  N   UNL A   1      39.749  30.560  31.266  1.00  0.00    -0.354 N 
ATOM     43  C   UNL A   1      42.901  28.628  33.538  1.00  0.00     0.074 A 
ATOM     44  C   UNL A   1      43.530  27.579  32.766  1.00  0.00     0.031 C 
ATOM     45  C   UNL A   1      38.380  30.844  29.520  1.00  0.00     0.029 A 
ATOM     46  C   UNL A   1      38.665  31.308  30.874  1.00  0.00     0.049 A 
ATOM     47  H   UNL A   1      40.191  30.668  32.139  1.00  0.00     0.167 HD
ATOM     48  C   UNL A   1      43.259  28.969  34.799  1.00  0.00     0.037 A 
ATOM     49  C   UNL A   1      37.970  32.253  31.538  1.00  0.00     0.037 A 
ATOM     50  C   UNL A   1      42.645  30.036  35.546  1.00  0.00     0.049 A 
ATOM     51  C   UNL A   1      38.392  32.620  32.934  1.00  0.00     0.074 A 
ATOM     52  C   UNL A   1      42.977  30.508  36.802  1.00  0.00     0.029 A 
ATOM     53  N   UNL A   1      41.572  30.795  35.101  1.00  0.00    -0.354 N 
ATOM     54  N   UNL A   1      39.366  32.121  33.657  1.00  0.00    -0.248 NA
ATOM     55  C   UNL A   1      37.625  33.679  33.604  1.00  0.00     0.031 C 
ATOM     56  C   UNL A   1      42.077  31.527  37.135  1.00  0.00     0.029 A 
ATOM     57  C   UNL A   1      41.215  31.720  36.068  1.00  0.00     0.049 A 
ATOM     58  H   UNL A   1      41.129  30.691  34.228  1.00  0.00     0.167 HD
ATOM     59  C   UNL A   1      39.344  32.819  34.858  1.00  0.00     0.074 A 
ATOM     60  C   UNL A   1      38.267  33.785  34.760  1.00  0.00     0.031 C 
ATOM     61  C   UNL A   1      40.142  32.676  35.945  1.00  0.00     0.037 A 
BRANCH  48  62
ATOM     62  C   UNL A   1      44.368  28.184  35.447  1.00  0.00     0.058 A 
ATOM     63  C   UNL A   1      45.712  28.564  35.316  1.00  0.00     0.135 A 
ATOM     64  C   UNL A   1      44.080  27.056  36.232  1.00  0.00     0.135 A 
ATOM     65  F   UNL A   1      46.046  29.625  34.565  1.00  0.00    -0.206 F 
ATOM     66  C   UNL A   1      46.737  27.836  35.914  1.00  0.00     0.059 A 
ATOM     67  C   UNL A   1      45.086  26.329  36.863  1.00  0.00     0.059 A 
ATOM     68  F   UNL A   1      42.812  26.647  36.391  1.00  0.00    -0.206 F 
ATOM     69  C   UNL A   1      46.413  26.718  36.685  1.00  0.00     0.060 A 
BRANCH  69  70
ATOM     70  S   UNL A   1      47.753  25.787  37.455  1.00  0.00     0.124 S 
ATOM     71  O   UNL A   1      48.924  26.377  36.815  1.00  0.00    -0.237 OA
ATOM     72  O   UNL A   1      47.580  26.102  38.870  1.00  0.00    -0.237 OA
ATOM     73  O   UNL A   1      47.464  24.405  37.084  1.00  0.00    -0.744 OA
ENDBRANCH  69  70
ENDBRANCH  48  62
BRANCH  49  74
ATOM     74  C   UNL A   1      36.822  32.927  30.879  1.00  0.00     0.058 A 
ATOM     75  C   UNL A   1      35.502  32.614  31.237  1.00  0.00     0.135 A 
ATOM     76  C   UNL A   1      37.017  33.914  29.900  1.00  0.00     0.135 A 
ATOM     77  F   UNL A   1      35.265  31.675  32.165  1.00  0.00    -0.206 F 
ATOM     78  C   UNL A   1      34.415  33.246  30.641  1.00  0.00     0.059 A 
ATOM     79  C   UNL A   1      35.947  34.577  29.307  1.00  0.00     0.059 A 
ATOM     80  F   UNL A   1      38.260  34.263  29.535  1.00  0.00    -0.206 F 
ATOM     81  C   UNL A   1      34.649  34.230  29.678  1.00  0.00     0.060 A 
BRANCH  81  82
ATOM     82  S   UNL A   1      33.232  35.083  28.952  1.00  0.00     0.124 S 
ATOM     83  O   UNL A   1      32.717  34.073  28.037  1.00  0.00    -0.237 OA
ATOM     84  O   UNL A   1      32.409  35.363  30.125  1.00  0.00    -0.237 OA
ATOM     85  O   UNL A   1      33.834  36.257  28.326  1.00  0.00    -0.744 OA
ENDBRANCH  81  82
ENDBRANCH  49  74
BRANCH  61  86
ATOM     86  C   UNL A   1      39.902  33.600  37.106  1.00  0.00     0.058 A 
ATOM     87  C   UNL A   1      40.586  34.818  37.229  1.00  0.00     0.135 A 
ATOM     88  C   UNL A   1      38.929  33.289  38.070  1.00  0.00     0.135 A 
ATOM     89  F   UNL A   1      41.532  35.156  36.339  1.00  0.00    -0.206 F 
ATOM     90  C   UNL A   1      40.323  35.693  38.277  1.00  0.00     0.059 A 
ATOM     91  C   UNL A   1      38.631  34.162  39.112  1.00  0.00     0.059 A 
ATOM     92  F   UNL A   1      38.241  32.139  37.991  1.00  0.00    -0.206 F 
ATOM     93  C   UNL A   1      39.340  35.358  39.212  1.00  0.00     0.060 A 
BRANCH  93  94
ATOM     94  S   UNL A   1      38.973  36.525  40.538  1.00  0.00     0.124 S 
ATOM     95  O   UNL A   1      37.936  35.812  41.278  1.00  0.00    -0.237 OA
ATOM     96  O   UNL A   1      40.262  36.648  41.213  1.00  0.00    -0.237 OA
ATOM     97  O   UNL A   1      38.529  37.720  39.828  1.00  0.00    -0.744 OA
ENDBRANCH  93  94
ENDBRANCH  61  86
ENDBRANCH  35  36
ENDBRANCH  27  30
ENDBRANCH  25  26
ENDBRANCH  24  25
ENDBRANCH   1  24
TORSDOF 18
ENDMDL
