MODEL 1
REMARK VINA RESULT:     -11.9      0.000      0.000
REMARK SMILES Cc1ncccc1C(=O)Nc1cnccc1C(=O)NCCCNC(=O)c1ccc(-c2c3nc(c(-c4c(F)cc(S(=O)(=O)[O-])cc4F)c4ccc([nH]4)c(-c4c(F)cc(S(=O)(=O)[O-])cc4F)c4nc(c(-c5c(F)cc(S(=O)(=O)[O-])cc5F)c5ccc2[nH]5)C=C4)C=C3)cc1
REMARK SMILES IDX 21 1 20 2 19 3 17 4 18 5 16 7 11 8 12 9 13 10 15 11 14 12
REMARK SMILES IDX 10 13 8 14 9 15 7 17 1 18 2 19 3 20 4 21 6 22 5 23 22 24
REMARK SMILES IDX 23 25 24 26 25 28 26 29 27 30 91 31 28 32 90 33 29 34 30 35
REMARK SMILES IDX 31 36 84 37 32 38 89 39 83 40 85 41 33 42 88 43 82 44 81 45
REMARK SMILES IDX 34 47 68 48 47 49 67 50 48 51 51 52 66 53 86 54 49 55 50 56
REMARK SMILES IDX 65 58 87 59 52 60 35 61 36 62 45 63 37 64 38 65 44 66 46 67
REMARK SMILES IDX 39 68 40 69 41 70 42 71 43 72 69 73 70 74 79 75 71 76 72 77
REMARK SMILES IDX 78 78 80 79 73 80 74 81 75 82 76 83 77 84 53 85 54 86 63 87
REMARK SMILES IDX 55 88 56 89 62 90 64 91 57 92 58 93 59 94 60 95 61 96
REMARK H PARENT 19 6 10 16 23 27 85 46 51 57
REMARK Flexibility Score: inf
ROOT
ATOM      1  C   UNL A   1      35.096  33.045  28.000  1.00  0.00     0.042 C 
ENDROOT
BRANCH   1   2
ATOM      2  C   UNL A   1      34.940  34.458  28.519  1.00  0.00     0.118 C 
BRANCH   2   3
ATOM      3  N   UNL A   1      33.606  35.010  28.387  1.00  0.00    -0.352 N 
ATOM      4  C   UNL A   1      32.903  35.833  29.232  1.00  0.00     0.253 C 
ATOM      5  O   UNL A   1      31.782  36.207  28.885  1.00  0.00    -0.269 OA
ATOM      6  H   UNL A   1      33.129  34.754  27.565  1.00  0.00     0.163 HD
BRANCH   4   7
ATOM      7  C   UNL A   1      33.385  36.189  30.592  1.00  0.00     0.066 A 
ATOM      8  C   UNL A   1      33.784  35.327  31.618  1.00  0.00     0.072 A 
ATOM      9  C   UNL A   1      33.931  35.903  32.886  1.00  0.00     0.137 A 
ATOM     10  N   UNL A   1      33.865  37.224  33.161  1.00  0.00    -0.263 NA
ATOM     11  C   UNL A   1      33.346  37.575  30.851  1.00  0.00     0.036 A 
ATOM     12  C   UNL A   1      33.608  38.038  32.126  1.00  0.00     0.112 A 
BRANCH   8  13
ATOM     13  N   UNL A   1      34.088  33.952  31.562  1.00  0.00    -0.320 N 
ATOM     14  C   UNL A   1      35.242  33.218  31.656  1.00  0.00     0.257 C 
ATOM     15  O   UNL A   1      35.174  32.019  31.375  1.00  0.00    -0.269 OA
ATOM     16  H   UNL A   1      33.290  33.392  31.425  1.00  0.00     0.170 HD
BRANCH  14  17
ATOM     17  C   UNL A   1      36.541  33.745  32.106  1.00  0.00     0.061 A 
ATOM     18  C   UNL A   1      36.105  33.458  34.610  1.00  0.00     0.067 C 
ATOM     19  C   UNL A   1      36.951  33.846  33.436  1.00  0.00     0.050 A 
ATOM     20  N   UNL A   1      38.198  34.284  33.773  1.00  0.00    -0.261 NA
ATOM     21  C   UNL A   1      39.062  34.578  32.776  1.00  0.00     0.111 A 
ATOM     22  C   UNL A   1      37.486  34.007  31.100  1.00  0.00     0.017 A 
ATOM     23  C   UNL A   1      38.763  34.436  31.435  1.00  0.00     0.021 A 
ENDBRANCH  14  17
ENDBRANCH   8  13
ENDBRANCH   4   7
ENDBRANCH   2   3
ENDBRANCH   1   2
BRANCH   1  24
ATOM     24  C   UNL A   1      33.876  32.154  28.167  1.00  0.00     0.118 C 
BRANCH  24  25
ATOM     25  N   UNL A   1      33.804  31.033  27.237  1.00  0.00    -0.352 N 
ATOM     26  C   UNL A   1      34.659  29.972  27.009  1.00  0.00     0.251 C 
ATOM     27  H   UNL A   1      33.001  31.032  26.667  1.00  0.00     0.163 HD
ATOM     28  O   UNL A   1      34.400  29.175  26.123  1.00  0.00    -0.269 OA
BRANCH  26  29
ATOM     29  C   UNL A   1      35.904  29.824  27.802  1.00  0.00     0.039 A 
ATOM     30  C   UNL A   1      35.820  29.374  29.123  1.00  0.00     0.014 A 
ATOM     31  C   UNL A   1      37.151  30.105  27.250  1.00  0.00     0.014 A 
ATOM     32  C   UNL A   1      36.990  29.112  29.842  1.00  0.00     0.010 A 
ATOM     33  C   UNL A   1      38.306  29.704  27.908  1.00  0.00     0.010 A 
ATOM     34  C   UNL A   1      38.244  29.222  29.221  1.00  0.00    -0.014 A 
BRANCH  34  35
ATOM     35  C   UNL A   1      39.502  28.870  29.930  1.00  0.00     0.031 A 
ATOM     36  C   UNL A   1      39.877  29.589  31.202  1.00  0.00     0.074 A 
ATOM     37  C   UNL A   1      40.337  27.955  29.397  1.00  0.00     0.049 A 
ATOM     38  N   UNL A   1      40.949  29.457  31.941  1.00  0.00    -0.248 NA
ATOM     39  C   UNL A   1      38.951  30.629  31.682  1.00  0.00     0.031 C 
ATOM     40  C   UNL A   1      40.131  27.257  28.124  1.00  0.00     0.029 A 
ATOM     41  N   UNL A   1      41.527  27.451  29.857  1.00  0.00    -0.354 N 
ATOM     42  C   UNL A   1      40.834  30.410  32.948  1.00  0.00     0.074 A 
ATOM     43  C   UNL A   1      39.634  31.167  32.679  1.00  0.00     0.031 C 
ATOM     44  C   UNL A   1      41.128  26.379  27.935  1.00  0.00     0.029 A 
ATOM     45  C   UNL A   1      42.060  26.471  29.053  1.00  0.00     0.049 A 
ATOM     46  H   UNL A   1      41.959  27.762  30.685  1.00  0.00     0.167 HD
ATOM     47  C   UNL A   1      41.629  30.609  34.026  1.00  0.00     0.037 A 
ATOM     48  C   UNL A   1      43.167  25.719  29.212  1.00  0.00     0.037 A 
ATOM     49  C   UNL A   1      42.791  29.814  34.315  1.00  0.00     0.049 A 
ATOM     50  C   UNL A   1      43.999  25.907  30.451  1.00  0.00     0.074 A 
ATOM     51  C   UNL A   1      43.634  29.882  35.409  1.00  0.00     0.029 A 
ATOM     52  N   UNL A   1      43.264  28.790  33.506  1.00  0.00    -0.354 N 
ATOM     53  N   UNL A   1      43.836  26.766  31.429  1.00  0.00    -0.248 NA
ATOM     54  C   UNL A   1      45.152  25.014  30.617  1.00  0.00     0.031 C 
ATOM     55  C   UNL A   1      44.634  28.916  35.248  1.00  0.00     0.029 A 
ATOM     56  C   UNL A   1      44.389  28.219  34.075  1.00  0.00     0.049 A 
ATOM     57  H   UNL A   1      42.860  28.511  32.653  1.00  0.00     0.167 HD
ATOM     58  C   UNL A   1      44.848  26.496  32.343  1.00  0.00     0.074 A 
ATOM     59  C   UNL A   1      45.610  25.387  31.804  1.00  0.00     0.031 C 
ATOM     60  C   UNL A   1      45.122  27.108  33.522  1.00  0.00     0.037 A 
BRANCH  47  61
ATOM     61  C   UNL A   1      41.246  31.714  34.974  1.00  0.00     0.058 A 
ATOM     62  C   UNL A   1      40.263  31.530  35.961  1.00  0.00     0.135 A 
ATOM     63  C   UNL A   1      41.861  32.974  34.894  1.00  0.00     0.135 A 
ATOM     64  F   UNL A   1      39.628  30.352  36.070  1.00  0.00    -0.206 F 
ATOM     65  C   UNL A   1      39.870  32.565  36.802  1.00  0.00     0.059 A 
ATOM     66  C   UNL A   1      41.507  34.015  35.748  1.00  0.00     0.059 A 
ATOM     67  F   UNL A   1      42.808  33.208  33.972  1.00  0.00    -0.206 F 
ATOM     68  C   UNL A   1      40.494  33.807  36.684  1.00  0.00     0.060 A 
BRANCH  68  69
ATOM     69  S   UNL A   1      39.963  35.146  37.772  1.00  0.00     0.124 S 
ATOM     70  O   UNL A   1      38.809  34.543  38.431  1.00  0.00    -0.237 OA
ATOM     71  O   UNL A   1      41.138  35.349  38.615  1.00  0.00    -0.237 OA
ATOM     72  O   UNL A   1      39.663  36.235  36.849  1.00  0.00    -0.744 OA
ENDBRANCH  68  69
ENDBRANCH  47  61
BRANCH  48  73
ATOM     73  C   UNL A   1      43.502  24.670  28.210  1.00  0.00     0.058 A 
ATOM     74  C   UNL A   1      42.871  23.417  28.246  1.00  0.00     0.135 A 
ATOM     75  C   UNL A   1      44.427  24.906  27.183  1.00  0.00     0.135 A 
ATOM     76  F   UNL A   1      41.980  23.143  29.211  1.00  0.00    -0.206 F 
ATOM     77  C   UNL A   1      43.156  22.429  27.309  1.00  0.00     0.059 A 
ATOM     78  C   UNL A   1      44.712  23.942  26.220  1.00  0.00     0.059 A 
ATOM     79  F   UNL A   1      45.041  26.095  27.092  1.00  0.00    -0.206 F 
ATOM     80  C   UNL A   1      44.076  22.703  26.296  1.00  0.00     0.060 A 
BRANCH  80  81
ATOM     81  S   UNL A   1      44.394  21.435  25.049  1.00  0.00     0.124 S 
ATOM     82  O   UNL A   1      45.778  21.080  25.337  1.00  0.00    -0.237 OA
ATOM     83  O   UNL A   1      43.393  20.424  25.376  1.00  0.00    -0.237 OA
ATOM     84  O   UNL A   1      44.170  22.141  23.790  1.00  0.00    -0.744 OA
ENDBRANCH  80  81
ENDBRANCH  48  73
BRANCH  60  85
ATOM     85  C   UNL A   1      46.265  26.562  34.328  1.00  0.00     0.058 A 
ATOM     86  C   UNL A   1      46.082  25.535  35.268  1.00  0.00     0.135 A 
ATOM     87  C   UNL A   1      47.568  27.047  34.128  1.00  0.00     0.135 A 
ATOM     88  F   UNL A   1      44.856  25.040  35.497  1.00  0.00    -0.206 F 
ATOM     89  C   UNL A   1      47.148  25.030  36.004  1.00  0.00     0.059 A 
ATOM     90  C   UNL A   1      48.652  26.539  34.835  1.00  0.00     0.059 A 
ATOM     91  F   UNL A   1      47.796  28.019  33.230  1.00  0.00    -0.206 F 
ATOM     92  C   UNL A   1      48.429  25.541  35.783  1.00  0.00     0.060 A 
BRANCH  92  93
ATOM     93  S   UNL A   1      49.808  24.869  36.734  1.00  0.00     0.124 S 
ATOM     94  O   UNL A   1      49.137  24.439  37.956  1.00  0.00    -0.237 OA
ATOM     95  O   UNL A   1      50.294  23.799  35.868  1.00  0.00    -0.237 OA
ATOM     96  O   UNL A   1      50.708  26.009  36.877  1.00  0.00    -0.744 OA
ENDBRANCH  92  93
ENDBRANCH  60  85
ENDBRANCH  34  35
ENDBRANCH  26  29
ENDBRANCH  24  25
ENDBRANCH   1  24
TORSDOF 15
ENDMDL
MODEL 2
REMARK VINA RESULT:     -11.9      3.712      7.016
REMARK SMILES Cc1ncccc1C(=O)Nc1cnccc1C(=O)NCCCNC(=O)c1ccc(-c2c3nc(c(-c4c(F)cc(S(=O)(=O)[O-])cc4F)c4ccc([nH]4)c(-c4c(F)cc(S(=O)(=O)[O-])cc4F)c4nc(c(-c5c(F)cc(S(=O)(=O)[O-])cc5F)c5ccc2[nH]5)C=C4)C=C3)cc1
REMARK SMILES IDX 21 1 20 2 19 3 17 4 18 5 16 7 11 8 12 9 13 10 15 11 14 12
REMARK SMILES IDX 10 13 8 14 9 15 7 17 1 18 2 19 3 20 4 21 6 22 5 23 22 24
REMARK SMILES IDX 23 25 24 26 25 28 26 29 27 30 91 31 28 32 90 33 29 34 30 35
REMARK SMILES IDX 31 36 84 37 32 38 89 39 83 40 85 41 33 42 88 43 82 44 81 45
REMARK SMILES IDX 34 47 68 48 47 49 67 50 48 51 51 52 66 53 86 54 49 55 50 56
REMARK SMILES IDX 65 58 87 59 52 60 35 61 36 62 45 63 37 64 38 65 44 66 46 67
REMARK SMILES IDX 39 68 40 69 41 70 42 71 43 72 69 73 70 74 79 75 71 76 72 77
REMARK SMILES IDX 78 78 80 79 73 80 74 81 75 82 76 83 77 84 53 85 54 86 63 87
REMARK SMILES IDX 55 88 56 89 62 90 64 91 57 92 58 93 59 94 60 95 61 96
REMARK H PARENT 19 6 10 16 23 27 85 46 51 57
REMARK Flexibility Score: inf
ROOT
ATOM      1  C   UNL A   1      33.842  26.974  25.110  1.00  0.00     0.042 C 
ENDROOT
BRANCH   1   2
ATOM      2  C   UNL A   1      34.203  25.507  25.032  1.00  0.00     0.118 C 
BRANCH   2   3
ATOM      3  N   UNL A   1      33.998  24.899  23.732  1.00  0.00    -0.352 N 
ATOM      4  C   UNL A   1      34.397  23.674  23.256  1.00  0.00     0.253 C 
ATOM      5  O   UNL A   1      34.070  23.356  22.112  1.00  0.00    -0.269 OA
ATOM      6  H   UNL A   1      33.494  25.450  23.090  1.00  0.00     0.163 HD
BRANCH   4   7
ATOM      7  C   UNL A   1      35.306  22.775  24.014  1.00  0.00     0.066 A 
ATOM      8  C   UNL A   1      34.982  21.597  24.693  1.00  0.00     0.072 A 
ATOM      9  C   UNL A   1      35.966  21.090  25.552  1.00  0.00     0.137 A 
ATOM     10  N   UNL A   1      37.229  21.556  25.662  1.00  0.00    -0.263 NA
ATOM     11  C   UNL A   1      36.630  23.256  24.087  1.00  0.00     0.036 A 
ATOM     12  C   UNL A   1      37.545  22.611  24.896  1.00  0.00     0.112 A 
BRANCH   8  13
ATOM     13  N   UNL A   1      33.810  20.819  24.624  1.00  0.00    -0.320 N 
ATOM     14  C   UNL A   1      32.526  20.971  25.081  1.00  0.00     0.257 C 
ATOM     15  O   UNL A   1      31.778  19.994  25.003  1.00  0.00    -0.269 OA
ATOM     16  H   UNL A   1      33.943  19.973  24.137  1.00  0.00     0.170 HD
BRANCH  14  17
ATOM     17  C   UNL A   1      31.965  22.223  25.616  1.00  0.00     0.061 A 
ATOM     18  C   UNL A   1      33.247  22.180  27.828  1.00  0.00     0.067 C 
ATOM     19  C   UNL A   1      32.292  22.790  26.849  1.00  0.00     0.050 A 
ATOM     20  N   UNL A   1      31.780  23.988  27.248  1.00  0.00    -0.261 NA
ATOM     21  C   UNL A   1      30.973  24.655  26.392  1.00  0.00     0.111 A 
ATOM     22  C   UNL A   1      31.168  22.972  24.734  1.00  0.00     0.017 A 
ATOM     23  C   UNL A   1      30.657  24.201  25.127  1.00  0.00     0.021 A 
ENDBRANCH  14  17
ENDBRANCH   8  13
ENDBRANCH   4   7
ENDBRANCH   2   3
ENDBRANCH   1   2
BRANCH   1  24
ATOM     24  C   UNL A   1      34.064  27.625  26.466  1.00  0.00     0.118 C 
BRANCH  24  25
ATOM     25  N   UNL A   1      33.657  29.023  26.549  1.00  0.00    -0.352 N 
ATOM     26  C   UNL A   1      34.238  30.114  27.165  1.00  0.00     0.251 C 
ATOM     27  H   UNL A   1      32.815  29.227  26.081  1.00  0.00     0.163 HD
ATOM     28  O   UNL A   1      33.668  31.192  27.135  1.00  0.00    -0.269 OA
BRANCH  26  29
ATOM     29  C   UNL A   1      35.521  29.972  27.896  1.00  0.00     0.039 A 
ATOM     30  C   UNL A   1      35.498  29.639  29.254  1.00  0.00     0.014 A 
ATOM     31  C   UNL A   1      36.744  30.143  27.251  1.00  0.00     0.014 A 
ATOM     32  C   UNL A   1      36.697  29.381  29.925  1.00  0.00     0.010 A 
ATOM     33  C   UNL A   1      37.917  29.743  27.874  1.00  0.00     0.010 A 
ATOM     34  C   UNL A   1      37.915  29.376  29.226  1.00  0.00    -0.014 A 
BRANCH  34  35
ATOM     35  C   UNL A   1      39.197  29.024  29.891  1.00  0.00     0.031 A 
ATOM     36  C   UNL A   1      39.624  29.753  31.140  1.00  0.00     0.074 A 
ATOM     37  C   UNL A   1      40.005  28.098  29.335  1.00  0.00     0.049 A 
ATOM     38  N   UNL A   1      40.722  29.622  31.839  1.00  0.00    -0.248 NA
ATOM     39  C   UNL A   1      38.723  30.803  31.644  1.00  0.00     0.031 C 
ATOM     40  C   UNL A   1      39.747  27.389  28.079  1.00  0.00     0.029 A 
ATOM     41  N   UNL A   1      41.209  27.592  29.755  1.00  0.00    -0.354 N 
ATOM     42  C   UNL A   1      40.651  30.586  32.839  1.00  0.00     0.074 A 
ATOM     43  C   UNL A   1      39.446  31.347  32.609  1.00  0.00     0.031 C 
ATOM     44  C   UNL A   1      40.731  26.503  27.860  1.00  0.00     0.029 A 
ATOM     45  C   UNL A   1      41.705  26.600  28.941  1.00  0.00     0.049 A 
ATOM     46  H   UNL A   1      41.674  27.908  30.563  1.00  0.00     0.167 HD
ATOM     47  C   UNL A   1      41.488  30.791  33.884  1.00  0.00     0.037 A 
ATOM     48  C   UNL A   1      42.813  25.843  29.065  1.00  0.00     0.037 A 
ATOM     49  C   UNL A   1      42.656  29.991  34.137  1.00  0.00     0.049 A 
ATOM     50  C   UNL A   1      43.692  26.038  30.270  1.00  0.00     0.074 A 
ATOM     51  C   UNL A   1      43.540  30.064  35.198  1.00  0.00     0.029 A 
ATOM     52  N   UNL A   1      43.092  28.956  33.321  1.00  0.00    -0.354 N 
ATOM     53  N   UNL A   1      43.573  26.908  31.245  1.00  0.00    -0.248 NA
ATOM     54  C   UNL A   1      44.846  25.139  30.402  1.00  0.00     0.031 C 
ATOM     55  C   UNL A   1      44.528  29.091  35.008  1.00  0.00     0.029 A 
ATOM     56  C   UNL A   1      44.234  28.384  33.853  1.00  0.00     0.049 A 
ATOM     57  H   UNL A   1      42.653  28.671  32.487  1.00  0.00     0.167 HD
ATOM     58  C   UNL A   1      44.617  26.641  32.122  1.00  0.00     0.074 A 
ATOM     59  C   UNL A   1      45.351  25.522  31.566  1.00  0.00     0.031 C 
ATOM     60  C   UNL A   1      44.939  27.263  33.284  1.00  0.00     0.037 A 
BRANCH  47  61
ATOM     61  C   UNL A   1      41.148  31.908  34.835  1.00  0.00     0.058 A 
ATOM     62  C   UNL A   1      40.262  31.717  35.909  1.00  0.00     0.135 A 
ATOM     63  C   UNL A   1      41.706  33.185  34.670  1.00  0.00     0.135 A 
ATOM     64  F   UNL A   1      39.684  30.520  36.103  1.00  0.00    -0.206 F 
ATOM     65  C   UNL A   1      39.906  32.760  36.756  1.00  0.00     0.059 A 
ATOM     66  C   UNL A   1      41.389  34.237  35.526  1.00  0.00     0.059 A 
ATOM     67  F   UNL A   1      42.559  33.427  33.663  1.00  0.00    -0.206 F 
ATOM     68  C   UNL A   1      40.470  34.019  36.553  1.00  0.00     0.060 A 
BRANCH  68  69
ATOM     69  S   UNL A   1      39.986  35.369  37.650  1.00  0.00     0.124 S 
ATOM     70  O   UNL A   1      38.855  34.775  38.357  1.00  0.00    -0.237 OA
ATOM     71  O   UNL A   1      41.193  35.573  38.446  1.00  0.00    -0.237 OA
ATOM     72  O   UNL A   1      39.655  36.452  36.730  1.00  0.00    -0.744 OA
ENDBRANCH  68  69
ENDBRANCH  47  61
BRANCH  48  73
ATOM     73  C   UNL A   1      43.103  24.782  28.063  1.00  0.00     0.058 A 
ATOM     74  C   UNL A   1      43.823  25.076  26.896  1.00  0.00     0.135 A 
ATOM     75  C   UNL A   1      42.700  23.454  28.263  1.00  0.00     0.135 A 
ATOM     76  F   UNL A   1      44.230  26.333  26.658  1.00  0.00    -0.206 F 
ATOM     77  C   UNL A   1      44.122  24.096  25.955  1.00  0.00     0.059 A 
ATOM     78  C   UNL A   1      43.006  22.451  27.348  1.00  0.00     0.059 A 
ATOM     79  F   UNL A   1      42.027  23.116  29.374  1.00  0.00    -0.206 F 
ATOM     80  C   UNL A   1      43.711  22.783  26.192  1.00  0.00     0.060 A 
BRANCH  80  81
ATOM     81  S   UNL A   1      44.155  21.506  24.993  1.00  0.00     0.124 S 
ATOM     82  O   UNL A   1      45.492  21.135  25.442  1.00  0.00    -0.237 OA
ATOM     83  O   UNL A   1      43.110  20.509  25.205  1.00  0.00    -0.237 OA
ATOM     84  O   UNL A   1      44.089  22.210  23.716  1.00  0.00    -0.744 OA
ENDBRANCH  80  81
ENDBRANCH  48  73
BRANCH  60  85
ATOM     85  C   UNL A   1      46.109  26.717  34.052  1.00  0.00     0.058 A 
ATOM     86  C   UNL A   1      47.403  27.236  33.891  1.00  0.00     0.135 A 
ATOM     87  C   UNL A   1      45.923  25.687  34.987  1.00  0.00     0.135 A 
ATOM     88  F   UNL A   1      47.633  28.219  33.007  1.00  0.00    -0.206 F 
ATOM     89  C   UNL A   1      48.479  26.730  34.612  1.00  0.00     0.059 A 
ATOM     90  C   UNL A   1      46.980  25.184  35.737  1.00  0.00     0.059 A 
ATOM     91  F   UNL A   1      44.701  25.168  35.187  1.00  0.00    -0.206 F 
ATOM     92  C   UNL A   1      48.258  25.701  35.530  1.00  0.00     0.060 A 
BRANCH  92  93
ATOM     93  S   UNL A   1      49.659  25.061  36.470  1.00  0.00     0.124 S 
ATOM     94  O   UNL A   1      50.787  25.567  35.696  1.00  0.00    -0.237 OA
ATOM     95  O   UNL A   1      49.464  25.674  37.781  1.00  0.00    -0.237 OA
ATOM     96  O   UNL A   1      49.464  23.615  36.427  1.00  0.00    -0.744 OA
ENDBRANCH  92  93
ENDBRANCH  60  85
ENDBRANCH  34  35
ENDBRANCH  26  29
ENDBRANCH  24  25
ENDBRANCH   1  24
TORSDOF 15
ENDMDL
MODEL 3
REMARK VINA RESULT:     -11.8      5.240     11.277
REMARK SMILES Cc1ncccc1C(=O)Nc1cnccc1C(=O)NCCCNC(=O)c1ccc(-c2c3nc(c(-c4c(F)cc(S(=O)(=O)[O-])cc4F)c4ccc([nH]4)c(-c4c(F)cc(S(=O)(=O)[O-])cc4F)c4nc(c(-c5c(F)cc(S(=O)(=O)[O-])cc5F)c5ccc2[nH]5)C=C4)C=C3)cc1
REMARK SMILES IDX 21 1 20 2 19 3 17 4 18 5 16 7 11 8 12 9 13 10 15 11 14 12
REMARK SMILES IDX 10 13 8 14 9 15 7 17 1 18 2 19 3 20 4 21 6 22 5 23 22 24
REMARK SMILES IDX 23 25 24 26 25 28 26 29 27 30 91 31 28 32 90 33 29 34 30 35
REMARK SMILES IDX 31 36 84 37 32 38 89 39 83 40 85 41 33 42 88 43 82 44 81 45
REMARK SMILES IDX 34 47 68 48 47 49 67 50 48 51 51 52 66 53 86 54 49 55 50 56
REMARK SMILES IDX 65 58 87 59 52 60 35 61 36 62 45 63 37 64 38 65 44 66 46 67
REMARK SMILES IDX 39 68 40 69 41 70 42 71 43 72 69 73 70 74 79 75 71 76 72 77
REMARK SMILES IDX 78 78 80 79 73 80 74 81 75 82 76 83 77 84 53 85 54 86 63 87
REMARK SMILES IDX 55 88 56 89 62 90 64 91 57 92 58 93 59 94 60 95 61 96
REMARK H PARENT 19 6 10 16 23 27 85 46 51 57
REMARK Flexibility Score: inf
ROOT
ATOM      1  C   UNL A   1      33.799  27.670  25.818  1.00  0.00     0.042 C 
ENDROOT
BRANCH   1   2
ATOM      2  C   UNL A   1      34.010  26.198  25.540  1.00  0.00     0.118 C 
BRANCH   2   3
ATOM      3  N   UNL A   1      33.869  25.816  24.149  1.00  0.00    -0.352 N 
ATOM      4  C   UNL A   1      34.159  24.627  23.525  1.00  0.00     0.253 C 
ATOM      5  O   UNL A   1      33.918  24.524  22.323  1.00  0.00    -0.269 OA
ATOM      6  H   UNL A   1      33.510  26.517  23.559  1.00  0.00     0.163 HD
BRANCH   4   7
ATOM      7  C   UNL A   1      34.862  23.511  24.211  1.00  0.00     0.066 A 
ATOM      8  C   UNL A   1      34.375  22.681  25.226  1.00  0.00     0.072 A 
ATOM      9  C   UNL A   1      35.325  21.892  25.886  1.00  0.00     0.137 A 
ATOM     10  N   UNL A   1      36.623  21.761  25.530  1.00  0.00    -0.263 NA
ATOM     11  C   UNL A   1      36.203  23.362  23.800  1.00  0.00     0.036 A 
ATOM     12  C   UNL A   1      37.025  22.475  24.468  1.00  0.00     0.112 A 
BRANCH   8  13
ATOM     13  N   UNL A   1      33.052  22.498  25.673  1.00  0.00    -0.320 N 
ATOM     14  C   UNL A   1      32.078  21.562  25.440  1.00  0.00     0.257 C 
ATOM     15  O   UNL A   1      30.945  21.807  25.860  1.00  0.00    -0.269 OA
ATOM     16  H   UNL A   1      32.760  23.204  26.295  1.00  0.00     0.170 HD
BRANCH  14  17
ATOM     17  C   UNL A   1      32.296  20.271  24.765  1.00  0.00     0.061 A 
ATOM     18  C   UNL A   1      31.969  21.143  22.383  1.00  0.00     0.067 C 
ATOM     19  C   UNL A   1      32.264  20.069  23.385  1.00  0.00     0.050 A 
ATOM     20  N   UNL A   1      32.541  18.855  22.829  1.00  0.00    -0.261 NA
ATOM     21  C   UNL A   1      32.902  17.844  23.651  1.00  0.00     0.111 A 
ATOM     22  C   UNL A   1      32.728  19.211  25.580  1.00  0.00     0.017 A 
ATOM     23  C   UNL A   1      33.028  17.977  25.019  1.00  0.00     0.021 A 
ENDBRANCH  14  17
ENDBRANCH   8  13
ENDBRANCH   4   7
ENDBRANCH   2   3
ENDBRANCH   1   2
BRANCH   1  24
ATOM     24  C   UNL A   1      33.446  28.015  27.257  1.00  0.00     0.118 C 
BRANCH  24  25
ATOM     25  N   UNL A   1      33.386  29.442  27.548  1.00  0.00    -0.352 N 
ATOM     26  C   UNL A   1      34.353  30.337  27.961  1.00  0.00     0.251 C 
ATOM     27  H   UNL A   1      32.493  29.841  27.429  1.00  0.00     0.163 HD
ATOM     28  O   UNL A   1      34.039  31.493  28.192  1.00  0.00    -0.269 OA
BRANCH  26  29
ATOM     29  C   UNL A   1      35.753  29.892  28.167  1.00  0.00     0.039 A 
ATOM     30  C   UNL A   1      36.659  29.986  27.107  1.00  0.00     0.014 A 
ATOM     31  C   UNL A   1      36.183  29.403  29.398  1.00  0.00     0.014 A 
ATOM     32  C   UNL A   1      38.008  29.687  27.320  1.00  0.00     0.010 A 
ATOM     33  C   UNL A   1      37.540  29.252  29.647  1.00  0.00     0.010 A 
ATOM     34  C   UNL A   1      38.471  29.371  28.608  1.00  0.00    -0.014 A 
BRANCH  34  35
ATOM     35  C   UNL A   1      39.911  29.130  28.885  1.00  0.00     0.031 A 
ATOM     36  C   UNL A   1      40.533  27.799  28.544  1.00  0.00     0.074 A 
ATOM     37  C   UNL A   1      40.641  30.082  29.502  1.00  0.00     0.049 A 
ATOM     38  N   UNL A   1      41.756  27.382  28.747  1.00  0.00    -0.248 NA
ATOM     39  C   UNL A   1      39.652  26.784  27.940  1.00  0.00     0.031 C 
ATOM     40  C   UNL A   1      40.132  31.376  29.966  1.00  0.00     0.029 A 
ATOM     41  N   UNL A   1      41.969  30.110  29.846  1.00  0.00    -0.354 N 
ATOM     42  C   UNL A   1      41.779  26.057  28.322  1.00  0.00     0.074 A 
ATOM     43  C   UNL A   1      40.432  25.715  27.929  1.00  0.00     0.031 C 
ATOM     44  C   UNL A   1      41.144  32.091  30.481  1.00  0.00     0.029 A 
ATOM     45  C   UNL A   1      42.367  31.298  30.414  1.00  0.00     0.049 A 
ATOM     46  H   UNL A   1      42.579  29.352  29.701  1.00  0.00     0.167 HD
ATOM     47  C   UNL A   1      42.833  25.213  28.224  1.00  0.00     0.037 A 
ATOM     48  C   UNL A   1      43.586  31.707  30.818  1.00  0.00     0.037 A 
ATOM     49  C   UNL A   1      44.181  25.581  28.565  1.00  0.00     0.049 A 
ATOM     50  C   UNL A   1      44.757  30.781  30.635  1.00  0.00     0.074 A 
ATOM     51  C   UNL A   1      45.338  24.832  28.446  1.00  0.00     0.029 A 
ATOM     52  N   UNL A   1      44.553  26.814  29.081  1.00  0.00    -0.354 N 
ATOM     53  N   UNL A   1      44.773  29.555  30.166  1.00  0.00    -0.248 NA
ATOM     54  C   UNL A   1      46.077  31.297  31.018  1.00  0.00     0.031 C 
ATOM     55  C   UNL A   1      46.406  25.605  28.916  1.00  0.00     0.029 A 
ATOM     56  C   UNL A   1      45.921  26.848  29.287  1.00  0.00     0.049 A 
ATOM     57  H   UNL A   1      43.934  27.557  29.272  1.00  0.00     0.167 HD
ATOM     58  C   UNL A   1      46.107  29.165  30.169  1.00  0.00     0.074 A 
ATOM     59  C   UNL A   1      46.868  30.289  30.676  1.00  0.00     0.031 C 
ATOM     60  C   UNL A   1      46.654  27.985  29.784  1.00  0.00     0.037 A 
BRANCH  47  61
ATOM     61  C   UNL A   1      42.564  23.826  27.705  1.00  0.00     0.058 A 
ATOM     62  C   UNL A   1      42.371  22.739  28.575  1.00  0.00     0.135 A 
ATOM     63  C   UNL A   1      42.503  23.575  26.325  1.00  0.00     0.135 A 
ATOM     64  F   UNL A   1      42.438  22.917  29.904  1.00  0.00    -0.206 F 
ATOM     65  C   UNL A   1      42.175  21.448  28.097  1.00  0.00     0.059 A 
ATOM     66  C   UNL A   1      42.275  22.296  25.825  1.00  0.00     0.059 A 
ATOM     67  F   UNL A   1      42.679  24.574  25.447  1.00  0.00    -0.206 F 
ATOM     68  C   UNL A   1      42.135  21.235  26.719  1.00  0.00     0.060 A 
BRANCH  68  69
ATOM     69  S   UNL A   1      41.895  19.551  26.113  1.00  0.00     0.124 S 
ATOM     70  O   UNL A   1      42.334  18.765  27.262  1.00  0.00    -0.237 OA
ATOM     71  O   UNL A   1      40.463  19.520  25.835  1.00  0.00    -0.237 OA
ATOM     72  O   UNL A   1      42.760  19.487  24.939  1.00  0.00    -0.744 OA
ENDBRANCH  68  69
ENDBRANCH  47  61
BRANCH  48  73
ATOM     73  C   UNL A   1      43.767  33.082  31.357  1.00  0.00     0.058 A 
ATOM     74  C   UNL A   1      44.097  34.148  30.506  1.00  0.00     0.135 A 
ATOM     75  C   UNL A   1      43.583  33.366  32.718  1.00  0.00     0.135 A 
ATOM     76  F   UNL A   1      44.285  33.927  29.196  1.00  0.00    -0.206 F 
ATOM     77  C   UNL A   1      44.253  35.444  30.986  1.00  0.00     0.059 A 
ATOM     78  C   UNL A   1      43.712  34.658  33.219  1.00  0.00     0.059 A 
ATOM     79  F   UNL A   1      43.246  32.385  33.570  1.00  0.00    -0.206 F 
ATOM     80  C   UNL A   1      44.054  35.690  32.346  1.00  0.00     0.060 A 
BRANCH  80  81
ATOM     81  S   UNL A   1      44.200  37.387  32.949  1.00  0.00     0.124 S 
ATOM     82  O   UNL A   1      45.595  37.431  33.369  1.00  0.00    -0.237 OA
ATOM     83  O   UNL A   1      43.865  38.166  31.760  1.00  0.00    -0.237 OA
ATOM     84  O   UNL A   1      43.213  37.445  34.024  1.00  0.00    -0.744 OA
ENDBRANCH  80  81
ENDBRANCH  48  73
BRANCH  60  85
ATOM     85  C   UNL A   1      48.150  27.868  29.856  1.00  0.00     0.058 A 
ATOM     86  C   UNL A   1      48.798  27.382  31.002  1.00  0.00     0.135 A 
ATOM     87  C   UNL A   1      48.940  28.211  28.747  1.00  0.00     0.135 A 
ATOM     88  F   UNL A   1      48.086  27.044  32.088  1.00  0.00    -0.206 F 
ATOM     89  C   UNL A   1      50.183  27.270  31.057  1.00  0.00     0.059 A 
ATOM     90  C   UNL A   1      50.324  28.082  28.771  1.00  0.00     0.059 A 
ATOM     91  F   UNL A   1      48.366  28.667  27.622  1.00  0.00    -0.206 F 
ATOM     92  C   UNL A   1      50.938  27.626  29.937  1.00  0.00     0.060 A 
BRANCH  92  93
ATOM     93  S   UNL A   1      52.733  27.463  30.014  1.00  0.00     0.124 S 
ATOM     94  O   UNL A   1      52.893  26.501  31.100  1.00  0.00    -0.237 OA
ATOM     95  O   UNL A   1      53.062  26.972  28.679  1.00  0.00    -0.237 OA
ATOM     96  O   UNL A   1      53.184  28.821  30.304  1.00  0.00    -0.744 OA
ENDBRANCH  92  93
ENDBRANCH  60  85
ENDBRANCH  34  35
ENDBRANCH  26  29
ENDBRANCH  24  25
ENDBRANCH   1  24
TORSDOF 15
ENDMDL
