MODEL 1
REMARK VINA RESULT:     -11.4      0.000      0.000
REMARK SMILES O=C(CN(CC(F)(F)F)C(=O)Nc1ccccc1Cl)NCCCNC(=O)c1ccc(-c2c3nc(c(-c4c(F)cc(S(=O)(=O)[O-])cc4F)c4ccc([nH]4)c(-c4c(F)cc(S(=O)(=O)[O-])cc4F)c4nc(c(-c5c(F)cc(S(=O)(=O)[O-])cc5F)c5ccc2[nH]5)C=C4)C=C3)cc1
REMARK SMILES IDX 22 1 21 2 20 3 1 4 2 5 3 7 4 8 5 9 6 10 7 11 8 12 9 13 10 14
REMARK SMILES IDX 11 15 12 16 13 18 14 19 18 20 15 21 17 22 19 23 16 24 23 25
REMARK SMILES IDX 24 26 25 27 26 29 27 30 28 31 92 32 29 33 91 34 30 35 31 36
REMARK SMILES IDX 32 37 85 38 33 39 90 40 84 41 86 42 34 43 89 44 83 45 82 46
REMARK SMILES IDX 35 48 69 49 48 50 68 51 49 52 52 53 67 54 87 55 50 56 51 57
REMARK SMILES IDX 66 59 88 60 53 61 36 62 37 63 46 64 38 65 39 66 45 67 47 68
REMARK SMILES IDX 40 69 41 70 42 71 43 72 44 73 70 74 71 75 80 76 72 77 73 78
REMARK SMILES IDX 79 79 81 80 74 81 75 82 76 83 77 84 78 85 54 86 55 87 64 88
REMARK SMILES IDX 56 89 57 90 63 91 65 92 58 93 59 94 60 95 61 96 62 97
REMARK H PARENT 20 6 12 17 24 28 86 47 52 58
REMARK Flexibility Score: inf
ROOT
ATOM      1  C   UNL A   1      40.644  22.247  27.550  1.00  0.00     0.042 C 
ENDROOT
BRANCH   1   2
ATOM      2  C   UNL A   1      39.720  22.033  26.354  1.00  0.00     0.117 C 
BRANCH   2   3
ATOM      3  N   UNL A   1      38.493  22.807  26.398  1.00  0.00    -0.354 N 
ATOM      4  O   UNL A   1      37.384  21.546  24.841  1.00  0.00    -0.273 OA
ATOM      5  C   UNL A   1      37.359  22.413  25.713  1.00  0.00     0.239 C 
ATOM      6  H   UNL A   1      38.467  23.635  26.931  1.00  0.00     0.163 HD
BRANCH   5   7
ATOM      7  C   UNL A   1      36.079  23.231  25.993  1.00  0.00     0.221 C 
BRANCH   7   8
ATOM      8  N   UNL A   1      34.884  22.829  25.223  1.00  0.00    -0.306 N 
BRANCH   8   9
ATOM      9  C   UNL A   1      34.159  21.644  25.752  1.00  0.00     0.237 C 
BRANCH   9  10
ATOM     10  C   UNL A   1      33.462  20.725  24.725  1.00  0.00     0.406 C 
ATOM     11  F   UNL A   1      32.922  21.395  23.691  1.00  0.00    -0.169 F 
ATOM     12  F   UNL A   1      34.362  19.857  24.201  1.00  0.00    -0.169 F 
ATOM     13  F   UNL A   1      32.481  19.985  25.285  1.00  0.00    -0.169 F 
ENDBRANCH   9  10
ENDBRANCH   8   9
BRANCH   8  14
ATOM     14  C   UNL A   1      34.668  23.561  24.071  1.00  0.00     0.322 C 
ATOM     15  O   UNL A   1      35.297  23.315  23.038  1.00  0.00    -0.248 OA
ATOM     16  N   UNL A   1      33.624  24.414  23.941  1.00  0.00    -0.306 N 
ATOM     17  H   UNL A   1      33.255  24.455  23.029  1.00  0.00     0.171 HD
BRANCH  16  18
ATOM     18  C   UNL A   1      32.970  25.247  24.853  1.00  0.00     0.061 A 
ATOM     19  C   UNL A   1      33.687  26.357  25.310  1.00  0.00     0.028 A 
ATOM     20  C   UNL A   1      31.665  25.028  25.314  1.00  0.00     0.064 A 
ATOM     21  C   UNL A   1      33.047  27.334  26.071  1.00  0.00     0.002 A 
ATOM     22  C   UNL A   1      31.021  26.016  26.062  1.00  0.00     0.023 A 
ATOM     23  Cl  UNL A   1      30.882  23.499  25.117  1.00  0.00    -0.082 Cl
ATOM     24  C   UNL A   1      31.703  27.183  26.411  1.00  0.00     0.002 A 
ENDBRANCH  16  18
ENDBRANCH   8  14
ENDBRANCH   7   8
ENDBRANCH   5   7
ENDBRANCH   2   3
ENDBRANCH   1   2
BRANCH   1  25
ATOM     25  C   UNL A   1      41.906  23.059  27.268  1.00  0.00     0.118 C 
BRANCH  25  26
ATOM     26  N   UNL A   1      41.767  23.979  26.148  1.00  0.00    -0.352 N 
ATOM     27  C   UNL A   1      41.439  25.311  26.105  1.00  0.00     0.251 C 
ATOM     28  H   UNL A   1      41.940  23.576  25.267  1.00  0.00     0.163 HD
ATOM     29  O   UNL A   1      41.290  25.837  24.998  1.00  0.00    -0.269 OA
BRANCH  27  30
ATOM     30  C   UNL A   1      41.239  26.121  27.332  1.00  0.00     0.039 A 
ATOM     31  C   UNL A   1      42.176  27.119  27.625  1.00  0.00     0.014 A 
ATOM     32  C   UNL A   1      40.187  25.891  28.222  1.00  0.00     0.014 A 
ATOM     33  C   UNL A   1      42.028  27.910  28.768  1.00  0.00     0.010 A 
ATOM     34  C   UNL A   1      39.998  26.733  29.323  1.00  0.00     0.010 A 
ATOM     35  C   UNL A   1      40.917  27.751  29.612  1.00  0.00    -0.014 A 
BRANCH  35  36
ATOM     36  C   UNL A   1      40.712  28.664  30.773  1.00  0.00     0.031 A 
ATOM     37  C   UNL A   1      41.556  28.546  32.017  1.00  0.00     0.074 A 
ATOM     38  C   UNL A   1      39.737  29.594  30.716  1.00  0.00     0.049 A 
ATOM     39  N   UNL A   1      41.534  29.279  33.102  1.00  0.00    -0.248 NA
ATOM     40  C   UNL A   1      42.537  27.451  32.058  1.00  0.00     0.031 C 
ATOM     41  C   UNL A   1      38.804  29.770  29.599  1.00  0.00     0.029 A 
ATOM     42  N   UNL A   1      39.369  30.568  31.609  1.00  0.00    -0.354 N 
ATOM     43  C   UNL A   1      42.489  28.735  33.953  1.00  0.00     0.074 A 
ATOM     44  C   UNL A   1      43.033  27.574  33.282  1.00  0.00     0.031 C 
ATOM     45  C   UNL A   1      38.000  30.814  29.857  1.00  0.00     0.029 A 
ATOM     46  C   UNL A   1      38.334  31.361  31.168  1.00  0.00     0.049 A 
ATOM     47  H   UNL A   1      39.804  30.690  32.484  1.00  0.00     0.167 HD
ATOM     48  C   UNL A   1      42.896  29.175  35.170  1.00  0.00     0.037 A 
ATOM     49  C   UNL A   1      37.724  32.414  31.747  1.00  0.00     0.037 A 
ATOM     50  C   UNL A   1      42.361  30.340  35.831  1.00  0.00     0.049 A 
ATOM     51  C   UNL A   1      38.206  32.895  33.088  1.00  0.00     0.074 A 
ATOM     52  C   UNL A   1      42.745  30.897  37.039  1.00  0.00     0.029 A 
ATOM     53  N   UNL A   1      41.326  31.125  35.345  1.00  0.00    -0.354 N 
ATOM     54  N   UNL A   1      39.163  32.410  33.843  1.00  0.00    -0.248 NA
ATOM     55  C   UNL A   1      37.535  34.075  33.648  1.00  0.00     0.031 C 
ATOM     56  C   UNL A   1      41.910  31.987  37.307  1.00  0.00     0.029 A 
ATOM     57  C   UNL A   1      41.044  32.149  36.236  1.00  0.00     0.049 A 
ATOM     58  H   UNL A   1      40.858  30.977  34.490  1.00  0.00     0.167 HD
ATOM     59  C   UNL A   1      39.228  33.245  34.955  1.00  0.00     0.074 A 
ATOM     60  C   UNL A   1      38.228  34.276  34.760  1.00  0.00     0.031 C 
ATOM     61  C   UNL A   1      40.042  33.166  36.038  1.00  0.00     0.037 A 
BRANCH  48  62
ATOM     62  C   UNL A   1      43.981  28.396  35.869  1.00  0.00     0.058 A 
ATOM     63  C   UNL A   1      43.684  27.328  36.732  1.00  0.00     0.135 A 
ATOM     64  C   UNL A   1      45.336  28.691  35.641  1.00  0.00     0.135 A 
ATOM     65  F   UNL A   1      42.408  27.007  36.998  1.00  0.00    -0.206 F 
ATOM     66  C   UNL A   1      44.687  26.602  37.368  1.00  0.00     0.059 A 
ATOM     67  C   UNL A   1      46.356  27.958  36.243  1.00  0.00     0.059 A 
ATOM     68  F   UNL A   1      45.681  29.698  34.824  1.00  0.00    -0.206 F 
ATOM     69  C   UNL A   1      46.021  26.925  37.117  1.00  0.00     0.060 A 
BRANCH  69  70
ATOM     70  S   UNL A   1      47.309  25.972  37.948  1.00  0.00     0.124 S 
ATOM     71  O   UNL A   1      48.289  25.810  36.878  1.00  0.00    -0.237 OA
ATOM     72  O   UNL A   1      47.703  26.864  39.036  1.00  0.00    -0.237 OA
ATOM     73  O   UNL A   1      46.622  24.753  38.359  1.00  0.00    -0.744 OA
ENDBRANCH  69  70
ENDBRANCH  48  62
BRANCH  49  74
ATOM     74  C   UNL A   1      36.614  33.109  31.042  1.00  0.00     0.058 A 
ATOM     75  C   UNL A   1      36.862  33.921  29.923  1.00  0.00     0.135 A 
ATOM     76  C   UNL A   1      35.283  32.971  31.464  1.00  0.00     0.135 A 
ATOM     77  F   UNL A   1      38.119  34.090  29.483  1.00  0.00    -0.206 F 
ATOM     78  C   UNL A   1      35.835  34.585  29.261  1.00  0.00     0.059 A 
ATOM     79  C   UNL A   1      34.234  33.601  30.801  1.00  0.00     0.059 A 
ATOM     80  F   UNL A   1      34.988  32.192  32.516  1.00  0.00    -0.206 F 
ATOM     81  C   UNL A   1      34.522  34.417  29.706  1.00  0.00     0.060 A 
BRANCH  81  82
ATOM     82  S   UNL A   1      33.191  35.246  28.812  1.00  0.00     0.124 S 
ATOM     83  O   UNL A   1      32.381  35.767  29.907  1.00  0.00    -0.237 OA
ATOM     84  O   UNL A   1      33.921  36.239  28.028  1.00  0.00    -0.237 OA
ATOM     85  O   UNL A   1      32.587  34.168  28.036  1.00  0.00    -0.744 OA
ENDBRANCH  81  82
ENDBRANCH  49  74
BRANCH  61  86
ATOM     86  C   UNL A   1      39.906  34.247  37.078  1.00  0.00     0.058 A 
ATOM     87  C   UNL A   1      39.124  34.075  38.232  1.00  0.00     0.135 A 
ATOM     88  C   UNL A   1      40.565  35.478  36.914  1.00  0.00     0.135 A 
ATOM     89  F   UNL A   1      38.471  32.920  38.440  1.00  0.00    -0.206 F 
ATOM     90  C   UNL A   1      38.955  35.101  39.156  1.00  0.00     0.059 A 
ATOM     91  C   UNL A   1      40.437  36.505  37.844  1.00  0.00     0.059 A 
ATOM     92  F   UNL A   1      41.339  35.692  35.838  1.00  0.00    -0.206 F 
ATOM     93  C   UNL A   1      39.610  36.316  38.949  1.00  0.00     0.060 A 
BRANCH  93  94
ATOM     94  S   UNL A   1      39.366  37.649  40.143  1.00  0.00     0.124 S 
ATOM     95  O   UNL A   1      39.101  36.901  41.367  1.00  0.00    -0.237 OA
ATOM     96  O   UNL A   1      40.644  38.351  40.093  1.00  0.00    -0.237 OA
ATOM     97  O   UNL A   1      38.230  38.388  39.600  1.00  0.00    -0.744 OA
ENDBRANCH  93  94
ENDBRANCH  61  86
ENDBRANCH  35  36
ENDBRANCH  27  30
ENDBRANCH  25  26
ENDBRANCH   1  25
TORSDOF 18
ENDMDL
MODEL 2
REMARK VINA RESULT:     -11.4      3.518      5.228
REMARK SMILES O=C(CN(CC(F)(F)F)C(=O)Nc1ccccc1Cl)NCCCNC(=O)c1ccc(-c2c3nc(c(-c4c(F)cc(S(=O)(=O)[O-])cc4F)c4ccc([nH]4)c(-c4c(F)cc(S(=O)(=O)[O-])cc4F)c4nc(c(-c5c(F)cc(S(=O)(=O)[O-])cc5F)c5ccc2[nH]5)C=C4)C=C3)cc1
REMARK SMILES IDX 22 1 21 2 20 3 1 4 2 5 3 7 4 8 5 9 6 10 7 11 8 12 9 13 10 14
REMARK SMILES IDX 11 15 12 16 13 18 14 19 18 20 15 21 17 22 19 23 16 24 23 25
REMARK SMILES IDX 24 26 25 27 26 29 27 30 28 31 92 32 29 33 91 34 30 35 31 36
REMARK SMILES IDX 32 37 85 38 33 39 90 40 84 41 86 42 34 43 89 44 83 45 82 46
REMARK SMILES IDX 35 48 69 49 48 50 68 51 49 52 52 53 67 54 87 55 50 56 51 57
REMARK SMILES IDX 66 59 88 60 53 61 36 62 37 63 46 64 38 65 39 66 45 67 47 68
REMARK SMILES IDX 40 69 41 70 42 71 43 72 44 73 70 74 71 75 80 76 72 77 73 78
REMARK SMILES IDX 79 79 81 80 74 81 75 82 76 83 77 84 78 85 54 86 55 87 64 88
REMARK SMILES IDX 56 89 57 90 63 91 65 92 58 93 59 94 60 95 61 96 62 97
REMARK H PARENT 20 6 12 17 24 28 86 47 52 58
REMARK Flexibility Score: inf
ROOT
ATOM      1  C   UNL A   1      38.672  22.276  26.170  1.00  0.00     0.042 C 
ENDROOT
BRANCH   1   2
ATOM      2  C   UNL A   1      39.644  21.134  25.889  1.00  0.00     0.117 C 
BRANCH   2   3
ATOM      3  N   UNL A   1      40.962  21.311  26.472  1.00  0.00    -0.354 N 
ATOM      4  O   UNL A   1      41.929  19.559  25.356  1.00  0.00    -0.273 OA
ATOM      5  C   UNL A   1      42.049  20.567  26.051  1.00  0.00     0.239 C 
ATOM      6  H   UNL A   1      41.085  21.978  27.186  1.00  0.00     0.163 HD
BRANCH   5   7
ATOM      7  C   UNL A   1      43.420  20.984  26.630  1.00  0.00     0.221 C 
BRANCH   7   8
ATOM      8  N   UNL A   1      44.317  21.693  25.695  1.00  0.00    -0.306 N 
BRANCH   8   9
ATOM      9  C   UNL A   1      45.645  21.059  25.487  1.00  0.00     0.237 C 
BRANCH   9  10
ATOM     10  C   UNL A   1      45.679  19.731  24.700  1.00  0.00     0.406 C 
ATOM     11  F   UNL A   1      45.517  18.646  25.477  1.00  0.00    -0.169 F 
ATOM     12  F   UNL A   1      44.676  19.713  23.789  1.00  0.00    -0.169 F 
ATOM     13  F   UNL A   1      46.834  19.572  24.017  1.00  0.00    -0.169 F 
ENDBRANCH   9  10
ENDBRANCH   8   9
BRANCH   8  14
ATOM     14  C   UNL A   1      43.821  22.892  25.221  1.00  0.00     0.322 C 
ATOM     15  O   UNL A   1      43.373  22.982  24.073  1.00  0.00    -0.248 OA
ATOM     16  N   UNL A   1      43.588  23.951  26.033  1.00  0.00    -0.306 N 
ATOM     17  H   UNL A   1      42.807  24.491  25.768  1.00  0.00     0.171 HD
BRANCH  16  18
ATOM     18  C   UNL A   1      44.241  24.424  27.174  1.00  0.00     0.061 A 
ATOM     19  C   UNL A   1      45.531  24.933  26.988  1.00  0.00     0.028 A 
ATOM     20  C   UNL A   1      43.680  24.414  28.457  1.00  0.00     0.064 A 
ATOM     21  C   UNL A   1      46.176  25.592  28.033  1.00  0.00     0.002 A 
ATOM     22  C   UNL A   1      44.320  25.088  29.498  1.00  0.00     0.023 A 
ATOM     23  Cl  UNL A   1      42.291  23.453  28.827  1.00  0.00    -0.082 Cl
ATOM     24  C   UNL A   1      45.553  25.705  29.276  1.00  0.00     0.002 A 
ENDBRANCH  16  18
ENDBRANCH   8  14
ENDBRANCH   7   8
ENDBRANCH   5   7
ENDBRANCH   2   3
ENDBRANCH   1   2
BRANCH   1  25
ATOM     25  C   UNL A   1      39.283  23.515  26.822  1.00  0.00     0.118 C 
BRANCH  25  26
ATOM     26  N   UNL A   1      40.178  24.253  25.942  1.00  0.00    -0.352 N 
ATOM     27  C   UNL A   1      40.775  25.481  26.081  1.00  0.00     0.251 C 
ATOM     28  H   UNL A   1      40.392  23.791  25.100  1.00  0.00     0.163 HD
ATOM     29  O   UNL A   1      41.418  25.925  25.125  1.00  0.00    -0.269 OA
BRANCH  27  30
ATOM     30  C   UNL A   1      40.654  26.289  27.319  1.00  0.00     0.039 A 
ATOM     31  C   UNL A   1      41.533  27.364  27.494  1.00  0.00     0.014 A 
ATOM     32  C   UNL A   1      39.738  25.986  28.330  1.00  0.00     0.014 A 
ATOM     33  C   UNL A   1      41.456  28.157  28.643  1.00  0.00     0.010 A 
ATOM     34  C   UNL A   1      39.611  26.825  29.441  1.00  0.00     0.010 A 
ATOM     35  C   UNL A   1      40.470  27.919  29.615  1.00  0.00    -0.014 A 
BRANCH  35  36
ATOM     36  C   UNL A   1      40.329  28.827  30.788  1.00  0.00     0.031 A 
ATOM     37  C   UNL A   1      41.204  28.672  32.005  1.00  0.00     0.074 A 
ATOM     38  C   UNL A   1      39.383  29.789  30.766  1.00  0.00     0.049 A 
ATOM     39  N   UNL A   1      41.237  29.396  33.097  1.00  0.00    -0.248 NA
ATOM     40  C   UNL A   1      42.149  27.545  32.010  1.00  0.00     0.031 C 
ATOM     41  C   UNL A   1      38.425  30.005  29.679  1.00  0.00     0.029 A 
ATOM     42  N   UNL A   1      39.073  30.768  31.677  1.00  0.00    -0.354 N 
ATOM     43  C   UNL A   1      42.198  28.814  33.915  1.00  0.00     0.074 A 
ATOM     44  C   UNL A   1      42.684  27.641  33.219  1.00  0.00     0.031 C 
ATOM     45  C   UNL A   1      37.664  31.073  29.968  1.00  0.00     0.029 A 
ATOM     46  C   UNL A   1      38.052  31.597  31.273  1.00  0.00     0.049 A 
ATOM     47  H   UNL A   1      39.537  30.868  32.540  1.00  0.00     0.167 HD
ATOM     48  C   UNL A   1      42.655  29.229  35.123  1.00  0.00     0.037 A 
ATOM     49  C   UNL A   1      37.495  32.665  31.878  1.00  0.00     0.037 A 
ATOM     50  C   UNL A   1      42.177  30.406  35.808  1.00  0.00     0.049 A 
ATOM     51  C   UNL A   1      38.030  33.118  33.207  1.00  0.00     0.074 A 
ATOM     52  C   UNL A   1      42.614  30.940  37.009  1.00  0.00     0.029 A 
ATOM     53  N   UNL A   1      41.154  31.228  35.359  1.00  0.00    -0.354 N 
ATOM     54  N   UNL A   1      38.993  32.596  33.931  1.00  0.00    -0.248 NA
ATOM     55  C   UNL A   1      37.415  34.314  33.796  1.00  0.00     0.031 C 
ATOM     56  C   UNL A   1      41.823  32.054  37.310  1.00  0.00     0.029 A 
ATOM     57  C   UNL A   1      40.933  32.253  36.266  1.00  0.00     0.049 A 
ATOM     58  H   UNL A   1      40.658  31.103  34.517  1.00  0.00     0.167 HD
ATOM     59  C   UNL A   1      39.117  33.419  35.047  1.00  0.00     0.074 A 
ATOM     60  C   UNL A   1      38.146  34.483  34.888  1.00  0.00     0.031 C 
ATOM     61  C   UNL A   1      39.959  33.304  36.105  1.00  0.00     0.037 A 
BRANCH  48  62
ATOM     62  C   UNL A   1      43.733  28.410  35.784  1.00  0.00     0.058 A 
ATOM     63  C   UNL A   1      45.096  28.682  35.583  1.00  0.00     0.135 A 
ATOM     64  C   UNL A   1      43.401  27.366  36.665  1.00  0.00     0.135 A 
ATOM     65  F   UNL A   1      45.474  29.658  34.743  1.00  0.00    -0.206 F 
ATOM     66  C   UNL A   1      46.090  27.931  36.203  1.00  0.00     0.059 A 
ATOM     67  C   UNL A   1      44.379  26.622  37.320  1.00  0.00     0.059 A 
ATOM     68  F   UNL A   1      42.115  27.062  36.900  1.00  0.00    -0.206 F 
ATOM     69  C   UNL A   1      45.722  26.902  37.071  1.00  0.00     0.060 A 
BRANCH  69  70
ATOM     70  S   UNL A   1      47.024  25.940  37.868  1.00  0.00     0.124 S 
ATOM     71  O   UNL A   1      46.951  24.682  37.130  1.00  0.00    -0.237 OA
ATOM     72  O   UNL A   1      48.211  26.752  37.617  1.00  0.00    -0.237 OA
ATOM     73  O   UNL A   1      46.596  25.874  39.261  1.00  0.00    -0.744 OA
ENDBRANCH  69  70
ENDBRANCH  48  62
BRANCH  49  74
ATOM     74  C   UNL A   1      36.388  33.402  31.210  1.00  0.00     0.058 A 
ATOM     75  C   UNL A   1      36.626  34.197  30.078  1.00  0.00     0.135 A 
ATOM     76  C   UNL A   1      35.069  33.320  31.682  1.00  0.00     0.135 A 
ATOM     77  F   UNL A   1      37.871  34.313  29.590  1.00  0.00    -0.206 F 
ATOM     78  C   UNL A   1      35.603  34.901  29.451  1.00  0.00     0.059 A 
ATOM     79  C   UNL A   1      34.023  33.990  31.055  1.00  0.00     0.059 A 
ATOM     80  F   UNL A   1      34.783  32.559  32.750  1.00  0.00    -0.206 F 
ATOM     81  C   UNL A   1      34.303  34.788  29.946  1.00  0.00     0.060 A 
BRANCH  81  82
ATOM     82  S   UNL A   1      32.974  35.667  29.097  1.00  0.00     0.124 S 
ATOM     83  O   UNL A   1      33.714  36.699  28.381  1.00  0.00    -0.237 OA
ATOM     84  O   UNL A   1      32.387  34.614  28.274  1.00  0.00    -0.237 OA
ATOM     85  O   UNL A   1      32.131  36.139  30.191  1.00  0.00    -0.744 OA
ENDBRANCH  81  82
ENDBRANCH  49  74
BRANCH  61  86
ATOM     86  C   UNL A   1      39.888  34.380  37.156  1.00  0.00     0.058 A 
ATOM     87  C   UNL A   1      39.089  34.248  38.304  1.00  0.00     0.135 A 
ATOM     88  C   UNL A   1      40.629  35.565  37.010  1.00  0.00     0.135 A 
ATOM     89  F   UNL A   1      38.359  33.137  38.494  1.00  0.00    -0.206 F 
ATOM     90  C   UNL A   1      38.983  35.272  39.239  1.00  0.00     0.059 A 
ATOM     91  C   UNL A   1      40.565  36.588  37.951  1.00  0.00     0.059 A 
ATOM     92  F   UNL A   1      41.423  35.740  35.942  1.00  0.00    -0.206 F 
ATOM     93  C   UNL A   1      39.719  36.443  39.050  1.00  0.00     0.060 A 
BRANCH  93  94
ATOM     94  S   UNL A   1      39.557  37.775  40.257  1.00  0.00     0.124 S 
ATOM     95  O   UNL A   1      40.918  38.299  40.300  1.00  0.00    -0.237 OA
ATOM     96  O   UNL A   1      38.562  38.643  39.635  1.00  0.00    -0.237 OA
ATOM     97  O   UNL A   1      39.111  37.086  41.466  1.00  0.00    -0.744 OA
ENDBRANCH  93  94
ENDBRANCH  61  86
ENDBRANCH  35  36
ENDBRANCH  27  30
ENDBRANCH  25  26
ENDBRANCH   1  25
TORSDOF 18
ENDMDL
MODEL 3
REMARK VINA RESULT:     -11.4      2.896      8.838
REMARK SMILES O=C(CN(CC(F)(F)F)C(=O)Nc1ccccc1Cl)NCCCNC(=O)c1ccc(-c2c3nc(c(-c4c(F)cc(S(=O)(=O)[O-])cc4F)c4ccc([nH]4)c(-c4c(F)cc(S(=O)(=O)[O-])cc4F)c4nc(c(-c5c(F)cc(S(=O)(=O)[O-])cc5F)c5ccc2[nH]5)C=C4)C=C3)cc1
REMARK SMILES IDX 22 1 21 2 20 3 1 4 2 5 3 7 4 8 5 9 6 10 7 11 8 12 9 13 10 14
REMARK SMILES IDX 11 15 12 16 13 18 14 19 18 20 15 21 17 22 19 23 16 24 23 25
REMARK SMILES IDX 24 26 25 27 26 29 27 30 28 31 92 32 29 33 91 34 30 35 31 36
REMARK SMILES IDX 32 37 85 38 33 39 90 40 84 41 86 42 34 43 89 44 83 45 82 46
REMARK SMILES IDX 35 48 69 49 48 50 68 51 49 52 52 53 67 54 87 55 50 56 51 57
REMARK SMILES IDX 66 59 88 60 53 61 36 62 37 63 46 64 38 65 39 66 45 67 47 68
REMARK SMILES IDX 40 69 41 70 42 71 43 72 44 73 70 74 71 75 80 76 72 77 73 78
REMARK SMILES IDX 79 79 81 80 74 81 75 82 76 83 77 84 78 85 54 86 55 87 64 88
REMARK SMILES IDX 56 89 57 90 63 91 65 92 58 93 59 94 60 95 61 96 62 97
REMARK H PARENT 20 6 12 17 24 28 86 47 52 58
REMARK Flexibility Score: inf
ROOT
ATOM      1  C   UNL A   1      31.549  32.211  26.535  1.00  0.00     0.042 C 
ENDROOT
BRANCH   1   2
ATOM      2  C   UNL A   1      31.491  30.686  26.505  1.00  0.00     0.117 C 
BRANCH   2   3
ATOM      3  N   UNL A   1      32.055  30.087  25.309  1.00  0.00    -0.354 N 
ATOM      4  O   UNL A   1      33.969  29.341  26.324  1.00  0.00    -0.273 OA
ATOM      5  C   UNL A   1      33.217  29.340  25.350  1.00  0.00     0.239 C 
ATOM      6  H   UNL A   1      31.599  30.217  24.446  1.00  0.00     0.163 HD
BRANCH   5   7
ATOM      7  C   UNL A   1      33.603  28.615  24.040  1.00  0.00     0.221 C 
BRANCH   7   8
ATOM      8  N   UNL A   1      32.855  27.373  23.755  1.00  0.00    -0.306 N 
BRANCH   8   9
ATOM      9  C   UNL A   1      32.687  26.455  24.912  1.00  0.00     0.237 C 
BRANCH   9  10
ATOM     10  C   UNL A   1      33.715  25.313  25.063  1.00  0.00     0.406 C 
ATOM     11  F   UNL A   1      34.788  25.655  25.796  1.00  0.00    -0.169 F 
ATOM     12  F   UNL A   1      33.138  24.255  25.683  1.00  0.00    -0.169 F 
ATOM     13  F   UNL A   1      34.165  24.871  23.868  1.00  0.00    -0.169 F 
ENDBRANCH   9  10
ENDBRANCH   8   9
BRANCH   8  14
ATOM     14  C   UNL A   1      32.500  27.208  22.430  1.00  0.00     0.322 C 
ATOM     15  O   UNL A   1      33.286  26.703  21.622  1.00  0.00    -0.248 OA
ATOM     16  N   UNL A   1      31.227  27.370  21.996  1.00  0.00    -0.306 N 
ATOM     17  H   UNL A   1      30.975  26.760  21.264  1.00  0.00     0.171 HD
BRANCH  16  18
ATOM     18  C   UNL A   1      30.202  28.235  22.388  1.00  0.00     0.061 A 
ATOM     19  C   UNL A   1      30.331  29.572  22.000  1.00  0.00     0.028 A 
ATOM     20  C   UNL A   1      29.083  27.835  23.130  1.00  0.00     0.064 A 
ATOM     21  C   UNL A   1      29.270  30.456  22.187  1.00  0.00     0.002 A 
ATOM     22  C   UNL A   1      28.015  28.718  23.302  1.00  0.00     0.023 A 
ATOM     23  Cl  UNL A   1      29.052  26.327  23.977  1.00  0.00    -0.082 Cl
ATOM     24  C   UNL A   1      28.097  30.018  22.800  1.00  0.00     0.002 A 
ENDBRANCH  16  18
ENDBRANCH   8  14
ENDBRANCH   7   8
ENDBRANCH   5   7
ENDBRANCH   2   3
ENDBRANCH   1   2
BRANCH   1  25
ATOM     25  C   UNL A   1      32.767  32.808  27.237  1.00  0.00     0.118 C 
BRANCH  25  26
ATOM     26  N   UNL A   1      32.539  34.148  27.758  1.00  0.00    -0.352 N 
ATOM     27  C   UNL A   1      33.169  34.852  28.753  1.00  0.00     0.251 C 
ATOM     28  H   UNL A   1      31.805  34.635  27.319  1.00  0.00     0.163 HD
ATOM     29  O   UNL A   1      32.706  35.952  29.070  1.00  0.00    -0.269 OA
BRANCH  27  30
ATOM     30  C   UNL A   1      34.360  34.330  29.466  1.00  0.00     0.039 A 
ATOM     31  C   UNL A   1      34.164  33.662  30.680  1.00  0.00     0.014 A 
ATOM     32  C   UNL A   1      35.663  34.525  28.999  1.00  0.00     0.014 A 
ATOM     33  C   UNL A   1      35.256  33.149  31.387  1.00  0.00     0.010 A 
ATOM     34  C   UNL A   1      36.746  33.945  29.667  1.00  0.00     0.010 A 
ATOM     35  C   UNL A   1      36.558  33.253  30.872  1.00  0.00    -0.014 A 
BRANCH  35  36
ATOM     36  C   UNL A   1      37.705  32.618  31.579  1.00  0.00     0.031 A 
ATOM     37  C   UNL A   1      38.189  33.141  32.908  1.00  0.00     0.074 A 
ATOM     38  C   UNL A   1      38.336  31.572  31.006  1.00  0.00     0.049 A 
ATOM     39  N   UNL A   1      39.149  32.685  33.675  1.00  0.00    -0.248 NA
ATOM     40  C   UNL A   1      37.524  34.342  33.435  1.00  0.00     0.031 C 
ATOM     41  C   UNL A   1      38.013  31.010  29.691  1.00  0.00     0.029 A 
ATOM     42  N   UNL A   1      39.373  30.791  31.452  1.00  0.00    -0.354 N 
ATOM     43  C   UNL A   1      39.207  33.542  34.768  1.00  0.00     0.074 A 
ATOM     44  C   UNL A   1      38.223  34.579  34.537  1.00  0.00     0.031 C 
ATOM     45  C   UNL A   1      38.806  29.953  29.457  1.00  0.00     0.029 A 
ATOM     46  C   UNL A   1      39.717  29.780  30.584  1.00  0.00     0.049 A 
ATOM     47  H   UNL A   1      39.829  30.940  32.312  1.00  0.00     0.167 HD
ATOM     48  C   UNL A   1      39.987  33.461  35.875  1.00  0.00     0.037 A 
ATOM     49  C   UNL A   1      40.654  28.816  30.684  1.00  0.00     0.037 A 
ATOM     50  C   UNL A   1      40.957  32.419  36.107  1.00  0.00     0.049 A 
ATOM     51  C   UNL A   1      41.493  28.735  31.929  1.00  0.00     0.074 A 
ATOM     52  C   UNL A   1      41.757  32.220  37.220  1.00  0.00     0.029 A 
ATOM     53  N   UNL A   1      41.264  31.404  35.212  1.00  0.00    -0.354 N 
ATOM     54  N   UNL A   1      41.480  29.512  32.986  1.00  0.00    -0.248 NA
ATOM     55  C   UNL A   1      42.464  27.636  32.002  1.00  0.00     0.031 C 
ATOM     56  C   UNL A   1      42.582  31.116  36.978  1.00  0.00     0.029 A 
ATOM     57  C   UNL A   1      42.254  30.588  35.739  1.00  0.00     0.049 A 
ATOM     58  H   UNL A   1      40.841  31.281  34.331  1.00  0.00     0.167 HD
ATOM     59  C   UNL A   1      42.420  28.978  33.861  1.00  0.00     0.074 A 
ATOM     60  C   UNL A   1      42.965  27.800  33.217  1.00  0.00     0.031 C 
ATOM     61  C   UNL A   1      42.797  29.422  35.088  1.00  0.00     0.037 A 
BRANCH  48  62
ATOM     62  C   UNL A   1      39.821  34.527  36.927  1.00  0.00     0.058 A 
ATOM     63  C   UNL A   1      38.961  34.354  38.024  1.00  0.00     0.135 A 
ATOM     64  C   UNL A   1      40.564  35.718  36.864  1.00  0.00     0.135 A 
ATOM     65  F   UNL A   1      38.216  33.243  38.131  1.00  0.00    -0.206 F 
ATOM     66  C   UNL A   1      38.817  35.334  39.001  1.00  0.00     0.059 A 
ATOM     67  C   UNL A   1      40.460  36.699  37.848  1.00  0.00     0.059 A 
ATOM     68  F   UNL A   1      41.405  35.938  35.842  1.00  0.00    -0.206 F 
ATOM     69  C   UNL A   1      39.572  36.504  38.905  1.00  0.00     0.060 A 
BRANCH  69  70
ATOM     70  S   UNL A   1      39.376  37.765  40.182  1.00  0.00     0.124 S 
ATOM     71  O   UNL A   1      40.609  38.530  40.029  1.00  0.00    -0.237 OA
ATOM     72  O   UNL A   1      38.153  38.445  39.764  1.00  0.00    -0.237 OA
ATOM     73  O   UNL A   1      39.268  36.990  41.413  1.00  0.00    -0.744 OA
ENDBRANCH  69  70
ENDBRANCH  48  62
BRANCH  49  74
ATOM     74  C   UNL A   1      40.820  27.826  29.586  1.00  0.00     0.058 A 
ATOM     75  C   UNL A   1      41.895  27.914  28.687  1.00  0.00     0.135 A 
ATOM     76  C   UNL A   1      39.915  26.767  29.417  1.00  0.00     0.135 A 
ATOM     77  F   UNL A   1      42.786  28.912  28.804  1.00  0.00    -0.206 F 
ATOM     78  C   UNL A   1      42.056  27.003  27.650  1.00  0.00     0.059 A 
ATOM     79  C   UNL A   1      40.070  25.825  28.405  1.00  0.00     0.059 A 
ATOM     80  F   UNL A   1      38.880  26.626  30.259  1.00  0.00    -0.206 F 
ATOM     81  C   UNL A   1      41.139  25.958  27.518  1.00  0.00     0.060 A 
BRANCH  81  82
ATOM     82  S   UNL A   1      41.383  24.752  26.197  1.00  0.00     0.124 S 
ATOM     83  O   UNL A   1      42.609  24.089  26.627  1.00  0.00    -0.237 OA
ATOM     84  O   UNL A   1      40.162  23.955  26.280  1.00  0.00    -0.237 OA
ATOM     85  O   UNL A   1      41.500  25.583  25.003  1.00  0.00    -0.744 OA
ENDBRANCH  81  82
ENDBRANCH  49  74
BRANCH  61  86
ATOM     86  C   UNL A   1      43.825  28.606  35.825  1.00  0.00     0.058 A 
ATOM     87  C   UNL A   1      43.466  27.530  36.655  1.00  0.00     0.135 A 
ATOM     88  C   UNL A   1      45.193  28.907  35.703  1.00  0.00     0.135 A 
ATOM     89  F   UNL A   1      42.174  27.198  36.809  1.00  0.00    -0.206 F 
ATOM     90  C   UNL A   1      44.419  26.821  37.379  1.00  0.00     0.059 A 
ATOM     91  C   UNL A   1      46.164  28.188  36.392  1.00  0.00     0.059 A 
ATOM     92  F   UNL A   1      45.595  29.914  34.911  1.00  0.00    -0.206 F 
ATOM     93  C   UNL A   1      45.765  27.162  37.247  1.00  0.00     0.060 A 
BRANCH  93  94
ATOM     94  S   UNL A   1      46.991  26.250  38.209  1.00  0.00     0.124 S 
ATOM     95  O   UNL A   1      47.096  25.009  37.449  1.00  0.00    -0.237 OA
ATOM     96  O   UNL A   1      48.154  27.130  38.150  1.00  0.00    -0.237 OA
ATOM     97  O   UNL A   1      46.370  26.130  39.525  1.00  0.00    -0.744 OA
ENDBRANCH  93  94
ENDBRANCH  61  86
ENDBRANCH  35  36
ENDBRANCH  27  30
ENDBRANCH  25  26
ENDBRANCH   1  25
TORSDOF 18
ENDMDL
