MODEL 1
REMARK VINA RESULT:     -12.7      0.000      0.000
REMARK SMILES C[NH+]1CCN(C(=O)c2ccc3c(c2)N(CC(=O)NCCCNC(=O)c2ccc(-c4c5nc(c(-c6c(F)cc(S(=O)(=O)[O-])cc6F)c6ccc([nH]6)c(-c6c(F)cc(S(=O)(=O)[O-])cc6F)c6nc(c(-c7c(F)cc(S(=O)(=O)[O-])cc7F)c7ccc4[nH]7)C=C6)C=C5)cc2)C(=O)CO3)CC1
REMARK SMILES IDX 20 1 19 2 18 3 16 4 17 5 15 7 14 8 8 9 9 10 13 11 10 12
REMARK SMILES IDX 12 13 11 14 94 15 91 16 93 17 92 18 6 19 1 20 2 21 3 22
REMARK SMILES IDX 96 23 4 25 95 26 5 27 7 28 21 29 22 30 23 31 24 33 25 34
REMARK SMILES IDX 26 35 90 36 27 37 89 38 28 39 29 40 30 41 83 42 31 43 88 44
REMARK SMILES IDX 82 45 84 46 32 47 87 48 81 49 80 50 33 52 67 53 46 54 66 55
REMARK SMILES IDX 47 56 50 57 65 58 85 59 48 60 49 61 64 63 86 64 51 65 34 66
REMARK SMILES IDX 35 67 44 68 36 69 37 70 43 71 45 72 38 73 39 74 40 75 41 76
REMARK SMILES IDX 42 77 68 78 69 79 78 80 70 81 71 82 77 83 79 84 72 85 73 86
REMARK SMILES IDX 74 87 75 88 76 89 52 90 53 91 62 92 54 93 55 94 61 95 63 96
REMARK SMILES IDX 56 97 57 98 58 99 59 100 60 101
REMARK H PARENT 18 6 2 24 22 32 84 51 50 62
REMARK Flexibility Score: inf
ROOT
ATOM      1  C   UNL A   1      34.916  32.784  28.023  1.00  0.00     0.042 C 
ENDROOT
BRANCH   1   2
ATOM      2  C   UNL A   1      33.911  31.638  27.979  1.00  0.00     0.117 C 
BRANCH   2   3
ATOM      3  N   UNL A   1      34.485  30.410  27.464  1.00  0.00    -0.354 N 
ATOM      4  C   UNL A   1      33.859  29.268  27.063  1.00  0.00     0.240 C 
ATOM      5  O   UNL A   1      34.548  28.403  26.515  1.00  0.00    -0.273 OA
ATOM      6  H   UNL A   1      35.467  30.399  27.397  1.00  0.00     0.163 HD
BRANCH   4   7
ATOM      7  C   UNL A   1      32.344  29.083  27.210  1.00  0.00     0.225 C 
BRANCH   7   8
ATOM      8  N   UNL A   1      31.648  28.721  25.976  1.00  0.00    -0.296 N 
ATOM      9  C   UNL A   1      31.556  24.971  26.064  1.00  0.00     0.042 A 
ATOM     10  C   UNL A   1      30.675  24.702  25.017  1.00  0.00     0.018 A 
ATOM     11  C   UNL A   1      31.930  26.289  26.363  1.00  0.00     0.044 A 
ATOM     12  C   UNL A   1      30.133  25.758  24.292  1.00  0.00     0.049 A 
ATOM     13  C   UNL A   1      31.375  27.360  25.651  1.00  0.00     0.087 A 
ATOM     14  C   UNL A   1      30.487  27.073  24.601  1.00  0.00     0.143 A 
ATOM     15  O   UNL A   1      29.855  28.037  23.866  1.00  0.00    -0.482 OA
ATOM     16  C   UNL A   1      31.241  29.731  25.113  1.00  0.00     0.265 C 
ATOM     17  C   UNL A   1      30.555  29.263  23.836  1.00  0.00     0.330 C 
ATOM     18  O   UNL A   1      31.467  30.926  25.313  1.00  0.00    -0.270 OA
BRANCH   9  19
ATOM     19  C   UNL A   1      32.134  23.834  26.812  1.00  0.00     0.254 C 
ATOM     20  C   UNL A   1      36.726  21.295  24.897  1.00  0.00     0.332 C 
ATOM     21  N   UNL A   1      35.943  22.198  25.738  1.00  0.00    -0.334 N 
ATOM     22  C   UNL A   1      34.922  21.448  26.503  1.00  0.00     0.283 C 
ATOM     23  C   UNL A   1      35.275  23.223  24.907  1.00  0.00     0.283 C 
ATOM     24  H   UNL A   1      36.581  22.653  26.391  1.00  0.00     0.347 HD
ATOM     25  C   UNL A   1      34.029  22.368  27.358  1.00  0.00     0.181 C 
ATOM     26  C   UNL A   1      34.431  24.190  25.760  1.00  0.00     0.181 C 
ATOM     27  N   UNL A   1      33.450  23.460  26.573  1.00  0.00    -0.327 N 
ATOM     28  O   UNL A   1      31.404  23.275  27.629  1.00  0.00    -0.269 OA
ENDBRANCH   9  19
ENDBRANCH   7   8
ENDBRANCH   4   7
ENDBRANCH   2   3
ENDBRANCH   1   2
BRANCH   1  29
ATOM     29  C   UNL A   1      36.158  32.503  28.867  1.00  0.00     0.118 C 
BRANCH  29  30
ATOM     30  N   UNL A   1      35.844  31.860  30.135  1.00  0.00    -0.352 N 
ATOM     31  C   UNL A   1      36.479  30.841  30.800  1.00  0.00     0.251 C 
ATOM     32  H   UNL A   1      35.047  32.214  30.590  1.00  0.00     0.163 HD
ATOM     33  O   UNL A   1      35.927  30.333  31.776  1.00  0.00    -0.269 OA
BRANCH  31  34
ATOM     34  C   UNL A   1      37.799  30.340  30.357  1.00  0.00     0.039 A 
ATOM     35  C   UNL A   1      38.031  30.181  28.987  1.00  0.00     0.014 A 
ATOM     36  C   UNL A   1      38.790  29.985  31.275  1.00  0.00     0.014 A 
ATOM     37  C   UNL A   1      39.275  29.728  28.538  1.00  0.00     0.010 A 
ATOM     38  C   UNL A   1      40.052  29.599  30.824  1.00  0.00     0.010 A 
ATOM     39  C   UNL A   1      40.309  29.466  29.450  1.00  0.00    -0.014 A 
BRANCH  39  40
ATOM     40  C   UNL A   1      41.664  29.067  28.989  1.00  0.00     0.031 A 
ATOM     41  C   UNL A   1      42.764  30.089  28.879  1.00  0.00     0.074 A 
ATOM     42  C   UNL A   1      41.886  27.794  28.604  1.00  0.00     0.049 A 
ATOM     43  N   UNL A   1      43.980  29.946  28.419  1.00  0.00    -0.248 NA
ATOM     44  C   UNL A   1      42.448  31.456  29.320  1.00  0.00     0.031 C 
ATOM     45  C   UNL A   1      40.889  26.720  28.620  1.00  0.00     0.029 A 
ATOM     46  N   UNL A   1      43.014  27.188  28.110  1.00  0.00    -0.354 N 
ATOM     47  C   UNL A   1      44.568  31.203  28.500  1.00  0.00     0.074 A 
ATOM     48  C   UNL A   1      43.561  32.106  29.011  1.00  0.00     0.031 C 
ATOM     49  C   UNL A   1      41.453  25.587  28.171  1.00  0.00     0.029 A 
ATOM     50  C   UNL A   1      42.838  25.859  27.799  1.00  0.00     0.049 A 
ATOM     51  H   UNL A   1      43.869  27.660  27.989  1.00  0.00     0.167 HD
ATOM     52  C   UNL A   1      45.838  31.567  28.194  1.00  0.00     0.037 A 
ATOM     53  C   UNL A   1      43.690  24.965  27.263  1.00  0.00     0.037 A 
ATOM     54  C   UNL A   1      46.845  30.656  27.712  1.00  0.00     0.049 A 
ATOM     55  C   UNL A   1      45.095  25.391  26.935  1.00  0.00     0.074 A 
ATOM     56  C   UNL A   1      48.176  30.916  27.433  1.00  0.00     0.029 A 
ATOM     57  N   UNL A   1      46.635  29.313  27.437  1.00  0.00    -0.354 N 
ATOM     58  N   UNL A   1      45.650  26.572  27.076  1.00  0.00    -0.248 NA
ATOM     59  C   UNL A   1      45.991  24.367  26.382  1.00  0.00     0.031 C 
ATOM     60  C   UNL A   1      48.760  29.741  26.949  1.00  0.00     0.029 A 
ATOM     61  C   UNL A   1      47.806  28.736  26.973  1.00  0.00     0.049 A 
ATOM     62  H   UNL A   1      45.780  28.839  27.555  1.00  0.00     0.167 HD
ATOM     63  C   UNL A   1      46.967  26.424  26.655  1.00  0.00     0.074 A 
ATOM     64  C   UNL A   1      47.129  25.038  26.266  1.00  0.00     0.031 C 
ATOM     65  C   UNL A   1      47.954  27.352  26.597  1.00  0.00     0.037 A 
BRANCH  52  66
ATOM     66  C   UNL A   1      46.215  33.012  28.377  1.00  0.00     0.058 A 
ATOM     67  C   UNL A   1      46.738  33.489  29.589  1.00  0.00     0.135 A 
ATOM     68  C   UNL A   1      46.101  33.920  27.312  1.00  0.00     0.135 A 
ATOM     69  F   UNL A   1      46.857  32.667  30.644  1.00  0.00    -0.206 F 
ATOM     70  C   UNL A   1      47.108  34.820  29.748  1.00  0.00     0.059 A 
ATOM     71  C   UNL A   1      46.490  35.251  27.440  1.00  0.00     0.059 A 
ATOM     72  F   UNL A   1      45.609  33.518  26.130  1.00  0.00    -0.206 F 
ATOM     73  C   UNL A   1      46.981  35.694  28.667  1.00  0.00     0.060 A 
BRANCH  73  74
ATOM     74  S   UNL A   1      47.476  37.416  28.888  1.00  0.00     0.124 S 
ATOM     75  O   UNL A   1      48.932  37.302  28.889  1.00  0.00    -0.237 OA
ATOM     76  O   UNL A   1      46.892  38.062  27.717  1.00  0.00    -0.237 OA
ATOM     77  O   UNL A   1      46.876  37.782  30.167  1.00  0.00    -0.744 OA
ENDBRANCH  73  74
ENDBRANCH  52  66
BRANCH  53  78
ATOM     78  C   UNL A   1      43.241  23.568  27.014  1.00  0.00     0.058 A 
ATOM     79  C   UNL A   1      42.986  23.112  25.713  1.00  0.00     0.135 A 
ATOM     80  C   UNL A   1      43.065  22.661  28.070  1.00  0.00     0.135 A 
ATOM     81  F   UNL A   1      43.133  23.944  24.670  1.00  0.00    -0.206 F 
ATOM     82  C   UNL A   1      42.553  21.813  25.467  1.00  0.00     0.059 A 
ATOM     83  C   UNL A   1      42.659  21.349  27.847  1.00  0.00     0.059 A 
ATOM     84  F   UNL A   1      43.314  23.041  29.333  1.00  0.00    -0.206 F 
ATOM     85  C   UNL A   1      42.394  20.938  26.542  1.00  0.00     0.060 A 
BRANCH  85  86
ATOM     86  S   UNL A   1      41.873  19.240  26.209  1.00  0.00     0.124 S 
ATOM     87  O   UNL A   1      42.178  18.586  27.476  1.00  0.00    -0.237 OA
ATOM     88  O   UNL A   1      40.456  19.408  25.900  1.00  0.00    -0.237 OA
ATOM     89  O   UNL A   1      42.710  18.851  25.078  1.00  0.00    -0.744 OA
ENDBRANCH  85  86
ENDBRANCH  53  78
BRANCH  65  90
ATOM     90  C   UNL A   1      49.308  26.895  26.129  1.00  0.00     0.058 A 
ATOM     91  C   UNL A   1      49.732  27.075  24.804  1.00  0.00     0.135 A 
ATOM     92  C   UNL A   1      50.213  26.316  27.034  1.00  0.00     0.135 A 
ATOM     93  F   UNL A   1      48.903  27.618  23.898  1.00  0.00    -0.206 F 
ATOM     94  C   UNL A   1      50.998  26.679  24.386  1.00  0.00     0.059 A 
ATOM     95  C   UNL A   1      51.494  25.936  26.645  1.00  0.00     0.059 A 
ATOM     96  F   UNL A   1      49.862  26.130  28.317  1.00  0.00    -0.206 F 
ATOM     97  C   UNL A   1      51.872  26.111  25.314  1.00  0.00     0.060 A 
BRANCH  97  98
ATOM     98  S   UNL A   1      53.525  25.632  24.767  1.00  0.00     0.124 S 
ATOM     99  O   UNL A   1      53.480  25.986  23.352  1.00  0.00    -0.237 OA
ATOM    100  O   UNL A   1      54.385  26.465  25.602  1.00  0.00    -0.237 OA
ATOM    101  O   UNL A   1      53.576  24.202  25.054  1.00  0.00    -0.744 OA
ENDBRANCH  97  98
ENDBRANCH  65  90
ENDBRANCH  39  40
ENDBRANCH  31  34
ENDBRANCH  29  30
ENDBRANCH   1  29
TORSDOF 15
ENDMDL
MODEL 2
REMARK VINA RESULT:     -12.5      4.597     10.097
REMARK SMILES C[NH+]1CCN(C(=O)c2ccc3c(c2)N(CC(=O)NCCCNC(=O)c2ccc(-c4c5nc(c(-c6c(F)cc(S(=O)(=O)[O-])cc6F)c6ccc([nH]6)c(-c6c(F)cc(S(=O)(=O)[O-])cc6F)c6nc(c(-c7c(F)cc(S(=O)(=O)[O-])cc7F)c7ccc4[nH]7)C=C6)C=C5)cc2)C(=O)CO3)CC1
REMARK SMILES IDX 20 1 19 2 18 3 16 4 17 5 15 7 14 8 8 9 9 10 13 11 10 12
REMARK SMILES IDX 12 13 11 14 94 15 91 16 93 17 92 18 6 19 1 20 2 21 3 22
REMARK SMILES IDX 96 23 4 25 95 26 5 27 7 28 21 29 22 30 23 31 24 33 25 34
REMARK SMILES IDX 26 35 90 36 27 37 89 38 28 39 29 40 30 41 83 42 31 43 88 44
REMARK SMILES IDX 82 45 84 46 32 47 87 48 81 49 80 50 33 52 67 53 46 54 66 55
REMARK SMILES IDX 47 56 50 57 65 58 85 59 48 60 49 61 64 63 86 64 51 65 34 66
REMARK SMILES IDX 35 67 44 68 36 69 37 70 43 71 45 72 38 73 39 74 40 75 41 76
REMARK SMILES IDX 42 77 68 78 69 79 78 80 70 81 71 82 77 83 79 84 72 85 73 86
REMARK SMILES IDX 74 87 75 88 76 89 52 90 53 91 62 92 54 93 55 94 61 95 63 96
REMARK SMILES IDX 56 97 57 98 58 99 59 100 60 101
REMARK H PARENT 18 6 2 24 22 32 84 51 50 62
REMARK Flexibility Score: inf
ROOT
ATOM      1  C   UNL A   1      36.483  23.696  23.481  1.00  0.00     0.042 C 
ENDROOT
BRANCH   1   2
ATOM      2  C   UNL A   1      34.993  23.533  23.199  1.00  0.00     0.117 C 
BRANCH   2   3
ATOM      3  N   UNL A   1      34.365  24.769  22.775  1.00  0.00    -0.354 N 
ATOM      4  C   UNL A   1      33.043  25.099  22.748  1.00  0.00     0.240 C 
ATOM      5  O   UNL A   1      32.753  26.271  22.490  1.00  0.00    -0.273 OA
ATOM      6  H   UNL A   1      34.981  25.469  22.461  1.00  0.00     0.163 HD
BRANCH   4   7
ATOM      7  C   UNL A   1      31.950  24.082  23.099  1.00  0.00     0.225 C 
BRANCH   7   8
ATOM      8  N   UNL A   1      31.642  23.980  24.525  1.00  0.00    -0.296 N 
ATOM      9  C   UNL A   1      33.794  21.143  25.708  1.00  0.00     0.042 A 
ATOM     10  C   UNL A   1      33.653  21.261  27.090  1.00  0.00     0.018 A 
ATOM     11  C   UNL A   1      33.097  21.999  24.843  1.00  0.00     0.044 A 
ATOM     12  C   UNL A   1      32.844  22.265  27.611  1.00  0.00     0.049 A 
ATOM     13  C   UNL A   1      32.295  23.026  25.358  1.00  0.00     0.087 A 
ATOM     14  C   UNL A   1      32.165  23.133  26.752  1.00  0.00     0.143 A 
ATOM     15  O   UNL A   1      31.444  24.118  27.367  1.00  0.00    -0.482 OA
ATOM     16  C   UNL A   1      30.699  24.842  25.072  1.00  0.00     0.265 C 
ATOM     17  C   UNL A   1      30.414  24.644  26.555  1.00  0.00     0.330 C 
ATOM     18  O   UNL A   1      30.074  25.671  24.409  1.00  0.00    -0.270 OA
BRANCH   9  19
ATOM     19  C   UNL A   1      34.645  20.059  25.174  1.00  0.00     0.254 C 
ATOM     20  C   UNL A   1      32.871  14.767  25.400  1.00  0.00     0.332 C 
ATOM     21  N   UNL A   1      33.144  16.066  24.789  1.00  0.00    -0.334 N 
ATOM     22  C   UNL A   1      34.586  16.389  24.868  1.00  0.00     0.283 C 
ATOM     23  C   UNL A   1      32.368  17.126  25.469  1.00  0.00     0.283 C 
ATOM     24  H   UNL A   1      32.867  16.018  23.809  1.00  0.00     0.347 HD
ATOM     25  C   UNL A   1      34.914  17.780  24.292  1.00  0.00     0.181 C 
ATOM     26  C   UNL A   1      32.638  18.514  24.858  1.00  0.00     0.181 C 
ATOM     27  N   UNL A   1      34.073  18.830  24.872  1.00  0.00    -0.327 N 
ATOM     28  O   UNL A   1      35.837  20.313  25.015  1.00  0.00    -0.269 OA
ENDBRANCH   9  19
ENDBRANCH   7   8
ENDBRANCH   4   7
ENDBRANCH   2   3
ENDBRANCH   1   2
BRANCH   1  29
ATOM     29  C   UNL A   1      36.844  23.728  24.965  1.00  0.00     0.118 C 
BRANCH  29  30
ATOM     30  N   UNL A   1      37.818  22.710  25.332  1.00  0.00    -0.352 N 
ATOM     31  C   UNL A   1      38.994  22.809  26.033  1.00  0.00     0.251 C 
ATOM     32  H   UNL A   1      37.598  21.800  25.027  1.00  0.00     0.163 HD
ATOM     33  O   UNL A   1      39.752  21.840  26.065  1.00  0.00    -0.269 OA
BRANCH  31  34
ATOM     34  C   UNL A   1      39.367  24.058  26.733  1.00  0.00     0.039 A 
ATOM     35  C   UNL A   1      38.914  24.256  28.041  1.00  0.00     0.014 A 
ATOM     36  C   UNL A   1      40.118  25.052  26.100  1.00  0.00     0.014 A 
ATOM     37  C   UNL A   1      39.266  25.418  28.734  1.00  0.00     0.010 A 
ATOM     38  C   UNL A   1      40.526  26.179  26.815  1.00  0.00     0.010 A 
ATOM     39  C   UNL A   1      40.105  26.374  28.140  1.00  0.00    -0.014 A 
BRANCH  39  40
ATOM     40  C   UNL A   1      40.561  27.574  28.889  1.00  0.00     0.031 A 
ATOM     41  C   UNL A   1      41.899  27.578  29.580  1.00  0.00     0.074 A 
ATOM     42  C   UNL A   1      39.740  28.637  29.003  1.00  0.00     0.049 A 
ATOM     43  N   UNL A   1      42.428  28.496  30.346  1.00  0.00    -0.248 NA
ATOM     44  C   UNL A   1      42.739  26.383  29.408  1.00  0.00     0.031 C 
ATOM     45  C   UNL A   1      38.401  28.738  28.417  1.00  0.00     0.029 A 
ATOM     46  N   UNL A   1      39.902  29.830  29.661  1.00  0.00    -0.354 N 
ATOM     47  C   UNL A   1      43.653  27.986  30.761  1.00  0.00     0.074 A 
ATOM     48  C   UNL A   1      43.769  26.659  30.197  1.00  0.00     0.031 C 
ATOM     49  C   UNL A   1      37.871  29.931  28.731  1.00  0.00     0.029 A 
ATOM     50  C   UNL A   1      38.812  30.666  29.570  1.00  0.00     0.049 A 
ATOM     51  H   UNL A   1      40.721  30.067  30.153  1.00  0.00     0.167 HD
ATOM     52  C   UNL A   1      44.604  28.577  31.525  1.00  0.00     0.037 A 
ATOM     53  C   UNL A   1      38.590  31.879  30.111  1.00  0.00     0.037 A 
ATOM     54  C   UNL A   1      44.495  29.910  32.061  1.00  0.00     0.049 A 
ATOM     55  C   UNL A   1      39.661  32.516  30.953  1.00  0.00     0.074 A 
ATOM     56  C   UNL A   1      45.430  30.620  32.794  1.00  0.00     0.029 A 
ATOM     57  N   UNL A   1      43.388  30.734  31.923  1.00  0.00    -0.354 N 
ATOM     58  N   UNL A   1      40.840  32.042  31.283  1.00  0.00    -0.248 NA
ATOM     59  C   UNL A   1      39.378  33.853  31.491  1.00  0.00     0.031 C 
ATOM     60  C   UNL A   1      44.872  31.857  33.136  1.00  0.00     0.029 A 
ATOM     61  C   UNL A   1      43.608  31.937  32.573  1.00  0.00     0.049 A 
ATOM     62  H   UNL A   1      42.566  30.498  31.433  1.00  0.00     0.167 HD
ATOM     63  C   UNL A   1      41.448  33.034  32.044  1.00  0.00     0.074 A 
ATOM     64  C   UNL A   1      40.513  34.138  32.115  1.00  0.00     0.031 C 
ATOM     65  C   UNL A   1      42.671  33.031  32.629  1.00  0.00     0.037 A 
BRANCH  52  66
ATOM     66  C   UNL A   1      45.851  27.790  31.826  1.00  0.00     0.058 A 
ATOM     67  C   UNL A   1      45.906  26.876  32.890  1.00  0.00     0.135 A 
ATOM     68  C   UNL A   1      46.988  27.915  31.011  1.00  0.00     0.135 A 
ATOM     69  F   UNL A   1      44.852  26.726  33.708  1.00  0.00    -0.206 F 
ATOM     70  C   UNL A   1      47.052  26.133  33.151  1.00  0.00     0.059 A 
ATOM     71  C   UNL A   1      48.136  27.161  31.238  1.00  0.00     0.059 A 
ATOM     72  F   UNL A   1      46.990  28.773  29.979  1.00  0.00    -0.206 F 
ATOM     73  C   UNL A   1      48.163  26.282  32.320  1.00  0.00     0.060 A 
BRANCH  73  74
ATOM     74  S   UNL A   1      49.638  25.301  32.668  1.00  0.00     0.124 S 
ATOM     75  O   UNL A   1      50.523  26.304  33.253  1.00  0.00    -0.237 OA
ATOM     76  O   UNL A   1      49.130  24.290  33.590  1.00  0.00    -0.237 OA
ATOM     77  O   UNL A   1      50.035  24.805  31.354  1.00  0.00    -0.744 OA
ENDBRANCH  73  74
ENDBRANCH  52  66
BRANCH  53  78
ATOM     78  C   UNL A   1      37.301  32.579  29.860  1.00  0.00     0.058 A 
ATOM     79  C   UNL A   1      36.150  32.257  30.594  1.00  0.00     0.135 A 
ATOM     80  C   UNL A   1      37.196  33.586  28.889  1.00  0.00     0.135 A 
ATOM     81  F   UNL A   1      36.198  31.296  31.530  1.00  0.00    -0.206 F 
ATOM     82  C   UNL A   1      34.936  32.894  30.362  1.00  0.00     0.059 A 
ATOM     83  C   UNL A   1      35.999  34.256  28.657  1.00  0.00     0.059 A 
ATOM     84  F   UNL A   1      38.272  33.945  28.172  1.00  0.00    -0.206 F 
ATOM     85  C   UNL A   1      34.871  33.894  29.390  1.00  0.00     0.060 A 
BRANCH  85  86
ATOM     86  S   UNL A   1      33.300  34.746  29.126  1.00  0.00     0.124 S 
ATOM     87  O   UNL A   1      33.749  36.041  28.629  1.00  0.00    -0.237 OA
ATOM     88  O   UNL A   1      32.641  33.880  28.153  1.00  0.00    -0.237 OA
ATOM     89  O   UNL A   1      32.696  34.753  30.455  1.00  0.00    -0.744 OA
ENDBRANCH  85  86
ENDBRANCH  53  78
BRANCH  65  90
ATOM     90  C   UNL A   1      43.088  34.272  33.370  1.00  0.00     0.058 A 
ATOM     91  C   UNL A   1      42.785  34.459  34.727  1.00  0.00     0.135 A 
ATOM     92  C   UNL A   1      43.845  35.262  32.724  1.00  0.00     0.135 A 
ATOM     93  F   UNL A   1      42.058  33.545  35.389  1.00  0.00    -0.206 F 
ATOM     94  C   UNL A   1      43.200  35.595  35.414  1.00  0.00     0.059 A 
ATOM     95  C   UNL A   1      44.294  36.394  33.398  1.00  0.00     0.059 A 
ATOM     96  F   UNL A   1      44.171  35.128  31.428  1.00  0.00    -0.206 F 
ATOM     97  C   UNL A   1      43.956  36.556  34.741  1.00  0.00     0.060 A 
BRANCH  97  98
ATOM     98  S   UNL A   1      44.519  38.010  35.653  1.00  0.00     0.124 S 
ATOM     99  O   UNL A   1      43.964  37.758  36.979  1.00  0.00    -0.237 OA
ATOM    100  O   UNL A   1      45.971  37.906  35.542  1.00  0.00    -0.237 OA
ATOM    101  O   UNL A   1      43.919  39.122  34.922  1.00  0.00    -0.744 OA
ENDBRANCH  97  98
ENDBRANCH  65  90
ENDBRANCH  39  40
ENDBRANCH  31  34
ENDBRANCH  29  30
ENDBRANCH   1  29
TORSDOF 15
ENDMDL
MODEL 3
REMARK VINA RESULT:     -12.3      3.412      9.328
REMARK SMILES C[NH+]1CCN(C(=O)c2ccc3c(c2)N(CC(=O)NCCCNC(=O)c2ccc(-c4c5nc(c(-c6c(F)cc(S(=O)(=O)[O-])cc6F)c6ccc([nH]6)c(-c6c(F)cc(S(=O)(=O)[O-])cc6F)c6nc(c(-c7c(F)cc(S(=O)(=O)[O-])cc7F)c7ccc4[nH]7)C=C6)C=C5)cc2)C(=O)CO3)CC1
REMARK SMILES IDX 20 1 19 2 18 3 16 4 17 5 15 7 14 8 8 9 9 10 13 11 10 12
REMARK SMILES IDX 12 13 11 14 94 15 91 16 93 17 92 18 6 19 1 20 2 21 3 22
REMARK SMILES IDX 96 23 4 25 95 26 5 27 7 28 21 29 22 30 23 31 24 33 25 34
REMARK SMILES IDX 26 35 90 36 27 37 89 38 28 39 29 40 30 41 83 42 31 43 88 44
REMARK SMILES IDX 82 45 84 46 32 47 87 48 81 49 80 50 33 52 67 53 46 54 66 55
REMARK SMILES IDX 47 56 50 57 65 58 85 59 48 60 49 61 64 63 86 64 51 65 34 66
REMARK SMILES IDX 35 67 44 68 36 69 37 70 43 71 45 72 38 73 39 74 40 75 41 76
REMARK SMILES IDX 42 77 68 78 69 79 78 80 70 81 71 82 77 83 79 84 72 85 73 86
REMARK SMILES IDX 74 87 75 88 76 89 52 90 53 91 62 92 54 93 55 94 61 95 63 96
REMARK SMILES IDX 56 97 57 98 58 99 59 100 60 101
REMARK H PARENT 18 6 2 24 22 32 84 51 50 62
REMARK Flexibility Score: inf
ROOT
ATOM      1  C   UNL A   1      35.811  24.078  24.725  1.00  0.00     0.042 C 
ENDROOT
BRANCH   1   2
ATOM      2  C   UNL A   1      34.570  24.963  24.670  1.00  0.00     0.117 C 
BRANCH   2   3
ATOM      3  N   UNL A   1      34.306  25.475  23.340  1.00  0.00    -0.354 N 
ATOM      4  C   UNL A   1      33.302  25.157  22.476  1.00  0.00     0.240 C 
ATOM      5  O   UNL A   1      33.192  25.837  21.452  1.00  0.00    -0.273 OA
ATOM      6  H   UNL A   1      34.946  26.149  23.013  1.00  0.00     0.163 HD
BRANCH   4   7
ATOM      7  C   UNL A   1      32.291  24.046  22.789  1.00  0.00     0.225 C 
BRANCH   7   8
ATOM      8  N   UNL A   1      31.877  23.970  24.190  1.00  0.00    -0.296 N 
ATOM      9  C   UNL A   1      33.767  21.017  25.525  1.00  0.00     0.042 A 
ATOM     10  C   UNL A   1      33.536  21.150  26.894  1.00  0.00     0.018 A 
ATOM     11  C   UNL A   1      33.186  21.908  24.611  1.00  0.00     0.044 A 
ATOM     12  C   UNL A   1      32.753  22.203  27.355  1.00  0.00     0.049 A 
ATOM     13  C   UNL A   1      32.412  22.983  25.068  1.00  0.00     0.087 A 
ATOM     14  C   UNL A   1      32.190  23.106  26.449  1.00  0.00     0.143 A 
ATOM     15  O   UNL A   1      31.486  24.135  27.010  1.00  0.00    -0.482 OA
ATOM     16  C   UNL A   1      30.951  24.889  24.667  1.00  0.00     0.265 C 
ATOM     17  C   UNL A   1      30.550  24.716  26.126  1.00  0.00     0.330 C 
ATOM     18  O   UNL A   1      30.424  25.751  23.960  1.00  0.00    -0.270 OA
BRANCH   9  19
ATOM     19  C   UNL A   1      34.587  19.881  25.054  1.00  0.00     0.254 C 
ATOM     20  C   UNL A   1      32.579  14.679  25.376  1.00  0.00     0.332 C 
ATOM     21  N   UNL A   1      32.928  15.946  24.737  1.00  0.00    -0.334 N 
ATOM     22  C   UNL A   1      34.380  16.210  24.856  1.00  0.00     0.283 C 
ATOM     23  C   UNL A   1      32.178  17.058  25.357  1.00  0.00     0.283 C 
ATOM     24  H   UNL A   1      32.683  15.879  23.749  1.00  0.00     0.347 HD
ATOM     25  C   UNL A   1      34.787  17.567  24.251  1.00  0.00     0.181 C 
ATOM     26  C   UNL A   1      32.528  18.414  24.714  1.00  0.00     0.181 C 
ATOM     27  N   UNL A   1      33.973  18.669  24.769  1.00  0.00    -0.327 N 
ATOM     28  O   UNL A   1      35.795  20.080  24.929  1.00  0.00    -0.269 OA
ENDBRANCH   9  19
ENDBRANCH   7   8
ENDBRANCH   4   7
ENDBRANCH   2   3
ENDBRANCH   1   2
BRANCH   1  29
ATOM     29  C   UNL A   1      36.173  23.586  26.125  1.00  0.00     0.118 C 
BRANCH  29  30
ATOM     30  N   UNL A   1      37.242  22.597  26.118  1.00  0.00    -0.352 N 
ATOM     31  C   UNL A   1      38.596  22.745  26.285  1.00  0.00     0.251 C 
ATOM     32  H   UNL A   1      36.945  21.670  25.969  1.00  0.00     0.163 HD
ATOM     33  O   UNL A   1      39.332  21.785  26.056  1.00  0.00    -0.269 OA
BRANCH  31  34
ATOM     34  C   UNL A   1      39.180  24.033  26.719  1.00  0.00     0.039 A 
ATOM     35  C   UNL A   1      39.078  24.397  28.065  1.00  0.00     0.014 A 
ATOM     36  C   UNL A   1      39.786  24.903  25.808  1.00  0.00     0.014 A 
ATOM     37  C   UNL A   1      39.637  25.599  28.508  1.00  0.00     0.010 A 
ATOM     38  C   UNL A   1      40.403  26.068  26.262  1.00  0.00     0.010 A 
ATOM     39  C   UNL A   1      40.336  26.429  27.617  1.00  0.00    -0.014 A 
BRANCH  39  40
ATOM     40  C   UNL A   1      41.011  27.668  28.084  1.00  0.00     0.031 A 
ATOM     41  C   UNL A   1      42.513  27.774  28.059  1.00  0.00     0.074 A 
ATOM     42  C   UNL A   1      40.273  28.675  28.594  1.00  0.00     0.049 A 
ATOM     43  N   UNL A   1      43.280  28.736  28.502  1.00  0.00    -0.248 NA
ATOM     44  C   UNL A   1      43.249  26.636  27.487  1.00  0.00     0.031 C 
ATOM     45  C   UNL A   1      38.812  28.675  28.714  1.00  0.00     0.029 A 
ATOM     46  N   UNL A   1      40.647  29.886  29.121  1.00  0.00    -0.354 N 
ATOM     47  C   UNL A   1      44.586  28.317  28.276  1.00  0.00     0.074 A 
ATOM     48  C   UNL A   1      44.508  26.993  27.699  1.00  0.00     0.031 C 
ATOM     49  C   UNL A   1      38.416  29.834  29.265  1.00  0.00     0.029 A 
ATOM     50  C   UNL A   1      39.591  30.643  29.572  1.00  0.00     0.049 A 
ATOM     51  H   UNL A   1      41.583  30.185  29.171  1.00  0.00     0.167 HD
ATOM     52  C   UNL A   1      45.743  28.983  28.511  1.00  0.00     0.037 A 
ATOM     53  C   UNL A   1      39.571  31.846  30.177  1.00  0.00     0.037 A 
ATOM     54  C   UNL A   1      45.812  30.313  29.060  1.00  0.00     0.049 A 
ATOM     55  C   UNL A   1      40.868  32.567  30.424  1.00  0.00     0.074 A 
ATOM     56  C   UNL A   1      46.933  31.096  29.277  1.00  0.00     0.029 A 
ATOM     57  N   UNL A   1      44.719  31.057  29.479  1.00  0.00    -0.354 N 
ATOM     58  N   UNL A   1      42.091  32.180  30.147  1.00  0.00    -0.248 NA
ATOM     59  C   UNL A   1      40.785  33.890  31.058  1.00  0.00     0.031 C 
ATOM     60  C   UNL A   1      46.522  32.297  29.866  1.00  0.00     0.029 A 
ATOM     61  C   UNL A   1      45.140  32.282  29.971  1.00  0.00     0.049 A 
ATOM     62  H   UNL A   1      43.781  30.759  29.432  1.00  0.00     0.167 HD
ATOM     63  C   UNL A   1      42.919  33.222  30.549  1.00  0.00     0.074 A 
ATOM     64  C   UNL A   1      42.058  34.261  31.076  1.00  0.00     0.031 C 
ATOM     65  C   UNL A   1      44.270  33.311  30.485  1.00  0.00     0.037 A 
BRANCH  52  66
ATOM     66  C   UNL A   1      47.033  28.287  28.170  1.00  0.00     0.058 A 
ATOM     67  C   UNL A   1      47.627  28.417  26.904  1.00  0.00     0.135 A 
ATOM     68  C   UNL A   1      47.709  27.523  29.134  1.00  0.00     0.135 A 
ATOM     69  F   UNL A   1      47.018  29.126  25.940  1.00  0.00    -0.206 F 
ATOM     70  C   UNL A   1      48.831  27.792  26.599  1.00  0.00     0.059 A 
ATOM     71  C   UNL A   1      48.929  26.911  28.859  1.00  0.00     0.059 A 
ATOM     72  F   UNL A   1      47.187  27.367  30.361  1.00  0.00    -0.206 F 
ATOM     73  C   UNL A   1      49.475  27.041  27.583  1.00  0.00     0.060 A 
BRANCH  73  74
ATOM     74  S   UNL A   1      51.043  26.246  27.172  1.00  0.00     0.124 S 
ATOM     75  O   UNL A   1      51.911  26.749  28.233  1.00  0.00    -0.237 OA
ATOM     76  O   UNL A   1      50.705  24.828  27.251  1.00  0.00    -0.237 OA
ATOM     77  O   UNL A   1      51.337  26.744  25.832  1.00  0.00    -0.744 OA
ENDBRANCH  73  74
ENDBRANCH  52  66
BRANCH  53  78
ATOM     78  C   UNL A   1      38.273  32.453  30.581  1.00  0.00     0.058 A 
ATOM     79  C   UNL A   1      37.762  32.270  31.873  1.00  0.00     0.135 A 
ATOM     80  C   UNL A   1      37.524  33.232  29.685  1.00  0.00     0.135 A 
ATOM     81  F   UNL A   1      38.439  31.528  32.764  1.00  0.00    -0.206 F 
ATOM     82  C   UNL A   1      36.545  32.821  32.261  1.00  0.00     0.059 A 
ATOM     83  C   UNL A   1      36.317  33.815  30.057  1.00  0.00     0.059 A 
ATOM     84  F   UNL A   1      37.978  33.453  28.442  1.00  0.00    -0.206 F 
ATOM     85  C   UNL A   1      35.829  33.593  31.344  1.00  0.00     0.060 A 
BRANCH  85  86
ATOM     86  S   UNL A   1      34.270  34.340  31.869  1.00  0.00     0.124 S 
ATOM     87  O   UNL A   1      33.610  34.570  30.590  1.00  0.00    -0.237 OA
ATOM     88  O   UNL A   1      33.695  33.293  32.707  1.00  0.00    -0.237 OA
ATOM     89  O   UNL A   1      34.699  35.538  32.585  1.00  0.00    -0.744 OA
ENDBRANCH  85  86
ENDBRANCH  53  78
BRANCH  65  90
ATOM     90  C   UNL A   1      44.904  34.587  30.965  1.00  0.00     0.058 A 
ATOM     91  C   UNL A   1      45.337  34.745  32.289  1.00  0.00     0.135 A 
ATOM     92  C   UNL A   1      45.127  35.647  30.070  1.00  0.00     0.135 A 
ATOM     93  F   UNL A   1      45.141  33.765  33.185  1.00  0.00    -0.206 F 
ATOM     94  C   UNL A   1      45.951  35.918  32.718  1.00  0.00     0.059 A 
ATOM     95  C   UNL A   1      45.763  36.819  30.470  1.00  0.00     0.059 A 
ATOM     96  F   UNL A   1      44.741  35.544  28.788  1.00  0.00    -0.206 F 
ATOM     97  C   UNL A   1      46.161  36.949  31.800  1.00  0.00     0.060 A 
BRANCH  97  98
ATOM     98  S   UNL A   1      46.990  38.452  32.361  1.00  0.00     0.124 S 
ATOM     99  O   UNL A   1      45.874  39.215  32.912  1.00  0.00    -0.237 OA
ATOM    100  O   UNL A   1      47.948  37.937  33.334  1.00  0.00    -0.237 OA
ATOM    101  O   UNL A   1      47.576  38.992  31.138  1.00  0.00    -0.744 OA
ENDBRANCH  97  98
ENDBRANCH  65  90
ENDBRANCH  39  40
ENDBRANCH  31  34
ENDBRANCH  29  30
ENDBRANCH   1  29
TORSDOF 15
ENDMDL
