MODEL 1
REMARK VINA RESULT:     -11.4      0.000      0.000
REMARK SMILES CC[N@@H+]1CCO[C@H](C[NH2+][C@@H]2CCC[C@H](C(=O)NCCCNC(=O)c3ccc(-c4c5nc(c(-c6c(F)cc(S(=O)(=O)[O-])cc6F)c6ccc([nH]6)c(-c6c(F)cc(S(=O)(=O)[O-])cc6F)c6nc(c(-c7c(F)cc(S(=O)(=O)[O-])cc7F)c7ccc4[nH]7)C=C6)C=C5)cc3)C2)C1
REMARK SMILES IDX 18 1 17 2 15 3 16 4 14 6 10 7 11 8 90 9 12 10 13 11 9 12
REMARK SMILES IDX 8 15 7 16 3 17 4 18 91 19 5 21 6 22 2 23 1 24 19 25 20 26
REMARK SMILES IDX 21 27 22 28 23 30 24 31 25 32 89 33 26 34 88 35 27 36 28 37
REMARK SMILES IDX 29 38 82 39 30 40 87 41 81 42 83 43 31 44 86 45 80 46 79 47
REMARK SMILES IDX 32 49 66 50 45 51 65 52 46 53 49 54 64 55 84 56 47 57 48 58
REMARK SMILES IDX 63 60 85 61 50 62 33 63 34 64 43 65 35 66 36 67 42 68 44 69
REMARK SMILES IDX 37 70 38 71 39 72 40 73 41 74 67 75 68 76 77 77 69 78 70 79
REMARK SMILES IDX 76 80 78 81 71 82 72 83 73 84 74 85 75 86 51 87 52 88 61 89
REMARK SMILES IDX 53 90 54 91 60 92 62 93 55 94 56 95 57 96 58 97 59 98
REMARK H PARENT 17 5 9 13 9 14 3 20 21 29 83 48 49 59
REMARK Flexibility Score: inf
ROOT
ATOM      1  C   UNL A   1      33.416  29.947  26.681  1.00  0.00     0.117 C 
ENDROOT
BRANCH   1   2
ATOM      2  N   UNL A   1      33.619  29.698  25.263  1.00  0.00    -0.356 N 
ATOM      3  C   UNL A   1      32.886  28.994  24.360  1.00  0.00     0.223 C 
ATOM      4  O   UNL A   1      33.294  28.950  23.196  1.00  0.00    -0.275 OA
ATOM      5  H   UNL A   1      34.430  30.115  24.891  1.00  0.00     0.163 HD
BRANCH   3   6
ATOM      6  C   UNL A   1      31.607  28.268  24.754  1.00  0.00     0.084 C 
ATOM      7  C   UNL A   1      30.674  26.189  25.956  1.00  0.00     0.183 C 
ATOM      8  C   UNL A   1      29.969  25.850  24.624  1.00  0.00     0.065 C 
ATOM      9  C   UNL A   1      31.886  27.104  25.722  1.00  0.00     0.078 C 
ATOM     10  C   UNL A   1      29.553  27.089  23.853  1.00  0.00     0.007 C 
ATOM     11  C   UNL A   1      30.767  27.936  23.516  1.00  0.00     0.014 C 
BRANCH   7  12
ATOM     12  N   UNL A   1      31.103  25.024  26.777  1.00  0.00    -0.341 N 
ATOM     13  H   UNL A   1      31.719  25.357  27.519  1.00  0.00     0.346 HD
ATOM     14  H   UNL A   1      30.261  24.586  27.152  1.00  0.00     0.346 HD
BRANCH  12  15
ATOM     15  C   UNL A   1      31.820  24.010  25.994  1.00  0.00     0.299 C 
BRANCH  15  16
ATOM     16  C   UNL A   1      33.256  23.640  26.404  1.00  0.00     0.227 C 
ATOM     17  N   UNL A   1      34.273  23.057  24.101  1.00  0.00    -0.331 N 
ATOM     18  C   UNL A   1      34.422  21.686  24.632  1.00  0.00     0.291 C 
ATOM     19  C   UNL A   1      34.241  23.986  25.249  1.00  0.00     0.300 C 
ATOM     20  H   UNL A   1      35.069  23.363  23.541  1.00  0.00     0.348 HD
ATOM     21  C   UNL A   1      33.394  21.335  25.725  1.00  0.00     0.222 C 
ATOM     22  O   UNL A   1      33.395  22.266  26.814  1.00  0.00    -0.361 OA
BRANCH  17  23
ATOM     23  C   UNL A   1      33.189  23.123  23.110  1.00  0.00     0.258 C 
ATOM     24  C   UNL A   1      32.832  24.503  22.565  1.00  0.00     0.071 C 
ENDBRANCH  17  23
ENDBRANCH  15  16
ENDBRANCH  12  15
ENDBRANCH   7  12
ENDBRANCH   3   6
ENDBRANCH   1   2
BRANCH   1  25
ATOM     25  C   UNL A   1      34.605  29.517  27.526  1.00  0.00     0.042 C 
BRANCH  25  26
ATOM     26  C   UNL A   1      35.471  30.670  28.007  1.00  0.00     0.118 C 
BRANCH  26  27
ATOM     27  N   UNL A   1      35.442  30.828  29.455  1.00  0.00    -0.352 N 
ATOM     28  C   UNL A   1      36.400  30.530  30.392  1.00  0.00     0.251 C 
ATOM     29  H   UNL A   1      34.608  31.205  29.816  1.00  0.00     0.163 HD
ATOM     30  O   UNL A   1      36.101  30.553  31.586  1.00  0.00    -0.269 OA
BRANCH  28  31
ATOM     31  C   UNL A   1      37.771  30.168  29.976  1.00  0.00     0.039 A 
ATOM     32  C   UNL A   1      38.695  29.778  30.947  1.00  0.00     0.014 A 
ATOM     33  C   UNL A   1      38.156  30.231  28.633  1.00  0.00     0.014 A 
ATOM     34  C   UNL A   1      39.986  29.401  30.567  1.00  0.00     0.010 A 
ATOM     35  C   UNL A   1      39.405  29.759  28.246  1.00  0.00     0.010 A 
ATOM     36  C   UNL A   1      40.342  29.360  29.209  1.00  0.00    -0.014 A 
BRANCH  36  37
ATOM     37  C   UNL A   1      41.700  28.940  28.776  1.00  0.00     0.031 A 
ATOM     38  C   UNL A   1      42.812  29.953  28.705  1.00  0.00     0.074 A 
ATOM     39  C   UNL A   1      41.918  27.666  28.391  1.00  0.00     0.049 A 
ATOM     40  N   UNL A   1      44.044  29.802  28.291  1.00  0.00    -0.248 NA
ATOM     41  C   UNL A   1      42.489  31.326  29.126  1.00  0.00     0.031 C 
ATOM     42  C   UNL A   1      40.911  26.604  28.368  1.00  0.00     0.029 A 
ATOM     43  N   UNL A   1      43.058  27.051  27.937  1.00  0.00    -0.354 N 
ATOM     44  C   UNL A   1      44.632  31.058  28.385  1.00  0.00     0.074 A 
ATOM     45  C   UNL A   1      43.605  31.973  28.832  1.00  0.00     0.031 C 
ATOM     46  C   UNL A   1      41.482  25.465  27.948  1.00  0.00     0.029 A 
ATOM     47  C   UNL A   1      42.885  25.721  27.634  1.00  0.00     0.049 A 
ATOM     48  H   UNL A   1      43.919  27.518  27.839  1.00  0.00     0.167 HD
ATOM     49  C   UNL A   1      45.917  31.415  28.146  1.00  0.00     0.037 A 
ATOM     50  C   UNL A   1      43.755  24.813  27.151  1.00  0.00     0.037 A 
ATOM     51  C   UNL A   1      46.939  30.493  27.724  1.00  0.00     0.049 A 
ATOM     52  C   UNL A   1      45.179  25.228  26.898  1.00  0.00     0.074 A 
ATOM     53  C   UNL A   1      48.283  30.738  27.506  1.00  0.00     0.029 A 
ATOM     54  N   UNL A   1      46.730  29.148  27.453  1.00  0.00    -0.354 N 
ATOM     55  N   UNL A   1      45.734  26.408  27.048  1.00  0.00    -0.248 NA
ATOM     56  C   UNL A   1      46.099  24.188  26.420  1.00  0.00     0.031 C 
ATOM     57  C   UNL A   1      48.876  29.554  27.054  1.00  0.00     0.029 A 
ATOM     58  C   UNL A   1      47.915  28.555  27.051  1.00  0.00     0.049 A 
ATOM     59  H   UNL A   1      45.865  28.683  27.534  1.00  0.00     0.167 HD
ATOM     60  C   UNL A   1      47.076  26.243  26.719  1.00  0.00     0.074 A 
ATOM     61  C   UNL A   1      47.248  24.848  26.370  1.00  0.00     0.031 C 
ATOM     62  C   UNL A   1      48.074  27.161  26.715  1.00  0.00     0.037 A 
BRANCH  49  63
ATOM     63  C   UNL A   1      46.286  32.863  28.336  1.00  0.00     0.058 A 
ATOM     64  C   UNL A   1      46.737  33.358  29.571  1.00  0.00     0.135 A 
ATOM     65  C   UNL A   1      46.204  33.767  27.263  1.00  0.00     0.135 A 
ATOM     66  F   UNL A   1      46.822  32.545  30.636  1.00  0.00    -0.206 F 
ATOM     67  C   UNL A   1      47.053  34.702  29.747  1.00  0.00     0.059 A 
ATOM     68  C   UNL A   1      46.548  35.108  27.408  1.00  0.00     0.059 A 
ATOM     69  F   UNL A   1      45.780  33.351  26.059  1.00  0.00    -0.206 F 
ATOM     70  C   UNL A   1      46.953  35.569  28.659  1.00  0.00     0.060 A 
BRANCH  70  71
ATOM     71  S   UNL A   1      47.360  37.311  28.906  1.00  0.00     0.124 S 
ATOM     72  O   UNL A   1      48.391  37.226  29.935  1.00  0.00    -0.237 OA
ATOM     73  O   UNL A   1      47.819  37.713  27.581  1.00  0.00    -0.237 OA
ATOM     74  O   UNL A   1      46.094  37.899  29.333  1.00  0.00    -0.744 OA
ENDBRANCH  70  71
ENDBRANCH  49  63
BRANCH  50  75
ATOM     75  C   UNL A   1      43.308  23.414  26.910  1.00  0.00     0.058 A 
ATOM     76  C   UNL A   1      43.128  22.927  25.607  1.00  0.00     0.135 A 
ATOM     77  C   UNL A   1      43.075  22.530  27.975  1.00  0.00     0.135 A 
ATOM     78  F   UNL A   1      43.332  23.734  24.554  1.00  0.00    -0.206 F 
ATOM     79  C   UNL A   1      42.718  21.619  25.367  1.00  0.00     0.059 A 
ATOM     80  C   UNL A   1      42.692  21.210  27.760  1.00  0.00     0.059 A 
ATOM     81  F   UNL A   1      43.251  22.941  29.241  1.00  0.00    -0.206 F 
ATOM     82  C   UNL A   1      42.508  20.766  26.451  1.00  0.00     0.060 A 
BRANCH  82  83
ATOM     83  S   UNL A   1      42.033  19.054  26.126  1.00  0.00     0.124 S 
ATOM     84  O   UNL A   1      40.630  19.202  25.756  1.00  0.00    -0.237 OA
ATOM     85  O   UNL A   1      42.943  18.685  25.047  1.00  0.00    -0.237 OA
ATOM     86  O   UNL A   1      42.284  18.388  27.401  1.00  0.00    -0.744 OA
ENDBRANCH  82  83
ENDBRANCH  50  75
BRANCH  62  87
ATOM     87  C   UNL A   1      49.459  26.679  26.372  1.00  0.00     0.058 A 
ATOM     88  C   UNL A   1      50.289  26.059  27.319  1.00  0.00     0.135 A 
ATOM     89  C   UNL A   1      49.942  26.805  25.060  1.00  0.00     0.135 A 
ATOM     90  F   UNL A   1      49.878  25.917  28.589  1.00  0.00    -0.206 F 
ATOM     91  C   UNL A   1      51.563  25.610  26.984  1.00  0.00     0.059 A 
ATOM     92  C   UNL A   1      51.199  26.333  24.695  1.00  0.00     0.059 A 
ATOM     93  F   UNL A   1      49.185  27.379  24.111  1.00  0.00    -0.206 F 
ATOM     94  C   UNL A   1      52.009  25.751  25.668  1.00  0.00     0.060 A 
BRANCH  94  95
ATOM     95  S   UNL A   1      53.656  25.148  25.242  1.00  0.00     0.124 S 
ATOM     96  O   UNL A   1      54.478  25.793  26.261  1.00  0.00    -0.237 OA
ATOM     97  O   UNL A   1      53.502  23.703  25.374  1.00  0.00    -0.237 OA
ATOM     98  O   UNL A   1      53.853  25.630  23.878  1.00  0.00    -0.744 OA
ENDBRANCH  94  95
ENDBRANCH  62  87
ENDBRANCH  36  37
ENDBRANCH  28  31
ENDBRANCH  26  27
ENDBRANCH  25  26
ENDBRANCH   1  25
TORSDOF 17
ENDMDL
MODEL 2
REMARK VINA RESULT:     -11.4      6.588     12.131
REMARK SMILES CC[N@@H+]1CCO[C@H](C[NH2+][C@@H]2CCC[C@H](C(=O)NCCCNC(=O)c3ccc(-c4c5nc(c(-c6c(F)cc(S(=O)(=O)[O-])cc6F)c6ccc([nH]6)c(-c6c(F)cc(S(=O)(=O)[O-])cc6F)c6nc(c(-c7c(F)cc(S(=O)(=O)[O-])cc7F)c7ccc4[nH]7)C=C6)C=C5)cc3)C2)C1
REMARK SMILES IDX 18 1 17 2 15 3 16 4 14 6 10 7 11 8 90 9 12 10 13 11 9 12
REMARK SMILES IDX 8 15 7 16 3 17 4 18 91 19 5 21 6 22 2 23 1 24 19 25 20 26
REMARK SMILES IDX 21 27 22 28 23 30 24 31 25 32 89 33 26 34 88 35 27 36 28 37
REMARK SMILES IDX 29 38 82 39 30 40 87 41 81 42 83 43 31 44 86 45 80 46 79 47
REMARK SMILES IDX 32 49 66 50 45 51 65 52 46 53 49 54 64 55 84 56 47 57 48 58
REMARK SMILES IDX 63 60 85 61 50 62 33 63 34 64 43 65 35 66 36 67 42 68 44 69
REMARK SMILES IDX 37 70 38 71 39 72 40 73 41 74 67 75 68 76 77 77 69 78 70 79
REMARK SMILES IDX 76 80 78 81 71 82 72 83 73 84 74 85 75 86 51 87 52 88 61 89
REMARK SMILES IDX 53 90 54 91 60 92 62 93 55 94 56 95 57 96 58 97 59 98
REMARK H PARENT 17 5 9 13 9 14 3 20 21 29 83 48 49 59
REMARK Flexibility Score: inf
ROOT
ATOM      1  C   UNL A   1      37.036  22.762  25.714  1.00  0.00     0.117 C 
ENDROOT
BRANCH   1   2
ATOM      2  N   UNL A   1      35.982  22.405  26.650  1.00  0.00    -0.356 N 
ATOM      3  C   UNL A   1      34.797  21.763  26.468  1.00  0.00     0.223 C 
ATOM      4  O   UNL A   1      34.082  21.584  27.457  1.00  0.00    -0.275 OA
ATOM      5  H   UNL A   1      36.157  22.677  27.580  1.00  0.00     0.163 HD
BRANCH   3   6
ATOM      6  C   UNL A   1      34.347  21.282  25.095  1.00  0.00     0.084 C 
ATOM      7  C   UNL A   1      32.886  21.867  23.055  1.00  0.00     0.183 C 
ATOM      8  C   UNL A   1      32.158  20.529  23.310  1.00  0.00     0.065 C 
ATOM      9  C   UNL A   1      33.574  22.373  24.333  1.00  0.00     0.078 C 
ATOM     10  C   UNL A   1      33.079  19.462  23.871  1.00  0.00     0.007 C 
ATOM     11  C   UNL A   1      33.667  19.912  25.196  1.00  0.00     0.014 C 
BRANCH   7  12
ATOM     12  N   UNL A   1      32.051  22.963  22.493  1.00  0.00    -0.341 N 
ATOM     13  H   UNL A   1      32.622  23.511  21.850  1.00  0.00     0.346 HD
ATOM     14  H   UNL A   1      31.256  22.532  22.021  1.00  0.00     0.346 HD
BRANCH  12  15
ATOM     15  C   UNL A   1      31.519  23.860  23.528  1.00  0.00     0.299 C 
BRANCH  15  16
ATOM     16  C   UNL A   1      31.019  25.254  23.109  1.00  0.00     0.227 C 
ATOM     17  N   UNL A   1      32.237  26.735  24.842  1.00  0.00    -0.331 N 
ATOM     18  C   UNL A   1      30.888  27.075  25.341  1.00  0.00     0.291 C 
ATOM     19  C   UNL A   1      32.105  26.322  23.429  1.00  0.00     0.300 C 
ATOM     20  H   UNL A   1      32.873  27.532  24.821  1.00  0.00     0.348 HD
ATOM     21  C   UNL A   1      29.840  25.976  25.078  1.00  0.00     0.222 C 
ATOM     22  O   UNL A   1      29.752  25.604  23.698  1.00  0.00    -0.361 OA
BRANCH  17  23
ATOM     23  C   UNL A   1      32.933  25.839  25.776  1.00  0.00     0.258 C 
ATOM     24  C   UNL A   1      34.388  25.505  25.461  1.00  0.00     0.071 C 
ENDBRANCH  17  23
ENDBRANCH  15  16
ENDBRANCH  12  15
ENDBRANCH   7  12
ENDBRANCH   3   6
ENDBRANCH   1   2
BRANCH   1  25
ATOM     25  C   UNL A   1      37.777  24.026  26.122  1.00  0.00     0.042 C 
BRANCH  25  26
ATOM     26  C   UNL A   1      39.097  23.769  26.831  1.00  0.00     0.118 C 
BRANCH  26  27
ATOM     27  N   UNL A   1      40.250  24.141  26.023  1.00  0.00    -0.352 N 
ATOM     28  C   UNL A   1      41.063  25.244  26.106  1.00  0.00     0.251 C 
ATOM     29  H   UNL A   1      40.481  23.505  25.308  1.00  0.00     0.163 HD
ATOM     30  O   UNL A   1      41.865  25.470  25.199  1.00  0.00    -0.269 OA
BRANCH  28  31
ATOM     31  C   UNL A   1      40.969  26.162  27.260  1.00  0.00     0.039 A 
ATOM     32  C   UNL A   1      41.670  27.369  27.227  1.00  0.00     0.014 A 
ATOM     33  C   UNL A   1      40.209  25.828  28.386  1.00  0.00     0.014 A 
ATOM     34  C   UNL A   1      41.565  28.262  28.296  1.00  0.00     0.010 A 
ATOM     35  C   UNL A   1      40.025  26.759  29.401  1.00  0.00     0.010 A 
ATOM     36  C   UNL A   1      40.718  27.978  29.379  1.00  0.00    -0.014 A 
BRANCH  36  37
ATOM     37  C   UNL A   1      40.569  28.922  30.517  1.00  0.00     0.031 A 
ATOM     38  C   UNL A   1      41.439  28.767  31.738  1.00  0.00     0.074 A 
ATOM     39  C   UNL A   1      39.618  29.876  30.480  1.00  0.00     0.049 A 
ATOM     40  N   UNL A   1      41.420  29.443  32.858  1.00  0.00    -0.248 NA
ATOM     41  C   UNL A   1      42.442  27.691  31.708  1.00  0.00     0.031 C 
ATOM     42  C   UNL A   1      38.682  30.095  29.375  1.00  0.00     0.029 A 
ATOM     43  N   UNL A   1      39.276  30.835  31.399  1.00  0.00    -0.354 N 
ATOM     44  C   UNL A   1      42.390  28.863  33.667  1.00  0.00     0.074 A 
ATOM     45  C   UNL A   1      42.934  27.740  32.936  1.00  0.00     0.031 C 
ATOM     46  C   UNL A   1      37.890  31.137  29.670  1.00  0.00     0.029 A 
ATOM     47  C   UNL A   1      38.233  31.637  30.999  1.00  0.00     0.049 A 
ATOM     48  H   UNL A   1      39.734  30.940  32.263  1.00  0.00     0.167 HD
ATOM     49  C   UNL A   1      42.811  29.246  34.897  1.00  0.00     0.037 A 
ATOM     50  C   UNL A   1      37.617  32.654  31.633  1.00  0.00     0.037 A 
ATOM     51  C   UNL A   1      42.281  30.380  35.608  1.00  0.00     0.049 A 
ATOM     52  C   UNL A   1      38.103  33.066  32.996  1.00  0.00     0.074 A 
ATOM     53  C   UNL A   1      42.672  30.886  36.834  1.00  0.00     0.029 A 
ATOM     54  N   UNL A   1      41.242  31.182  35.157  1.00  0.00    -0.354 N 
ATOM     55  N   UNL A   1      39.063  32.544  33.723  1.00  0.00    -0.248 NA
ATOM     56  C   UNL A   1      37.432  34.213  33.621  1.00  0.00     0.031 C 
ATOM     57  C   UNL A   1      41.836  31.963  37.149  1.00  0.00     0.029 A 
ATOM     58  C   UNL A   1      40.967  32.168  36.090  1.00  0.00     0.049 A 
ATOM     59  H   UNL A   1      40.771  31.068  34.300  1.00  0.00     0.167 HD
ATOM     60  C   UNL A   1      39.135  33.321  34.875  1.00  0.00     0.074 A 
ATOM     61  C   UNL A   1      38.126  34.353  34.743  1.00  0.00     0.031 C 
ATOM     62  C   UNL A   1      39.965  33.196  35.940  1.00  0.00     0.037 A 
BRANCH  49  63
ATOM     63  C   UNL A   1      43.896  28.428  35.548  1.00  0.00     0.058 A 
ATOM     64  C   UNL A   1      45.257  28.663  35.291  1.00  0.00     0.135 A 
ATOM     65  C   UNL A   1      43.571  27.406  36.456  1.00  0.00     0.135 A 
ATOM     66  F   UNL A   1      45.627  29.616  34.421  1.00  0.00    -0.206 F 
ATOM     67  C   UNL A   1      46.254  27.889  35.877  1.00  0.00     0.059 A 
ATOM     68  C   UNL A   1      44.554  26.643  37.080  1.00  0.00     0.059 A 
ATOM     69  F   UNL A   1      42.288  27.137  36.742  1.00  0.00    -0.206 F 
ATOM     70  C   UNL A   1      45.892  26.880  36.769  1.00  0.00     0.060 A 
BRANCH  70  71
ATOM     71  S   UNL A   1      47.197  25.880  37.515  1.00  0.00     0.124 S 
ATOM     72  O   UNL A   1      46.961  24.582  36.891  1.00  0.00    -0.237 OA
ATOM     73  O   UNL A   1      48.405  26.577  37.087  1.00  0.00    -0.237 OA
ATOM     74  O   UNL A   1      46.907  25.951  38.943  1.00  0.00    -0.744 OA
ENDBRANCH  70  71
ENDBRANCH  49  63
BRANCH  50  75
ATOM     75  C   UNL A   1      36.497  33.373  30.967  1.00  0.00     0.058 A 
ATOM     76  C   UNL A   1      36.728  34.214  29.868  1.00  0.00     0.135 A 
ATOM     77  C   UNL A   1      35.171  33.215  31.400  1.00  0.00     0.135 A 
ATOM     78  F   UNL A   1      37.979  34.402  29.419  1.00  0.00    -0.206 F 
ATOM     79  C   UNL A   1      35.689  34.885  29.231  1.00  0.00     0.059 A 
ATOM     80  C   UNL A   1      34.112  33.854  30.762  1.00  0.00     0.059 A 
ATOM     81  F   UNL A   1      34.893  32.408  32.436  1.00  0.00    -0.206 F 
ATOM     82  C   UNL A   1      34.383  34.694  29.683  1.00  0.00     0.060 A 
BRANCH  82  83
ATOM     83  S   UNL A   1      33.036  35.524  28.811  1.00  0.00     0.124 S 
ATOM     84  O   UNL A   1      32.245  36.046  29.920  1.00  0.00    -0.237 OA
ATOM     85  O   UNL A   1      33.753  36.515  28.016  1.00  0.00    -0.237 OA
ATOM     86  O   UNL A   1      32.417  34.446  28.046  1.00  0.00    -0.744 OA
ENDBRANCH  82  83
ENDBRANCH  50  75
BRANCH  62  87
ATOM     87  C   UNL A   1      39.859  34.231  37.028  1.00  0.00     0.058 A 
ATOM     88  C   UNL A   1      40.510  35.471  36.944  1.00  0.00     0.135 A 
ATOM     89  C   UNL A   1      39.055  33.989  38.154  1.00  0.00     0.135 A 
ATOM     90  F   UNL A   1      41.294  35.754  35.892  1.00  0.00    -0.206 F 
ATOM     91  C   UNL A   1      40.394  36.422  37.954  1.00  0.00     0.059 A 
ATOM     92  C   UNL A   1      38.898  34.937  39.159  1.00  0.00     0.059 A 
ATOM     93  F   UNL A   1      38.399  32.824  38.279  1.00  0.00    -0.206 F 
ATOM     94  C   UNL A   1      39.585  36.146  39.058  1.00  0.00     0.060 A 
BRANCH  94  95
ATOM     95  S   UNL A   1      39.428  37.394  40.352  1.00  0.00     0.124 S 
ATOM     96  O   UNL A   1      38.583  38.389  39.699  1.00  0.00    -0.237 OA
ATOM     97  O   UNL A   1      38.800  36.643  41.435  1.00  0.00    -0.237 OA
ATOM     98  O   UNL A   1      40.807  37.805  40.599  1.00  0.00    -0.744 OA
ENDBRANCH  94  95
ENDBRANCH  62  87
ENDBRANCH  36  37
ENDBRANCH  28  31
ENDBRANCH  26  27
ENDBRANCH  25  26
ENDBRANCH   1  25
TORSDOF 17
ENDMDL
MODEL 3
REMARK VINA RESULT:     -11.1      4.088      7.192
REMARK SMILES CC[N@@H+]1CCO[C@H](C[NH2+][C@@H]2CCC[C@H](C(=O)NCCCNC(=O)c3ccc(-c4c5nc(c(-c6c(F)cc(S(=O)(=O)[O-])cc6F)c6ccc([nH]6)c(-c6c(F)cc(S(=O)(=O)[O-])cc6F)c6nc(c(-c7c(F)cc(S(=O)(=O)[O-])cc7F)c7ccc4[nH]7)C=C6)C=C5)cc3)C2)C1
REMARK SMILES IDX 18 1 17 2 15 3 16 4 14 6 10 7 11 8 90 9 12 10 13 11 9 12
REMARK SMILES IDX 8 15 7 16 3 17 4 18 91 19 5 21 6 22 2 23 1 24 19 25 20 26
REMARK SMILES IDX 21 27 22 28 23 30 24 31 25 32 89 33 26 34 88 35 27 36 28 37
REMARK SMILES IDX 29 38 82 39 30 40 87 41 81 42 83 43 31 44 86 45 80 46 79 47
REMARK SMILES IDX 32 49 66 50 45 51 65 52 46 53 49 54 64 55 84 56 47 57 48 58
REMARK SMILES IDX 63 60 85 61 50 62 33 63 34 64 43 65 35 66 36 67 42 68 44 69
REMARK SMILES IDX 37 70 38 71 39 72 40 73 41 74 67 75 68 76 77 77 69 78 70 79
REMARK SMILES IDX 76 80 78 81 71 82 72 83 73 84 74 85 75 86 51 87 52 88 61 89
REMARK SMILES IDX 53 90 54 91 60 92 62 93 55 94 56 95 57 96 58 97 59 98
REMARK H PARENT 17 5 9 13 9 14 3 20 21 29 83 48 49 59
REMARK Flexibility Score: inf
ROOT
ATOM      1  C   UNL A   1      34.799  32.612  31.169  1.00  0.00     0.117 C 
ENDROOT
BRANCH   1   2
ATOM      2  N   UNL A   1      34.881  33.462  32.346  1.00  0.00    -0.356 N 
ATOM      3  C   UNL A   1      35.946  33.875  33.083  1.00  0.00     0.223 C 
ATOM      4  O   UNL A   1      35.727  34.612  34.048  1.00  0.00    -0.275 OA
ATOM      5  H   UNL A   1      34.012  33.797  32.665  1.00  0.00     0.163 HD
BRANCH   3   6
ATOM      6  C   UNL A   1      37.369  33.446  32.750  1.00  0.00     0.084 C 
ATOM      7  C   UNL A   1      39.219  31.744  33.313  1.00  0.00     0.183 C 
ATOM      8  C   UNL A   1      40.105  32.961  33.659  1.00  0.00     0.065 C 
ATOM      9  C   UNL A   1      37.728  32.101  33.409  1.00  0.00     0.078 C 
ATOM     10  C   UNL A   1      39.796  34.171  32.795  1.00  0.00     0.007 C 
ATOM     11  C   UNL A   1      38.352  34.599  32.981  1.00  0.00     0.014 C 
BRANCH   7  12
ATOM     12  N   UNL A   1      39.470  30.513  34.110  1.00  0.00    -0.341 N 
ATOM     13  H   UNL A   1      38.962  30.586  34.992  1.00  0.00     0.346 HD
ATOM     14  H   UNL A   1      39.153  29.718  33.555  1.00  0.00     0.346 HD
BRANCH  12  15
ATOM     15  C   UNL A   1      40.894  30.307  34.406  1.00  0.00     0.299 C 
BRANCH  15  16
ATOM     16  C   UNL A   1      41.309  30.000  35.856  1.00  0.00     0.227 C 
ATOM     17  N   UNL A   1      43.687  29.061  35.481  1.00  0.00    -0.331 N 
ATOM     18  C   UNL A   1      43.154  27.790  36.011  1.00  0.00     0.291 C 
ATOM     19  C   UNL A   1      42.850  30.158  36.009  1.00  0.00     0.300 C 
ATOM     20  H   UNL A   1      44.630  29.274  35.808  1.00  0.00     0.348 HD
ATOM     21  C   UNL A   1      41.639  27.617  35.789  1.00  0.00     0.222 C 
ATOM     22  O   UNL A   1      40.868  28.706  36.312  1.00  0.00    -0.361 OA
BRANCH  17  23
ATOM     23  C   UNL A   1      43.904  28.976  34.029  1.00  0.00     0.258 C 
ATOM     24  C   UNL A   1      44.530  27.690  33.497  1.00  0.00     0.071 C 
ENDBRANCH  17  23
ENDBRANCH  15  16
ENDBRANCH  12  15
ENDBRANCH   7  12
ENDBRANCH   3   6
ENDBRANCH   1   2
BRANCH   1  25
ATOM     25  C   UNL A   1      34.372  33.376  29.925  1.00  0.00     0.042 C 
BRANCH  25  26
ATOM     26  C   UNL A   1      34.821  32.736  28.621  1.00  0.00     0.118 C 
BRANCH  26  27
ATOM     27  N   UNL A   1      34.045  31.550  28.282  1.00  0.00    -0.352 N 
ATOM     28  C   UNL A   1      34.466  30.273  28.009  1.00  0.00     0.251 C 
ATOM     29  H   UNL A   1      33.071  31.686  28.243  1.00  0.00     0.163 HD
ATOM     30  O   UNL A   1      33.663  29.460  27.549  1.00  0.00    -0.269 OA
BRANCH  28  31
ATOM     31  C   UNL A   1      35.870  29.877  28.247  1.00  0.00     0.039 A 
ATOM     32  C   UNL A   1      36.797  30.007  27.210  1.00  0.00     0.014 A 
ATOM     33  C   UNL A   1      36.273  29.359  29.481  1.00  0.00     0.014 A 
ATOM     34  C   UNL A   1      38.135  29.667  27.429  1.00  0.00     0.010 A 
ATOM     35  C   UNL A   1      37.620  29.119  29.728  1.00  0.00     0.010 A 
ATOM     36  C   UNL A   1      38.563  29.249  28.699  1.00  0.00    -0.014 A 
BRANCH  36  37
ATOM     37  C   UNL A   1      39.984  28.906  28.964  1.00  0.00     0.031 A 
ATOM     38  C   UNL A   1      40.909  29.942  29.548  1.00  0.00     0.074 A 
ATOM     39  C   UNL A   1      40.456  27.689  28.628  1.00  0.00     0.049 A 
ATOM     40  N   UNL A   1      42.192  29.863  29.791  1.00  0.00    -0.248 NA
ATOM     41  C   UNL A   1      40.321  31.252  29.873  1.00  0.00     0.031 C 
ATOM     42  C   UNL A   1      39.672  26.618  28.010  1.00  0.00     0.029 A 
ATOM     43  N   UNL A   1      41.713  27.151  28.749  1.00  0.00    -0.354 N 
ATOM     44  C   UNL A   1      42.564  31.111  30.277  1.00  0.00     0.074 A 
ATOM     45  C   UNL A   1      41.386  31.949  30.233  1.00  0.00     0.031 C 
ATOM     46  C   UNL A   1      40.458  25.544  27.831  1.00  0.00     0.029 A 
ATOM     47  C   UNL A   1      41.810  25.862  28.283  1.00  0.00     0.049 A 
ATOM     48  H   UNL A   1      42.474  27.643  29.135  1.00  0.00     0.167 HD
ATOM     49  C   UNL A   1      43.770  31.516  30.744  1.00  0.00     0.037 A 
ATOM     50  C   UNL A   1      42.869  25.031  28.219  1.00  0.00     0.037 A 
ATOM     51  C   UNL A   1      44.931  30.668  30.807  1.00  0.00     0.049 A 
ATOM     52  C   UNL A   1      44.198  25.500  28.747  1.00  0.00     0.074 A 
ATOM     53  C   UNL A   1      46.185  30.962  31.311  1.00  0.00     0.029 A 
ATOM     54  N   UNL A   1      44.981  29.359  30.348  1.00  0.00    -0.354 N 
ATOM     55  N   UNL A   1      44.518  26.665  29.259  1.00  0.00    -0.248 NA
ATOM     56  C   UNL A   1      45.307  24.537  28.701  1.00  0.00     0.031 C 
ATOM     57  C   UNL A   1      47.009  29.849  31.110  1.00  0.00     0.029 A 
ATOM     58  C   UNL A   1      46.251  28.839  30.540  1.00  0.00     0.049 A 
ATOM     59  H   UNL A   1      44.226  28.871  29.947  1.00  0.00     0.167 HD
ATOM     60  C   UNL A   1      45.856  26.563  29.629  1.00  0.00     0.074 A 
ATOM     61  C   UNL A   1      46.280  25.221  29.289  1.00  0.00     0.031 C 
ATOM     62  C   UNL A   1      46.656  27.495  30.205  1.00  0.00     0.037 A 
BRANCH  49  63
ATOM     63  C   UNL A   1      43.890  32.941  31.221  1.00  0.00     0.058 A 
ATOM     64  C   UNL A   1      44.222  33.989  30.346  1.00  0.00     0.135 A 
ATOM     65  C   UNL A   1      43.651  33.266  32.566  1.00  0.00     0.135 A 
ATOM     66  F   UNL A   1      44.475  33.737  29.052  1.00  0.00    -0.206 F 
ATOM     67  C   UNL A   1      44.355  35.299  30.796  1.00  0.00     0.059 A 
ATOM     68  C   UNL A   1      43.744  34.575  33.030  1.00  0.00     0.059 A 
ATOM     69  F   UNL A   1      43.329  32.306  33.447  1.00  0.00    -0.206 F 
ATOM     70  C   UNL A   1      44.116  35.581  32.141  1.00  0.00     0.060 A 
BRANCH  70  71
ATOM     71  S   UNL A   1      44.300  37.285  32.709  1.00  0.00     0.124 S 
ATOM     72  O   UNL A   1      43.999  38.032  31.492  1.00  0.00    -0.237 OA
ATOM     73  O   UNL A   1      43.298  37.369  33.767  1.00  0.00    -0.237 OA
ATOM     74  O   UNL A   1      45.688  37.347  33.156  1.00  0.00    -0.744 OA
ENDBRANCH  70  71
ENDBRANCH  49  63
BRANCH  50  75
ATOM     75  C   UNL A   1      42.703  23.661  27.663  1.00  0.00     0.058 A 
ATOM     76  C   UNL A   1      42.851  23.413  26.291  1.00  0.00     0.135 A 
ATOM     77  C   UNL A   1      42.415  22.567  28.495  1.00  0.00     0.135 A 
ATOM     78  F   UNL A   1      43.121  24.426  25.452  1.00  0.00    -0.206 F 
ATOM     79  C   UNL A   1      42.707  22.136  25.758  1.00  0.00     0.059 A 
ATOM     80  C   UNL A   1      42.294  21.276  27.991  1.00  0.00     0.059 A 
ATOM     81  F   UNL A   1      42.281  22.746  29.819  1.00  0.00    -0.206 F 
ATOM     82  C   UNL A   1      42.433  21.072  26.619  1.00  0.00     0.060 A 
BRANCH  82  83
ATOM     83  S   UNL A   1      42.306  19.409  25.925  1.00  0.00     0.124 S 
ATOM     84  O   UNL A   1      40.863  19.264  25.770  1.00  0.00    -0.237 OA
ATOM     85  O   UNL A   1      43.072  19.534  24.691  1.00  0.00    -0.237 OA
ATOM     86  O   UNL A   1      42.918  18.570  26.951  1.00  0.00    -0.744 OA
ENDBRANCH  82  83
ENDBRANCH  50  75
BRANCH  62  87
ATOM     87  C   UNL A   1      48.060  27.081  30.556  1.00  0.00     0.058 A 
ATOM     88  C   UNL A   1      49.153  27.367  29.723  1.00  0.00     0.135 A 
ATOM     89  C   UNL A   1      48.318  26.424  31.770  1.00  0.00     0.135 A 
ATOM     90  F   UNL A   1      48.963  27.990  28.548  1.00  0.00    -0.206 F 
ATOM     91  C   UNL A   1      50.447  26.987  30.065  1.00  0.00     0.059 A 
ATOM     92  C   UNL A   1      49.607  26.065  32.149  1.00  0.00     0.059 A 
ATOM     93  F   UNL A   1      47.311  26.137  32.612  1.00  0.00    -0.206 F 
ATOM     94  C   UNL A   1      50.664  26.336  31.282  1.00  0.00     0.060 A 
BRANCH  94  95
ATOM     95  S   UNL A   1      52.349  25.865  31.724  1.00  0.00     0.124 S 
ATOM     96  O   UNL A   1      53.056  26.088  30.467  1.00  0.00    -0.237 OA
ATOM     97  O   UNL A   1      52.662  26.799  32.801  1.00  0.00    -0.237 OA
ATOM     98  O   UNL A   1      52.217  24.469  32.131  1.00  0.00    -0.744 OA
ENDBRANCH  94  95
ENDBRANCH  62  87
ENDBRANCH  36  37
ENDBRANCH  28  31
ENDBRANCH  26  27
ENDBRANCH  25  26
ENDBRANCH   1  25
TORSDOF 17
ENDMDL
