MODEL 1
REMARK VINA RESULT:     -12.6      0.000      0.000
REMARK SMILES O=C(NCCCNC(=O)c1ccc2c(=O)n(CCC[NH+]3CCOCC3)c(=O)[nH]c2c1)c1ccc(-c2c3nc(c(-c4c(F)cc(S(=O)(=O)[O-])cc4F)c4ccc([nH]4)c(-c4c(F)cc(S(=O)(=O)[O-])cc4F)c4nc(c(-c5c(F)cc(S(=O)(=O)[O-])cc5F)c5ccc2[nH]5)C=C4)C=C3)cc1
REMARK SMILES IDX 5 1 4 2 3 3 1 4 2 5 31 7 32 8 96 9 33 10 95 11 34 12 35 13
REMARK SMILES IDX 36 14 89 15 37 16 94 17 88 18 90 19 38 20 93 21 87 22 86 23
REMARK SMILES IDX 39 25 73 26 52 27 72 28 53 29 56 30 71 31 91 32 54 33 55 34
REMARK SMILES IDX 70 36 92 37 57 38 40 39 41 40 50 41 42 42 43 43 49 44 51 45
REMARK SMILES IDX 44 46 45 47 46 48 47 49 48 50 74 51 75 52 84 53 76 54 77 55
REMARK SMILES IDX 83 56 85 57 78 58 79 59 80 60 81 61 82 62 58 63 59 64 68 65
REMARK SMILES IDX 60 66 61 67 67 68 69 69 62 70 63 71 64 72 65 73 66 74 6 75
REMARK SMILES IDX 7 76 8 77 9 79 10 80 11 81 30 82 12 83 29 84 13 85 28 86
REMARK SMILES IDX 14 87 26 88 15 90 16 91 27 92 17 93 18 94 19 95 20 96 21 97
REMARK SMILES IDX 25 98 22 100 24 101 23 102
REMARK H PARENT 3 6 90 24 56 35 7 78 28 89 20 99
REMARK Flexibility Score: inf
ROOT
ATOM      1  C   UNL A   1      31.758  31.733  26.873  1.00  0.00     0.042 C 
ENDROOT
BRANCH   1   2
ATOM      2  C   UNL A   1      33.006  32.415  27.424  1.00  0.00     0.118 C 
BRANCH   2   3
ATOM      3  N   UNL A   1      32.787  33.820  27.721  1.00  0.00    -0.352 N 
ATOM      4  O   UNL A   1      32.805  35.730  28.885  1.00  0.00    -0.269 OA
ATOM      5  C   UNL A   1      33.293  34.615  28.717  1.00  0.00     0.251 C 
ATOM      6  H   UNL A   1      32.173  34.280  27.103  1.00  0.00     0.163 HD
BRANCH   5   7
ATOM      7  C   UNL A   1      34.403  34.155  29.583  1.00  0.00     0.039 A 
ATOM      8  C   UNL A   1      35.717  34.390  29.162  1.00  0.00     0.014 A 
ATOM      9  C   UNL A   1      34.173  33.426  30.752  1.00  0.00     0.014 A 
ATOM     10  C   UNL A   1      36.789  33.906  29.914  1.00  0.00     0.010 A 
ATOM     11  C   UNL A   1      35.239  33.024  31.551  1.00  0.00     0.010 A 
ATOM     12  C   UNL A   1      36.559  33.220  31.118  1.00  0.00    -0.014 A 
BRANCH  12  13
ATOM     13  C   UNL A   1      37.678  32.608  31.875  1.00  0.00     0.031 A 
ATOM     14  C   UNL A   1      38.395  31.412  31.304  1.00  0.00     0.074 A 
ATOM     15  C   UNL A   1      38.042  33.107  33.071  1.00  0.00     0.049 A 
ATOM     16  N   UNL A   1      39.375  30.713  31.815  1.00  0.00    -0.248 NA
ATOM     17  C   UNL A   1      37.925  30.915  30.000  1.00  0.00     0.031 C 
ATOM     18  C   UNL A   1      37.402  34.237  33.747  1.00  0.00     0.029 A 
ATOM     19  N   UNL A   1      39.045  32.731  33.929  1.00  0.00    -0.354 N 
ATOM     20  C   UNL A   1      39.620  29.687  30.910  1.00  0.00     0.074 A 
ATOM     21  C   UNL A   1      38.647  29.815  29.850  1.00  0.00     0.031 C 
ATOM     22  C   UNL A   1      38.053  34.487  34.894  1.00  0.00     0.029 A 
ATOM     23  C   UNL A   1      39.136  33.520  35.051  1.00  0.00     0.049 A 
ATOM     24  H   UNL A   1      39.641  31.967  33.758  1.00  0.00     0.167 HD
ATOM     25  C   UNL A   1      40.591  28.745  30.938  1.00  0.00     0.037 A 
ATOM     26  C   UNL A   1      40.003  33.474  36.082  1.00  0.00     0.037 A 
ATOM     27  C   UNL A   1      41.596  28.661  31.959  1.00  0.00     0.049 A 
ATOM     28  C   UNL A   1      41.082  32.428  36.091  1.00  0.00     0.074 A 
ATOM     29  C   UNL A   1      42.676  27.801  32.035  1.00  0.00     0.029 A 
ATOM     30  N   UNL A   1      41.648  29.474  33.083  1.00  0.00    -0.354 N 
ATOM     31  N   UNL A   1      41.337  31.503  35.196  1.00  0.00    -0.248 NA
ATOM     32  C   UNL A   1      41.988  32.412  37.248  1.00  0.00     0.031 C 
ATOM     33  C   UNL A   1      43.365  28.073  33.222  1.00  0.00     0.029 A 
ATOM     34  C   UNL A   1      42.728  29.120  33.871  1.00  0.00     0.049 A 
ATOM     35  H   UNL A   1      41.010  30.193  33.289  1.00  0.00     0.167 HD
ATOM     36  C   UNL A   1      42.436  30.801  35.676  1.00  0.00     0.074 A 
ATOM     37  C   UNL A   1      42.806  31.414  36.935  1.00  0.00     0.031 C 
ATOM     38  C   UNL A   1      43.077  29.742  35.125  1.00  0.00     0.037 A 
BRANCH  25  39
ATOM     39  C   UNL A   1      40.616  27.747  29.814  1.00  0.00     0.058 A 
ATOM     40  C   UNL A   1      41.614  27.778  28.827  1.00  0.00     0.135 A 
ATOM     41  C   UNL A   1      39.631  26.751  29.720  1.00  0.00     0.135 A 
ATOM     42  F   UNL A   1      42.569  28.721  28.862  1.00  0.00    -0.206 F 
ATOM     43  C   UNL A   1      41.610  26.887  27.760  1.00  0.00     0.059 A 
ATOM     44  C   UNL A   1      39.623  25.831  28.676  1.00  0.00     0.059 A 
ATOM     45  F   UNL A   1      38.656  26.676  30.638  1.00  0.00    -0.206 F 
ATOM     46  C   UNL A   1      40.605  25.921  27.689  1.00  0.00     0.060 A 
BRANCH  46  47
ATOM     47  S   UNL A   1      40.596  24.789  26.284  1.00  0.00     0.124 S 
ATOM     48  O   UNL A   1      40.794  25.710  25.169  1.00  0.00    -0.237 OA
ATOM     49  O   UNL A   1      41.721  23.907  26.584  1.00  0.00    -0.237 OA
ATOM     50  O   UNL A   1      39.279  24.165  26.357  1.00  0.00    -0.744 OA
ENDBRANCH  46  47
ENDBRANCH  25  39
BRANCH  26  51
ATOM     51  C   UNL A   1      39.902  34.489  37.162  1.00  0.00     0.058 A 
ATOM     52  C   UNL A   1      40.547  35.728  37.039  1.00  0.00     0.135 A 
ATOM     53  C   UNL A   1      39.107  34.272  38.297  1.00  0.00     0.135 A 
ATOM     54  F   UNL A   1      41.322  35.977  35.973  1.00  0.00    -0.206 F 
ATOM     55  C   UNL A   1      40.398  36.724  37.998  1.00  0.00     0.059 A 
ATOM     56  C   UNL A   1      38.930  35.259  39.263  1.00  0.00     0.059 A 
ATOM     57  F   UNL A   1      38.460  33.107  38.453  1.00  0.00    -0.206 F 
ATOM     58  C   UNL A   1      39.578  36.484  39.103  1.00  0.00     0.060 A 
BRANCH  58  59
ATOM     59  S   UNL A   1      39.315  37.821  40.289  1.00  0.00     0.124 S 
ATOM     60  O   UNL A   1      38.973  37.079  41.497  1.00  0.00    -0.237 OA
ATOM     61  O   UNL A   1      40.615  38.484  40.293  1.00  0.00    -0.237 OA
ATOM     62  O   UNL A   1      38.228  38.590  39.690  1.00  0.00    -0.744 OA
ENDBRANCH  58  59
ENDBRANCH  26  51
BRANCH  38  63
ATOM     63  C   UNL A   1      44.237  29.156  35.875  1.00  0.00     0.058 A 
ATOM     64  C   UNL A   1      44.072  28.034  36.698  1.00  0.00     0.135 A 
ATOM     65  C   UNL A   1      45.540  29.639  35.668  1.00  0.00     0.135 A 
ATOM     66  F   UNL A   1      42.845  27.541  36.931  1.00  0.00    -0.206 F 
ATOM     67  C   UNL A   1      45.161  27.399  37.284  1.00  0.00     0.059 A 
ATOM     68  C   UNL A   1      46.645  29.009  36.230  1.00  0.00     0.059 A 
ATOM     69  F   UNL A   1      45.748  30.706  34.881  1.00  0.00    -0.206 F 
ATOM     70  C   UNL A   1      46.445  27.887  37.034  1.00  0.00     0.060 A 
BRANCH  70  71
ATOM     71  S   UNL A   1      47.855  26.995  37.726  1.00  0.00     0.124 S 
ATOM     72  O   UNL A   1      47.717  27.286  39.149  1.00  0.00    -0.237 OA
ATOM     73  O   UNL A   1      47.577  25.618  37.329  1.00  0.00    -0.237 OA
ATOM     74  O   UNL A   1      49.003  27.612  37.067  1.00  0.00    -0.744 OA
ENDBRANCH  70  71
ENDBRANCH  38  63
ENDBRANCH  12  13
ENDBRANCH   5   7
ENDBRANCH   2   3
ENDBRANCH   1   2
BRANCH   1  75
ATOM     75  C   UNL A   1      32.036  30.443  26.110  1.00  0.00     0.118 C 
BRANCH  75  76
ATOM     76  N   UNL A   1      31.168  30.298  24.950  1.00  0.00    -0.352 N 
ATOM     77  C   UNL A   1      31.051  29.237  24.096  1.00  0.00     0.251 C 
ATOM     78  H   UNL A   1      30.587  31.069  24.753  1.00  0.00     0.163 HD
ATOM     79  O   UNL A   1      30.446  29.338  23.029  1.00  0.00    -0.269 OA
BRANCH  77  80
ATOM     80  C   UNL A   1      31.654  27.948  24.461  1.00  0.00     0.041 A 
ATOM     81  C   UNL A   1      32.864  27.561  23.870  1.00  0.00     0.015 A 
ATOM     82  C   UNL A   1      31.014  27.139  25.409  1.00  0.00     0.040 A 
ATOM     83  C   UNL A   1      33.431  26.339  24.212  1.00  0.00     0.017 A 
ATOM     84  C   UNL A   1      31.570  25.901  25.712  1.00  0.00     0.056 A 
ATOM     85  C   UNL A   1      32.776  25.520  25.136  1.00  0.00     0.064 A 
ATOM     86  N   UNL A   1      30.926  25.017  26.573  1.00  0.00    -0.307 N 
ATOM     87  C   UNL A   1      33.350  24.234  25.537  1.00  0.00     0.264 A 
ATOM     88  C   UNL A   1      31.327  23.721  26.771  1.00  0.00     0.328 A 
ATOM     89  H   UNL A   1      30.138  25.341  27.067  1.00  0.00     0.171 HD
ATOM     90  O   UNL A   1      34.553  24.056  25.367  1.00  0.00    -0.268 OA
ATOM     91  N   UNL A   1      32.481  23.318  26.110  1.00  0.00    -0.260 N 
ATOM     92  O   UNL A   1      30.671  23.004  27.524  1.00  0.00    -0.248 OA
BRANCH  91  93
ATOM     93  C   UNL A   1      32.927  21.931  26.243  1.00  0.00     0.137 C 
BRANCH  93  94
ATOM     94  C   UNL A   1      32.745  21.077  24.973  1.00  0.00     0.083 C 
BRANCH  94  95
ATOM     95  C   UNL A   1      33.366  19.666  24.909  1.00  0.00     0.264 C 
BRANCH  95  96
ATOM     96  N   UNL A   1      32.619  18.468  24.513  1.00  0.00    -0.331 N 
ATOM     97  C   UNL A   1      32.543  17.417  25.540  1.00  0.00     0.291 C 
ATOM     98  C   UNL A   1      32.877  17.850  23.210  1.00  0.00     0.291 C 
ATOM     99  H   UNL A   1      31.713  18.924  24.404  1.00  0.00     0.348 HD
ATOM    100  C   UNL A   1      33.752  16.472  25.517  1.00  0.00     0.221 C 
ATOM    101  C   UNL A   1      34.061  16.868  23.209  1.00  0.00     0.221 C 
ATOM    102  O   UNL A   1      33.919  15.866  24.227  1.00  0.00    -0.370 OA
ENDBRANCH  95  96
ENDBRANCH  94  95
ENDBRANCH  93  94
ENDBRANCH  91  93
ENDBRANCH  77  80
ENDBRANCH  75  76
ENDBRANCH   1  75
TORSDOF 17
ENDMDL
MODEL 2
REMARK VINA RESULT:     -12.6      6.241      8.339
REMARK SMILES O=C(NCCCNC(=O)c1ccc2c(=O)n(CCC[NH+]3CCOCC3)c(=O)[nH]c2c1)c1ccc(-c2c3nc(c(-c4c(F)cc(S(=O)(=O)[O-])cc4F)c4ccc([nH]4)c(-c4c(F)cc(S(=O)(=O)[O-])cc4F)c4nc(c(-c5c(F)cc(S(=O)(=O)[O-])cc5F)c5ccc2[nH]5)C=C4)C=C3)cc1
REMARK SMILES IDX 5 1 4 2 3 3 1 4 2 5 31 7 32 8 96 9 33 10 95 11 34 12 35 13
REMARK SMILES IDX 36 14 89 15 37 16 94 17 88 18 90 19 38 20 93 21 87 22 86 23
REMARK SMILES IDX 39 25 73 26 52 27 72 28 53 29 56 30 71 31 91 32 54 33 55 34
REMARK SMILES IDX 70 36 92 37 57 38 40 39 41 40 50 41 42 42 43 43 49 44 51 45
REMARK SMILES IDX 44 46 45 47 46 48 47 49 48 50 74 51 75 52 84 53 76 54 77 55
REMARK SMILES IDX 83 56 85 57 78 58 79 59 80 60 81 61 82 62 58 63 59 64 68 65
REMARK SMILES IDX 60 66 61 67 67 68 69 69 62 70 63 71 64 72 65 73 66 74 6 75
REMARK SMILES IDX 7 76 8 77 9 79 10 80 11 81 30 82 12 83 29 84 13 85 28 86
REMARK SMILES IDX 14 87 26 88 15 90 16 91 27 92 17 93 18 94 19 95 20 96 21 97
REMARK SMILES IDX 25 98 22 100 24 101 23 102
REMARK H PARENT 3 6 90 24 56 35 7 78 28 89 20 99
REMARK Flexibility Score: inf
ROOT
ATOM      1  C   UNL A   1      34.012  30.328  26.796  1.00  0.00     0.042 C 
ENDROOT
BRANCH   1   2
ATOM      2  C   UNL A   1      35.050  29.622  27.662  1.00  0.00     0.118 C 
BRANCH   2   3
ATOM      3  N   UNL A   1      35.186  30.230  28.975  1.00  0.00    -0.352 N 
ATOM      4  O   UNL A   1      36.057  30.665  30.989  1.00  0.00    -0.269 OA
ATOM      5  C   UNL A   1      36.245  30.258  29.845  1.00  0.00     0.251 C 
ATOM      6  H   UNL A   1      34.382  30.703  29.294  1.00  0.00     0.163 HD
BRANCH   5   7
ATOM      7  C   UNL A   1      37.594  29.807  29.432  1.00  0.00     0.039 A 
ATOM      8  C   UNL A   1      38.463  29.318  30.414  1.00  0.00     0.014 A 
ATOM      9  C   UNL A   1      38.044  29.938  28.116  1.00  0.00     0.014 A 
ATOM     10  C   UNL A   1      39.768  28.955  30.075  1.00  0.00     0.010 A 
ATOM     11  C   UNL A   1      39.313  29.489  27.759  1.00  0.00     0.010 A 
ATOM     12  C   UNL A   1      40.203  29.035  28.743  1.00  0.00    -0.014 A 
BRANCH  12  13
ATOM     13  C   UNL A   1      41.614  28.753  28.382  1.00  0.00     0.031 A 
ATOM     14  C   UNL A   1      42.008  27.362  27.958  1.00  0.00     0.074 A 
ATOM     15  C   UNL A   1      42.540  29.728  28.447  1.00  0.00     0.049 A 
ATOM     16  N   UNL A   1      43.187  26.899  27.631  1.00  0.00    -0.248 NA
ATOM     17  C   UNL A   1      40.942  26.347  27.930  1.00  0.00     0.031 C 
ATOM     18  C   UNL A   1      42.291  31.104  28.878  1.00  0.00     0.029 A 
ATOM     19  N   UNL A   1      43.879  29.712  28.144  1.00  0.00    -0.354 N 
ATOM     20  C   UNL A   1      43.007  25.544  27.383  1.00  0.00     0.074 A 
ATOM     21  C   UNL A   1      41.620  25.244  27.659  1.00  0.00     0.031 C 
ATOM     22  C   UNL A   1      43.429  31.810  28.773  1.00  0.00     0.029 A 
ATOM     23  C   UNL A   1      44.494  30.932  28.296  1.00  0.00     0.049 A 
ATOM     24  H   UNL A   1      44.353  28.903  27.846  1.00  0.00     0.167 HD
ATOM     25  C   UNL A   1      43.904  24.636  26.931  1.00  0.00     0.037 A 
ATOM     26  C   UNL A   1      45.770  31.301  28.066  1.00  0.00     0.037 A 
ATOM     27  C   UNL A   1      45.263  24.953  26.597  1.00  0.00     0.049 A 
ATOM     28  C   UNL A   1      46.750  30.283  27.553  1.00  0.00     0.074 A 
ATOM     29  C   UNL A   1      46.228  24.129  26.048  1.00  0.00     0.029 A 
ATOM     30  N   UNL A   1      45.849  26.198  26.775  1.00  0.00    -0.354 N 
ATOM     31  N   UNL A   1      46.546  29.019  27.267  1.00  0.00    -0.248 NA
ATOM     32  C   UNL A   1      48.130  30.735  27.338  1.00  0.00     0.031 C 
ATOM     33  C   UNL A   1      47.409  24.869  25.922  1.00  0.00     0.029 A 
ATOM     34  C   UNL A   1      47.171  26.159  26.368  1.00  0.00     0.049 A 
ATOM     35  H   UNL A   1      45.393  26.991  27.137  1.00  0.00     0.167 HD
ATOM     36  C   UNL A   1      47.770  28.526  26.830  1.00  0.00     0.074 A 
ATOM     37  C   UNL A   1      48.706  29.630  26.877  1.00  0.00     0.031 C 
ATOM     38  C   UNL A   1      48.088  27.271  26.428  1.00  0.00     0.037 A 
BRANCH  25  39
ATOM     39  C   UNL A   1      43.425  23.222  26.756  1.00  0.00     0.058 A 
ATOM     40  C   UNL A   1      43.153  22.398  27.859  1.00  0.00     0.135 A 
ATOM     41  C   UNL A   1      43.240  22.684  25.473  1.00  0.00     0.135 A 
ATOM     42  F   UNL A   1      43.331  22.859  29.108  1.00  0.00    -0.206 F 
ATOM     43  C   UNL A   1      42.758  21.075  27.698  1.00  0.00     0.059 A 
ATOM     44  C   UNL A   1      42.818  21.371  25.288  1.00  0.00     0.059 A 
ATOM     45  F   UNL A   1      43.484  23.430  24.385  1.00  0.00    -0.206 F 
ATOM     46  C   UNL A   1      42.601  20.568  26.407  1.00  0.00     0.060 A 
BRANCH  46  47
ATOM     47  S   UNL A   1      42.115  18.840  26.213  1.00  0.00     0.124 S 
ATOM     48  O   UNL A   1      42.345  18.323  27.559  1.00  0.00    -0.237 OA
ATOM     49  O   UNL A   1      40.716  18.951  25.808  1.00  0.00    -0.237 OA
ATOM     50  O   UNL A   1      43.024  18.344  25.186  1.00  0.00    -0.744 OA
ENDBRANCH  46  47
ENDBRANCH  25  39
BRANCH  26  51
ATOM     51  C   UNL A   1      46.166  32.716  28.278  1.00  0.00     0.058 A 
ATOM     52  C   UNL A   1      46.709  33.130  29.503  1.00  0.00     0.135 A 
ATOM     53  C   UNL A   1      46.077  33.662  27.246  1.00  0.00     0.135 A 
ATOM     54  F   UNL A   1      46.807  32.261  30.520  1.00  0.00    -0.206 F 
ATOM     55  C   UNL A   1      47.163  34.430  29.695  1.00  0.00     0.059 A 
ATOM     56  C   UNL A   1      46.540  34.965  27.408  1.00  0.00     0.059 A 
ATOM     57  F   UNL A   1      45.577  33.310  26.052  1.00  0.00    -0.206 F 
ATOM     58  C   UNL A   1      47.085  35.339  28.637  1.00  0.00     0.060 A 
BRANCH  58  59
ATOM     59  S   UNL A   1      47.769  36.994  28.869  1.00  0.00     0.124 S 
ATOM     60  O   UNL A   1      47.843  37.081  30.323  1.00  0.00    -0.237 OA
ATOM     61  O   UNL A   1      49.047  36.896  28.169  1.00  0.00    -0.237 OA
ATOM     62  O   UNL A   1      46.779  37.858  28.232  1.00  0.00    -0.744 OA
ENDBRANCH  58  59
ENDBRANCH  26  51
BRANCH  38  63
ATOM     63  C   UNL A   1      49.507  27.004  26.021  1.00  0.00     0.058 A 
ATOM     64  C   UNL A   1      50.460  26.580  26.959  1.00  0.00     0.135 A 
ATOM     65  C   UNL A   1      49.884  27.047  24.669  1.00  0.00     0.135 A 
ATOM     66  F   UNL A   1      50.148  26.531  28.264  1.00  0.00    -0.206 F 
ATOM     67  C   UNL A   1      51.737  26.195  26.569  1.00  0.00     0.059 A 
ATOM     68  C   UNL A   1      51.151  26.649  24.255  1.00  0.00     0.059 A 
ATOM     69  F   UNL A   1      49.003  27.437  23.734  1.00  0.00    -0.206 F 
ATOM     70  C   UNL A   1      52.070  26.221  25.213  1.00  0.00     0.060 A 
BRANCH  70  71
ATOM     71  S   UNL A   1      53.701  25.628  24.715  1.00  0.00     0.124 S 
ATOM     72  O   UNL A   1      53.536  24.183  24.827  1.00  0.00    -0.237 OA
ATOM     73  O   UNL A   1      53.820  26.151  23.356  1.00  0.00    -0.237 OA
ATOM     74  O   UNL A   1      54.597  26.236  25.695  1.00  0.00    -0.744 OA
ENDBRANCH  70  71
ENDBRANCH  38  63
ENDBRANCH  12  13
ENDBRANCH   5   7
ENDBRANCH   2   3
ENDBRANCH   1   2
BRANCH   1  75
ATOM     75  C   UNL A   1      32.572  30.114  27.247  1.00  0.00     0.118 C 
BRANCH  75  76
ATOM     76  N   UNL A   1      31.644  30.117  26.124  1.00  0.00    -0.352 N 
ATOM     77  C   UNL A   1      31.483  29.179  25.144  1.00  0.00     0.251 C 
ATOM     78  H   UNL A   1      31.052  30.902  26.063  1.00  0.00     0.163 HD
ATOM     79  O   UNL A   1      30.824  29.415  24.132  1.00  0.00    -0.269 OA
BRANCH  77  80
ATOM     80  C   UNL A   1      32.107  27.858  25.302  1.00  0.00     0.041 A 
ATOM     81  C   UNL A   1      33.338  27.597  24.683  1.00  0.00     0.015 A 
ATOM     82  C   UNL A   1      31.466  26.889  26.085  1.00  0.00     0.040 A 
ATOM     83  C   UNL A   1      33.924  26.346  24.829  1.00  0.00     0.017 A 
ATOM     84  C   UNL A   1      32.043  25.628  26.190  1.00  0.00     0.056 A 
ATOM     85  C   UNL A   1      33.268  25.372  25.586  1.00  0.00     0.064 A 
ATOM     86  N   UNL A   1      31.401  24.600  26.874  1.00  0.00    -0.307 N 
ATOM     87  C   UNL A   1      33.863  24.047  25.779  1.00  0.00     0.264 A 
ATOM     88  C   UNL A   1      31.826  23.297  26.862  1.00  0.00     0.328 A 
ATOM     89  H   UNL A   1      30.596  24.822  27.397  1.00  0.00     0.171 HD
ATOM     90  O   UNL A   1      35.072  23.922  25.611  1.00  0.00    -0.268 OA
ATOM     91  N   UNL A   1      33.002  23.032  26.170  1.00  0.00    -0.260 N 
ATOM     92  O   UNL A   1      31.171  22.452  27.468  1.00  0.00    -0.248 OA
BRANCH  91  93
ATOM     93  C   UNL A   1      33.475  21.651  26.079  1.00  0.00     0.137 C 
BRANCH  93  94
ATOM     94  C   UNL A   1      33.250  20.987  24.707  1.00  0.00     0.083 C 
BRANCH  94  95
ATOM     95  C   UNL A   1      32.828  19.504  24.638  1.00  0.00     0.264 C 
BRANCH  95  96
ATOM     96  N   UNL A   1      33.605  18.412  25.231  1.00  0.00    -0.331 N 
ATOM     97  C   UNL A   1      34.605  17.805  24.339  1.00  0.00     0.291 C 
ATOM     98  C   UNL A   1      32.917  17.352  25.973  1.00  0.00     0.291 C 
ATOM     99  H   UNL A   1      34.064  18.970  25.952  1.00  0.00     0.348 HD
ATOM    100  C   UNL A   1      34.022  16.694  23.457  1.00  0.00     0.221 C 
ATOM    101  C   UNL A   1      32.377  16.219  25.084  1.00  0.00     0.221 C 
ATOM    102  O   UNL A   1      33.404  15.667  24.248  1.00  0.00    -0.370 OA
ENDBRANCH  95  96
ENDBRANCH  94  95
ENDBRANCH  93  94
ENDBRANCH  91  93
ENDBRANCH  77  80
ENDBRANCH  75  76
ENDBRANCH   1  75
TORSDOF 17
ENDMDL
MODEL 3
REMARK VINA RESULT:     -12.5      2.631      9.131
REMARK SMILES O=C(NCCCNC(=O)c1ccc2c(=O)n(CCC[NH+]3CCOCC3)c(=O)[nH]c2c1)c1ccc(-c2c3nc(c(-c4c(F)cc(S(=O)(=O)[O-])cc4F)c4ccc([nH]4)c(-c4c(F)cc(S(=O)(=O)[O-])cc4F)c4nc(c(-c5c(F)cc(S(=O)(=O)[O-])cc5F)c5ccc2[nH]5)C=C4)C=C3)cc1
REMARK SMILES IDX 5 1 4 2 3 3 1 4 2 5 31 7 32 8 96 9 33 10 95 11 34 12 35 13
REMARK SMILES IDX 36 14 89 15 37 16 94 17 88 18 90 19 38 20 93 21 87 22 86 23
REMARK SMILES IDX 39 25 73 26 52 27 72 28 53 29 56 30 71 31 91 32 54 33 55 34
REMARK SMILES IDX 70 36 92 37 57 38 40 39 41 40 50 41 42 42 43 43 49 44 51 45
REMARK SMILES IDX 44 46 45 47 46 48 47 49 48 50 74 51 75 52 84 53 76 54 77 55
REMARK SMILES IDX 83 56 85 57 78 58 79 59 80 60 81 61 82 62 58 63 59 64 68 65
REMARK SMILES IDX 60 66 61 67 67 68 69 69 62 70 63 71 64 72 65 73 66 74 6 75
REMARK SMILES IDX 7 76 8 77 9 79 10 80 11 81 30 82 12 83 29 84 13 85 28 86
REMARK SMILES IDX 14 87 26 88 15 90 16 91 27 92 17 93 18 94 19 95 20 96 21 97
REMARK SMILES IDX 25 98 22 100 24 101 23 102
REMARK H PARENT 3 6 90 24 56 35 7 78 28 89 20 99
REMARK Flexibility Score: inf
ROOT
ATOM      1  C   UNL A   1      38.154  23.926  25.902  1.00  0.00     0.042 C 
ENDROOT
BRANCH   1   2
ATOM      2  C   UNL A   1      39.273  23.444  26.819  1.00  0.00     0.118 C 
BRANCH   2   3
ATOM      3  N   UNL A   1      40.593  23.781  26.312  1.00  0.00    -0.352 N 
ATOM      4  O   UNL A   1      42.373  25.039  25.811  1.00  0.00    -0.269 OA
ATOM      5  C   UNL A   1      41.373  24.891  26.509  1.00  0.00     0.251 C 
ATOM      6  H   UNL A   1      40.996  23.096  25.729  1.00  0.00     0.163 HD
BRANCH   5   7
ATOM      7  C   UNL A   1      41.031  25.903  27.535  1.00  0.00     0.039 A 
ATOM      8  C   UNL A   1      41.768  27.092  27.571  1.00  0.00     0.014 A 
ATOM      9  C   UNL A   1      40.059  25.664  28.510  1.00  0.00     0.014 A 
ATOM     10  C   UNL A   1      41.524  28.036  28.570  1.00  0.00     0.010 A 
ATOM     11  C   UNL A   1      39.751  26.644  29.449  1.00  0.00     0.010 A 
ATOM     12  C   UNL A   1      40.510  27.821  29.517  1.00  0.00    -0.014 A 
BRANCH  12  13
ATOM     13  C   UNL A   1      40.307  28.762  30.646  1.00  0.00     0.031 A 
ATOM     14  C   UNL A   1      41.178  28.651  31.870  1.00  0.00     0.074 A 
ATOM     15  C   UNL A   1      39.341  29.697  30.586  1.00  0.00     0.049 A 
ATOM     16  N   UNL A   1      41.147  29.352  32.974  1.00  0.00    -0.248 NA
ATOM     17  C   UNL A   1      42.200  27.591  31.867  1.00  0.00     0.031 C 
ATOM     18  C   UNL A   1      38.409  29.880  29.472  1.00  0.00     0.029 A 
ATOM     19  N   UNL A   1      38.987  30.675  31.481  1.00  0.00    -0.354 N 
ATOM     20  C   UNL A   1      42.122  28.804  33.798  1.00  0.00     0.074 A 
ATOM     21  C   UNL A   1      42.685  27.673  33.096  1.00  0.00     0.031 C 
ATOM     22  C   UNL A   1      37.616  30.932  29.732  1.00  0.00     0.029 A 
ATOM     23  C   UNL A   1      37.963  31.481  31.041  1.00  0.00     0.049 A 
ATOM     24  H   UNL A   1      39.424  30.789  32.355  1.00  0.00     0.167 HD
ATOM     25  C   UNL A   1      42.540  29.224  35.016  1.00  0.00     0.037 A 
ATOM     26  C   UNL A   1      37.379  32.547  31.623  1.00  0.00     0.037 A 
ATOM     27  C   UNL A   1      42.023  30.386  35.681  1.00  0.00     0.049 A 
ATOM     28  C   UNL A   1      37.863  33.007  32.970  1.00  0.00     0.074 A 
ATOM     29  C   UNL A   1      42.438  30.949  36.874  1.00  0.00     0.029 A 
ATOM     30  N   UNL A   1      40.980  31.168  35.206  1.00  0.00    -0.354 N 
ATOM     31  N   UNL A   1      38.828  32.512  33.708  1.00  0.00    -0.248 NA
ATOM     32  C   UNL A   1      37.180  34.162  33.566  1.00  0.00     0.031 C 
ATOM     33  C   UNL A   1      41.623  32.056  37.137  1.00  0.00     0.029 A 
ATOM     34  C   UNL A   1      40.721  32.197  36.094  1.00  0.00     0.049 A 
ATOM     35  H   UNL A   1      40.497  31.014  34.364  1.00  0.00     0.167 HD
ATOM     36  C   UNL A   1      38.874  33.300  34.852  1.00  0.00     0.074 A 
ATOM     37  C   UNL A   1      37.848  34.312  34.704  1.00  0.00     0.031 C 
ATOM     38  C   UNL A   1      39.690  33.192  35.929  1.00  0.00     0.037 A 
BRANCH  25  39
ATOM     39  C   UNL A   1      43.623  28.427  35.687  1.00  0.00     0.058 A 
ATOM     40  C   UNL A   1      44.981  28.665  35.421  1.00  0.00     0.135 A 
ATOM     41  C   UNL A   1      43.302  27.411  36.601  1.00  0.00     0.135 A 
ATOM     42  F   UNL A   1      45.341  29.614  34.542  1.00  0.00    -0.206 F 
ATOM     43  C   UNL A   1      45.982  27.896  36.004  1.00  0.00     0.059 A 
ATOM     44  C   UNL A   1      44.288  26.647  37.217  1.00  0.00     0.059 A 
ATOM     45  F   UNL A   1      42.019  27.143  36.891  1.00  0.00    -0.206 F 
ATOM     46  C   UNL A   1      45.624  26.883  36.895  1.00  0.00     0.060 A 
BRANCH  46  47
ATOM     47  S   UNL A   1      46.933  25.874  37.622  1.00  0.00     0.124 S 
ATOM     48  O   UNL A   1      47.883  25.795  36.517  1.00  0.00    -0.237 OA
ATOM     49  O   UNL A   1      47.355  26.681  38.763  1.00  0.00    -0.237 OA
ATOM     50  O   UNL A   1      46.254  24.627  37.957  1.00  0.00    -0.744 OA
ENDBRANCH  46  47
ENDBRANCH  25  39
BRANCH  26  51
ATOM     51  C   UNL A   1      36.305  33.272  30.899  1.00  0.00     0.058 A 
ATOM     52  C   UNL A   1      34.970  33.176  31.319  1.00  0.00     0.135 A 
ATOM     53  C   UNL A   1      36.595  34.127  29.825  1.00  0.00     0.135 A 
ATOM     54  F   UNL A   1      34.645  32.366  32.338  1.00  0.00    -0.206 F 
ATOM     55  C   UNL A   1      33.961  33.912  30.708  1.00  0.00     0.059 A 
ATOM     56  C   UNL A   1      35.604  34.886  29.208  1.00  0.00     0.059 A 
ATOM     57  F   UNL A   1      37.859  34.262  29.396  1.00  0.00    -0.206 F 
ATOM     58  C   UNL A   1      34.290  34.773  29.659  1.00  0.00     0.060 A 
BRANCH  58  59
ATOM     59  S   UNL A   1      32.985  35.796  28.941  1.00  0.00     0.124 S 
ATOM     60  O   UNL A   1      32.331  34.851  28.043  1.00  0.00    -0.237 OA
ATOM     61  O   UNL A   1      32.222  36.189  30.122  1.00  0.00    -0.237 OA
ATOM     62  O   UNL A   1      33.725  36.876  28.294  1.00  0.00    -0.744 OA
ENDBRANCH  58  59
ENDBRANCH  26  51
BRANCH  38  63
ATOM     63  C   UNL A   1      39.509  34.176  37.048  1.00  0.00     0.058 A 
ATOM     64  C   UNL A   1      38.761  33.844  38.186  1.00  0.00     0.135 A 
ATOM     65  C   UNL A   1      40.191  35.403  37.039  1.00  0.00     0.135 A 
ATOM     66  F   UNL A   1      38.085  32.685  38.237  1.00  0.00    -0.206 F 
ATOM     67  C   UNL A   1      38.704  34.691  39.287  1.00  0.00     0.059 A 
ATOM     68  C   UNL A   1      40.163  36.258  38.137  1.00  0.00     0.059 A 
ATOM     69  F   UNL A   1      40.927  35.759  35.975  1.00  0.00    -0.206 F 
ATOM     70  C   UNL A   1      39.419  35.890  39.258  1.00  0.00     0.060 A 
BRANCH  70  71
ATOM     71  S   UNL A   1      39.410  36.934  40.731  1.00  0.00     0.124 S 
ATOM     72  O   UNL A   1      38.728  36.077  41.696  1.00  0.00    -0.237 OA
ATOM     73  O   UNL A   1      40.835  37.149  40.969  1.00  0.00    -0.237 OA
ATOM     74  O   UNL A   1      38.666  38.116  40.305  1.00  0.00    -0.744 OA
ENDBRANCH  70  71
ENDBRANCH  38  63
ENDBRANCH  12  13
ENDBRANCH   5   7
ENDBRANCH   2   3
ENDBRANCH   1   2
BRANCH   1  75
ATOM     75  C   UNL A   1      36.765  23.449  26.309  1.00  0.00     0.118 C 
BRANCH  75  76
ATOM     76  N   UNL A   1      36.486  22.105  25.825  1.00  0.00    -0.352 N 
ATOM     77  C   UNL A   1      35.360  21.632  25.211  1.00  0.00     0.251 C 
ATOM     78  H   UNL A   1      37.206  21.446  25.958  1.00  0.00     0.163 HD
ATOM     79  O   UNL A   1      35.170  20.426  25.061  1.00  0.00    -0.269 OA
BRANCH  77  80
ATOM     80  C   UNL A   1      34.356  22.585  24.716  1.00  0.00     0.041 A 
ATOM     81  C   UNL A   1      34.499  23.132  23.433  1.00  0.00     0.015 A 
ATOM     82  C   UNL A   1      33.266  22.913  25.531  1.00  0.00     0.040 A 
ATOM     83  C   UNL A   1      33.553  24.037  22.967  1.00  0.00     0.017 A 
ATOM     84  C   UNL A   1      32.347  23.850  25.069  1.00  0.00     0.056 A 
ATOM     85  C   UNL A   1      32.481  24.385  23.794  1.00  0.00     0.064 A 
ATOM     86  N   UNL A   1      31.300  24.285  25.876  1.00  0.00    -0.307 N 
ATOM     87  C   UNL A   1      31.452  25.321  23.332  1.00  0.00     0.264 A 
ATOM     88  C   UNL A   1      30.473  25.329  25.551  1.00  0.00     0.328 A 
ATOM     89  H   UNL A   1      31.143  23.815  26.728  1.00  0.00     0.171 HD
ATOM     90  O   UNL A   1      31.322  25.492  22.124  1.00  0.00    -0.268 OA
ATOM     91  N   UNL A   1      30.679  25.925  24.312  1.00  0.00    -0.260 N 
ATOM     92  O   UNL A   1      29.597  25.664  26.346  1.00  0.00    -0.248 OA
BRANCH  91  93
ATOM     93  C   UNL A   1      29.861  27.078  23.935  1.00  0.00     0.137 C 
BRANCH  93  94
ATOM     94  C   UNL A   1      30.646  28.395  23.778  1.00  0.00     0.083 C 
BRANCH  94  95
ATOM     95  C   UNL A   1      30.086  29.513  22.874  1.00  0.00     0.264 C 
BRANCH  95  96
ATOM     96  N   UNL A   1      28.740  30.075  23.020  1.00  0.00    -0.331 N 
ATOM     97  C   UNL A   1      27.957  30.142  21.775  1.00  0.00     0.291 C 
ATOM     98  C   UNL A   1      28.550  31.317  23.774  1.00  0.00     0.291 C 
ATOM     99  H   UNL A   1      28.372  29.346  23.632  1.00  0.00     0.348 HD
ATOM    100  C   UNL A   1      28.227  31.418  20.968  1.00  0.00     0.221 C 
ATOM    101  C   UNL A   1      28.777  32.591  22.943  1.00  0.00     0.221 C 
ATOM    102  O   UNL A   1      27.978  32.595  21.751  1.00  0.00    -0.370 OA
ENDBRANCH  95  96
ENDBRANCH  94  95
ENDBRANCH  93  94
ENDBRANCH  91  93
ENDBRANCH  77  80
ENDBRANCH  75  76
ENDBRANCH   1  75
TORSDOF 17
ENDMDL
