MODEL 1
REMARK VINA RESULT:     -12.0      0.000      0.000
REMARK SMILES O=C(C[C@H]1C[C@H]2CC[C@@H](C1)[N@H+]2C[C@@H]1CNC(=O)O1)NCCCNC(=O)c1ccc(-c2c3nc(c(-c4c(F)cc(S(=O)(=O)[O-])cc4F)c4ccc([nH]4)c(-c4c(F)cc(S(=O)(=O)[O-])cc4F)c4nc(c(-c5c(F)cc(S(=O)(=O)[O-])cc5F)c5ccc2[nH]5)C=C4)C=C3)cc1
REMARK SMILES IDX 21 1 20 2 19 3 1 4 2 5 3 7 4 8 5 9 10 10 6 11 9 12 7 13
REMARK SMILES IDX 11 14 8 15 12 17 13 18 14 19 18 20 15 21 16 22 17 24 22 25
REMARK SMILES IDX 23 26 24 27 25 29 26 30 27 31 91 32 28 33 90 34 29 35 30 36
REMARK SMILES IDX 31 37 84 38 32 39 89 40 83 41 85 42 33 43 88 44 82 45 81 46
REMARK SMILES IDX 34 48 68 49 47 50 67 51 48 52 51 53 66 54 86 55 49 56 50 57
REMARK SMILES IDX 65 59 87 60 52 61 35 62 36 63 45 64 37 65 38 66 44 67 46 68
REMARK SMILES IDX 39 69 40 70 41 71 42 72 43 73 69 74 70 75 79 76 71 77 72 78
REMARK SMILES IDX 78 79 80 80 73 81 74 82 75 83 76 84 77 85 53 86 54 87 63 88
REMARK SMILES IDX 55 89 56 90 62 91 64 92 57 93 58 94 59 95 60 96 61 97
REMARK H PARENT 19 6 11 16 15 23 23 28 85 47 51 58
REMARK Flexibility Score: inf
ROOT
ATOM      1  C   UNL A   1      40.402  22.183  27.550  1.00  0.00     0.042 C 
ENDROOT
BRANCH   1   2
ATOM      2  C   UNL A   1      39.851  22.077  26.134  1.00  0.00     0.117 C 
BRANCH   2   3
ATOM      3  N   UNL A   1      38.411  22.227  26.130  1.00  0.00    -0.356 N 
ATOM      4  O   UNL A   1      37.935  20.581  24.605  1.00  0.00    -0.275 OA
ATOM      5  C   UNL A   1      37.562  21.406  25.430  1.00  0.00     0.220 C 
ATOM      6  H   UNL A   1      38.018  22.958  26.659  1.00  0.00     0.163 HD
BRANCH   5   7
ATOM      7  C   UNL A   1      36.108  21.549  25.854  1.00  0.00     0.104 C 
BRANCH   7   8
ATOM      8  C   UNL A   1      35.563  22.906  25.361  1.00  0.00     0.010 C 
ATOM      9  C   UNL A   1      35.322  22.928  23.827  1.00  0.00     0.069 C 
ATOM     10  C   UNL A   1      34.388  23.423  26.224  1.00  0.00     0.069 C 
ATOM     11  C   UNL A   1      33.883  23.143  23.375  1.00  0.00     0.184 C 
ATOM     12  C   UNL A   1      33.061  23.591  25.486  1.00  0.00     0.184 C 
ATOM     13  C   UNL A   1      33.042  21.908  23.734  1.00  0.00     0.071 C 
ATOM     14  N   UNL A   1      33.233  24.160  24.163  1.00  0.00    -0.327 N 
ATOM     15  C   UNL A   1      32.505  22.200  25.135  1.00  0.00     0.071 C 
ATOM     16  H   UNL A   1      32.323  24.406  23.772  1.00  0.00     0.348 HD
BRANCH  14  17
ATOM     17  C   UNL A   1      33.398  25.581  23.910  1.00  0.00     0.310 C 
BRANCH  17  18
ATOM     18  C   UNL A   1      32.966  26.430  22.682  1.00  0.00     0.252 C 
ATOM     19  C   UNL A   1      31.497  26.564  22.337  1.00  0.00     0.170 C 
ATOM     20  O   UNL A   1      33.617  26.046  21.462  1.00  0.00    -0.438 OA
ATOM     21  N   UNL A   1      31.422  26.002  21.035  1.00  0.00    -0.318 N 
ATOM     22  C   UNL A   1      32.666  25.793  20.515  1.00  0.00     0.407 C 
ATOM     23  H   UNL A   1      30.582  25.791  20.568  1.00  0.00     0.167 HD
ATOM     24  O   UNL A   1      32.901  25.422  19.381  1.00  0.00    -0.225 OA
ENDBRANCH  17  18
ENDBRANCH  14  17
ENDBRANCH   7   8
ENDBRANCH   5   7
ENDBRANCH   2   3
ENDBRANCH   1   2
BRANCH   1  25
ATOM     25  C   UNL A   1      41.639  23.071  27.677  1.00  0.00     0.118 C 
BRANCH  25  26
ATOM     26  N   UNL A   1      42.002  23.738  26.438  1.00  0.00    -0.352 N 
ATOM     27  C   UNL A   1      41.994  25.081  26.138  1.00  0.00     0.251 C 
ATOM     28  H   UNL A   1      42.297  23.144  25.710  1.00  0.00     0.163 HD
ATOM     29  O   UNL A   1      42.210  25.446  24.986  1.00  0.00    -0.269 OA
BRANCH  27  30
ATOM     30  C   UNL A   1      41.694  26.083  27.190  1.00  0.00     0.039 A 
ATOM     31  C   UNL A   1      40.588  25.877  28.018  1.00  0.00     0.014 A 
ATOM     32  C   UNL A   1      42.493  27.216  27.365  1.00  0.00     0.014 A 
ATOM     33  C   UNL A   1      40.328  26.766  29.065  1.00  0.00     0.010 A 
ATOM     34  C   UNL A   1      42.278  28.058  28.458  1.00  0.00     0.010 A 
ATOM     35  C   UNL A   1      41.195  27.842  29.323  1.00  0.00    -0.014 A 
BRANCH  35  36
ATOM     36  C   UNL A   1      40.989  28.733  30.499  1.00  0.00     0.031 A 
ATOM     37  C   UNL A   1      41.823  28.567  31.742  1.00  0.00     0.074 A 
ATOM     38  C   UNL A   1      40.010  29.662  30.469  1.00  0.00     0.049 A 
ATOM     39  N   UNL A   1      41.750  29.213  32.877  1.00  0.00    -0.248 NA
ATOM     40  C   UNL A   1      42.858  27.523  31.714  1.00  0.00     0.031 C 
ATOM     41  C   UNL A   1      39.102  29.896  29.344  1.00  0.00     0.029 A 
ATOM     42  N   UNL A   1      39.607  30.575  31.412  1.00  0.00    -0.354 N 
ATOM     43  C   UNL A   1      42.721  28.652  33.700  1.00  0.00     0.074 A 
ATOM     44  C   UNL A   1      43.331  27.574  32.951  1.00  0.00     0.031 C 
ATOM     45  C   UNL A   1      38.268  30.902  29.651  1.00  0.00     0.029 A 
ATOM     46  C   UNL A   1      38.548  31.356  31.011  1.00  0.00     0.049 A 
ATOM     47  H   UNL A   1      40.036  30.663  32.294  1.00  0.00     0.167 HD
ATOM     48  C   UNL A   1      43.087  29.014  34.953  1.00  0.00     0.037 A 
ATOM     49  C   UNL A   1      37.868  32.320  31.664  1.00  0.00     0.037 A 
ATOM     50  C   UNL A   1      42.486  30.098  35.689  1.00  0.00     0.049 A 
ATOM     51  C   UNL A   1      38.278  32.689  33.064  1.00  0.00     0.074 A 
ATOM     52  C   UNL A   1      42.824  30.574  36.945  1.00  0.00     0.029 A 
ATOM     53  N   UNL A   1      41.420  30.867  35.245  1.00  0.00    -0.354 N 
ATOM     54  N   UNL A   1      39.242  32.190  33.800  1.00  0.00    -0.248 NA
ATOM     55  C   UNL A   1      37.513  33.758  33.721  1.00  0.00     0.031 C 
ATOM     56  C   UNL A   1      41.926  31.592  37.284  1.00  0.00     0.029 A 
ATOM     57  C   UNL A   1      41.070  31.796  36.214  1.00  0.00     0.049 A 
ATOM     58  H   UNL A   1      40.978  30.770  34.372  1.00  0.00     0.167 HD
ATOM     59  C   UNL A   1      39.220  32.906  34.993  1.00  0.00     0.074 A 
ATOM     60  C   UNL A   1      38.154  33.879  34.875  1.00  0.00     0.031 C 
ATOM     61  C   UNL A   1      40.012  32.767  36.086  1.00  0.00     0.037 A 
BRANCH  48  62
ATOM     62  C   UNL A   1      44.191  28.232  35.616  1.00  0.00     0.058 A 
ATOM     63  C   UNL A   1      45.539  28.599  35.484  1.00  0.00     0.135 A 
ATOM     64  C   UNL A   1      43.893  27.127  36.429  1.00  0.00     0.135 A 
ATOM     65  F   UNL A   1      45.886  29.638  34.709  1.00  0.00    -0.206 F 
ATOM     66  C   UNL A   1      46.555  27.881  36.108  1.00  0.00     0.059 A 
ATOM     67  C   UNL A   1      44.889  26.414  37.091  1.00  0.00     0.059 A 
ATOM     68  F   UNL A   1      42.621  26.730  36.594  1.00  0.00    -0.206 F 
ATOM     69  C   UNL A   1      46.219  26.790  36.912  1.00  0.00     0.060 A 
BRANCH  69  70
ATOM     70  S   UNL A   1      47.549  25.873  37.716  1.00  0.00     0.124 S 
ATOM     71  O   UNL A   1      47.143  24.493  37.467  1.00  0.00    -0.237 OA
ATOM     72  O   UNL A   1      48.727  26.329  36.984  1.00  0.00    -0.237 OA
ATOM     73  O   UNL A   1      47.471  26.307  39.108  1.00  0.00    -0.744 OA
ENDBRANCH  69  70
ENDBRANCH  48  62
BRANCH  49  74
ATOM     74  C   UNL A   1      36.734  33.016  30.994  1.00  0.00     0.058 A 
ATOM     75  C   UNL A   1      35.409  32.800  31.402  1.00  0.00     0.135 A 
ATOM     76  C   UNL A   1      36.952  33.913  29.937  1.00  0.00     0.135 A 
ATOM     77  F   UNL A   1      35.147  31.946  32.403  1.00  0.00    -0.206 F 
ATOM     78  C   UNL A   1      34.340  33.433  30.775  1.00  0.00     0.059 A 
ATOM     79  C   UNL A   1      35.902  34.581  29.313  1.00  0.00     0.059 A 
ATOM     80  F   UNL A   1      38.201  34.167  29.515  1.00  0.00    -0.206 F 
ATOM     81  C   UNL A   1      34.597  34.325  29.734  1.00  0.00     0.060 A 
BRANCH  81  82
ATOM     82  S   UNL A   1      33.205  35.176  28.959  1.00  0.00     0.124 S 
ATOM     83  O   UNL A   1      32.344  35.434  30.106  1.00  0.00    -0.237 OA
ATOM     84  O   UNL A   1      33.853  36.344  28.369  1.00  0.00    -0.237 OA
ATOM     85  O   UNL A   1      32.705  34.196  28.000  1.00  0.00    -0.744 OA
ENDBRANCH  81  82
ENDBRANCH  49  74
BRANCH  61  86
ATOM     86  C   UNL A   1      39.789  33.719  37.233  1.00  0.00     0.058 A 
ATOM     87  C   UNL A   1      40.444  34.958  37.307  1.00  0.00     0.135 A 
ATOM     88  C   UNL A   1      38.867  33.405  38.245  1.00  0.00     0.135 A 
ATOM     89  F   UNL A   1      41.342  35.307  36.371  1.00  0.00    -0.206 F 
ATOM     90  C   UNL A   1      40.214  35.840  38.359  1.00  0.00     0.059 A 
ATOM     91  C   UNL A   1      38.596  34.287  39.287  1.00  0.00     0.059 A 
ATOM     92  F   UNL A   1      38.205  32.237  38.219  1.00  0.00    -0.206 F 
ATOM     93  C   UNL A   1      39.284  35.497  39.342  1.00  0.00     0.060 A 
BRANCH  93  94
ATOM     94  S   UNL A   1      38.969  36.667  40.680  1.00  0.00     0.124 S 
ATOM     95  O   UNL A   1      40.282  36.753  41.311  1.00  0.00    -0.237 OA
ATOM     96  O   UNL A   1      38.533  37.858  39.956  1.00  0.00    -0.237 OA
ATOM     97  O   UNL A   1      37.934  36.009  41.472  1.00  0.00    -0.744 OA
ENDBRANCH  93  94
ENDBRANCH  61  86
ENDBRANCH  35  36
ENDBRANCH  27  30
ENDBRANCH  25  26
ENDBRANCH   1  25
TORSDOF 16
ENDMDL
MODEL 2
REMARK VINA RESULT:     -11.9      4.789     10.464
REMARK SMILES O=C(C[C@H]1C[C@H]2CC[C@@H](C1)[N@H+]2C[C@@H]1CNC(=O)O1)NCCCNC(=O)c1ccc(-c2c3nc(c(-c4c(F)cc(S(=O)(=O)[O-])cc4F)c4ccc([nH]4)c(-c4c(F)cc(S(=O)(=O)[O-])cc4F)c4nc(c(-c5c(F)cc(S(=O)(=O)[O-])cc5F)c5ccc2[nH]5)C=C4)C=C3)cc1
REMARK SMILES IDX 21 1 20 2 19 3 1 4 2 5 3 7 4 8 5 9 10 10 6 11 9 12 7 13
REMARK SMILES IDX 11 14 8 15 12 17 13 18 14 19 18 20 15 21 16 22 17 24 22 25
REMARK SMILES IDX 23 26 24 27 25 29 26 30 27 31 91 32 28 33 90 34 29 35 30 36
REMARK SMILES IDX 31 37 84 38 32 39 89 40 83 41 85 42 33 43 88 44 82 45 81 46
REMARK SMILES IDX 34 48 68 49 47 50 67 51 48 52 51 53 66 54 86 55 49 56 50 57
REMARK SMILES IDX 65 59 87 60 52 61 35 62 36 63 45 64 37 65 38 66 44 67 46 68
REMARK SMILES IDX 39 69 40 70 41 71 42 72 43 73 69 74 70 75 79 76 71 77 72 78
REMARK SMILES IDX 78 79 80 80 73 81 74 82 75 83 76 84 77 85 53 86 54 87 63 88
REMARK SMILES IDX 55 89 56 90 62 91 64 92 57 93 58 94 59 95 60 96 61 97
REMARK H PARENT 19 6 11 16 15 23 23 28 85 47 51 58
REMARK Flexibility Score: inf
ROOT
ATOM      1  C   UNL A   1      32.087  27.838  27.021  1.00  0.00     0.042 C 
ENDROOT
BRANCH   1   2
ATOM      2  C   UNL A   1      31.823  27.499  25.560  1.00  0.00     0.117 C 
BRANCH   2   3
ATOM      3  N   UNL A   1      32.795  26.547  25.069  1.00  0.00    -0.356 N 
ATOM      4  O   UNL A   1      31.434  25.456  23.581  1.00  0.00    -0.275 OA
ATOM      5  C   UNL A   1      32.545  25.658  24.054  1.00  0.00     0.220 C 
ATOM      6  H   UNL A   1      33.687  26.537  25.486  1.00  0.00     0.163 HD
BRANCH   5   7
ATOM      7  C   UNL A   1      33.808  25.015  23.498  1.00  0.00     0.104 C 
BRANCH   7   8
ATOM      8  C   UNL A   1      33.803  23.508  23.831  1.00  0.00     0.010 C 
ATOM      9  C   UNL A   1      34.961  22.742  23.136  1.00  0.00     0.069 C 
ATOM     10  C   UNL A   1      33.642  23.236  25.346  1.00  0.00     0.069 C 
ATOM     11  C   UNL A   1      35.978  22.080  24.057  1.00  0.00     0.184 C 
ATOM     12  C   UNL A   1      34.811  22.506  26.004  1.00  0.00     0.184 C 
ATOM     13  C   UNL A   1      36.801  23.163  24.775  1.00  0.00     0.071 C 
ATOM     14  N   UNL A   1      35.333  21.436  25.174  1.00  0.00    -0.327 N 
ATOM     15  C   UNL A   1      36.024  23.451  26.059  1.00  0.00     0.071 C 
ATOM     16  H   UNL A   1      35.995  20.875  25.711  1.00  0.00     0.348 HD
BRANCH  14  17
ATOM     17  C   UNL A   1      34.734  20.116  25.086  1.00  0.00     0.310 C 
BRANCH  17  18
ATOM     18  C   UNL A   1      33.277  19.706  24.737  1.00  0.00     0.252 C 
ATOM     19  C   UNL A   1      32.655  18.492  25.398  1.00  0.00     0.170 C 
ATOM     20  O   UNL A   1      33.050  19.538  23.329  1.00  0.00    -0.438 OA
ATOM     21  N   UNL A   1      32.366  17.642  24.298  1.00  0.00    -0.318 N 
ATOM     22  C   UNL A   1      32.517  18.300  23.112  1.00  0.00     0.407 C 
ATOM     23  H   UNL A   1      32.092  16.701  24.380  1.00  0.00     0.167 HD
ATOM     24  O   UNL A   1      32.238  17.850  22.018  1.00  0.00    -0.225 OA
ENDBRANCH  17  18
ENDBRANCH  14  17
ENDBRANCH   7   8
ENDBRANCH   5   7
ENDBRANCH   2   3
ENDBRANCH   1   2
BRANCH   1  25
ATOM     25  C   UNL A   1      33.453  28.473  27.282  1.00  0.00     0.118 C 
BRANCH  25  26
ATOM     26  N   UNL A   1      33.382  29.891  27.593  1.00  0.00    -0.352 N 
ATOM     27  C   UNL A   1      34.341  30.710  28.144  1.00  0.00     0.251 C 
ATOM     28  H   UNL A   1      32.526  30.328  27.377  1.00  0.00     0.163 HD
ATOM     29  O   UNL A   1      34.048  31.861  28.457  1.00  0.00    -0.269 OA
BRANCH  27  30
ATOM     30  C   UNL A   1      35.711  30.199  28.392  1.00  0.00     0.039 A 
ATOM     31  C   UNL A   1      36.639  30.229  27.349  1.00  0.00     0.014 A 
ATOM     32  C   UNL A   1      36.085  29.697  29.642  1.00  0.00     0.014 A 
ATOM     33  C   UNL A   1      37.957  29.824  27.579  1.00  0.00     0.010 A 
ATOM     34  C   UNL A   1      37.419  29.368  29.890  1.00  0.00     0.010 A 
ATOM     35  C   UNL A   1      38.372  29.430  28.862  1.00  0.00    -0.014 A 
BRANCH  35  36
ATOM     36  C   UNL A   1      39.797  29.100  29.144  1.00  0.00     0.031 A 
ATOM     37  C   UNL A   1      40.722  30.132  29.733  1.00  0.00     0.074 A 
ATOM     38  C   UNL A   1      40.276  27.881  28.819  1.00  0.00     0.049 A 
ATOM     39  N   UNL A   1      42.000  30.042  29.996  1.00  0.00    -0.248 NA
ATOM     40  C   UNL A   1      40.139  31.447  30.044  1.00  0.00     0.031 C 
ATOM     41  C   UNL A   1      39.497  26.804  28.203  1.00  0.00     0.029 A 
ATOM     42  N   UNL A   1      41.533  27.343  28.952  1.00  0.00    -0.354 N 
ATOM     43  C   UNL A   1      42.377  31.284  30.496  1.00  0.00     0.074 A 
ATOM     44  C   UNL A   1      41.203  32.129  30.445  1.00  0.00     0.031 C 
ATOM     45  C   UNL A   1      40.285  25.730  28.035  1.00  0.00     0.029 A 
ATOM     46  C   UNL A   1      41.636  26.052  28.487  1.00  0.00     0.049 A 
ATOM     47  H   UNL A   1      42.291  27.835  29.343  1.00  0.00     0.167 HD
ATOM     48  C   UNL A   1      43.582  31.679  30.973  1.00  0.00     0.037 A 
ATOM     49  C   UNL A   1      42.696  25.223  28.420  1.00  0.00     0.037 A 
ATOM     50  C   UNL A   1      44.744  30.829  31.035  1.00  0.00     0.049 A 
ATOM     51  C   UNL A   1      44.030  25.692  28.936  1.00  0.00     0.074 A 
ATOM     52  C   UNL A   1      45.996  31.123  31.551  1.00  0.00     0.029 A 
ATOM     53  N   UNL A   1      44.806  29.528  30.560  1.00  0.00    -0.354 N 
ATOM     54  N   UNL A   1      44.350  26.848  29.465  1.00  0.00    -0.248 NA
ATOM     55  C   UNL A   1      45.148  24.740  28.852  1.00  0.00     0.031 C 
ATOM     56  C   UNL A   1      46.829  30.020  31.334  1.00  0.00     0.029 A 
ATOM     57  C   UNL A   1      46.081  29.014  30.744  1.00  0.00     0.049 A 
ATOM     58  H   UNL A   1      44.055  29.039  30.152  1.00  0.00     0.167 HD
ATOM     59  C   UNL A   1      45.695  26.752  29.806  1.00  0.00     0.074 A 
ATOM     60  C   UNL A   1      46.125  25.421  29.434  1.00  0.00     0.031 C 
ATOM     61  C   UNL A   1      46.499  27.684  30.377  1.00  0.00     0.037 A 
BRANCH  48  62
ATOM     62  C   UNL A   1      43.710  33.095  31.470  1.00  0.00     0.058 A 
ATOM     63  C   UNL A   1      44.075  34.148  30.617  1.00  0.00     0.135 A 
ATOM     64  C   UNL A   1      43.420  33.411  32.807  1.00  0.00     0.135 A 
ATOM     65  F   UNL A   1      44.378  33.905  29.332  1.00  0.00    -0.206 F 
ATOM     66  C   UNL A   1      44.179  35.457  31.076  1.00  0.00     0.059 A 
ATOM     67  C   UNL A   1      43.484  34.719  33.282  1.00  0.00     0.059 A 
ATOM     68  F   UNL A   1      43.063  32.446  33.669  1.00  0.00    -0.206 F 
ATOM     69  C   UNL A   1      43.880  35.733  32.412  1.00  0.00     0.060 A 
BRANCH  69  70
ATOM     70  S   UNL A   1      44.017  37.437  32.990  1.00  0.00     0.124 S 
ATOM     71  O   UNL A   1      45.338  37.428  33.611  1.00  0.00    -0.237 OA
ATOM     72  O   UNL A   1      43.906  38.196  31.748  1.00  0.00    -0.237 OA
ATOM     73  O   UNL A   1      42.893  37.577  33.911  1.00  0.00    -0.744 OA
ENDBRANCH  69  70
ENDBRANCH  48  62
BRANCH  49  74
ATOM     74  C   UNL A   1      42.538  23.855  27.851  1.00  0.00     0.058 A 
ATOM     75  C   UNL A   1      42.466  23.650  26.465  1.00  0.00     0.135 A 
ATOM     76  C   UNL A   1      42.459  22.726  28.682  1.00  0.00     0.135 A 
ATOM     77  F   UNL A   1      42.529  24.697  25.629  1.00  0.00    -0.206 F 
ATOM     78  C   UNL A   1      42.305  22.379  25.923  1.00  0.00     0.059 A 
ATOM     79  C   UNL A   1      42.327  21.441  28.163  1.00  0.00     0.059 A 
ATOM     80  F   UNL A   1      42.537  22.863  30.015  1.00  0.00    -0.206 F 
ATOM     81  C   UNL A   1      42.240  21.279  26.780  1.00  0.00     0.060 A 
BRANCH  81  82
ATOM     82  S   UNL A   1      42.076  19.631  26.063  1.00  0.00     0.124 S 
ATOM     83  O   UNL A   1      42.977  19.717  24.920  1.00  0.00    -0.237 OA
ATOM     84  O   UNL A   1      42.516  18.775  27.162  1.00  0.00    -0.237 OA
ATOM     85  O   UNL A   1      40.655  19.544  25.742  1.00  0.00    -0.744 OA
ENDBRANCH  81  82
ENDBRANCH  49  74
BRANCH  61  86
ATOM     86  C   UNL A   1      47.921  27.287  30.679  1.00  0.00     0.058 A 
ATOM     87  C   UNL A   1      48.267  26.595  31.850  1.00  0.00     0.135 A 
ATOM     88  C   UNL A   1      48.943  27.559  29.754  1.00  0.00     0.135 A 
ATOM     89  F   UNL A   1      47.331  26.315  32.772  1.00  0.00    -0.206 F 
ATOM     90  C   UNL A   1      49.580  26.212  32.107  1.00  0.00     0.059 A 
ATOM     91  C   UNL A   1      50.257  27.155  29.975  1.00  0.00     0.059 A 
ATOM     92  F   UNL A   1      48.668  28.209  28.612  1.00  0.00    -0.206 F 
ATOM     93  C   UNL A   1      50.567  26.493  31.162  1.00  0.00     0.060 A 
BRANCH  93  94
ATOM     94  S   UNL A   1      52.260  25.958  31.493  1.00  0.00     0.124 S 
ATOM     95  O   UNL A   1      52.864  26.060  30.169  1.00  0.00    -0.237 OA
ATOM     96  O   UNL A   1      52.710  26.941  32.474  1.00  0.00    -0.237 OA
ATOM     97  O   UNL A   1      52.095  24.601  32.005  1.00  0.00    -0.744 OA
ENDBRANCH  93  94
ENDBRANCH  61  86
ENDBRANCH  35  36
ENDBRANCH  27  30
ENDBRANCH  25  26
ENDBRANCH   1  25
TORSDOF 16
ENDMDL
MODEL 3
REMARK VINA RESULT:     -11.9      1.847      8.728
REMARK SMILES O=C(C[C@H]1C[C@H]2CC[C@@H](C1)[N@H+]2C[C@@H]1CNC(=O)O1)NCCCNC(=O)c1ccc(-c2c3nc(c(-c4c(F)cc(S(=O)(=O)[O-])cc4F)c4ccc([nH]4)c(-c4c(F)cc(S(=O)(=O)[O-])cc4F)c4nc(c(-c5c(F)cc(S(=O)(=O)[O-])cc5F)c5ccc2[nH]5)C=C4)C=C3)cc1
REMARK SMILES IDX 21 1 20 2 19 3 1 4 2 5 3 7 4 8 5 9 10 10 6 11 9 12 7 13
REMARK SMILES IDX 11 14 8 15 12 17 13 18 14 19 18 20 15 21 16 22 17 24 22 25
REMARK SMILES IDX 23 26 24 27 25 29 26 30 27 31 91 32 28 33 90 34 29 35 30 36
REMARK SMILES IDX 31 37 84 38 32 39 89 40 83 41 85 42 33 43 88 44 82 45 81 46
REMARK SMILES IDX 34 48 68 49 47 50 67 51 48 52 51 53 66 54 86 55 49 56 50 57
REMARK SMILES IDX 65 59 87 60 52 61 35 62 36 63 45 64 37 65 38 66 44 67 46 68
REMARK SMILES IDX 39 69 40 70 41 71 42 72 43 73 69 74 70 75 79 76 71 77 72 78
REMARK SMILES IDX 78 79 80 80 73 81 74 82 75 83 76 84 77 85 53 86 54 87 63 88
REMARK SMILES IDX 55 89 56 90 62 91 64 92 57 93 58 94 59 95 60 96 61 97
REMARK H PARENT 19 6 11 16 15 23 23 28 85 47 51 58
REMARK Flexibility Score: inf
ROOT
ATOM      1  C   UNL A   1      39.803  21.785  26.789  1.00  0.00     0.042 C 
ENDROOT
BRANCH   1   2
ATOM      2  C   UNL A   1      38.807  21.817  25.638  1.00  0.00     0.117 C 
BRANCH   2   3
ATOM      3  N   UNL A   1      37.468  22.077  26.123  1.00  0.00    -0.356 N 
ATOM      4  O   UNL A   1      37.424  24.332  25.710  1.00  0.00    -0.275 OA
ATOM      5  C   UNL A   1      36.852  23.301  26.039  1.00  0.00     0.220 C 
ATOM      6  H   UNL A   1      36.971  21.335  26.537  1.00  0.00     0.163 HD
BRANCH   5   7
ATOM      7  C   UNL A   1      35.354  23.234  26.298  1.00  0.00     0.104 C 
BRANCH   7   8
ATOM      8  C   UNL A   1      34.790  21.929  25.697  1.00  0.00     0.010 C 
ATOM      9  C   UNL A   1      33.547  21.407  26.468  1.00  0.00     0.069 C 
ATOM     10  C   UNL A   1      34.634  22.003  24.159  1.00  0.00     0.069 C 
ATOM     11  C   UNL A   1      32.246  21.338  25.678  1.00  0.00     0.184 C 
ATOM     12  C   UNL A   1      33.205  21.851  23.641  1.00  0.00     0.184 C 
ATOM     13  C   UNL A   1      31.758  22.761  25.367  1.00  0.00     0.071 C 
ATOM     14  N   UNL A   1      32.466  20.823  24.349  1.00  0.00    -0.327 N 
ATOM     15  C   UNL A   1      32.399  23.105  24.023  1.00  0.00     0.071 C 
ATOM     16  H   UNL A   1      31.583  20.642  23.872  1.00  0.00     0.348 HD
BRANCH  14  17
ATOM     17  C   UNL A   1      32.577  19.404  24.060  1.00  0.00     0.310 C 
BRANCH  17  18
ATOM     18  C   UNL A   1      33.365  18.294  24.810  1.00  0.00     0.252 C 
ATOM     19  C   UNL A   1      34.313  17.394  24.045  1.00  0.00     0.170 C 
ATOM     20  O   UNL A   1      32.529  17.415  25.577  1.00  0.00    -0.438 OA
ATOM     21  N   UNL A   1      33.762  16.101  24.252  1.00  0.00    -0.318 N 
ATOM     22  C   UNL A   1      32.790  16.126  25.209  1.00  0.00     0.407 C 
ATOM     23  H   UNL A   1      34.044  15.292  23.768  1.00  0.00     0.167 HD
ATOM     24  O   UNL A   1      32.223  15.150  25.661  1.00  0.00    -0.225 OA
ENDBRANCH  17  18
ENDBRANCH  14  17
ENDBRANCH   7   8
ENDBRANCH   5   7
ENDBRANCH   2   3
ENDBRANCH   1   2
BRANCH   1  25
ATOM     25  C   UNL A   1      40.281  23.163  27.244  1.00  0.00     0.118 C 
BRANCH  25  26
ATOM     26  N   UNL A   1      40.677  24.030  26.147  1.00  0.00    -0.352 N 
ATOM     27  C   UNL A   1      40.897  25.389  26.147  1.00  0.00     0.251 C 
ATOM     28  H   UNL A   1      40.808  23.581  25.280  1.00  0.00     0.163 HD
ATOM     29  O   UNL A   1      41.098  25.970  25.084  1.00  0.00    -0.269 OA
BRANCH  27  30
ATOM     30  C   UNL A   1      40.857  26.155  27.416  1.00  0.00     0.039 A 
ATOM     31  C   UNL A   1      41.856  27.100  27.661  1.00  0.00     0.014 A 
ATOM     32  C   UNL A   1      39.845  25.951  28.358  1.00  0.00     0.014 A 
ATOM     33  C   UNL A   1      41.798  27.889  28.814  1.00  0.00     0.010 A 
ATOM     34  C   UNL A   1      39.746  26.792  29.467  1.00  0.00     0.010 A 
ATOM     35  C   UNL A   1      40.720  27.773  29.708  1.00  0.00    -0.014 A 
BRANCH  35  36
ATOM     36  C   UNL A   1      40.592  28.680  30.883  1.00  0.00     0.031 A 
ATOM     37  C   UNL A   1      39.577  29.793  30.886  1.00  0.00     0.074 A 
ATOM     38  C   UNL A   1      41.430  28.537  31.931  1.00  0.00     0.049 A 
ATOM     39  N   UNL A   1      39.358  30.709  31.793  1.00  0.00    -0.248 NA
ATOM     40  C   UNL A   1      38.710  29.905  29.703  1.00  0.00     0.031 C 
ATOM     41  C   UNL A   1      42.487  27.528  32.036  1.00  0.00     0.029 A 
ATOM     42  N   UNL A   1      41.532  29.244  33.104  1.00  0.00    -0.354 N 
ATOM     43  C   UNL A   1      38.337  31.509  31.292  1.00  0.00     0.074 A 
ATOM     44  C   UNL A   1      38.019  31.003  29.973  1.00  0.00     0.031 C 
ATOM     45  C   UNL A   1      43.112  27.665  33.216  1.00  0.00     0.029 A 
ATOM     46  C   UNL A   1      42.535  28.798  33.935  1.00  0.00     0.049 A 
ATOM     47  H   UNL A   1      40.944  30.000  33.331  1.00  0.00     0.167 HD
ATOM     48  C   UNL A   1      37.707  32.554  31.882  1.00  0.00     0.037 A 
ATOM     49  C   UNL A   1      42.953  29.253  35.133  1.00  0.00     0.037 A 
ATOM     50  C   UNL A   1      38.018  33.045  33.200  1.00  0.00     0.049 A 
ATOM     51  C   UNL A   1      42.252  30.430  35.758  1.00  0.00     0.074 A 
ATOM     52  C   UNL A   1      37.400  34.065  33.904  1.00  0.00     0.029 A 
ATOM     53  N   UNL A   1      39.036  32.563  34.010  1.00  0.00    -0.354 N 
ATOM     54  N   UNL A   1      41.245  31.132  35.295  1.00  0.00    -0.248 NA
ATOM     55  C   UNL A   1      42.740  30.873  37.072  1.00  0.00     0.031 C 
ATOM     56  C   UNL A   1      38.081  34.237  35.114  1.00  0.00     0.029 A 
ATOM     57  C   UNL A   1      39.081  33.282  35.195  1.00  0.00     0.049 A 
ATOM     58  H   UNL A   1      39.637  31.819  33.779  1.00  0.00     0.167 HD
ATOM     59  C   UNL A   1      40.959  32.077  36.275  1.00  0.00     0.074 A 
ATOM     60  C   UNL A   1      41.891  31.850  37.359  1.00  0.00     0.031 C 
ATOM     61  C   UNL A   1      40.008  33.045  36.274  1.00  0.00     0.037 A 
BRANCH  48  62
ATOM     62  C   UNL A   1      36.614  33.243  31.106  1.00  0.00     0.058 A 
ATOM     63  C   UNL A   1      36.892  34.046  29.989  1.00  0.00     0.135 A 
ATOM     64  C   UNL A   1      35.267  33.060  31.458  1.00  0.00     0.135 A 
ATOM     65  F   UNL A   1      38.162  34.268  29.614  1.00  0.00    -0.206 F 
ATOM     66  C   UNL A   1      35.879  34.669  29.268  1.00  0.00     0.059 A 
ATOM     67  C   UNL A   1      34.234  33.646  30.731  1.00  0.00     0.059 A 
ATOM     68  F   UNL A   1      34.940  32.301  32.516  1.00  0.00    -0.206 F 
ATOM     69  C   UNL A   1      34.551  34.461  29.646  1.00  0.00     0.060 A 
BRANCH  69  70
ATOM     70  S   UNL A   1      33.249  35.275  28.698  1.00  0.00     0.124 S 
ATOM     71  O   UNL A   1      34.024  36.193  27.868  1.00  0.00    -0.237 OA
ATOM     72  O   UNL A   1      32.631  34.155  27.995  1.00  0.00    -0.237 OA
ATOM     73  O   UNL A   1      32.422  35.904  29.723  1.00  0.00    -0.744 OA
ENDBRANCH  69  70
ENDBRANCH  48  62
BRANCH  49  74
ATOM     74  C   UNL A   1      44.088  28.585  35.828  1.00  0.00     0.058 A 
ATOM     75  C   UNL A   1      43.867  27.536  36.733  1.00  0.00     0.135 A 
ATOM     76  C   UNL A   1      45.416  28.980  35.600  1.00  0.00     0.135 A 
ATOM     77  F   UNL A   1      42.616  27.127  36.992  1.00  0.00    -0.206 F 
ATOM     78  C   UNL A   1      44.918  26.913  37.399  1.00  0.00     0.059 A 
ATOM     79  C   UNL A   1      46.486  28.353  36.232  1.00  0.00     0.059 A 
ATOM     80  F   UNL A   1      45.686  29.969  34.733  1.00  0.00    -0.206 F 
ATOM     81  C   UNL A   1      46.226  27.327  37.139  1.00  0.00     0.060 A 
BRANCH  81  82
ATOM     82  S   UNL A   1      47.584  26.480  37.975  1.00  0.00     0.124 S 
ATOM     83  O   UNL A   1      47.622  27.179  39.254  1.00  0.00    -0.237 OA
ATOM     84  O   UNL A   1      47.106  25.101  38.014  1.00  0.00    -0.237 OA
ATOM     85  O   UNL A   1      48.721  26.717  37.091  1.00  0.00    -0.744 OA
ENDBRANCH  81  82
ENDBRANCH  49  74
BRANCH  61  86
ATOM     86  C   UNL A   1      39.893  33.910  37.501  1.00  0.00     0.058 A 
ATOM     87  C   UNL A   1      40.566  35.137  37.610  1.00  0.00     0.135 A 
ATOM     88  C   UNL A   1      39.055  33.528  38.562  1.00  0.00     0.135 A 
ATOM     89  F   UNL A   1      41.385  35.550  36.630  1.00  0.00    -0.206 F 
ATOM     90  C   UNL A   1      40.433  35.941  38.739  1.00  0.00     0.059 A 
ATOM     91  C   UNL A   1      38.882  34.331  39.685  1.00  0.00     0.059 A 
ATOM     92  F   UNL A   1      38.379  32.368  38.506  1.00  0.00    -0.206 F 
ATOM     93  C   UNL A   1      39.585  35.531  39.769  1.00  0.00     0.060 A 
BRANCH  93  94
ATOM     94  S   UNL A   1      39.396  36.601  41.212  1.00  0.00     0.124 S 
ATOM     95  O   UNL A   1      40.766  36.670  41.708  1.00  0.00    -0.237 OA
ATOM     96  O   UNL A   1      38.872  37.828  40.621  1.00  0.00    -0.237 OA
ATOM     97  O   UNL A   1      38.458  35.869  42.059  1.00  0.00    -0.744 OA
ENDBRANCH  93  94
ENDBRANCH  61  86
ENDBRANCH  35  36
ENDBRANCH  27  30
ENDBRANCH  25  26
ENDBRANCH   1  25
TORSDOF 16
ENDMDL
