MODEL 1
REMARK VINA RESULT:     -13.1      0.000      0.000
REMARK SMILES CC1(C)CCN(c2nc3c(cc2C(=O)NCCCNC(=O)c2ccc(-c4c5nc(c(-c6c(F)cc(S(=O)(=O)[O-])cc6F)c6ccc([nH]6)c(-c6c(F)cc(S(=O)(=O)[O-])cc6F)c6nc(c(-c7c(F)cc(S(=O)(=O)[O-])cc7F)c7ccc4[nH]7)C=C6)C=C5)cc2)CCC3)C1
REMARK SMILES IDX 18 1 17 2 16 3 15 4 13 5 14 6 12 8 7 9 8 10 9 11 11 12 10 13
REMARK SMILES IDX 90 14 88 15 89 16 6 17 1 18 2 19 3 20 4 21 91 22 5 23 19 24
REMARK SMILES IDX 20 25 21 27 22 28 23 29 87 30 24 31 86 32 25 33 26 34 27 35
REMARK SMILES IDX 80 36 28 37 85 38 79 39 81 40 29 41 84 42 78 43 77 44 30 46
REMARK SMILES IDX 64 47 43 48 63 49 44 50 47 51 62 52 82 53 45 54 46 55 61 57
REMARK SMILES IDX 83 58 48 59 31 60 32 61 41 62 33 63 34 64 40 65 42 66 35 67
REMARK SMILES IDX 36 68 37 69 38 70 39 71 65 72 66 73 75 74 67 75 68 76 74 77
REMARK SMILES IDX 76 78 69 79 70 80 71 81 72 82 73 83 49 84 50 85 59 86 51 87
REMARK SMILES IDX 52 88 58 89 60 90 53 91 54 92 55 93 56 94 57 95
REMARK H PARENT 15 7 19 26 81 45 47 56
REMARK Flexibility Score: inf
ROOT
ATOM      1  C   UNL A   1      39.611  23.088  26.893  1.00  0.00     0.118 C 
ENDROOT
BRANCH   1   2
ATOM      2  C   UNL A   1      38.274  23.365  26.212  1.00  0.00     0.042 C 
BRANCH   2   3
ATOM      3  C   UNL A   1      37.610  22.137  25.604  1.00  0.00     0.118 C 
BRANCH   3   4
ATOM      4  N   UNL A   1      37.282  22.241  24.198  1.00  0.00    -0.352 N 
ATOM      5  C   UNL A   1      36.202  22.840  23.594  1.00  0.00     0.255 C 
ATOM      6  O   UNL A   1      36.230  22.927  22.363  1.00  0.00    -0.269 OA
ATOM      7  H   UNL A   1      37.926  21.820  23.584  1.00  0.00     0.163 HD
BRANCH   5   8
ATOM      8  C   UNL A   1      34.971  23.280  24.304  1.00  0.00     0.082 A 
ATOM      9  C   UNL A   1      33.820  22.511  24.588  1.00  0.00     0.141 A 
ATOM     10  N   UNL A   1      32.751  23.046  25.244  1.00  0.00    -0.235 NA
ATOM     11  C   UNL A   1      32.841  24.324  25.635  1.00  0.00     0.046 A 
ATOM     12  C   UNL A   1      35.019  24.619  24.750  1.00  0.00     0.023 A 
ATOM     13  C   UNL A   1      33.934  25.139  25.418  1.00  0.00    -0.025 A 
ATOM     14  C   UNL A   1      31.791  25.034  26.439  1.00  0.00     0.057 C 
ATOM     15  C   UNL A   1      33.742  26.484  26.031  1.00  0.00     0.038 C 
ATOM     16  C   UNL A   1      32.221  26.496  26.255  1.00  0.00     0.011 C 
BRANCH   9  17
ATOM     17  N   UNL A   1      33.688  21.184  24.255  1.00  0.00    -0.355 N 
ATOM     18  C   UNL A   1      32.697  18.320  25.769  1.00  0.00     0.013 C 
ATOM     19  C   UNL A   1      33.607  18.837  24.646  1.00  0.00    -0.016 C 
ATOM     20  C   UNL A   1      34.618  17.751  24.270  1.00  0.00     0.013 C 
ATOM     21  C   UNL A   1      32.748  19.243  23.430  1.00  0.00     0.030 C 
ATOM     22  C   UNL A   1      34.327  20.153  25.064  1.00  0.00     0.124 C 
ATOM     23  C   UNL A   1      32.433  20.711  23.693  1.00  0.00     0.119 C 
ENDBRANCH   9  17
ENDBRANCH   5   8
ENDBRANCH   3   4
ENDBRANCH   2   3
ENDBRANCH   1   2
BRANCH   1  24
ATOM     24  N   UNL A   1      40.785  23.536  26.153  1.00  0.00    -0.352 N 
ATOM     25  C   UNL A   1      41.563  24.666  26.229  1.00  0.00     0.251 C 
ATOM     26  H   UNL A   1      41.078  22.903  25.458  1.00  0.00     0.163 HD
ATOM     27  O   UNL A   1      42.471  24.819  25.412  1.00  0.00    -0.269 OA
BRANCH  25  28
ATOM     28  C   UNL A   1      41.304  25.729  27.226  1.00  0.00     0.039 A 
ATOM     29  C   UNL A   1      40.338  25.499  28.214  1.00  0.00     0.014 A 
ATOM     30  C   UNL A   1      41.967  26.953  27.191  1.00  0.00     0.014 A 
ATOM     31  C   UNL A   1      40.118  26.449  29.215  1.00  0.00     0.010 A 
ATOM     32  C   UNL A   1      41.822  27.855  28.241  1.00  0.00     0.010 A 
ATOM     33  C   UNL A   1      40.902  27.611  29.270  1.00  0.00    -0.014 A 
BRANCH  33  34
ATOM     34  C   UNL A   1      40.796  28.582  30.391  1.00  0.00     0.031 A 
ATOM     35  C   UNL A   1      41.708  28.465  31.584  1.00  0.00     0.074 A 
ATOM     36  C   UNL A   1      39.813  29.505  30.380  1.00  0.00     0.049 A 
ATOM     37  N   UNL A   1      41.674  29.118  32.716  1.00  0.00    -0.248 NA
ATOM     38  C   UNL A   1      42.775  27.453  31.507  1.00  0.00     0.031 C 
ATOM     39  C   UNL A   1      38.831  29.685  29.307  1.00  0.00     0.029 A 
ATOM     40  N   UNL A   1      39.468  30.460  31.303  1.00  0.00    -0.354 N 
ATOM     41  C   UNL A   1      42.693  28.580  33.494  1.00  0.00     0.074 A 
ATOM     42  C   UNL A   1      43.292  27.511  32.726  1.00  0.00     0.031 C 
ATOM     43  C   UNL A   1      38.017  30.707  29.619  1.00  0.00     0.029 A 
ATOM     44  C   UNL A   1      38.391  31.230  30.929  1.00  0.00     0.049 A 
ATOM     45  H   UNL A   1      39.946  30.582  32.156  1.00  0.00     0.167 HD
ATOM     46  C   UNL A   1      43.112  28.962  34.724  1.00  0.00     0.037 A 
ATOM     47  C   UNL A   1      37.771  32.240  31.570  1.00  0.00     0.037 A 
ATOM     48  C   UNL A   1      42.547  30.060  35.460  1.00  0.00     0.049 A 
ATOM     49  C   UNL A   1      38.270  32.666  32.921  1.00  0.00     0.074 A 
ATOM     50  C   UNL A   1      42.933  30.562  36.691  1.00  0.00     0.029 A 
ATOM     51  N   UNL A   1      41.484  30.840  35.025  1.00  0.00    -0.354 N 
ATOM     52  N   UNL A   1      39.256  32.166  33.627  1.00  0.00    -0.248 NA
ATOM     53  C   UNL A   1      37.578  33.790  33.566  1.00  0.00     0.031 C 
ATOM     54  C   UNL A   1      42.091  31.632  37.009  1.00  0.00     0.029 A 
ATOM     55  C   UNL A   1      41.202  31.818  35.962  1.00  0.00     0.049 A 
ATOM     56  H   UNL A   1      41.003  30.715  34.175  1.00  0.00     0.167 HD
ATOM     57  C   UNL A   1      39.321  32.931  34.784  1.00  0.00     0.074 A 
ATOM     58  C   UNL A   1      38.277  33.930  34.685  1.00  0.00     0.031 C 
ATOM     59  C   UNL A   1      40.171  32.817  35.834  1.00  0.00     0.037 A 
BRANCH  46  60
ATOM     60  C   UNL A   1      44.257  28.205  35.336  1.00  0.00     0.058 A 
ATOM     61  C   UNL A   1      45.588  28.595  35.120  1.00  0.00     0.135 A 
ATOM     62  C   UNL A   1      44.027  27.100  36.171  1.00  0.00     0.135 A 
ATOM     63  F   UNL A   1      45.865  29.636  34.318  1.00  0.00    -0.206 F 
ATOM     64  C   UNL A   1      46.652  27.900  35.684  1.00  0.00     0.059 A 
ATOM     65  C   UNL A   1      45.075  26.404  36.767  1.00  0.00     0.059 A 
ATOM     66  F   UNL A   1      42.774  26.683  36.413  1.00  0.00    -0.206 F 
ATOM     67  C   UNL A   1      46.385  26.803  36.505  1.00  0.00     0.060 A 
BRANCH  67  68
ATOM     68  S   UNL A   1      47.779  25.912  37.228  1.00  0.00     0.124 S 
ATOM     69  O   UNL A   1      48.859  26.882  37.064  1.00  0.00    -0.237 OA
ATOM     70  O   UNL A   1      47.331  25.688  38.598  1.00  0.00    -0.237 OA
ATOM     71  O   UNL A   1      47.882  24.713  36.401  1.00  0.00    -0.744 OA
ENDBRANCH  67  68
ENDBRANCH  46  60
BRANCH  47  72
ATOM     72  C   UNL A   1      36.645  32.951  30.910  1.00  0.00     0.058 A 
ATOM     73  C   UNL A   1      35.328  32.760  31.354  1.00  0.00     0.135 A 
ATOM     74  C   UNL A   1      36.857  33.856  29.861  1.00  0.00     0.135 A 
ATOM     75  F   UNL A   1      35.075  31.901  32.353  1.00  0.00    -0.206 F 
ATOM     76  C   UNL A   1      34.259  33.436  30.775  1.00  0.00     0.059 A 
ATOM     77  C   UNL A   1      35.806  34.559  29.278  1.00  0.00     0.059 A 
ATOM     78  F   UNL A   1      38.101  34.088  29.413  1.00  0.00    -0.206 F 
ATOM     79  C   UNL A   1      34.509  34.337  29.739  1.00  0.00     0.060 A 
BRANCH  79  80
ATOM     80  S   UNL A   1      33.118  35.253  29.039  1.00  0.00     0.124 S 
ATOM     81  O   UNL A   1      32.300  35.495  30.222  1.00  0.00    -0.237 OA
ATOM     82  O   UNL A   1      33.778  36.422  28.468  1.00  0.00    -0.237 OA
ATOM     83  O   UNL A   1      32.559  34.320  28.064  1.00  0.00    -0.744 OA
ENDBRANCH  79  80
ENDBRANCH  47  72
BRANCH  59  84
ATOM     84  C   UNL A   1      40.041  33.811  36.950  1.00  0.00     0.058 A 
ATOM     85  C   UNL A   1      40.662  35.066  36.887  1.00  0.00     0.135 A 
ATOM     86  C   UNL A   1      39.197  33.545  38.040  1.00  0.00     0.135 A 
ATOM     87  F   UNL A   1      41.484  35.363  35.868  1.00  0.00    -0.206 F 
ATOM     88  C   UNL A   1      40.447  36.030  37.866  1.00  0.00     0.059 A 
ATOM     89  C   UNL A   1      38.952  34.500  39.021  1.00  0.00     0.059 A 
ATOM     90  F   UNL A   1      38.575  32.359  38.140  1.00  0.00    -0.206 F 
ATOM     91  C   UNL A   1      39.581  35.741  38.924  1.00  0.00     0.060 A 
BRANCH  91  92
ATOM     92  S   UNL A   1      39.246  37.030  40.142  1.00  0.00     0.124 S 
ATOM     93  O   UNL A   1      38.413  36.317  41.104  1.00  0.00    -0.237 OA
ATOM     94  O   UNL A   1      40.587  37.380  40.602  1.00  0.00    -0.237 OA
ATOM     95  O   UNL A   1      38.567  38.063  39.367  1.00  0.00    -0.744 OA
ENDBRANCH  91  92
ENDBRANCH  59  84
ENDBRANCH  33  34
ENDBRANCH  25  28
ENDBRANCH   1  24
TORSDOF 14
ENDMDL
MODEL 2
REMARK VINA RESULT:     -13.1      5.003     10.361
REMARK SMILES CC1(C)CCN(c2nc3c(cc2C(=O)NCCCNC(=O)c2ccc(-c4c5nc(c(-c6c(F)cc(S(=O)(=O)[O-])cc6F)c6ccc([nH]6)c(-c6c(F)cc(S(=O)(=O)[O-])cc6F)c6nc(c(-c7c(F)cc(S(=O)(=O)[O-])cc7F)c7ccc4[nH]7)C=C6)C=C5)cc2)CCC3)C1
REMARK SMILES IDX 18 1 17 2 16 3 15 4 13 5 14 6 12 8 7 9 8 10 9 11 11 12 10 13
REMARK SMILES IDX 90 14 88 15 89 16 6 17 1 18 2 19 3 20 4 21 91 22 5 23 19 24
REMARK SMILES IDX 20 25 21 27 22 28 23 29 87 30 24 31 86 32 25 33 26 34 27 35
REMARK SMILES IDX 80 36 28 37 85 38 79 39 81 40 29 41 84 42 78 43 77 44 30 46
REMARK SMILES IDX 64 47 43 48 63 49 44 50 47 51 62 52 82 53 45 54 46 55 61 57
REMARK SMILES IDX 83 58 48 59 31 60 32 61 41 62 33 63 34 64 40 65 42 66 35 67
REMARK SMILES IDX 36 68 37 69 38 70 39 71 65 72 66 73 75 74 67 75 68 76 74 77
REMARK SMILES IDX 76 78 69 79 70 80 71 81 72 82 73 83 49 84 50 85 59 86 51 87
REMARK SMILES IDX 52 88 58 89 60 90 53 91 54 92 55 93 56 94 57 95
REMARK H PARENT 15 7 19 26 81 45 47 56
REMARK Flexibility Score: inf
ROOT
ATOM      1  C   UNL A   1      33.271  28.452  27.421  1.00  0.00     0.118 C 
ENDROOT
BRANCH   1   2
ATOM      2  C   UNL A   1      34.080  27.944  26.230  1.00  0.00     0.042 C 
BRANCH   2   3
ATOM      3  C   UNL A   1      33.865  28.727  24.943  1.00  0.00     0.118 C 
BRANCH   3   4
ATOM      4  N   UNL A   1      34.058  27.977  23.720  1.00  0.00    -0.352 N 
ATOM      5  C   UNL A   1      33.147  27.639  22.748  1.00  0.00     0.255 C 
ATOM      6  O   UNL A   1      33.594  27.124  21.719  1.00  0.00    -0.269 OA
ATOM      7  H   UNL A   1      34.977  27.661  23.561  1.00  0.00     0.163 HD
BRANCH   5   8
ATOM      8  C   UNL A   1      31.671  27.748  22.897  1.00  0.00     0.082 A 
ATOM      9  C   UNL A   1      30.789  26.791  23.448  1.00  0.00     0.141 A 
ATOM     10  N   UNL A   1      29.446  27.017  23.516  1.00  0.00    -0.235 NA
ATOM     11  C   UNL A   1      28.992  28.194  23.065  1.00  0.00     0.046 A 
ATOM     12  C   UNL A   1      31.142  28.978  22.447  1.00  0.00     0.023 A 
ATOM     13  C   UNL A   1      29.784  29.192  22.533  1.00  0.00    -0.025 A 
ATOM     14  C   UNL A   1      27.559  28.631  23.147  1.00  0.00     0.057 C 
ATOM     15  C   UNL A   1      28.982  30.398  22.183  1.00  0.00     0.038 C 
ATOM     16  C   UNL A   1      27.559  29.816  22.172  1.00  0.00     0.011 C 
BRANCH   9  17
ATOM     17  N   UNL A   1      31.199  25.587  23.969  1.00  0.00    -0.355 N 
ATOM     18  C   UNL A   1      30.344  23.566  26.550  1.00  0.00     0.013 C 
ATOM     19  C   UNL A   1      31.536  23.947  25.662  1.00  0.00    -0.016 C 
ATOM     20  C   UNL A   1      32.835  23.487  26.328  1.00  0.00     0.013 C 
ATOM     21  C   UNL A   1      31.368  23.303  24.268  1.00  0.00     0.030 C 
ATOM     22  C   UNL A   1      31.562  25.478  25.377  1.00  0.00     0.124 C 
ATOM     23  C   UNL A   1      30.595  24.357  23.483  1.00  0.00     0.119 C 
ENDBRANCH   9  17
ENDBRANCH   5   8
ENDBRANCH   3   4
ENDBRANCH   2   3
ENDBRANCH   1   2
BRANCH   1  24
ATOM     24  N   UNL A   1      33.395  29.880  27.688  1.00  0.00    -0.352 N 
ATOM     25  C   UNL A   1      34.449  30.669  28.082  1.00  0.00     0.251 C 
ATOM     26  H   UNL A   1      32.556  30.379  27.560  1.00  0.00     0.163 HD
ATOM     27  O   UNL A   1      34.246  31.862  28.306  1.00  0.00    -0.269 OA
BRANCH  25  28
ATOM     28  C   UNL A   1      35.802  30.113  28.303  1.00  0.00     0.039 A 
ATOM     29  C   UNL A   1      36.721  30.149  27.246  1.00  0.00     0.014 A 
ATOM     30  C   UNL A   1      36.176  29.534  29.513  1.00  0.00     0.014 A 
ATOM     31  C   UNL A   1      38.031  29.700  27.439  1.00  0.00     0.010 A 
ATOM     32  C   UNL A   1      37.503  29.181  29.737  1.00  0.00     0.010 A 
ATOM     33  C   UNL A   1      38.449  29.266  28.707  1.00  0.00    -0.014 A 
BRANCH  33  34
ATOM     34  C   UNL A   1      39.864  28.910  28.991  1.00  0.00     0.031 A 
ATOM     35  C   UNL A   1      40.801  29.935  29.575  1.00  0.00     0.074 A 
ATOM     36  C   UNL A   1      40.329  27.697  28.631  1.00  0.00     0.049 A 
ATOM     37  N   UNL A   1      42.094  29.862  29.756  1.00  0.00    -0.248 NA
ATOM     38  C   UNL A   1      40.212  31.225  29.970  1.00  0.00     0.031 C 
ATOM     39  C   UNL A   1      39.534  26.635  28.007  1.00  0.00     0.029 A 
ATOM     40  N   UNL A   1      41.585  27.152  28.726  1.00  0.00    -0.354 N 
ATOM     41  C   UNL A   1      42.475  31.101  30.260  1.00  0.00     0.074 A 
ATOM     42  C   UNL A   1      41.287  31.923  30.305  1.00  0.00     0.031 C 
ATOM     43  C   UNL A   1      40.312  25.559  27.806  1.00  0.00     0.029 A 
ATOM     44  C   UNL A   1      41.669  25.865  28.247  1.00  0.00     0.049 A 
ATOM     45  H   UNL A   1      42.356  27.638  29.101  1.00  0.00     0.167 HD
ATOM     46  C   UNL A   1      43.699  31.506  30.676  1.00  0.00     0.037 A 
ATOM     47  C   UNL A   1      42.721  25.027  28.168  1.00  0.00     0.037 A 
ATOM     48  C   UNL A   1      44.866  30.666  30.678  1.00  0.00     0.049 A 
ATOM     49  C   UNL A   1      44.063  25.488  28.662  1.00  0.00     0.074 A 
ATOM     50  C   UNL A   1      46.141  30.963  31.128  1.00  0.00     0.029 A 
ATOM     51  N   UNL A   1      44.897  29.355  30.223  1.00  0.00    -0.354 N 
ATOM     52  N   UNL A   1      44.398  26.651  29.165  1.00  0.00    -0.248 NA
ATOM     53  C   UNL A   1      45.172  24.527  28.579  1.00  0.00     0.031 C 
ATOM     54  C   UNL A   1      46.948  29.838  30.927  1.00  0.00     0.029 A 
ATOM     55  C   UNL A   1      46.167  28.830  30.382  1.00  0.00     0.049 A 
ATOM     56  H   UNL A   1      44.128  28.870  29.844  1.00  0.00     0.167 HD
ATOM     57  C   UNL A   1      45.746  26.553  29.485  1.00  0.00     0.074 A 
ATOM     58  C   UNL A   1      46.167  25.216  29.121  1.00  0.00     0.031 C 
ATOM     59  C   UNL A   1      46.561  27.488  30.033  1.00  0.00     0.037 A 
BRANCH  46  60
ATOM     60  C   UNL A   1      43.830  32.911  31.193  1.00  0.00     0.058 A 
ATOM     61  C   UNL A   1      44.081  33.987  30.326  1.00  0.00     0.135 A 
ATOM     62  C   UNL A   1      43.673  33.195  32.559  1.00  0.00     0.135 A 
ATOM     63  F   UNL A   1      44.254  33.770  29.012  1.00  0.00    -0.206 F 
ATOM     64  C   UNL A   1      44.202  35.290  30.798  1.00  0.00     0.059 A 
ATOM     65  C   UNL A   1      43.764  34.494  33.051  1.00  0.00     0.059 A 
ATOM     66  F   UNL A   1      43.431  32.204  33.432  1.00  0.00    -0.206 F 
ATOM     67  C   UNL A   1      44.045  35.533  32.163  1.00  0.00     0.060 A 
BRANCH  67  68
ATOM     68  S   UNL A   1      44.206  37.230  32.757  1.00  0.00     0.124 S 
ATOM     69  O   UNL A   1      44.139  37.982  31.507  1.00  0.00    -0.237 OA
ATOM     70  O   UNL A   1      43.052  37.364  33.640  1.00  0.00    -0.237 OA
ATOM     71  O   UNL A   1      45.505  37.235  33.423  1.00  0.00    -0.744 OA
ENDBRANCH  67  68
ENDBRANCH  46  60
BRANCH  47  72
ATOM     72  C   UNL A   1      42.528  23.648  27.649  1.00  0.00     0.058 A 
ATOM     73  C   UNL A   1      42.569  23.397  26.269  1.00  0.00     0.135 A 
ATOM     74  C   UNL A   1      42.338  22.556  28.507  1.00  0.00     0.135 A 
ATOM     75  F   UNL A   1      42.745  24.410  25.408  1.00  0.00    -0.206 F 
ATOM     76  C   UNL A   1      42.422  22.112  25.758  1.00  0.00     0.059 A 
ATOM     77  C   UNL A   1      42.208  21.258  28.021  1.00  0.00     0.059 A 
ATOM     78  F   UNL A   1      42.310  22.742  29.837  1.00  0.00    -0.206 F 
ATOM     79  C   UNL A   1      42.246  21.047  26.643  1.00  0.00     0.060 A 
BRANCH  79  80
ATOM     80  S   UNL A   1      42.117  19.377  25.968  1.00  0.00     0.124 S 
ATOM     81  O   UNL A   1      42.642  18.574  27.066  1.00  0.00    -0.237 OA
ATOM     82  O   UNL A   1      40.685  19.258  25.716  1.00  0.00    -0.237 OA
ATOM     83  O   UNL A   1      42.953  19.434  24.771  1.00  0.00    -0.744 OA
ENDBRANCH  79  80
ENDBRANCH  47  72
BRANCH  59  84
ATOM     84  C   UNL A   1      47.983  27.099  30.310  1.00  0.00     0.058 A 
ATOM     85  C   UNL A   1      49.011  27.395  29.404  1.00  0.00     0.135 A 
ATOM     86  C   UNL A   1      48.332  26.523  31.542  1.00  0.00     0.135 A 
ATOM     87  F   UNL A   1      48.725  27.939  28.211  1.00  0.00    -0.206 F 
ATOM     88  C   UNL A   1      50.343  27.139  29.713  1.00  0.00     0.059 A 
ATOM     89  C   UNL A   1      49.659  26.275  31.880  1.00  0.00     0.059 A 
ATOM     90  F   UNL A   1      47.382  26.227  32.443  1.00  0.00    -0.206 F 
ATOM     91  C   UNL A   1      50.657  26.589  30.958  1.00  0.00     0.060 A 
BRANCH  91  92
ATOM     92  S   UNL A   1      52.395  26.340  31.378  1.00  0.00     0.124 S 
ATOM     93  O   UNL A   1      52.344  25.074  32.103  1.00  0.00    -0.237 OA
ATOM     94  O   UNL A   1      53.029  26.292  30.064  1.00  0.00    -0.237 OA
ATOM     95  O   UNL A   1      52.722  27.512  32.184  1.00  0.00    -0.744 OA
ENDBRANCH  91  92
ENDBRANCH  59  84
ENDBRANCH  33  34
ENDBRANCH  25  28
ENDBRANCH   1  24
TORSDOF 14
ENDMDL
MODEL 3
REMARK VINA RESULT:     -13.0      6.561     12.174
REMARK SMILES CC1(C)CCN(c2nc3c(cc2C(=O)NCCCNC(=O)c2ccc(-c4c5nc(c(-c6c(F)cc(S(=O)(=O)[O-])cc6F)c6ccc([nH]6)c(-c6c(F)cc(S(=O)(=O)[O-])cc6F)c6nc(c(-c7c(F)cc(S(=O)(=O)[O-])cc7F)c7ccc4[nH]7)C=C6)C=C5)cc2)CCC3)C1
REMARK SMILES IDX 18 1 17 2 16 3 15 4 13 5 14 6 12 8 7 9 8 10 9 11 11 12 10 13
REMARK SMILES IDX 90 14 88 15 89 16 6 17 1 18 2 19 3 20 4 21 91 22 5 23 19 24
REMARK SMILES IDX 20 25 21 27 22 28 23 29 87 30 24 31 86 32 25 33 26 34 27 35
REMARK SMILES IDX 80 36 28 37 85 38 79 39 81 40 29 41 84 42 78 43 77 44 30 46
REMARK SMILES IDX 64 47 43 48 63 49 44 50 47 51 62 52 82 53 45 54 46 55 61 57
REMARK SMILES IDX 83 58 48 59 31 60 32 61 41 62 33 63 34 64 40 65 42 66 35 67
REMARK SMILES IDX 36 68 37 69 38 70 39 71 65 72 66 73 75 74 67 75 68 76 74 77
REMARK SMILES IDX 76 78 69 79 70 80 71 81 72 82 73 83 49 84 50 85 59 86 51 87
REMARK SMILES IDX 52 88 58 89 60 90 53 91 54 92 55 93 56 94 57 95
REMARK H PARENT 15 7 19 26 81 45 47 56
REMARK Flexibility Score: inf
ROOT
ATOM      1  C   UNL A   1      35.155  30.594  28.021  1.00  0.00     0.118 C 
ENDROOT
BRANCH   1   2
ATOM      2  C   UNL A   1      33.952  31.240  27.339  1.00  0.00     0.042 C 
BRANCH   2   3
ATOM      3  C   UNL A   1      33.132  30.291  26.476  1.00  0.00     0.118 C 
BRANCH   3   4
ATOM      4  N   UNL A   1      32.139  29.510  27.182  1.00  0.00    -0.352 N 
ATOM      5  C   UNL A   1      31.803  28.185  27.038  1.00  0.00     0.255 C 
ATOM      6  O   UNL A   1      31.024  27.713  27.871  1.00  0.00    -0.269 OA
ATOM      7  H   UNL A   1      31.627  30.000  27.866  1.00  0.00     0.163 HD
BRANCH   5   8
ATOM      8  C   UNL A   1      32.221  27.325  25.898  1.00  0.00     0.082 A 
ATOM      9  C   UNL A   1      31.633  27.253  24.614  1.00  0.00     0.141 A 
ATOM     10  N   UNL A   1      32.115  26.408  23.658  1.00  0.00    -0.235 NA
ATOM     11  C   UNL A   1      33.186  25.666  23.970  1.00  0.00     0.046 A 
ATOM     12  C   UNL A   1      33.356  26.530  26.170  1.00  0.00     0.023 A 
ATOM     13  C   UNL A   1      33.833  25.690  25.189  1.00  0.00    -0.025 A 
ATOM     14  C   UNL A   1      33.887  24.753  23.006  1.00  0.00     0.057 C 
ATOM     15  C   UNL A   1      35.024  24.795  25.193  1.00  0.00     0.038 C 
ATOM     16  C   UNL A   1      34.737  23.911  23.967  1.00  0.00     0.011 C 
BRANCH   9  17
ATOM     17  N   UNL A   1      30.565  28.022  24.220  1.00  0.00    -0.355 N 
ATOM     18  C   UNL A   1      29.736  29.972  21.577  1.00  0.00     0.013 C 
ATOM     19  C   UNL A   1      29.459  29.793  23.076  1.00  0.00    -0.016 C 
ATOM     20  C   UNL A   1      28.834  31.073  23.634  1.00  0.00     0.013 C 
ATOM     21  C   UNL A   1      28.527  28.581  23.288  1.00  0.00     0.030 C 
ATOM     22  C   UNL A   1      30.758  29.418  23.849  1.00  0.00     0.124 C 
ATOM     23  C   UNL A   1      29.495  27.413  23.445  1.00  0.00     0.119 C 
ENDBRANCH   9  17
ENDBRANCH   5   8
ENDBRANCH   3   4
ENDBRANCH   2   3
ENDBRANCH   1   2
BRANCH   1  24
ATOM     24  N   UNL A   1      35.279  30.871  29.447  1.00  0.00    -0.352 N 
ATOM     25  C   UNL A   1      36.296  30.678  30.352  1.00  0.00     0.251 C 
ATOM     26  H   UNL A   1      34.474  31.278  29.841  1.00  0.00     0.163 HD
ATOM     27  O   UNL A   1      36.095  30.946  31.536  1.00  0.00    -0.269 OA
BRANCH  25  28
ATOM     28  C   UNL A   1      37.599  30.103  29.953  1.00  0.00     0.039 A 
ATOM     29  C   UNL A   1      37.974  30.164  28.604  1.00  0.00     0.014 A 
ATOM     30  C   UNL A   1      38.443  29.480  30.868  1.00  0.00     0.014 A 
ATOM     31  C   UNL A   1      39.229  29.697  28.203  1.00  0.00     0.010 A 
ATOM     32  C   UNL A   1      39.730  29.107  30.490  1.00  0.00     0.010 A 
ATOM     33  C   UNL A   1      40.142  29.218  29.154  1.00  0.00    -0.014 A 
BRANCH  33  34
ATOM     34  C   UNL A   1      41.533  28.839  28.792  1.00  0.00     0.031 A 
ATOM     35  C   UNL A   1      42.622  29.879  28.775  1.00  0.00     0.074 A 
ATOM     36  C   UNL A   1      41.793  27.581  28.382  1.00  0.00     0.049 A 
ATOM     37  N   UNL A   1      43.854  29.777  28.348  1.00  0.00    -0.248 NA
ATOM     38  C   UNL A   1      42.266  31.221  29.264  1.00  0.00     0.031 C 
ATOM     39  C   UNL A   1      40.813  26.495  28.303  1.00  0.00     0.029 A 
ATOM     40  N   UNL A   1      42.958  27.003  27.944  1.00  0.00    -0.354 N 
ATOM     41  C   UNL A   1      44.410  31.043  28.495  1.00  0.00     0.074 A 
ATOM     42  C   UNL A   1      43.367  31.909  28.997  1.00  0.00     0.031 C 
ATOM     43  C   UNL A   1      41.423  25.377  27.876  1.00  0.00     0.029 A 
ATOM     44  C   UNL A   1      42.827  25.674  27.611  1.00  0.00     0.049 A 
ATOM     45  H   UNL A   1      43.810  27.493  27.873  1.00  0.00     0.167 HD
ATOM     46  C   UNL A   1      45.684  31.441  28.260  1.00  0.00     0.037 A 
ATOM     47  C   UNL A   1      43.734  24.794  27.143  1.00  0.00     0.037 A 
ATOM     48  C   UNL A   1      46.730  30.563  27.810  1.00  0.00     0.049 A 
ATOM     49  C   UNL A   1      45.148  25.251  26.917  1.00  0.00     0.074 A 
ATOM     50  C   UNL A   1      48.066  30.855  27.593  1.00  0.00     0.029 A 
ATOM     51  N   UNL A   1      46.563  29.215  27.526  1.00  0.00    -0.354 N 
ATOM     52  N   UNL A   1      45.663  26.444  27.091  1.00  0.00    -0.248 NA
ATOM     53  C   UNL A   1      46.105  24.247  26.432  1.00  0.00     0.031 C 
ATOM     54  C   UNL A   1      48.702  29.688  27.158  1.00  0.00     0.029 A 
ATOM     55  C   UNL A   1      47.770  28.662  27.136  1.00  0.00     0.049 A 
ATOM     56  H   UNL A   1      45.712  28.725  27.593  1.00  0.00     0.167 HD
ATOM     57  C   UNL A   1      47.008  26.328  26.765  1.00  0.00     0.074 A 
ATOM     58  C   UNL A   1      47.230  24.948  26.385  1.00  0.00     0.031 C 
ATOM     59  C   UNL A   1      47.974  27.279  26.782  1.00  0.00     0.037 A 
BRANCH  46  60
ATOM     60  C   UNL A   1      46.021  32.883  28.515  1.00  0.00     0.058 A 
ATOM     61  C   UNL A   1      45.891  33.853  27.509  1.00  0.00     0.135 A 
ATOM     62  C   UNL A   1      46.450  33.310  29.783  1.00  0.00     0.135 A 
ATOM     63  F   UNL A   1      45.498  33.497  26.275  1.00  0.00    -0.206 F 
ATOM     64  C   UNL A   1      46.201  35.189  27.739  1.00  0.00     0.059 A 
ATOM     65  C   UNL A   1      46.742  34.646  30.043  1.00  0.00     0.059 A 
ATOM     66  F   UNL A   1      46.593  32.425  30.782  1.00  0.00    -0.206 F 
ATOM     67  C   UNL A   1      46.629  35.575  29.010  1.00  0.00     0.060 A 
BRANCH  67  68
ATOM     68  S   UNL A   1      47.028  37.313  29.290  1.00  0.00     0.124 S 
ATOM     69  O   UNL A   1      45.699  37.918  29.297  1.00  0.00    -0.237 OA
ATOM     70  O   UNL A   1      47.713  37.274  30.577  1.00  0.00    -0.237 OA
ATOM     71  O   UNL A   1      47.867  37.658  28.146  1.00  0.00    -0.744 OA
ENDBRANCH  67  68
ENDBRANCH  46  60
BRANCH  47  72
ATOM     72  C   UNL A   1      43.339  23.381  26.912  1.00  0.00     0.058 A 
ATOM     73  C   UNL A   1      43.210  22.885  25.606  1.00  0.00     0.135 A 
ATOM     74  C   UNL A   1      43.122  22.492  27.974  1.00  0.00     0.135 A 
ATOM     75  F   UNL A   1      43.405  23.698  24.557  1.00  0.00    -0.206 F 
ATOM     76  C   UNL A   1      42.872  21.558  25.360  1.00  0.00     0.059 A 
ATOM     77  C   UNL A   1      42.801  21.155  27.754  1.00  0.00     0.059 A 
ATOM     78  F   UNL A   1      43.252  22.913  29.242  1.00  0.00    -0.206 F 
ATOM     79  C   UNL A   1      42.673  20.699  26.443  1.00  0.00     0.060 A 
BRANCH  79  80
ATOM     80  S   UNL A   1      42.294  18.965  26.108  1.00  0.00     0.124 S 
ATOM     81  O   UNL A   1      42.597  18.345  27.392  1.00  0.00    -0.237 OA
ATOM     82  O   UNL A   1      40.882  19.025  25.744  1.00  0.00    -0.237 OA
ATOM     83  O   UNL A   1      43.202  18.629  25.014  1.00  0.00    -0.744 OA
ENDBRANCH  79  80
ENDBRANCH  47  72
BRANCH  59  84
ATOM     84  C   UNL A   1      49.368  26.867  26.412  1.00  0.00     0.058 A 
ATOM     85  C   UNL A   1      50.231  26.285  27.351  1.00  0.00     0.135 A 
ATOM     86  C   UNL A   1      49.803  26.957  25.080  1.00  0.00     0.135 A 
ATOM     87  F   UNL A   1      49.861  26.186  28.638  1.00  0.00    -0.206 F 
ATOM     88  C   UNL A   1      51.479  25.798  26.980  1.00  0.00     0.059 A 
ATOM     89  C   UNL A   1      51.040  26.459  24.684  1.00  0.00     0.059 A 
ATOM     90  F   UNL A   1      49.008  27.501  24.145  1.00  0.00    -0.206 F 
ATOM     91  C   UNL A   1      51.871  25.879  25.642  1.00  0.00     0.060 A 
BRANCH  91  92
ATOM     92  S   UNL A   1      53.458  25.167  25.161  1.00  0.00     0.124 S 
ATOM     93  O   UNL A   1      53.579  25.625  23.780  1.00  0.00    -0.237 OA
ATOM     94  O   UNL A   1      54.376  25.781  26.115  1.00  0.00    -0.237 OA
ATOM     95  O   UNL A   1      53.253  23.732  25.331  1.00  0.00    -0.744 OA
ENDBRANCH  91  92
ENDBRANCH  59  84
ENDBRANCH  33  34
ENDBRANCH  25  28
ENDBRANCH   1  24
TORSDOF 14
ENDMDL
