MODEL 1
REMARK VINA RESULT:     -10.6      0.000      0.000
REMARK SMILES CC[C@@](C)(NC(=O)c1cncc(O)c1)C(=O)NCCCNC(=O)c1ccc(-c2c3nc(c(-c4c(F)cc(S(=O)(=O)[O-])cc4F)c4ccc([nH]4)c(-c4c(F)cc(S(=O)(=O)[O-])cc4F)c4nc(c(-c5c(F)cc(S(=O)(=O)[O-])cc5F)c5ccc2[nH]5)C=C4)C=C3)cc1
REMARK SMILES IDX 19 1 18 2 17 3 15 4 16 5 3 7 4 8 2 9 1 10 5 11 6 12 7 14
REMARK SMILES IDX 8 15 9 16 14 17 10 18 12 19 11 20 13 21 20 23 21 24 22 25
REMARK SMILES IDX 23 27 24 28 25 29 89 30 26 31 88 32 27 33 28 34 29 35 82 36
REMARK SMILES IDX 30 37 87 38 81 39 83 40 31 41 86 42 80 43 79 44 32 46 66 47
REMARK SMILES IDX 45 48 65 49 46 50 49 51 64 52 84 53 47 54 48 55 63 57 85 58
REMARK SMILES IDX 50 59 33 60 34 61 43 62 35 63 36 64 42 65 44 66 37 67 38 68
REMARK SMILES IDX 39 69 40 70 41 71 67 72 68 73 77 74 69 75 70 76 76 77 78 78
REMARK SMILES IDX 71 79 72 80 73 81 74 82 75 83 51 84 52 85 61 86 53 87 54 88
REMARK SMILES IDX 60 89 62 90 55 91 56 92 57 93 58 94 59 95
REMARK H PARENT 17 6 5 13 13 22 21 26 83 45 49 56
REMARK Flexibility Score: inf
ROOT
ATOM      1  C   UNL A   1      35.318  33.146  29.538  1.00  0.00     0.042 C 
ENDROOT
BRANCH   1   2
ATOM      2  C   UNL A   1      36.783  32.971  29.942  1.00  0.00     0.117 C 
BRANCH   2   3
ATOM      3  N   UNL A   1      37.358  33.919  30.887  1.00  0.00    -0.354 N 
ATOM      4  C   UNL A   1      37.407  33.998  32.254  1.00  0.00     0.245 C 
ATOM      5  O   UNL A   1      38.136  34.896  32.691  1.00  0.00    -0.272 OA
ATOM      6  H   UNL A   1      37.813  34.672  30.443  1.00  0.00     0.163 HD
BRANCH   4   7
ATOM      7  C   UNL A   1      36.665  33.012  33.207  1.00  0.00     0.116 C 
ATOM      8  C   UNL A   1      37.381  31.647  33.032  1.00  0.00     0.045 C 
BRANCH   7   9
ATOM      9  C   UNL A   1      36.754  33.392  34.719  1.00  0.00     0.035 C 
ATOM     10  C   UNL A   1      37.638  32.538  35.624  1.00  0.00     0.007 C 
ENDBRANCH   7   9
BRANCH   7  11
ATOM     11  N   UNL A   1      35.220  32.820  32.894  1.00  0.00    -0.338 N 
ATOM     12  C   UNL A   1      34.110  33.635  33.005  1.00  0.00     0.253 C 
ATOM     13  H   UNL A   1      35.013  31.927  32.534  1.00  0.00     0.164 HD
ATOM     14  O   UNL A   1      33.054  33.065  33.286  1.00  0.00    -0.269 OA
BRANCH  12  15
ATOM     15  C   UNL A   1      34.055  35.099  32.739  1.00  0.00     0.061 A 
ATOM     16  C   UNL A   1      34.247  35.982  33.798  1.00  0.00     0.125 A 
ATOM     17  C   UNL A   1      33.633  35.677  31.551  1.00  0.00     0.063 A 
ATOM     18  N   UNL A   1      34.069  37.334  33.727  1.00  0.00    -0.260 NA
ATOM     19  C   UNL A   1      33.425  37.046  31.440  1.00  0.00     0.134 A 
ATOM     20  C   UNL A   1      33.644  37.835  32.546  1.00  0.00     0.157 A 
BRANCH  19  21
ATOM     21  O   UNL A   1      32.956  37.593  30.283  1.00  0.00    -0.506 OA
ATOM     22  H   UNL A   1      33.304  37.314  29.459  1.00  0.00     0.293 HD
ENDBRANCH  19  21
ENDBRANCH  12  15
ENDBRANCH   7  11
ENDBRANCH   4   7
ENDBRANCH   2   3
ENDBRANCH   1   2
BRANCH   1  23
ATOM     23  C   UNL A   1      34.924  32.971  28.070  1.00  0.00     0.118 C 
BRANCH  23  24
ATOM     24  N   UNL A   1      34.085  31.823  27.794  1.00  0.00    -0.352 N 
ATOM     25  C   UNL A   1      34.385  30.484  27.862  1.00  0.00     0.251 C 
ATOM     26  H   UNL A   1      33.164  32.033  27.517  1.00  0.00     0.163 HD
ATOM     27  O   UNL A   1      33.513  29.663  27.572  1.00  0.00    -0.269 OA
BRANCH  25  28
ATOM     28  C   UNL A   1      35.744  30.015  28.222  1.00  0.00     0.039 A 
ATOM     29  C   UNL A   1      36.733  30.060  27.234  1.00  0.00     0.014 A 
ATOM     30  C   UNL A   1      36.051  29.515  29.491  1.00  0.00     0.014 A 
ATOM     31  C   UNL A   1      38.040  29.667  27.534  1.00  0.00     0.010 A 
ATOM     32  C   UNL A   1      37.371  29.163  29.801  1.00  0.00     0.010 A 
ATOM     33  C   UNL A   1      38.382  29.246  28.830  1.00  0.00    -0.014 A 
BRANCH  33  34
ATOM     34  C   UNL A   1      39.801  28.945  29.174  1.00  0.00     0.031 A 
ATOM     35  C   UNL A   1      40.669  29.967  29.855  1.00  0.00     0.074 A 
ATOM     36  C   UNL A   1      40.319  27.743  28.845  1.00  0.00     0.049 A 
ATOM     37  N   UNL A   1      41.928  29.879  30.207  1.00  0.00    -0.248 NA
ATOM     38  C   UNL A   1      40.048  31.261  30.174  1.00  0.00     0.031 C 
ATOM     39  C   UNL A   1      39.591  26.671  28.162  1.00  0.00     0.029 A 
ATOM     40  N   UNL A   1      41.576  27.221  29.031  1.00  0.00    -0.354 N 
ATOM     41  C   UNL A   1      42.251  31.102  30.783  1.00  0.00     0.074 A 
ATOM     42  C   UNL A   1      41.066  31.930  30.698  1.00  0.00     0.031 C 
ATOM     43  C   UNL A   1      40.408  25.618  27.999  1.00  0.00     0.029 A 
ATOM     44  C   UNL A   1      41.727  25.950  28.527  1.00  0.00     0.049 A 
ATOM     45  H   UNL A   1      42.300  27.710  29.483  1.00  0.00     0.167 HD
ATOM     46  C   UNL A   1      43.422  31.493  31.346  1.00  0.00     0.037 A 
ATOM     47  C   UNL A   1      42.808  25.145  28.475  1.00  0.00     0.037 A 
ATOM     48  C   UNL A   1      44.601  30.664  31.429  1.00  0.00     0.049 A 
ATOM     49  C   UNL A   1      44.109  25.620  29.067  1.00  0.00     0.074 A 
ATOM     50  C   UNL A   1      45.817  30.957  32.024  1.00  0.00     0.029 A 
ATOM     51  N   UNL A   1      44.719  29.390  30.892  1.00  0.00    -0.354 N 
ATOM     52  N   UNL A   1      44.375  26.754  29.670  1.00  0.00    -0.248 NA
ATOM     53  C   UNL A   1      45.256  24.705  28.973  1.00  0.00     0.031 C 
ATOM     54  C   UNL A   1      46.688  29.887  31.795  1.00  0.00     0.029 A 
ATOM     55  C   UNL A   1      45.998  28.899  31.111  1.00  0.00     0.049 A 
ATOM     56  H   UNL A   1      44.001  28.906  30.424  1.00  0.00     0.167 HD
ATOM     57  C   UNL A   1      45.714  26.680  30.045  1.00  0.00     0.074 A 
ATOM     58  C   UNL A   1      46.195  25.383  29.619  1.00  0.00     0.031 C 
ATOM     59  C   UNL A   1      46.473  27.607  30.681  1.00  0.00     0.037 A 
BRANCH  46  60
ATOM     60  C   UNL A   1      43.497  32.887  31.912  1.00  0.00     0.058 A 
ATOM     61  C   UNL A   1      43.843  33.991  31.115  1.00  0.00     0.135 A 
ATOM     62  C   UNL A   1      43.166  33.133  33.255  1.00  0.00     0.135 A 
ATOM     63  F   UNL A   1      44.178  33.816  29.827  1.00  0.00    -0.206 F 
ATOM     64  C   UNL A   1      43.889  35.280  31.636  1.00  0.00     0.059 A 
ATOM     65  C   UNL A   1      43.175  34.418  33.789  1.00  0.00     0.059 A 
ATOM     66  F   UNL A   1      42.821  32.117  34.063  1.00  0.00    -0.206 F 
ATOM     67  C   UNL A   1      43.552  35.484  32.975  1.00  0.00     0.060 A 
BRANCH  67  68
ATOM     68  S   UNL A   1      43.611  37.166  33.632  1.00  0.00     0.124 S 
ATOM     69  O   UNL A   1      43.622  37.957  32.405  1.00  0.00    -0.237 OA
ATOM     70  O   UNL A   1      42.383  37.236  34.418  1.00  0.00    -0.237 OA
ATOM     71  O   UNL A   1      44.849  37.188  34.403  1.00  0.00    -0.744 OA
ENDBRANCH  67  68
ENDBRANCH  46  60
BRANCH  47  72
ATOM     72  C   UNL A   1      42.709  23.804  27.836  1.00  0.00     0.058 A 
ATOM     73  C   UNL A   1      42.534  22.646  28.605  1.00  0.00     0.135 A 
ATOM     74  C   UNL A   1      42.778  23.657  26.441  1.00  0.00     0.135 A 
ATOM     75  F   UNL A   1      42.472  22.731  29.942  1.00  0.00    -0.206 F 
ATOM     76  C   UNL A   1      42.447  21.386  28.019  1.00  0.00     0.059 A 
ATOM     77  C   UNL A   1      42.664  22.413  25.829  1.00  0.00     0.059 A 
ATOM     78  F   UNL A   1      42.932  24.736  25.657  1.00  0.00    -0.206 F 
ATOM     79  C   UNL A   1      42.508  21.281  26.627  1.00  0.00     0.060 A 
BRANCH  79  80
ATOM     80  S   UNL A   1      42.340  19.648  25.875  1.00  0.00     0.124 S 
ATOM     81  O   UNL A   1      40.949  19.668  25.437  1.00  0.00    -0.237 OA
ATOM     82  O   UNL A   1      43.345  19.695  24.817  1.00  0.00    -0.237 OA
ATOM     83  O   UNL A   1      42.643  18.738  26.975  1.00  0.00    -0.744 OA
ENDBRANCH  79  80
ENDBRANCH  47  72
BRANCH  59  84
ATOM     84  C   UNL A   1      47.905  27.245  30.980  1.00  0.00     0.058 A 
ATOM     85  C   UNL A   1      48.962  27.676  30.162  1.00  0.00     0.135 A 
ATOM     86  C   UNL A   1      48.228  26.499  32.126  1.00  0.00     0.135 A 
ATOM     87  F   UNL A   1      48.710  28.385  29.050  1.00  0.00    -0.206 F 
ATOM     88  C   UNL A   1      50.285  27.361  30.456  1.00  0.00     0.059 A 
ATOM     89  C   UNL A   1      49.547  26.199  32.456  1.00  0.00     0.059 A 
ATOM     90  F   UNL A   1      47.259  26.067  32.948  1.00  0.00    -0.206 F 
ATOM     91  C   UNL A   1      50.569  26.625  31.608  1.00  0.00     0.060 A 
BRANCH  91  92
ATOM     92  S   UNL A   1      52.293  26.254  31.996  1.00  0.00     0.124 S 
ATOM     93  O   UNL A   1      52.771  27.547  32.476  1.00  0.00    -0.237 OA
ATOM     94  O   UNL A   1      52.166  25.209  33.007  1.00  0.00    -0.237 OA
ATOM     95  O   UNL A   1      52.844  25.818  30.716  1.00  0.00    -0.744 OA
ENDBRANCH  91  92
ENDBRANCH  59  84
ENDBRANCH  33  34
ENDBRANCH  25  28
ENDBRANCH  23  24
ENDBRANCH   1  23
TORSDOF 17
ENDMDL
MODEL 2
REMARK VINA RESULT:     -10.4      3.187      3.945
REMARK SMILES CC[C@@](C)(NC(=O)c1cncc(O)c1)C(=O)NCCCNC(=O)c1ccc(-c2c3nc(c(-c4c(F)cc(S(=O)(=O)[O-])cc4F)c4ccc([nH]4)c(-c4c(F)cc(S(=O)(=O)[O-])cc4F)c4nc(c(-c5c(F)cc(S(=O)(=O)[O-])cc5F)c5ccc2[nH]5)C=C4)C=C3)cc1
REMARK SMILES IDX 19 1 18 2 17 3 15 4 16 5 3 7 4 8 2 9 1 10 5 11 6 12 7 14
REMARK SMILES IDX 8 15 9 16 14 17 10 18 12 19 11 20 13 21 20 23 21 24 22 25
REMARK SMILES IDX 23 27 24 28 25 29 89 30 26 31 88 32 27 33 28 34 29 35 82 36
REMARK SMILES IDX 30 37 87 38 81 39 83 40 31 41 86 42 80 43 79 44 32 46 66 47
REMARK SMILES IDX 45 48 65 49 46 50 49 51 64 52 84 53 47 54 48 55 63 57 85 58
REMARK SMILES IDX 50 59 33 60 34 61 43 62 35 63 36 64 42 65 44 66 37 67 38 68
REMARK SMILES IDX 39 69 40 70 41 71 67 72 68 73 77 74 69 75 70 76 76 77 78 78
REMARK SMILES IDX 71 79 72 80 73 81 74 82 75 83 51 84 52 85 61 86 53 87 54 88
REMARK SMILES IDX 60 89 62 90 55 91 56 92 57 93 58 94 59 95
REMARK H PARENT 17 6 5 13 13 22 21 26 83 45 49 56
REMARK Flexibility Score: inf
ROOT
ATOM      1  C   UNL A   1      36.744  33.617  29.744  1.00  0.00     0.042 C 
ENDROOT
BRANCH   1   2
ATOM      2  C   UNL A   1      37.911  33.426  30.715  1.00  0.00     0.117 C 
BRANCH   2   3
ATOM      3  N   UNL A   1      38.058  34.370  31.815  1.00  0.00    -0.354 N 
ATOM      4  C   UNL A   1      37.721  34.353  33.143  1.00  0.00     0.245 C 
ATOM      5  O   UNL A   1      38.159  35.307  33.796  1.00  0.00    -0.272 OA
ATOM      6  H   UNL A   1      38.497  35.209  31.542  1.00  0.00     0.163 HD
BRANCH   4   7
ATOM      7  C   UNL A   1      36.906  33.207  33.817  1.00  0.00     0.116 C 
ATOM      8  C   UNL A   1      37.817  31.954  33.751  1.00  0.00     0.045 C 
BRANCH   7   9
ATOM      9  C   UNL A   1      36.569  33.457  35.321  1.00  0.00     0.035 C 
ATOM     10  C   UNL A   1      37.616  33.076  36.364  1.00  0.00     0.007 C 
ENDBRANCH   7   9
BRANCH   7  11
ATOM     11  N   UNL A   1      35.620  32.880  33.135  1.00  0.00    -0.338 N 
ATOM     12  C   UNL A   1      34.446  33.582  32.938  1.00  0.00     0.253 C 
ATOM     13  H   UNL A   1      35.604  31.977  32.743  1.00  0.00     0.164 HD
ATOM     14  O   UNL A   1      33.414  32.909  32.937  1.00  0.00    -0.269 OA
BRANCH  12  15
ATOM     15  C   UNL A   1      34.322  35.038  32.650  1.00  0.00     0.061 A 
ATOM     16  C   UNL A   1      34.316  35.936  33.715  1.00  0.00     0.125 A 
ATOM     17  C   UNL A   1      34.013  35.580  31.411  1.00  0.00     0.063 A 
ATOM     18  N   UNL A   1      34.052  37.271  33.605  1.00  0.00    -0.260 NA
ATOM     19  C   UNL A   1      33.723  36.930  31.259  1.00  0.00     0.134 A 
ATOM     20  C   UNL A   1      33.745  37.737  32.374  1.00  0.00     0.157 A 
BRANCH  19  21
ATOM     21  O   UNL A   1      33.367  37.438  30.046  1.00  0.00    -0.506 OA
ATOM     22  H   UNL A   1      33.052  38.318  29.981  1.00  0.00     0.293 HD
ENDBRANCH  19  21
ENDBRANCH  12  15
ENDBRANCH   7  11
ENDBRANCH   4   7
ENDBRANCH   2   3
ENDBRANCH   1   2
BRANCH   1  23
ATOM     23  C   UNL A   1      36.192  32.403  28.995  1.00  0.00     0.118 C 
BRANCH  23  24
ATOM     24  N   UNL A   1      35.777  31.300  29.836  1.00  0.00    -0.352 N 
ATOM     25  C   UNL A   1      36.477  30.182  30.221  1.00  0.00     0.251 C 
ATOM     26  H   UNL A   1      34.858  31.360  30.183  1.00  0.00     0.163 HD
ATOM     27  O   UNL A   1      35.923  29.353  30.945  1.00  0.00    -0.269 OA
BRANCH  25  28
ATOM     28  C   UNL A   1      37.857  29.934  29.743  1.00  0.00     0.039 A 
ATOM     29  C   UNL A   1      38.887  29.943  30.689  1.00  0.00     0.014 A 
ATOM     30  C   UNL A   1      38.155  29.720  28.393  1.00  0.00     0.014 A 
ATOM     31  C   UNL A   1      40.201  29.676  30.296  1.00  0.00     0.010 A 
ATOM     32  C   UNL A   1      39.465  29.410  28.009  1.00  0.00     0.010 A 
ATOM     33  C   UNL A   1      40.501  29.372  28.957  1.00  0.00    -0.014 A 
BRANCH  33  34
ATOM     34  C   UNL A   1      41.881  28.969  28.566  1.00  0.00     0.031 A 
ATOM     35  C   UNL A   1      42.993  29.980  28.488  1.00  0.00     0.074 A 
ATOM     36  C   UNL A   1      42.129  27.680  28.253  1.00  0.00     0.049 A 
ATOM     37  N   UNL A   1      44.245  29.806  28.145  1.00  0.00    -0.248 NA
ATOM     38  C   UNL A   1      42.653  31.369  28.829  1.00  0.00     0.031 C 
ATOM     39  C   UNL A   1      41.136  26.604  28.266  1.00  0.00     0.029 A 
ATOM     40  N   UNL A   1      43.287  27.054  27.855  1.00  0.00    -0.354 N 
ATOM     41  C   UNL A   1      44.842  31.059  28.224  1.00  0.00     0.074 A 
ATOM     42  C   UNL A   1      43.803  31.992  28.610  1.00  0.00     0.031 C 
ATOM     43  C   UNL A   1      41.727  25.453  27.908  1.00  0.00     0.029 A 
ATOM     44  C   UNL A   1      43.129  25.712  27.599  1.00  0.00     0.049 A 
ATOM     45  H   UNL A   1      44.147  27.523  27.763  1.00  0.00     0.167 HD
ATOM     46  C   UNL A   1      46.138  31.398  28.011  1.00  0.00     0.037 A 
ATOM     47  C   UNL A   1      44.007  24.792  27.149  1.00  0.00     0.037 A 
ATOM     48  C   UNL A   1      47.169  30.464  27.627  1.00  0.00     0.049 A 
ATOM     49  C   UNL A   1      45.430  25.203  26.877  1.00  0.00     0.074 A 
ATOM     50  C   UNL A   1      48.519  30.707  27.436  1.00  0.00     0.029 A 
ATOM     51  N   UNL A   1      46.967  29.118  27.361  1.00  0.00    -0.354 N 
ATOM     52  N   UNL A   1      45.991  26.380  27.024  1.00  0.00    -0.248 NA
ATOM     53  C   UNL A   1      46.339  24.161  26.379  1.00  0.00     0.031 C 
ATOM     54  C   UNL A   1      49.121  29.523  26.997  1.00  0.00     0.029 A 
ATOM     55  C   UNL A   1      48.160  28.525  26.974  1.00  0.00     0.049 A 
ATOM     56  H   UNL A   1      46.104  28.651  27.436  1.00  0.00     0.167 HD
ATOM     57  C   UNL A   1      47.324  26.214  26.657  1.00  0.00     0.074 A 
ATOM     58  C   UNL A   1      47.488  24.821  26.300  1.00  0.00     0.031 C 
ATOM     59  C   UNL A   1      48.317  27.137  26.616  1.00  0.00     0.037 A 
BRANCH  46  60
ATOM     60  C   UNL A   1      46.521  32.845  28.177  1.00  0.00     0.058 A 
ATOM     61  C   UNL A   1      47.046  33.337  29.384  1.00  0.00     0.135 A 
ATOM     62  C   UNL A   1      46.413  33.741  27.100  1.00  0.00     0.135 A 
ATOM     63  F   UNL A   1      47.164  32.530  30.449  1.00  0.00    -0.206 F 
ATOM     64  C   UNL A   1      47.420  34.671  29.525  1.00  0.00     0.059 A 
ATOM     65  C   UNL A   1      46.809  35.071  27.211  1.00  0.00     0.059 A 
ATOM     66  F   UNL A   1      45.924  33.326  25.921  1.00  0.00    -0.206 F 
ATOM     67  C   UNL A   1      47.299  35.530  28.433  1.00  0.00     0.060 A 
BRANCH  67  68
ATOM     68  S   UNL A   1      47.794  37.255  28.634  1.00  0.00     0.124 S 
ATOM     69  O   UNL A   1      48.489  37.210  29.917  1.00  0.00    -0.237 OA
ATOM     70  O   UNL A   1      48.640  37.474  27.465  1.00  0.00    -0.237 OA
ATOM     71  O   UNL A   1      46.527  37.977  28.632  1.00  0.00    -0.744 OA
ENDBRANCH  67  68
ENDBRANCH  46  60
BRANCH  47  72
ATOM     72  C   UNL A   1      43.565  23.389  26.924  1.00  0.00     0.058 A 
ATOM     73  C   UNL A   1      43.336  22.519  27.999  1.00  0.00     0.135 A 
ATOM     74  C   UNL A   1      43.355  22.891  25.628  1.00  0.00     0.135 A 
ATOM     75  F   UNL A   1      43.532  22.942  29.258  1.00  0.00    -0.206 F 
ATOM     76  C   UNL A   1      42.930  21.203  27.801  1.00  0.00     0.059 A 
ATOM     77  C   UNL A   1      42.921  21.589  25.404  1.00  0.00     0.059 A 
ATOM     78  F   UNL A   1      43.548  23.686  24.562  1.00  0.00    -0.206 F 
ATOM     79  C   UNL A   1      42.720  20.748  26.497  1.00  0.00     0.060 A 
BRANCH  79  80
ATOM     80  S   UNL A   1      42.141  19.056  26.254  1.00  0.00     0.124 S 
ATOM     81  O   UNL A   1      42.309  18.492  27.589  1.00  0.00    -0.237 OA
ATOM     82  O   UNL A   1      40.764  19.264  25.816  1.00  0.00    -0.237 OA
ATOM     83  O   UNL A   1      43.043  18.535  25.230  1.00  0.00    -0.744 OA
ENDBRANCH  79  80
ENDBRANCH  47  72
BRANCH  59  84
ATOM     84  C   UNL A   1      49.684  26.666  26.191  1.00  0.00     0.058 A 
ATOM     85  C   UNL A   1      50.157  26.855  24.883  1.00  0.00     0.135 A 
ATOM     86  C   UNL A   1      50.551  26.063  27.118  1.00  0.00     0.135 A 
ATOM     87  F   UNL A   1      49.367  27.418  23.954  1.00  0.00    -0.206 F 
ATOM     88  C   UNL A   1      51.430  26.442  24.502  1.00  0.00     0.059 A 
ATOM     89  C   UNL A   1      51.840  25.671  26.767  1.00  0.00     0.059 A 
ATOM     90  F   UNL A   1      50.155  25.865  28.386  1.00  0.00    -0.206 F 
ATOM     91  C   UNL A   1      52.267  25.854  25.452  1.00  0.00     0.060 A 
BRANCH  91  92
ATOM     92  S   UNL A   1      53.928  25.355  24.952  1.00  0.00     0.124 S 
ATOM     93  O   UNL A   1      54.057  26.017  23.658  1.00  0.00    -0.237 OA
ATOM     94  O   UNL A   1      54.753  25.899  26.027  1.00  0.00    -0.237 OA
ATOM     95  O   UNL A   1      53.849  23.899  24.907  1.00  0.00    -0.744 OA
ENDBRANCH  91  92
ENDBRANCH  59  84
ENDBRANCH  33  34
ENDBRANCH  25  28
ENDBRANCH  23  24
ENDBRANCH   1  23
TORSDOF 17
ENDMDL
MODEL 3
REMARK VINA RESULT:     -10.2      3.762      6.943
REMARK SMILES CC[C@@](C)(NC(=O)c1cncc(O)c1)C(=O)NCCCNC(=O)c1ccc(-c2c3nc(c(-c4c(F)cc(S(=O)(=O)[O-])cc4F)c4ccc([nH]4)c(-c4c(F)cc(S(=O)(=O)[O-])cc4F)c4nc(c(-c5c(F)cc(S(=O)(=O)[O-])cc5F)c5ccc2[nH]5)C=C4)C=C3)cc1
REMARK SMILES IDX 19 1 18 2 17 3 15 4 16 5 3 7 4 8 2 9 1 10 5 11 6 12 7 14
REMARK SMILES IDX 8 15 9 16 14 17 10 18 12 19 11 20 13 21 20 23 21 24 22 25
REMARK SMILES IDX 23 27 24 28 25 29 89 30 26 31 88 32 27 33 28 34 29 35 82 36
REMARK SMILES IDX 30 37 87 38 81 39 83 40 31 41 86 42 80 43 79 44 32 46 66 47
REMARK SMILES IDX 45 48 65 49 46 50 49 51 64 52 84 53 47 54 48 55 63 57 85 58
REMARK SMILES IDX 50 59 33 60 34 61 43 62 35 63 36 64 42 65 44 66 37 67 38 68
REMARK SMILES IDX 39 69 40 70 41 71 67 72 68 73 77 74 69 75 70 76 76 77 78 78
REMARK SMILES IDX 71 79 72 80 73 81 74 82 75 83 51 84 52 85 61 86 53 87 54 88
REMARK SMILES IDX 60 89 62 90 55 91 56 92 57 93 58 94 59 95
REMARK H PARENT 17 6 5 13 13 22 21 26 83 45 49 56
REMARK Flexibility Score: inf
ROOT
ATOM      1  C   UNL A   1      33.764  28.085  25.502  1.00  0.00     0.042 C 
ENDROOT
BRANCH   1   2
ATOM      2  C   UNL A   1      32.609  27.401  24.768  1.00  0.00     0.117 C 
BRANCH   2   3
ATOM      3  N   UNL A   1      31.438  27.004  25.538  1.00  0.00    -0.354 N 
ATOM      4  C   UNL A   1      30.855  25.802  25.844  1.00  0.00     0.245 C 
ATOM      5  O   UNL A   1      29.937  25.872  26.669  1.00  0.00    -0.272 OA
ATOM      6  H   UNL A   1      30.956  27.772  25.925  1.00  0.00     0.163 HD
BRANCH   4   7
ATOM      7  C   UNL A   1      31.331  24.435  25.264  1.00  0.00     0.116 C 
ATOM      8  C   UNL A   1      30.737  23.354  26.205  1.00  0.00     0.045 C 
BRANCH   7   9
ATOM      9  C   UNL A   1      30.809  24.133  23.823  1.00  0.00     0.035 C 
ATOM     10  C   UNL A   1      31.569  24.733  22.643  1.00  0.00     0.007 C 
ENDBRANCH   7   9
BRANCH   7  11
ATOM     11  N   UNL A   1      32.811  24.259  25.233  1.00  0.00    -0.338 N 
ATOM     12  C   UNL A   1      33.643  23.184  25.486  1.00  0.00     0.253 C 
ATOM     13  H   UNL A   1      33.297  25.077  24.981  1.00  0.00     0.164 HD
ATOM     14  O   UNL A   1      34.732  23.459  25.994  1.00  0.00    -0.269 OA
BRANCH  12  15
ATOM     15  C   UNL A   1      33.386  21.761  25.130  1.00  0.00     0.061 A 
ATOM     16  C   UNL A   1      32.941  21.460  23.845  1.00  0.00     0.125 A 
ATOM     17  C   UNL A   1      33.362  20.708  26.032  1.00  0.00     0.063 A 
ATOM     18  N   UNL A   1      32.520  20.227  23.437  1.00  0.00    -0.260 NA
ATOM     19  C   UNL A   1      32.925  19.442  25.661  1.00  0.00     0.134 A 
ATOM     20  C   UNL A   1      32.508  19.244  24.365  1.00  0.00     0.157 A 
BRANCH  19  21
ATOM     21  O   UNL A   1      32.855  18.430  26.572  1.00  0.00    -0.506 OA
ATOM     22  H   UNL A   1      32.802  17.541  26.282  1.00  0.00     0.293 HD
ENDBRANCH  19  21
ENDBRANCH  12  15
ENDBRANCH   7  11
ENDBRANCH   4   7
ENDBRANCH   2   3
ENDBRANCH   1   2
BRANCH   1  23
ATOM     23  C   UNL A   1      33.673  28.282  27.016  1.00  0.00     0.118 C 
BRANCH  23  24
ATOM     24  N   UNL A   1      33.552  29.658  27.448  1.00  0.00    -0.352 N 
ATOM     25  C   UNL A   1      34.496  30.486  28.006  1.00  0.00     0.251 C 
ATOM     26  H   UNL A   1      32.662  30.061  27.325  1.00  0.00     0.163 HD
ATOM     27  O   UNL A   1      34.175  31.636  28.311  1.00  0.00    -0.269 OA
BRANCH  25  28
ATOM     28  C   UNL A   1      35.869  30.007  28.292  1.00  0.00     0.039 A 
ATOM     29  C   UNL A   1      36.823  30.118  27.276  1.00  0.00     0.014 A 
ATOM     30  C   UNL A   1      36.222  29.435  29.518  1.00  0.00     0.014 A 
ATOM     31  C   UNL A   1      38.142  29.717  27.507  1.00  0.00     0.010 A 
ATOM     32  C   UNL A   1      37.553  29.074  29.762  1.00  0.00     0.010 A 
ATOM     33  C   UNL A   1      38.530  29.223  28.764  1.00  0.00    -0.014 A 
BRANCH  33  34
ATOM     34  C   UNL A   1      39.961  28.911  29.042  1.00  0.00     0.031 A 
ATOM     35  C   UNL A   1      40.880  29.944  29.635  1.00  0.00     0.074 A 
ATOM     36  C   UNL A   1      40.444  27.690  28.731  1.00  0.00     0.049 A 
ATOM     37  N   UNL A   1      42.155  29.849  29.921  1.00  0.00    -0.248 NA
ATOM     38  C   UNL A   1      40.295  31.259  29.938  1.00  0.00     0.031 C 
ATOM     39  C   UNL A   1      39.665  26.605  28.130  1.00  0.00     0.029 A 
ATOM     40  N   UNL A   1      41.702  27.155  28.868  1.00  0.00    -0.354 N 
ATOM     41  C   UNL A   1      42.527  31.088  30.432  1.00  0.00     0.074 A 
ATOM     42  C   UNL A   1      41.350  31.930  30.380  1.00  0.00     0.031 C 
ATOM     43  C   UNL A   1      40.456  25.534  27.963  1.00  0.00     0.029 A 
ATOM     44  C   UNL A   1      41.807  25.864  28.405  1.00  0.00     0.049 A 
ATOM     45  H   UNL A   1      42.457  27.649  29.261  1.00  0.00     0.167 HD
ATOM     46  C   UNL A   1      43.732  31.480  30.915  1.00  0.00     0.037 A 
ATOM     47  C   UNL A   1      42.873  25.041  28.325  1.00  0.00     0.037 A 
ATOM     48  C   UNL A   1      44.901  30.636  30.965  1.00  0.00     0.049 A 
ATOM     49  C   UNL A   1      44.210  25.516  28.827  1.00  0.00     0.074 A 
ATOM     50  C   UNL A   1      46.152  30.932  31.482  1.00  0.00     0.029 A 
ATOM     51  N   UNL A   1      44.972  29.342  30.472  1.00  0.00    -0.354 N 
ATOM     52  N   UNL A   1      44.525  26.668  29.371  1.00  0.00    -0.248 NA
ATOM     53  C   UNL A   1      45.337  24.580  28.706  1.00  0.00     0.031 C 
ATOM     54  C   UNL A   1      46.994  29.840  31.246  1.00  0.00     0.029 A 
ATOM     55  C   UNL A   1      46.254  28.838  30.639  1.00  0.00     0.049 A 
ATOM     56  H   UNL A   1      44.223  28.852  30.062  1.00  0.00     0.167 HD
ATOM     57  C   UNL A   1      45.881  26.586  29.675  1.00  0.00     0.074 A 
ATOM     58  C   UNL A   1      46.320  25.266  29.274  1.00  0.00     0.031 C 
ATOM     59  C   UNL A   1      46.687  27.524  30.233  1.00  0.00     0.037 A 
BRANCH  46  60
ATOM     60  C   UNL A   1      43.857  32.893  31.423  1.00  0.00     0.058 A 
ATOM     61  C   UNL A   1      44.327  33.933  30.604  1.00  0.00     0.135 A 
ATOM     62  C   UNL A   1      43.451  33.223  32.727  1.00  0.00     0.135 A 
ATOM     63  F   UNL A   1      44.737  33.677  29.352  1.00  0.00    -0.206 F 
ATOM     64  C   UNL A   1      44.419  35.242  31.070  1.00  0.00     0.059 A 
ATOM     65  C   UNL A   1      43.507  34.530  33.203  1.00  0.00     0.059 A 
ATOM     66  F   UNL A   1      42.988  32.271  33.552  1.00  0.00    -0.206 F 
ATOM     67  C   UNL A   1      44.006  35.531  32.371  1.00  0.00     0.060 A 
BRANCH  67  68
ATOM     68  S   UNL A   1      44.128  37.235  32.955  1.00  0.00     0.124 S 
ATOM     69  O   UNL A   1      45.533  37.310  33.342  1.00  0.00    -0.237 OA
ATOM     70  O   UNL A   1      43.757  37.998  31.767  1.00  0.00    -0.237 OA
ATOM     71  O   UNL A   1      43.171  37.289  34.055  1.00  0.00    -0.744 OA
ENDBRANCH  67  68
ENDBRANCH  46  60
BRANCH  47  72
ATOM     72  C   UNL A   1      42.719  23.679  27.743  1.00  0.00     0.058 A 
ATOM     73  C   UNL A   1      42.456  22.568  28.557  1.00  0.00     0.135 A 
ATOM     74  C   UNL A   1      42.825  23.463  26.360  1.00  0.00     0.135 A 
ATOM     75  F   UNL A   1      42.355  22.719  29.887  1.00  0.00    -0.206 F 
ATOM     76  C   UNL A   1      42.318  21.289  28.026  1.00  0.00     0.059 A 
ATOM     77  C   UNL A   1      42.662  22.199  25.801  1.00  0.00     0.059 A 
ATOM     78  F   UNL A   1      43.064  24.494  25.534  1.00  0.00    -0.206 F 
ATOM     79  C   UNL A   1      42.418  21.116  26.643  1.00  0.00     0.060 A 
BRANCH  79  80
ATOM     80  S   UNL A   1      42.184  19.462  25.960  1.00  0.00     0.124 S 
ATOM     81  O   UNL A   1      43.028  19.512  24.771  1.00  0.00    -0.237 OA
ATOM     82  O   UNL A   1      42.660  18.612  27.047  1.00  0.00    -0.237 OA
ATOM     83  O   UNL A   1      40.746  19.400  25.711  1.00  0.00    -0.744 OA
ENDBRANCH  79  80
ENDBRANCH  47  72
BRANCH  59  84
ATOM     84  C   UNL A   1      48.128  27.150  30.467  1.00  0.00     0.058 A 
ATOM     85  C   UNL A   1      49.114  27.363  29.491  1.00  0.00     0.135 A 
ATOM     86  C   UNL A   1      48.535  26.617  31.702  1.00  0.00     0.135 A 
ATOM     87  F   UNL A   1      48.779  27.862  28.290  1.00  0.00    -0.206 F 
ATOM     88  C   UNL A   1      50.448  27.041  29.721  1.00  0.00     0.059 A 
ATOM     89  C   UNL A   1      49.870  26.317  31.965  1.00  0.00     0.059 A 
ATOM     90  F   UNL A   1      47.637  26.400  32.675  1.00  0.00    -0.206 F 
ATOM     91  C   UNL A   1      50.817  26.521  30.963  1.00  0.00     0.060 A 
BRANCH  91  92
ATOM     92  S   UNL A   1      52.557  26.141  31.260  1.00  0.00     0.124 S 
ATOM     93  O   UNL A   1      53.098  26.165  29.904  1.00  0.00    -0.237 OA
ATOM     94  O   UNL A   1      52.972  27.238  32.128  1.00  0.00    -0.237 OA
ATOM     95  O   UNL A   1      52.516  24.827  31.895  1.00  0.00    -0.744 OA
ENDBRANCH  91  92
ENDBRANCH  59  84
ENDBRANCH  33  34
ENDBRANCH  25  28
ENDBRANCH  23  24
ENDBRANCH   1  23
TORSDOF 17
ENDMDL
