MODEL 1
REMARK VINA RESULT:     -10.3      0.000      0.000
REMARK SMILES CCC(CC)Oc1ccc(OC)cc1/C=C/C(=O)NCCCNC(=O)c1ccc(-c2c3nc(c(-c4c(F)cc(S(=O)(=O)[O-])cc4F)c4ccc([nH]4)c(-c4c(F)cc(S(=O)(=O)[O-])cc4F)c4nc(c(-c5c(F)cc(S(=O)(=O)[O-])cc5F)c5ccc2[nH]5)C=C4)C=C3)cc1
REMARK SMILES IDX 20 1 19 2 17 3 18 4 16 6 15 7 14 8 7 9 8 10 9 11 13 12 10 13
REMARK SMILES IDX 6 14 3 15 2 16 1 17 4 18 5 19 11 20 12 21 21 22 22 23 23 24
REMARK SMILES IDX 24 25 25 27 26 28 27 29 91 30 28 31 90 32 29 33 30 34 31 35
REMARK SMILES IDX 84 36 32 37 89 38 83 39 85 40 33 41 88 42 82 43 81 44 34 46
REMARK SMILES IDX 68 47 47 48 67 49 48 50 51 51 66 52 86 53 49 54 50 55 65 57
REMARK SMILES IDX 87 58 52 59 35 60 36 61 45 62 37 63 38 64 44 65 46 66 39 67
REMARK SMILES IDX 40 68 41 69 42 70 43 71 69 72 70 73 79 74 71 75 72 76 78 77
REMARK SMILES IDX 80 78 73 79 74 80 75 81 76 82 77 83 53 84 54 85 63 86 55 87
REMARK SMILES IDX 56 88 62 89 64 90 57 91 58 92 59 93 60 94 61 95
REMARK H PARENT 19 5 23 26 85 45 51 56
REMARK Flexibility Score: inf
ROOT
ATOM      1  C   UNL A   1      32.107  30.482  27.104  1.00  0.00     0.118 C 
ENDROOT
BRANCH   1   2
ATOM      2  N   UNL A   1      33.503  30.229  27.376  1.00  0.00    -0.352 N 
ATOM      3  C   UNL A   1      34.226  29.093  27.232  1.00  0.00     0.244 C 
ATOM      4  O   UNL A   1      35.453  29.141  27.298  1.00  0.00    -0.270 OA
ATOM      5  H   UNL A   1      34.007  31.002  27.719  1.00  0.00     0.163 HD
BRANCH   3   6
ATOM      6  C   UNL A   1      33.584  27.798  26.919  1.00  0.00     0.072 C 
ATOM      7  C   UNL A   1      33.823  27.062  25.821  1.00  0.00     0.018 C 
BRANCH   7   8
ATOM      8  C   UNL A   1      32.932  25.949  25.420  1.00  0.00     0.020 A 
ATOM      9  C   UNL A   1      31.620  26.126  24.950  1.00  0.00     0.127 A 
ATOM     10  C   UNL A   1      30.772  25.023  24.795  1.00  0.00     0.051 A 
ATOM     11  C   UNL A   1      31.249  23.728  24.998  1.00  0.00     0.050 A 
ATOM     12  C   UNL A   1      33.385  24.629  25.638  1.00  0.00     0.058 A 
ATOM     13  C   UNL A   1      32.567  23.522  25.394  1.00  0.00     0.119 A 
BRANCH   9  14
ATOM     14  O   UNL A   1      31.062  27.356  24.760  1.00  0.00    -0.490 OA
BRANCH  14  15
ATOM     15  C   UNL A   1      31.050  27.898  23.417  1.00  0.00     0.172 C 
BRANCH  15  16
ATOM     16  C   UNL A   1      31.928  27.024  22.523  1.00  0.00     0.042 C 
ATOM     17  C   UNL A   1      33.298  27.577  22.180  1.00  0.00     0.008 C 
ENDBRANCH  15  16
BRANCH  15  18
ATOM     18  C   UNL A   1      29.696  28.307  22.798  1.00  0.00     0.042 C 
ATOM     19  C   UNL A   1      29.294  29.773  22.921  1.00  0.00     0.008 C 
ENDBRANCH  15  18
ENDBRANCH  14  15
ENDBRANCH   9  14
BRANCH  13  20
ATOM     20  O   UNL A   1      32.935  22.214  25.547  1.00  0.00    -0.497 OA
ATOM     21  C   UNL A   1      33.115  21.467  24.349  1.00  0.00     0.278 C 
ENDBRANCH  13  20
ENDBRANCH   7   8
ENDBRANCH   3   6
ENDBRANCH   1   2
BRANCH   1  22
ATOM     22  C   UNL A   1      31.837  31.961  26.853  1.00  0.00     0.042 C 
BRANCH  22  23
ATOM     23  C   UNL A   1      32.951  32.852  27.378  1.00  0.00     0.118 C 
BRANCH  23  24
ATOM     24  N   UNL A   1      32.534  34.196  27.748  1.00  0.00    -0.352 N 
ATOM     25  C   UNL A   1      33.074  35.035  28.702  1.00  0.00     0.251 C 
ATOM     26  H   UNL A   1      31.764  34.555  27.251  1.00  0.00     0.163 HD
ATOM     27  O   UNL A   1      32.561  36.128  28.903  1.00  0.00    -0.269 OA
BRANCH  25  28
ATOM     28  C   UNL A   1      34.235  34.589  29.515  1.00  0.00     0.039 A 
ATOM     29  C   UNL A   1      34.009  34.109  30.809  1.00  0.00     0.014 A 
ATOM     30  C   UNL A   1      35.532  34.603  29.003  1.00  0.00     0.014 A 
ATOM     31  C   UNL A   1      35.069  33.571  31.547  1.00  0.00     0.010 A 
ATOM     32  C   UNL A   1      36.559  33.967  29.689  1.00  0.00     0.010 A 
ATOM     33  C   UNL A   1      36.346  33.453  30.975  1.00  0.00    -0.014 A 
BRANCH  33  34
ATOM     34  C   UNL A   1      37.484  32.827  31.699  1.00  0.00     0.031 A 
ATOM     35  C   UNL A   1      38.164  31.614  31.114  1.00  0.00     0.074 A 
ATOM     36  C   UNL A   1      37.841  33.282  32.916  1.00  0.00     0.049 A 
ATOM     37  N   UNL A   1      39.082  30.845  31.640  1.00  0.00    -0.248 NA
ATOM     38  C   UNL A   1      37.716  31.180  29.780  1.00  0.00     0.031 C 
ATOM     39  C   UNL A   1      37.215  34.403  33.624  1.00  0.00     0.029 A 
ATOM     40  N   UNL A   1      38.813  32.849  33.783  1.00  0.00    -0.354 N 
ATOM     41  C   UNL A   1      39.286  29.819  30.724  1.00  0.00     0.074 A 
ATOM     42  C   UNL A   1      38.357  30.031  29.636  1.00  0.00     0.031 C 
ATOM     43  C   UNL A   1      37.841  34.590  34.797  1.00  0.00     0.029 A 
ATOM     44  C   UNL A   1      38.886  33.582  34.945  1.00  0.00     0.049 A 
ATOM     45  H   UNL A   1      39.404  32.086  33.591  1.00  0.00     0.167 HD
ATOM     46  C   UNL A   1      40.187  28.808  30.767  1.00  0.00     0.037 A 
ATOM     47  C   UNL A   1      39.706  33.457  36.007  1.00  0.00     0.037 A 
ATOM     48  C   UNL A   1      41.155  28.645  31.818  1.00  0.00     0.049 A 
ATOM     49  C   UNL A   1      40.745  32.368  36.002  1.00  0.00     0.074 A 
ATOM     50  C   UNL A   1      42.169  27.709  31.919  1.00  0.00     0.029 A 
ATOM     51  N   UNL A   1      41.240  29.451  32.944  1.00  0.00    -0.354 N 
ATOM     52  N   UNL A   1      40.966  31.444  35.098  1.00  0.00    -0.248 NA
ATOM     53  C   UNL A   1      41.654  32.312  37.154  1.00  0.00     0.031 C 
ATOM     54  C   UNL A   1      42.852  27.933  33.119  1.00  0.00     0.029 A 
ATOM     55  C   UNL A   1      42.287  29.031  33.747  1.00  0.00     0.049 A 
ATOM     56  H   UNL A   1      40.644  30.209  33.143  1.00  0.00     0.167 HD
ATOM     57  C   UNL A   1      42.059  30.718  35.556  1.00  0.00     0.074 A 
ATOM     58  C   UNL A   1      42.459  31.315  36.814  1.00  0.00     0.031 C 
ATOM     59  C   UNL A   1      42.678  29.654  34.987  1.00  0.00     0.037 A 
BRANCH  46  60
ATOM     60  C   UNL A   1      40.176  27.816  29.637  1.00  0.00     0.058 A 
ATOM     61  C   UNL A   1      39.342  26.686  29.653  1.00  0.00     0.135 A 
ATOM     62  C   UNL A   1      41.002  28.001  28.516  1.00  0.00     0.135 A 
ATOM     63  F   UNL A   1      38.543  26.450  30.706  1.00  0.00    -0.206 F 
ATOM     64  C   UNL A   1      39.357  25.754  28.620  1.00  0.00     0.059 A 
ATOM     65  C   UNL A   1      41.011  27.097  27.457  1.00  0.00     0.059 A 
ATOM     66  F   UNL A   1      41.820  29.062  28.446  1.00  0.00    -0.206 F 
ATOM     67  C   UNL A   1      40.198  25.967  27.528  1.00  0.00     0.060 A 
BRANCH  67  68
ATOM     68  S   UNL A   1      40.211  24.746  26.198  1.00  0.00     0.124 S 
ATOM     69  O   UNL A   1      40.828  25.505  25.114  1.00  0.00    -0.237 OA
ATOM     70  O   UNL A   1      41.024  23.675  26.763  1.00  0.00    -0.237 OA
ATOM     71  O   UNL A   1      38.798  24.426  26.017  1.00  0.00    -0.744 OA
ENDBRANCH  67  68
ENDBRANCH  46  60
BRANCH  47  72
ATOM     72  C   UNL A   1      39.615  34.420  37.137  1.00  0.00     0.058 A 
ATOM     73  C   UNL A   1      38.890  34.096  38.294  1.00  0.00     0.135 A 
ATOM     74  C   UNL A   1      40.255  35.667  37.095  1.00  0.00     0.135 A 
ATOM     75  F   UNL A   1      38.257  32.917  38.379  1.00  0.00    -0.206 F 
ATOM     76  C   UNL A   1      38.784  34.982  39.361  1.00  0.00     0.059 A 
ATOM     77  C   UNL A   1      40.184  36.561  38.160  1.00  0.00     0.059 A 
ATOM     78  F   UNL A   1      40.978  36.017  36.019  1.00  0.00    -0.206 F 
ATOM     79  C   UNL A   1      39.437  36.214  39.285  1.00  0.00     0.060 A 
BRANCH  79  80
ATOM     80  S   UNL A   1      39.331  37.337  40.695  1.00  0.00     0.124 S 
ATOM     81  O   UNL A   1      38.828  36.451  41.739  1.00  0.00    -0.237 OA
ATOM     82  O   UNL A   1      40.715  37.776  40.843  1.00  0.00    -0.237 OA
ATOM     83  O   UNL A   1      38.401  38.365  40.236  1.00  0.00    -0.744 OA
ENDBRANCH  79  80
ENDBRANCH  47  72
BRANCH  59  84
ATOM     84  C   UNL A   1      43.883  29.100  35.692  1.00  0.00     0.058 A 
ATOM     85  C   UNL A   1      43.789  28.015  36.576  1.00  0.00     0.135 A 
ATOM     86  C   UNL A   1      45.157  29.635  35.440  1.00  0.00     0.135 A 
ATOM     87  F   UNL A   1      42.592  27.472  36.853  1.00  0.00    -0.206 F 
ATOM     88  C   UNL A   1      44.913  27.495  37.208  1.00  0.00     0.059 A 
ATOM     89  C   UNL A   1      46.298  29.114  36.040  1.00  0.00     0.059 A 
ATOM     90  F   UNL A   1      45.303  30.666  34.592  1.00  0.00    -0.206 F 
ATOM     91  C   UNL A   1      46.164  28.051  36.933  1.00  0.00     0.060 A 
BRANCH  91  92
ATOM     92  S   UNL A   1      47.621  27.350  37.735  1.00  0.00     0.124 S 
ATOM     93  O   UNL A   1      48.401  26.902  36.586  1.00  0.00    -0.237 OA
ATOM     94  O   UNL A   1      48.162  28.495  38.462  1.00  0.00    -0.237 OA
ATOM     95  O   UNL A   1      47.069  26.289  38.573  1.00  0.00    -0.744 OA
ENDBRANCH  91  92
ENDBRANCH  59  84
ENDBRANCH  33  34
ENDBRANCH  25  28
ENDBRANCH  23  24
ENDBRANCH  22  23
ENDBRANCH   1  22
TORSDOF 19
ENDMDL
MODEL 2
REMARK VINA RESULT:     -10.0      5.422     13.555
REMARK SMILES CCC(CC)Oc1ccc(OC)cc1/C=C/C(=O)NCCCNC(=O)c1ccc(-c2c3nc(c(-c4c(F)cc(S(=O)(=O)[O-])cc4F)c4ccc([nH]4)c(-c4c(F)cc(S(=O)(=O)[O-])cc4F)c4nc(c(-c5c(F)cc(S(=O)(=O)[O-])cc5F)c5ccc2[nH]5)C=C4)C=C3)cc1
REMARK SMILES IDX 20 1 19 2 17 3 18 4 16 6 15 7 14 8 7 9 8 10 9 11 13 12 10 13
REMARK SMILES IDX 6 14 3 15 2 16 1 17 4 18 5 19 11 20 12 21 21 22 22 23 23 24
REMARK SMILES IDX 24 25 25 27 26 28 27 29 91 30 28 31 90 32 29 33 30 34 31 35
REMARK SMILES IDX 84 36 32 37 89 38 83 39 85 40 33 41 88 42 82 43 81 44 34 46
REMARK SMILES IDX 68 47 47 48 67 49 48 50 51 51 66 52 86 53 49 54 50 55 65 57
REMARK SMILES IDX 87 58 52 59 35 60 36 61 45 62 37 63 38 64 44 65 46 66 39 67
REMARK SMILES IDX 40 68 41 69 42 70 43 71 69 72 70 73 79 74 71 75 72 76 78 77
REMARK SMILES IDX 80 78 73 79 74 80 75 81 76 82 77 83 53 84 54 85 63 86 55 87
REMARK SMILES IDX 56 88 62 89 64 90 57 91 58 92 59 93 60 94 61 95
REMARK H PARENT 19 5 23 26 85 45 51 56
REMARK Flexibility Score: inf
ROOT
ATOM      1  C   UNL A   1      46.408  22.086  37.783  1.00  0.00     0.118 C 
ENDROOT
BRANCH   1   2
ATOM      2  N   UNL A   1      46.131  21.023  36.843  1.00  0.00    -0.352 N 
ATOM      3  C   UNL A   1      46.205  19.680  37.002  1.00  0.00     0.244 C 
ATOM      4  O   UNL A   1      45.706  18.940  36.155  1.00  0.00    -0.270 OA
ATOM      5  H   UNL A   1      45.843  21.322  35.950  1.00  0.00     0.163 HD
BRANCH   3   6
ATOM      6  C   UNL A   1      46.805  19.072  38.208  1.00  0.00     0.072 C 
ATOM      7  C   UNL A   1      46.141  18.341  39.118  1.00  0.00     0.018 C 
BRANCH   7   8
ATOM      8  C   UNL A   1      46.723  18.029  40.444  1.00  0.00     0.020 A 
ATOM      9  C   UNL A   1      46.278  16.984  41.268  1.00  0.00     0.127 A 
ATOM     10  C   UNL A   1      46.731  16.885  42.589  1.00  0.00     0.051 A 
ATOM     11  C   UNL A   1      47.711  17.755  43.068  1.00  0.00     0.050 A 
ATOM     12  C   UNL A   1      47.700  18.910  40.959  1.00  0.00     0.058 A 
ATOM     13  C   UNL A   1      48.221  18.755  42.246  1.00  0.00     0.119 A 
BRANCH   9  14
ATOM     14  O   UNL A   1      45.298  16.112  40.894  1.00  0.00    -0.490 OA
BRANCH  14  15
ATOM     15  C   UNL A   1      43.944  16.378  41.334  1.00  0.00     0.172 C 
BRANCH  15  16
ATOM     16  C   UNL A   1      43.044  16.520  40.108  1.00  0.00     0.042 C 
ATOM     17  C   UNL A   1      43.475  15.764  38.867  1.00  0.00     0.008 C 
ENDBRANCH  15  16
BRANCH  15  18
ATOM     18  C   UNL A   1      43.357  15.519  42.476  1.00  0.00     0.042 C 
ATOM     19  C   UNL A   1      42.222  14.568  42.113  1.00  0.00     0.008 C 
ENDBRANCH  15  18
ENDBRANCH  14  15
ENDBRANCH   9  14
BRANCH  13  20
ATOM     20  O   UNL A   1      49.189  19.539  42.810  1.00  0.00    -0.497 OA
ATOM     21  C   UNL A   1      50.535  19.121  42.609  1.00  0.00     0.278 C 
ENDBRANCH  13  20
ENDBRANCH   7   8
ENDBRANCH   3   6
ENDBRANCH   1   2
BRANCH   1  22
ATOM     22  C   UNL A   1      45.904  23.433  37.281  1.00  0.00     0.042 C 
BRANCH  22  23
ATOM     23  C   UNL A   1      47.038  24.371  36.900  1.00  0.00     0.118 C 
BRANCH  23  24
ATOM     24  N   UNL A   1      47.433  25.304  37.945  1.00  0.00    -0.352 N 
ATOM     25  C   UNL A   1      46.946  26.571  38.201  1.00  0.00     0.251 C 
ATOM     26  H   UNL A   1      48.143  24.990  38.551  1.00  0.00     0.163 HD
ATOM     27  O   UNL A   1      47.432  27.232  39.109  1.00  0.00    -0.269 OA
BRANCH  25  28
ATOM     28  C   UNL A   1      45.879  27.145  37.341  1.00  0.00     0.039 A 
ATOM     29  C   UNL A   1      44.547  26.810  37.603  1.00  0.00     0.014 A 
ATOM     30  C   UNL A   1      46.175  28.034  36.308  1.00  0.00     0.014 A 
ATOM     31  C   UNL A   1      43.518  27.432  36.885  1.00  0.00     0.010 A 
ATOM     32  C   UNL A   1      45.153  28.733  35.676  1.00  0.00     0.010 A 
ATOM     33  C   UNL A   1      43.812  28.434  35.947  1.00  0.00    -0.014 A 
BRANCH  33  34
ATOM     34  C   UNL A   1      42.747  29.167  35.211  1.00  0.00     0.031 A 
ATOM     35  C   UNL A   1      42.368  28.732  33.818  1.00  0.00     0.074 A 
ATOM     36  C   UNL A   1      42.195  30.272  35.750  1.00  0.00     0.049 A 
ATOM     37  N   UNL A   1      41.564  29.307  32.960  1.00  0.00    -0.248 NA
ATOM     38  C   UNL A   1      43.016  27.515  33.302  1.00  0.00     0.031 C 
ATOM     39  C   UNL A   1      42.527  30.838  37.060  1.00  0.00     0.029 A 
ATOM     40  N   UNL A   1      41.242  31.128  35.256  1.00  0.00    -0.354 N 
ATOM     41  C   UNL A   1      41.647  28.549  31.798  1.00  0.00     0.074 A 
ATOM     42  C   UNL A   1      42.619  27.508  32.039  1.00  0.00     0.031 C 
ATOM     43  C   UNL A   1      41.767  31.923  37.279  1.00  0.00     0.029 A 
ATOM     44  C   UNL A   1      40.921  32.154  36.112  1.00  0.00     0.049 A 
ATOM     45  H   UNL A   1      40.827  31.017  34.370  1.00  0.00     0.167 HD
ATOM     46  C   UNL A   1      40.952  28.688  30.643  1.00  0.00     0.037 A 
ATOM     47  C   UNL A   1      40.040  33.165  35.974  1.00  0.00     0.037 A 
ATOM     48  C   UNL A   1      39.934  29.683  30.436  1.00  0.00     0.049 A 
ATOM     49  C   UNL A   1      39.230  33.258  34.709  1.00  0.00     0.074 A 
ATOM     50  C   UNL A   1      39.110  29.858  29.339  1.00  0.00     0.029 A 
ATOM     51  N   UNL A   1      39.591  30.663  31.356  1.00  0.00    -0.354 N 
ATOM     52  N   UNL A   1      39.276  32.495  33.643  1.00  0.00    -0.248 NA
ATOM     53  C   UNL A   1      38.240  34.341  34.632  1.00  0.00     0.031 C 
ATOM     54  C   UNL A   1      38.285  30.961  29.586  1.00  0.00     0.029 A 
ATOM     55  C   UNL A   1      38.569  31.448  30.851  1.00  0.00     0.049 A 
ATOM     56  H   UNL A   1      40.011  30.782  32.239  1.00  0.00     0.167 HD
ATOM     57  C   UNL A   1      38.299  32.985  32.783  1.00  0.00     0.074 A 
ATOM     58  C   UNL A   1      37.675  34.106  33.457  1.00  0.00     0.031 C 
ATOM     59  C   UNL A   1      37.949  32.547  31.549  1.00  0.00     0.037 A 
BRANCH  46  60
ATOM     60  C   UNL A   1      41.259  27.728  29.526  1.00  0.00     0.058 A 
ATOM     61  C   UNL A   1      40.385  26.680  29.191  1.00  0.00     0.135 A 
ATOM     62  C   UNL A   1      42.436  27.862  28.771  1.00  0.00     0.135 A 
ATOM     63  F   UNL A   1      39.253  26.495  29.888  1.00  0.00    -0.206 F 
ATOM     64  C   UNL A   1      40.685  25.777  28.177  1.00  0.00     0.059 A 
ATOM     65  C   UNL A   1      42.742  26.987  27.733  1.00  0.00     0.059 A 
ATOM     66  F   UNL A   1      43.308  28.844  29.047  1.00  0.00    -0.206 F 
ATOM     67  C   UNL A   1      41.869  25.936  27.456  1.00  0.00     0.060 A 
BRANCH  67  68
ATOM     68  S   UNL A   1      42.249  24.752  26.148  1.00  0.00     0.124 S 
ATOM     69  O   UNL A   1      43.573  24.289  26.552  1.00  0.00    -0.237 OA
ATOM     70  O   UNL A   1      41.170  23.778  26.283  1.00  0.00    -0.237 OA
ATOM     71  O   UNL A   1      42.209  25.562  24.934  1.00  0.00    -0.744 OA
ENDBRANCH  67  68
ENDBRANCH  46  60
BRANCH  47  72
ATOM     72  C   UNL A   1      39.838  34.136  37.082  1.00  0.00     0.058 A 
ATOM     73  C   UNL A   1      38.897  33.882  38.091  1.00  0.00     0.135 A 
ATOM     74  C   UNL A   1      40.582  35.322  37.166  1.00  0.00     0.135 A 
ATOM     75  F   UNL A   1      38.159  32.763  38.052  1.00  0.00    -0.206 F 
ATOM     76  C   UNL A   1      38.685  34.778  39.134  1.00  0.00     0.059 A 
ATOM     77  C   UNL A   1      40.406  36.223  38.213  1.00  0.00     0.059 A 
ATOM     78  F   UNL A   1      41.510  35.602  36.237  1.00  0.00    -0.206 F 
ATOM     79  C   UNL A   1      39.446  35.947  39.186  1.00  0.00     0.060 A 
BRANCH  79  80
ATOM     80  S   UNL A   1      39.195  37.081  40.569  1.00  0.00     0.124 S 
ATOM     81  O   UNL A   1      40.552  37.562  40.805  1.00  0.00    -0.237 OA
ATOM     82  O   UNL A   1      38.263  38.053  40.006  1.00  0.00    -0.237 OA
ATOM     83  O   UNL A   1      38.639  36.223  41.611  1.00  0.00    -0.744 OA
ENDBRANCH  79  80
ENDBRANCH  47  72
BRANCH  59  84
ATOM     84  C   UNL A   1      36.807  33.246  30.867  1.00  0.00     0.058 A 
ATOM     85  C   UNL A   1      37.020  34.229  29.890  1.00  0.00     0.135 A 
ATOM     86  C   UNL A   1      35.482  32.890  31.166  1.00  0.00     0.135 A 
ATOM     87  F   UNL A   1      38.269  34.608  29.573  1.00  0.00    -0.206 F 
ATOM     88  C   UNL A   1      35.957  34.855  29.249  1.00  0.00     0.059 A 
ATOM     89  C   UNL A   1      34.404  33.483  30.519  1.00  0.00     0.059 A 
ATOM     90  F   UNL A   1      35.226  31.945  32.085  1.00  0.00    -0.206 F 
ATOM     91  C   UNL A   1      34.652  34.476  29.570  1.00  0.00     0.060 A 
BRANCH  91  92
ATOM     92  S   UNL A   1      33.280  35.274  28.712  1.00  0.00     0.124 S 
ATOM     93  O   UNL A   1      33.985  36.133  27.767  1.00  0.00    -0.237 OA
ATOM     94  O   UNL A   1      32.570  34.138  28.128  1.00  0.00    -0.237 OA
ATOM     95  O   UNL A   1      32.567  35.966  29.781  1.00  0.00    -0.744 OA
ENDBRANCH  91  92
ENDBRANCH  59  84
ENDBRANCH  33  34
ENDBRANCH  25  28
ENDBRANCH  23  24
ENDBRANCH  22  23
ENDBRANCH   1  22
TORSDOF 19
ENDMDL
MODEL 3
REMARK VINA RESULT:      -9.9      6.433     10.988
REMARK SMILES CCC(CC)Oc1ccc(OC)cc1/C=C/C(=O)NCCCNC(=O)c1ccc(-c2c3nc(c(-c4c(F)cc(S(=O)(=O)[O-])cc4F)c4ccc([nH]4)c(-c4c(F)cc(S(=O)(=O)[O-])cc4F)c4nc(c(-c5c(F)cc(S(=O)(=O)[O-])cc5F)c5ccc2[nH]5)C=C4)C=C3)cc1
REMARK SMILES IDX 20 1 19 2 17 3 18 4 16 6 15 7 14 8 7 9 8 10 9 11 13 12 10 13
REMARK SMILES IDX 6 14 3 15 2 16 1 17 4 18 5 19 11 20 12 21 21 22 22 23 23 24
REMARK SMILES IDX 24 25 25 27 26 28 27 29 91 30 28 31 90 32 29 33 30 34 31 35
REMARK SMILES IDX 84 36 32 37 89 38 83 39 85 40 33 41 88 42 82 43 81 44 34 46
REMARK SMILES IDX 68 47 47 48 67 49 48 50 51 51 66 52 86 53 49 54 50 55 65 57
REMARK SMILES IDX 87 58 52 59 35 60 36 61 45 62 37 63 38 64 44 65 46 66 39 67
REMARK SMILES IDX 40 68 41 69 42 70 43 71 69 72 70 73 79 74 71 75 72 76 78 77
REMARK SMILES IDX 80 78 73 79 74 80 75 81 76 82 77 83 53 84 54 85 63 86 55 87
REMARK SMILES IDX 56 88 62 89 64 90 57 91 58 92 59 93 60 94 61 95
REMARK H PARENT 19 5 23 26 85 45 51 56
REMARK Flexibility Score: inf
ROOT
ATOM      1  C   UNL A   1      35.163  29.374  27.035  1.00  0.00     0.118 C 
ENDROOT
BRANCH   1   2
ATOM      2  N   UNL A   1      34.005  30.059  26.507  1.00  0.00    -0.352 N 
ATOM      3  C   UNL A   1      32.731  29.623  26.356  1.00  0.00     0.244 C 
ATOM      4  O   UNL A   1      31.839  30.432  26.104  1.00  0.00    -0.270 OA
ATOM      5  H   UNL A   1      34.166  30.984  26.213  1.00  0.00     0.163 HD
BRANCH   3   6
ATOM      6  C   UNL A   1      32.365  28.206  26.562  1.00  0.00     0.072 C 
ATOM      7  C   UNL A   1      32.834  27.173  25.843  1.00  0.00     0.018 C 
BRANCH   7   8
ATOM      8  C   UNL A   1      32.200  25.836  25.893  1.00  0.00     0.020 A 
ATOM      9  C   UNL A   1      31.074  25.475  25.136  1.00  0.00     0.127 A 
ATOM     10  C   UNL A   1      30.407  24.272  25.394  1.00  0.00     0.051 A 
ATOM     11  C   UNL A   1      30.914  23.367  26.327  1.00  0.00     0.050 A 
ATOM     12  C   UNL A   1      32.682  24.912  26.846  1.00  0.00     0.058 A 
ATOM     13  C   UNL A   1      32.070  23.670  27.038  1.00  0.00     0.119 A 
BRANCH   9  14
ATOM     14  O   UNL A   1      30.492  26.312  24.230  1.00  0.00    -0.490 OA
BRANCH  14  15
ATOM     15  C   UNL A   1      30.926  26.232  22.851  1.00  0.00     0.172 C 
BRANCH  15  16
ATOM     16  C   UNL A   1      30.796  27.613  22.210  1.00  0.00     0.042 C 
ATOM     17  C   UNL A   1      30.851  28.799  23.153  1.00  0.00     0.008 C 
ENDBRANCH  15  16
BRANCH  15  18
ATOM     18  C   UNL A   1      32.243  25.490  22.534  1.00  0.00     0.042 C 
ATOM     19  C   UNL A   1      33.422  26.339  22.071  1.00  0.00     0.008 C 
ENDBRANCH  15  18
ENDBRANCH  14  15
ENDBRANCH   9  14
BRANCH  13  20
ATOM     20  O   UNL A   1      32.489  22.706  27.913  1.00  0.00    -0.497 OA
ATOM     21  C   UNL A   1      33.637  21.960  27.526  1.00  0.00     0.278 C 
ENDBRANCH  13  20
ENDBRANCH   7   8
ENDBRANCH   3   6
ENDBRANCH   1   2
BRANCH   1  22
ATOM     22  C   UNL A   1      35.321  29.599  28.534  1.00  0.00     0.042 C 
BRANCH  22  23
ATOM     23  C   UNL A   1      35.650  31.044  28.872  1.00  0.00     0.118 C 
BRANCH  23  24
ATOM     24  N   UNL A   1      35.787  31.320  30.294  1.00  0.00    -0.352 N 
ATOM     25  C   UNL A   1      36.875  31.100  31.116  1.00  0.00     0.251 C 
ATOM     26  H   UNL A   1      34.998  31.718  30.729  1.00  0.00     0.163 HD
ATOM     27  O   UNL A   1      36.793  31.362  32.309  1.00  0.00    -0.269 OA
BRANCH  25  28
ATOM     28  C   UNL A   1      38.115  30.495  30.563  1.00  0.00     0.039 A 
ATOM     29  C   UNL A   1      38.495  30.811  29.254  1.00  0.00     0.014 A 
ATOM     30  C   UNL A   1      38.921  29.654  31.330  1.00  0.00     0.014 A 
ATOM     31  C   UNL A   1      39.719  30.351  28.754  1.00  0.00     0.010 A 
ATOM     32  C   UNL A   1      40.183  29.294  30.875  1.00  0.00     0.010 A 
ATOM     33  C   UNL A   1      40.595  29.626  29.578  1.00  0.00    -0.014 A 
BRANCH  33  34
ATOM     34  C   UNL A   1      41.933  29.177  29.109  1.00  0.00     0.031 A 
ATOM     35  C   UNL A   1      43.071  30.164  29.044  1.00  0.00     0.074 A 
ATOM     36  C   UNL A   1      42.100  27.919  28.654  1.00  0.00     0.049 A 
ATOM     37  N   UNL A   1      44.272  30.012  28.547  1.00  0.00    -0.248 NA
ATOM     38  C   UNL A   1      42.808  31.517  29.561  1.00  0.00     0.031 C 
ATOM     39  C   UNL A   1      41.060  26.889  28.597  1.00  0.00     0.029 A 
ATOM     40  N   UNL A   1      43.209  27.294  28.139  1.00  0.00    -0.354 N 
ATOM     41  C   UNL A   1      44.885  31.256  28.653  1.00  0.00     0.074 A 
ATOM     42  C   UNL A   1      43.907  32.164  29.207  1.00  0.00     0.031 C 
ATOM     43  C   UNL A   1      41.587  25.754  28.110  1.00  0.00     0.029 A 
ATOM     44  C   UNL A   1      42.992  25.983  27.785  1.00  0.00     0.049 A 
ATOM     45  H   UNL A   1      44.079  27.743  28.033  1.00  0.00     0.167 HD
ATOM     46  C   UNL A   1      46.158  31.604  28.347  1.00  0.00     0.037 A 
ATOM     47  C   UNL A   1      43.831  25.069  27.262  1.00  0.00     0.037 A 
ATOM     48  C   UNL A   1      47.146  30.677  27.863  1.00  0.00     0.049 A 
ATOM     49  C   UNL A   1      45.260  25.460  26.993  1.00  0.00     0.074 A 
ATOM     50  C   UNL A   1      48.486  30.903  27.603  1.00  0.00     0.029 A 
ATOM     51  N   UNL A   1      46.903  29.341  27.583  1.00  0.00    -0.354 N 
ATOM     52  N   UNL A   1      45.840  26.625  27.158  1.00  0.00    -0.248 NA
ATOM     53  C   UNL A   1      46.151  24.410  26.480  1.00  0.00     0.031 C 
ATOM     54  C   UNL A   1      49.048  29.708  27.140  1.00  0.00     0.029 A 
ATOM     55  C   UNL A   1      48.067  28.730  27.149  1.00  0.00     0.049 A 
ATOM     56  H   UNL A   1      46.032  28.892  27.678  1.00  0.00     0.167 HD
ATOM     57  C   UNL A   1      47.171  26.440  26.801  1.00  0.00     0.074 A 
ATOM     58  C   UNL A   1      47.311  25.049  26.418  1.00  0.00     0.031 C 
ATOM     59  C   UNL A   1      48.187  27.338  26.792  1.00  0.00     0.037 A 
BRANCH  46  60
ATOM     60  C   UNL A   1      46.555  33.042  28.545  1.00  0.00     0.058 A 
ATOM     61  C   UNL A   1      46.441  33.988  27.513  1.00  0.00     0.135 A 
ATOM     62  C   UNL A   1      47.045  33.483  29.785  1.00  0.00     0.135 A 
ATOM     63  F   UNL A   1      45.994  33.619  26.303  1.00  0.00    -0.206 F 
ATOM     64  C   UNL A   1      46.837  35.310  27.691  1.00  0.00     0.059 A 
ATOM     65  C   UNL A   1      47.418  34.808  29.993  1.00  0.00     0.059 A 
ATOM     66  F   UNL A   1      47.175  32.622  30.806  1.00  0.00    -0.206 F 
ATOM     67  C   UNL A   1      47.328  35.709  28.934  1.00  0.00     0.060 A 
BRANCH  67  68
ATOM     68  S   UNL A   1      47.844  37.426  29.147  1.00  0.00     0.124 S 
ATOM     69  O   UNL A   1      49.188  37.397  28.578  1.00  0.00    -0.237 OA
ATOM     70  O   UNL A   1      46.844  38.153  28.372  1.00  0.00    -0.237 OA
ATOM     71  O   UNL A   1      47.777  37.624  30.592  1.00  0.00    -0.744 OA
ENDBRANCH  67  68
ENDBRANCH  46  60
BRANCH  47  72
ATOM     72  C   UNL A   1      43.360  23.681  27.008  1.00  0.00     0.058 A 
ATOM     73  C   UNL A   1      43.190  22.779  28.069  1.00  0.00     0.135 A 
ATOM     74  C   UNL A   1      43.058  23.231  25.715  1.00  0.00     0.135 A 
ATOM     75  F   UNL A   1      43.470  23.162  29.324  1.00  0.00    -0.206 F 
ATOM     76  C   UNL A   1      42.758  21.475  27.857  1.00  0.00     0.059 A 
ATOM     77  C   UNL A   1      42.601  21.937  25.478  1.00  0.00     0.059 A 
ATOM     78  F   UNL A   1      43.185  24.061  24.667  1.00  0.00    -0.206 F 
ATOM     79  C   UNL A   1      42.464  21.063  26.556  1.00  0.00     0.060 A 
BRANCH  79  80
ATOM     80  S   UNL A   1      41.859  19.381  26.297  1.00  0.00     0.124 S 
ATOM     81  O   UNL A   1      42.562  19.001  25.077  1.00  0.00    -0.237 OA
ATOM     82  O   UNL A   1      42.291  18.707  27.518  1.00  0.00    -0.237 OA
ATOM     83  O   UNL A   1      40.417  19.560  26.166  1.00  0.00    -0.744 OA
ENDBRANCH  79  80
ENDBRANCH  47  72
BRANCH  59  84
ATOM     84  C   UNL A   1      49.548  26.835  26.404  1.00  0.00     0.058 A 
ATOM     85  C   UNL A   1      50.017  26.911  25.085  1.00  0.00     0.135 A 
ATOM     86  C   UNL A   1      50.412  26.313  27.381  1.00  0.00     0.135 A 
ATOM     87  F   UNL A   1      49.226  27.398  24.114  1.00  0.00    -0.206 F 
ATOM     88  C   UNL A   1      51.287  26.463  24.739  1.00  0.00     0.059 A 
ATOM     89  C   UNL A   1      51.696  25.884  27.064  1.00  0.00     0.059 A 
ATOM     90  F   UNL A   1      50.016  26.231  28.661  1.00  0.00    -0.206 F 
ATOM     91  C   UNL A   1      52.120  25.950  25.736  1.00  0.00     0.060 A 
BRANCH  91  92
ATOM     92  S   UNL A   1      53.777  25.399  25.284  1.00  0.00     0.124 S 
ATOM     93  O   UNL A   1      54.456  25.423  26.575  1.00  0.00    -0.237 OA
ATOM     94  O   UNL A   1      53.526  24.074  24.724  1.00  0.00    -0.237 OA
ATOM     95  O   UNL A   1      54.219  26.405  24.322  1.00  0.00    -0.744 OA
ENDBRANCH  91  92
ENDBRANCH  59  84
ENDBRANCH  33  34
ENDBRANCH  25  28
ENDBRANCH  23  24
ENDBRANCH  22  23
ENDBRANCH   1  22
TORSDOF 19
ENDMDL
