MODEL 1
REMARK VINA RESULT:     -11.7      0.000      0.000
REMARK SMILES CNc1cc(-c2cncc(SCC(=O)NCCCNC(=O)c3ccc(-c4c5nc(c(-c6c(F)cc(S(=O)(=O)[O-])cc6F)c6ccc([nH]6)c(-c6c(F)cc(S(=O)(=O)[O-])cc6F)c6nc(c(-c7c(F)cc(S(=O)(=O)[O-])cc7F)c7ccc4[nH]7)C=C6)C=C5)cc3)n2)c2cc[nH]c2n1
REMARK SMILES IDX 16 1 15 2 13 3 14 4 12 6 11 7 10 8 6 9 7 10 88 11 8 12 9 13
REMARK SMILES IDX 5 14 3 15 4 16 94 17 93 18 89 19 92 20 90 21 91 22 2 24 1 25
REMARK SMILES IDX 17 27 18 28 19 29 20 30 21 32 22 33 23 34 87 35 24 36 86 37
REMARK SMILES IDX 25 38 26 39 27 40 80 41 28 42 85 43 79 44 81 45 29 46 84 47
REMARK SMILES IDX 78 48 77 49 30 51 64 52 43 53 63 54 44 55 47 56 62 57 82 58
REMARK SMILES IDX 45 59 46 60 61 62 83 63 48 64 31 65 32 66 41 67 33 68 34 69
REMARK SMILES IDX 40 70 42 71 35 72 36 73 37 74 38 75 39 76 65 77 66 78 75 79
REMARK SMILES IDX 67 80 68 81 74 82 76 83 69 84 70 85 71 86 72 87 73 88 49 89
REMARK SMILES IDX 50 90 59 91 51 92 52 93 58 94 60 95 53 96 54 97 55 98 56 99
REMARK SMILES IDX 57 100
REMARK H PARENT 15 5 92 23 2 26 19 31 81 50 47 61
REMARK Flexibility Score: inf
ROOT
ATOM      1  C   UNL A   1      31.792  29.275  25.171  1.00  0.00     0.117 C 
ENDROOT
BRANCH   1   2
ATOM      2  N   UNL A   1      31.364  29.549  23.812  1.00  0.00    -0.355 N 
ATOM      3  C   UNL A   1      30.609  28.805  22.955  1.00  0.00     0.230 C 
ATOM      4  O   UNL A   1      30.258  29.355  21.907  1.00  0.00    -0.274 OA
ATOM      5  H   UNL A   1      31.668  30.413  23.451  1.00  0.00     0.163 HD
BRANCH   3   6
ATOM      6  C   UNL A   1      30.078  27.434  23.332  1.00  0.00     0.176 C 
BRANCH   6   7
ATOM      7  S   UNL A   1      31.059  26.021  22.753  1.00  0.00    -0.095 SA
BRANCH   7   8
ATOM      8  C   UNL A   1      31.514  25.207  24.267  1.00  0.00     0.116 A 
ATOM      9  C   UNL A   1      32.901  23.847  25.507  1.00  0.00     0.091 A 
ATOM     10  C   UNL A   1      32.063  24.017  26.609  1.00  0.00     0.140 A 
ATOM     11  N   UNL A   1      32.626  24.443  24.314  1.00  0.00    -0.238 NA
ATOM     12  N   UNL A   1      30.940  24.768  26.573  1.00  0.00    -0.260 NA
ATOM     13  C   UNL A   1      30.690  25.358  25.381  1.00  0.00     0.146 A 
BRANCH   9  14
ATOM     14  C   UNL A   1      34.085  23.000  25.576  1.00  0.00     0.016 A 
ATOM     15  C   UNL A   1      36.469  22.668  25.951  1.00  0.00     0.128 A 
ATOM     16  C   UNL A   1      35.351  23.500  25.931  1.00  0.00     0.058 A 
ATOM     17  N   UNL A   1      36.429  21.371  25.597  1.00  0.00    -0.213 NA
ATOM     18  C   UNL A   1      35.206  20.919  25.276  1.00  0.00     0.140 A 
ATOM     19  C   UNL A   1      34.015  21.634  25.248  1.00  0.00     0.028 A 
ATOM     20  N   UNL A   1      34.937  19.626  24.920  1.00  0.00    -0.346 N 
ATOM     21  C   UNL A   1      33.004  20.712  24.851  1.00  0.00     0.030 A 
ATOM     22  C   UNL A   1      33.599  19.482  24.663  1.00  0.00     0.085 A 
ATOM     23  H   UNL A   1      35.606  18.906  24.858  1.00  0.00     0.167 HD
BRANCH  15  24
ATOM     24  N   UNL A   1      37.712  23.100  26.345  1.00  0.00    -0.373 N 
ATOM     25  C   UNL A   1      38.923  22.348  26.161  1.00  0.00     0.141 C 
ATOM     26  H   UNL A   1      37.778  23.980  26.781  1.00  0.00     0.161 HD
ENDBRANCH  15  24
ENDBRANCH   9  14
ENDBRANCH   7   8
ENDBRANCH   6   7
ENDBRANCH   3   6
ENDBRANCH   1   2
BRANCH   1  27
ATOM     27  C   UNL A   1      33.071  28.442  25.217  1.00  0.00     0.042 C 
BRANCH  27  28
ATOM     28  C   UNL A   1      33.869  28.589  26.512  1.00  0.00     0.118 C 
BRANCH  28  29
ATOM     29  N   UNL A   1      33.709  29.898  27.130  1.00  0.00    -0.352 N 
ATOM     30  C   UNL A   1      34.542  30.585  27.979  1.00  0.00     0.251 C 
ATOM     31  H   UNL A   1      32.872  30.364  26.904  1.00  0.00     0.163 HD
ATOM     32  O   UNL A   1      34.127  31.606  28.527  1.00  0.00    -0.269 OA
BRANCH  30  33
ATOM     33  C   UNL A   1      35.913  30.104  28.255  1.00  0.00     0.039 A 
ATOM     34  C   UNL A   1      36.860  30.141  27.227  1.00  0.00     0.014 A 
ATOM     35  C   UNL A   1      36.268  29.591  29.506  1.00  0.00     0.014 A 
ATOM     36  C   UNL A   1      38.172  29.729  27.472  1.00  0.00     0.010 A 
ATOM     37  C   UNL A   1      37.594  29.254  29.771  1.00  0.00     0.010 A 
ATOM     38  C   UNL A   1      38.561  29.319  28.759  1.00  0.00    -0.014 A 
BRANCH  38  39
ATOM     39  C   UNL A   1      39.976  28.968  29.061  1.00  0.00     0.031 A 
ATOM     40  C   UNL A   1      40.914  30.000  29.628  1.00  0.00     0.074 A 
ATOM     41  C   UNL A   1      40.433  27.737  28.757  1.00  0.00     0.049 A 
ATOM     42  N   UNL A   1      42.192  29.899  29.890  1.00  0.00    -0.248 NA
ATOM     43  C   UNL A   1      40.347  31.327  29.912  1.00  0.00     0.031 C 
ATOM     44  C   UNL A   1      39.640  26.666  28.152  1.00  0.00     0.029 A 
ATOM     45  N   UNL A   1      41.682  27.183  28.898  1.00  0.00    -0.354 N 
ATOM     46  C   UNL A   1      42.585  31.149  30.354  1.00  0.00     0.074 A 
ATOM     47  C   UNL A   1      41.421  32.007  30.287  1.00  0.00     0.031 C 
ATOM     48  C   UNL A   1      40.414  25.582  27.986  1.00  0.00     0.029 A 
ATOM     49  C   UNL A   1      41.769  25.892  28.432  1.00  0.00     0.049 A 
ATOM     50  H   UNL A   1      42.443  27.664  29.295  1.00  0.00     0.167 HD
ATOM     51  C   UNL A   1      43.798  31.541  30.814  1.00  0.00     0.037 A 
ATOM     52  C   UNL A   1      42.823  25.054  28.355  1.00  0.00     0.037 A 
ATOM     53  C   UNL A   1      44.948  30.677  30.892  1.00  0.00     0.049 A 
ATOM     54  C   UNL A   1      44.160  25.509  28.870  1.00  0.00     0.074 A 
ATOM     55  C   UNL A   1      46.203  30.959  31.401  1.00  0.00     0.029 A 
ATOM     56  N   UNL A   1      44.989  29.366  30.436  1.00  0.00    -0.354 N 
ATOM     57  N   UNL A   1      44.495  26.671  29.380  1.00  0.00    -0.248 NA
ATOM     58  C   UNL A   1      45.262  24.539  28.810  1.00  0.00     0.031 C 
ATOM     59  C   UNL A   1      47.018  29.839  31.204  1.00  0.00     0.029 A 
ATOM     60  C   UNL A   1      46.255  28.836  30.627  1.00  0.00     0.049 A 
ATOM     61  H   UNL A   1      44.230  28.884  30.035  1.00  0.00     0.167 HD
ATOM     62  C   UNL A   1      45.838  26.564  29.723  1.00  0.00     0.074 A 
ATOM     63  C   UNL A   1      46.250  25.219  29.377  1.00  0.00     0.031 C 
ATOM     64  C   UNL A   1      46.655  27.494  30.277  1.00  0.00     0.037 A 
BRANCH  51  65
ATOM     65  C   UNL A   1      43.944  32.972  31.264  1.00  0.00     0.058 A 
ATOM     66  C   UNL A   1      43.708  33.358  32.594  1.00  0.00     0.135 A 
ATOM     67  C   UNL A   1      44.347  33.967  30.359  1.00  0.00     0.135 A 
ATOM     68  F   UNL A   1      43.310  32.452  33.502  1.00  0.00    -0.206 F 
ATOM     69  C   UNL A   1      43.825  34.684  33.000  1.00  0.00     0.059 A 
ATOM     70  C   UNL A   1      44.501  35.295  30.750  1.00  0.00     0.059 A 
ATOM     71  F   UNL A   1      44.591  33.657  29.076  1.00  0.00    -0.206 F 
ATOM     72  C   UNL A   1      44.218  35.646  32.069  1.00  0.00     0.060 A 
BRANCH  72  73
ATOM     73  S   UNL A   1      44.350  37.364  32.608  1.00  0.00     0.124 S 
ATOM     74  O   UNL A   1      43.260  37.448  33.576  1.00  0.00    -0.237 OA
ATOM     75  O   UNL A   1      45.697  37.412  33.167  1.00  0.00    -0.237 OA
ATOM     76  O   UNL A   1      44.156  38.124  31.378  1.00  0.00    -0.744 OA
ENDBRANCH  72  73
ENDBRANCH  51  65
BRANCH  52  77
ATOM     77  C   UNL A   1      42.643  23.698  27.771  1.00  0.00     0.058 A 
ATOM     78  C   UNL A   1      42.715  23.488  26.385  1.00  0.00     0.135 A 
ATOM     79  C   UNL A   1      42.429  22.578  28.590  1.00  0.00     0.135 A 
ATOM     80  F   UNL A   1      42.910  24.526  25.560  1.00  0.00    -0.206 F 
ATOM     81  C   UNL A   1      42.572  22.219  25.831  1.00  0.00     0.059 A 
ATOM     82  C   UNL A   1      42.310  21.297  28.063  1.00  0.00     0.059 A 
ATOM     83  F   UNL A   1      42.369  22.722  29.923  1.00  0.00    -0.206 F 
ATOM     84  C   UNL A   1      42.377  21.128  26.681  1.00  0.00     0.060 A 
BRANCH  84  85
ATOM     85  S   UNL A   1      42.261  19.477  25.956  1.00  0.00     0.124 S 
ATOM     86  O   UNL A   1      43.156  19.594  24.812  1.00  0.00    -0.237 OA
ATOM     87  O   UNL A   1      42.728  18.631  27.050  1.00  0.00    -0.237 OA
ATOM     88  O   UNL A   1      40.842  19.349  25.639  1.00  0.00    -0.744 OA
ENDBRANCH  84  85
ENDBRANCH  52  77
BRANCH  64  89
ATOM     89  C   UNL A   1      48.073  27.086  30.574  1.00  0.00     0.058 A 
ATOM     90  C   UNL A   1      49.111  27.283  29.649  1.00  0.00     0.135 A 
ATOM     91  C   UNL A   1      48.407  26.540  31.825  1.00  0.00     0.135 A 
ATOM     92  F   UNL A   1      48.847  27.795  28.436  1.00  0.00    -0.206 F 
ATOM     93  C   UNL A   1      50.424  26.930  29.943  1.00  0.00     0.059 A 
ATOM     94  C   UNL A   1      49.718  26.207  32.152  1.00  0.00     0.059 A 
ATOM     95  F   UNL A   1      47.455  26.339  32.751  1.00  0.00    -0.206 F 
ATOM     96  C   UNL A   1      50.718  26.396  31.200  1.00  0.00     0.060 A 
BRANCH  96  97
ATOM     97  S   UNL A   1      52.432  25.974  31.581  1.00  0.00     0.124 S 
ATOM     98  O   UNL A   1      52.792  27.028  32.524  1.00  0.00    -0.237 OA
ATOM     99  O   UNL A   1      52.306  24.634  32.146  1.00  0.00    -0.237 OA
ATOM    100  O   UNL A   1      53.095  26.040  30.282  1.00  0.00    -0.744 OA
ENDBRANCH  96  97
ENDBRANCH  64  89
ENDBRANCH  38  39
ENDBRANCH  30  33
ENDBRANCH  28  29
ENDBRANCH  27  28
ENDBRANCH   1  27
TORSDOF 17
ENDMDL
MODEL 2
REMARK VINA RESULT:     -11.5      2.822      3.595
REMARK SMILES CNc1cc(-c2cncc(SCC(=O)NCCCNC(=O)c3ccc(-c4c5nc(c(-c6c(F)cc(S(=O)(=O)[O-])cc6F)c6ccc([nH]6)c(-c6c(F)cc(S(=O)(=O)[O-])cc6F)c6nc(c(-c7c(F)cc(S(=O)(=O)[O-])cc7F)c7ccc4[nH]7)C=C6)C=C5)cc3)n2)c2cc[nH]c2n1
REMARK SMILES IDX 16 1 15 2 13 3 14 4 12 6 11 7 10 8 6 9 7 10 88 11 8 12 9 13
REMARK SMILES IDX 5 14 3 15 4 16 94 17 93 18 89 19 92 20 90 21 91 22 2 24 1 25
REMARK SMILES IDX 17 27 18 28 19 29 20 30 21 32 22 33 23 34 87 35 24 36 86 37
REMARK SMILES IDX 25 38 26 39 27 40 80 41 28 42 85 43 79 44 81 45 29 46 84 47
REMARK SMILES IDX 78 48 77 49 30 51 64 52 43 53 63 54 44 55 47 56 62 57 82 58
REMARK SMILES IDX 45 59 46 60 61 62 83 63 48 64 31 65 32 66 41 67 33 68 34 69
REMARK SMILES IDX 40 70 42 71 35 72 36 73 37 74 38 75 39 76 65 77 66 78 75 79
REMARK SMILES IDX 67 80 68 81 74 82 76 83 69 84 70 85 71 86 72 87 73 88 49 89
REMARK SMILES IDX 50 90 59 91 51 92 52 93 58 94 60 95 53 96 54 97 55 98 56 99
REMARK SMILES IDX 57 100
REMARK H PARENT 15 5 92 23 2 26 19 31 81 50 47 61
REMARK Flexibility Score: inf
ROOT
ATOM      1  C   UNL A   1      33.464  30.368  26.968  1.00  0.00     0.117 C 
ENDROOT
BRANCH   1   2
ATOM      2  N   UNL A   1      32.440  29.560  27.604  1.00  0.00    -0.355 N 
ATOM      3  C   UNL A   1      31.871  28.383  27.213  1.00  0.00     0.230 C 
ATOM      4  O   UNL A   1      31.133  27.828  28.032  1.00  0.00    -0.274 OA
ATOM      5  H   UNL A   1      32.101  29.919  28.455  1.00  0.00     0.163 HD
BRANCH   3   6
ATOM      6  C   UNL A   1      32.251  27.698  25.914  1.00  0.00     0.176 C 
BRANCH   6   7
ATOM      7  S   UNL A   1      31.084  26.444  25.314  1.00  0.00    -0.095 SA
BRANCH   7   8
ATOM      8  C   UNL A   1      32.088  25.455  24.230  1.00  0.00     0.116 A 
ATOM      9  C   UNL A   1      33.780  23.938  23.847  1.00  0.00     0.091 A 
ATOM     10  C   UNL A   1      33.546  24.040  22.476  1.00  0.00     0.140 A 
ATOM     11  N   UNL A   1      33.049  24.657  24.742  1.00  0.00    -0.238 NA
ATOM     12  N   UNL A   1      32.597  24.845  21.948  1.00  0.00    -0.260 NA
ATOM     13  C   UNL A   1      31.876  25.543  22.855  1.00  0.00     0.146 A 
BRANCH   9  14
ATOM     14  C   UNL A   1      34.838  23.085  24.376  1.00  0.00     0.016 A 
ATOM     15  C   UNL A   1      37.117  22.727  25.161  1.00  0.00     0.128 A 
ATOM     16  C   UNL A   1      36.118  23.578  24.691  1.00  0.00     0.058 A 
ATOM     17  N   UNL A   1      36.948  21.400  25.300  1.00  0.00    -0.213 NA
ATOM     18  C   UNL A   1      35.714  20.961  25.005  1.00  0.00     0.140 A 
ATOM     19  C   UNL A   1      34.630  21.706  24.560  1.00  0.00     0.028 A 
ATOM     20  N   UNL A   1      35.321  19.655  25.110  1.00  0.00    -0.346 N 
ATOM     21  C   UNL A   1      33.554  20.788  24.394  1.00  0.00     0.030 A 
ATOM     22  C   UNL A   1      34.006  19.533  24.746  1.00  0.00     0.085 A 
ATOM     23  H   UNL A   1      35.898  18.913  25.402  1.00  0.00     0.167 HD
BRANCH  15  24
ATOM     24  N   UNL A   1      38.361  23.174  25.534  1.00  0.00    -0.373 N 
ATOM     25  C   UNL A   1      39.213  22.495  26.472  1.00  0.00     0.141 C 
ATOM     26  H   UNL A   1      38.690  24.010  25.134  1.00  0.00     0.161 HD
ENDBRANCH  15  24
ENDBRANCH   9  14
ENDBRANCH   7   8
ENDBRANCH   6   7
ENDBRANCH   3   6
ENDBRANCH   1   2
BRANCH   1  27
ATOM     27  C   UNL A   1      34.869  29.977  27.418  1.00  0.00     0.042 C 
BRANCH  27  28
ATOM     28  C   UNL A   1      35.601  31.064  28.205  1.00  0.00     0.118 C 
BRANCH  28  29
ATOM     29  N   UNL A   1      35.519  30.871  29.646  1.00  0.00    -0.352 N 
ATOM     30  C   UNL A   1      36.443  30.363  30.526  1.00  0.00     0.251 C 
ATOM     31  H   UNL A   1      34.668  31.148  30.054  1.00  0.00     0.163 HD
ATOM     32  O   UNL A   1      36.098  30.122  31.683  1.00  0.00    -0.269 OA
BRANCH  30  33
ATOM     33  C   UNL A   1      37.831  30.085  30.097  1.00  0.00     0.039 A 
ATOM     34  C   UNL A   1      38.794  29.808  31.072  1.00  0.00     0.014 A 
ATOM     35  C   UNL A   1      38.200  30.124  28.750  1.00  0.00     0.014 A 
ATOM     36  C   UNL A   1      40.104  29.504  30.691  1.00  0.00     0.010 A 
ATOM     37  C   UNL A   1      39.485  29.745  28.367  1.00  0.00     0.010 A 
ATOM     38  C   UNL A   1      40.452  29.432  29.332  1.00  0.00    -0.014 A 
BRANCH  38  39
ATOM     39  C   UNL A   1      41.817  29.016  28.907  1.00  0.00     0.031 A 
ATOM     40  C   UNL A   1      42.927  30.028  28.811  1.00  0.00     0.074 A 
ATOM     41  C   UNL A   1      42.037  27.739  28.539  1.00  0.00     0.049 A 
ATOM     42  N   UNL A   1      44.158  29.867  28.397  1.00  0.00    -0.248 NA
ATOM     43  C   UNL A   1      42.605  31.407  29.208  1.00  0.00     0.031 C 
ATOM     44  C   UNL A   1      41.030  26.675  28.533  1.00  0.00     0.029 A 
ATOM     45  N   UNL A   1      43.173  27.119  28.081  1.00  0.00    -0.354 N 
ATOM     46  C   UNL A   1      44.751  31.122  28.468  1.00  0.00     0.074 A 
ATOM     47  C   UNL A   1      43.729  32.044  28.916  1.00  0.00     0.031 C 
ATOM     48  C   UNL A   1      41.595  25.535  28.107  1.00  0.00     0.029 A 
ATOM     49  C   UNL A   1      42.991  25.792  27.769  1.00  0.00     0.049 A 
ATOM     50  H   UNL A   1      44.037  27.581  27.985  1.00  0.00     0.167 HD
ATOM     51  C   UNL A   1      46.034  31.471  28.206  1.00  0.00     0.037 A 
ATOM     52  C   UNL A   1      43.845  24.885  27.252  1.00  0.00     0.037 A 
ATOM     53  C   UNL A   1      47.050  30.544  27.775  1.00  0.00     0.049 A 
ATOM     54  C   UNL A   1      45.264  25.293  26.968  1.00  0.00     0.074 A 
ATOM     55  C   UNL A   1      48.392  30.785  27.545  1.00  0.00     0.029 A 
ATOM     56  N   UNL A   1      46.833  29.202  27.497  1.00  0.00    -0.354 N 
ATOM     57  N   UNL A   1      45.830  26.468  27.117  1.00  0.00    -0.248 NA
ATOM     58  C   UNL A   1      46.166  24.253  26.455  1.00  0.00     0.031 C 
ATOM     59  C   UNL A   1      48.976  29.604  27.075  1.00  0.00     0.029 A 
ATOM     60  C   UNL A   1      48.010  28.608  27.070  1.00  0.00     0.049 A 
ATOM     61  H   UNL A   1      45.969  28.739  27.588  1.00  0.00     0.167 HD
ATOM     62  C   UNL A   1      47.158  26.303  26.739  1.00  0.00     0.074 A 
ATOM     63  C   UNL A   1      47.315  24.911  26.369  1.00  0.00     0.031 C 
ATOM     64  C   UNL A   1      48.156  27.220  26.703  1.00  0.00     0.037 A 
BRANCH  51  65
ATOM     65  C   UNL A   1      46.411  32.921  28.372  1.00  0.00     0.058 A 
ATOM     66  C   UNL A   1      46.253  33.851  27.331  1.00  0.00     0.135 A 
ATOM     67  C   UNL A   1      46.918  33.390  29.594  1.00  0.00     0.135 A 
ATOM     68  F   UNL A   1      45.782  33.458  26.137  1.00  0.00    -0.206 F 
ATOM     69  C   UNL A   1      46.622  35.184  27.483  1.00  0.00     0.059 A 
ATOM     70  C   UNL A   1      47.264  34.727  29.779  1.00  0.00     0.059 A 
ATOM     71  F   UNL A   1      47.087  32.548  30.626  1.00  0.00    -0.206 F 
ATOM     72  C   UNL A   1      47.131  35.612  28.710  1.00  0.00     0.060 A 
BRANCH  72  73
ATOM     73  S   UNL A   1      47.619  37.341  28.886  1.00  0.00     0.124 S 
ATOM     74  O   UNL A   1      47.757  37.457  30.334  1.00  0.00    -0.237 OA
ATOM     75  O   UNL A   1      48.863  37.392  28.125  1.00  0.00    -0.237 OA
ATOM     76  O   UNL A   1      46.499  38.073  28.302  1.00  0.00    -0.744 OA
ENDBRANCH  72  73
ENDBRANCH  51  65
BRANCH  52  77
ATOM     77  C   UNL A   1      43.372  23.501  26.981  1.00  0.00     0.058 A 
ATOM     78  C   UNL A   1      43.074  23.077  25.677  1.00  0.00     0.135 A 
ATOM     79  C   UNL A   1      43.243  22.563  28.018  1.00  0.00     0.135 A 
ATOM     80  F   UNL A   1      43.175  23.938  24.653  1.00  0.00    -0.206 F 
ATOM     81  C   UNL A   1      42.654  21.778  25.410  1.00  0.00     0.059 A 
ATOM     82  C   UNL A   1      42.851  21.251  27.773  1.00  0.00     0.059 A 
ATOM     83  F   UNL A   1      43.532  22.912  29.280  1.00  0.00    -0.206 F 
ATOM     84  C   UNL A   1      42.553  20.869  26.465  1.00  0.00     0.060 A 
BRANCH  84  85
ATOM     85  S   UNL A   1      42.073  19.166  26.099  1.00  0.00     0.124 S 
ATOM     86  O   UNL A   1      40.640  19.308  25.871  1.00  0.00    -0.237 OA
ATOM     87  O   UNL A   1      42.882  18.868  24.921  1.00  0.00    -0.237 OA
ATOM     88  O   UNL A   1      42.452  18.443  27.309  1.00  0.00    -0.744 OA
ENDBRANCH  84  85
ENDBRANCH  52  77
BRANCH  64  89
ATOM     89  C   UNL A   1      49.520  26.747  26.279  1.00  0.00     0.058 A 
ATOM     90  C   UNL A   1      49.997  26.935  24.972  1.00  0.00     0.135 A 
ATOM     91  C   UNL A   1      50.384  26.145  27.209  1.00  0.00     0.135 A 
ATOM     92  F   UNL A   1      49.211  27.500  24.040  1.00  0.00    -0.206 F 
ATOM     93  C   UNL A   1      51.271  26.521  24.595  1.00  0.00     0.059 A 
ATOM     94  C   UNL A   1      51.672  25.751  26.863  1.00  0.00     0.059 A 
ATOM     95  F   UNL A   1      49.983  25.949  28.475  1.00  0.00    -0.206 F 
ATOM     96  C   UNL A   1      52.103  25.933  25.550  1.00  0.00     0.060 A 
BRANCH  96  97
ATOM     97  S   UNL A   1      53.766  25.432  25.056  1.00  0.00     0.124 S 
ATOM     98  O   UNL A   1      53.735  23.999  25.328  1.00  0.00    -0.237 OA
ATOM     99  O   UNL A   1      53.801  25.810  23.647  1.00  0.00    -0.237 OA
ATOM    100  O   UNL A   1      54.631  26.218  25.931  1.00  0.00    -0.744 OA
ENDBRANCH  96  97
ENDBRANCH  64  89
ENDBRANCH  38  39
ENDBRANCH  30  33
ENDBRANCH  28  29
ENDBRANCH  27  28
ENDBRANCH   1  27
TORSDOF 17
ENDMDL
MODEL 3
REMARK VINA RESULT:     -11.5      4.786     10.713
REMARK SMILES CNc1cc(-c2cncc(SCC(=O)NCCCNC(=O)c3ccc(-c4c5nc(c(-c6c(F)cc(S(=O)(=O)[O-])cc6F)c6ccc([nH]6)c(-c6c(F)cc(S(=O)(=O)[O-])cc6F)c6nc(c(-c7c(F)cc(S(=O)(=O)[O-])cc7F)c7ccc4[nH]7)C=C6)C=C5)cc3)n2)c2cc[nH]c2n1
REMARK SMILES IDX 16 1 15 2 13 3 14 4 12 6 11 7 10 8 6 9 7 10 88 11 8 12 9 13
REMARK SMILES IDX 5 14 3 15 4 16 94 17 93 18 89 19 92 20 90 21 91 22 2 24 1 25
REMARK SMILES IDX 17 27 18 28 19 29 20 30 21 32 22 33 23 34 87 35 24 36 86 37
REMARK SMILES IDX 25 38 26 39 27 40 80 41 28 42 85 43 79 44 81 45 29 46 84 47
REMARK SMILES IDX 78 48 77 49 30 51 64 52 43 53 63 54 44 55 47 56 62 57 82 58
REMARK SMILES IDX 45 59 46 60 61 62 83 63 48 64 31 65 32 66 41 67 33 68 34 69
REMARK SMILES IDX 40 70 42 71 35 72 36 73 37 74 38 75 39 76 65 77 66 78 75 79
REMARK SMILES IDX 67 80 68 81 74 82 76 83 69 84 70 85 71 86 72 87 73 88 49 89
REMARK SMILES IDX 50 90 59 91 51 92 52 93 58 94 60 95 53 96 54 97 55 98 56 99
REMARK SMILES IDX 57 100
REMARK H PARENT 15 5 92 23 2 26 19 31 81 50 47 61
REMARK Flexibility Score: inf
ROOT
ATOM      1  C   UNL A   1      37.129  22.313  25.477  1.00  0.00     0.117 C 
ENDROOT
BRANCH   1   2
ATOM      2  N   UNL A   1      35.993  21.829  26.239  1.00  0.00    -0.355 N 
ATOM      3  C   UNL A   1      34.673  21.752  25.908  1.00  0.00     0.230 C 
ATOM      4  O   UNL A   1      33.941  21.143  26.693  1.00  0.00    -0.274 OA
ATOM      5  H   UNL A   1      36.212  21.503  27.142  1.00  0.00     0.163 HD
BRANCH   3   6
ATOM      6  C   UNL A   1      34.149  22.235  24.568  1.00  0.00     0.176 C 
BRANCH   6   7
ATOM      7  S   UNL A   1      32.399  21.888  24.234  1.00  0.00    -0.095 SA
BRANCH   7   8
ATOM      8  C   UNL A   1      31.573  23.286  24.959  1.00  0.00     0.116 A 
ATOM      9  C   UNL A   1      30.836  25.468  24.898  1.00  0.00     0.091 A 
ATOM     10  C   UNL A   1      30.325  25.319  26.186  1.00  0.00     0.140 A 
ATOM     11  N   UNL A   1      31.475  24.443  24.271  1.00  0.00    -0.238 NA
ATOM     12  N   UNL A   1      30.427  24.172  26.893  1.00  0.00    -0.260 NA
ATOM     13  C   UNL A   1      31.057  23.163  26.248  1.00  0.00     0.146 A 
BRANCH   9  14
ATOM     14  C   UNL A   1      30.738  26.735  24.183  1.00  0.00     0.016 A 
ATOM     15  C   UNL A   1      29.457  28.450  23.019  1.00  0.00     0.128 A 
ATOM     16  C   UNL A   1      29.510  27.253  23.731  1.00  0.00     0.058 A 
ATOM     17  N   UNL A   1      30.551  29.154  22.680  1.00  0.00    -0.213 NA
ATOM     18  C   UNL A   1      31.707  28.643  23.135  1.00  0.00     0.140 A 
ATOM     19  C   UNL A   1      31.889  27.483  23.878  1.00  0.00     0.028 A 
ATOM     20  N   UNL A   1      32.931  29.218  22.933  1.00  0.00    -0.346 N 
ATOM     21  C   UNL A   1      33.290  27.376  24.116  1.00  0.00     0.030 A 
ATOM     22  C   UNL A   1      33.906  28.462  23.528  1.00  0.00     0.085 A 
ATOM     23  H   UNL A   1      33.088  30.052  22.433  1.00  0.00     0.167 HD
BRANCH  15  24
ATOM     24  N   UNL A   1      28.277  29.021  22.608  1.00  0.00    -0.373 N 
ATOM     25  C   UNL A   1      28.185  30.056  21.615  1.00  0.00     0.141 C 
ATOM     26  H   UNL A   1      27.442  28.701  23.019  1.00  0.00     0.161 HD
ENDBRANCH  15  24
ENDBRANCH   9  14
ENDBRANCH   7   8
ENDBRANCH   6   7
ENDBRANCH   3   6
ENDBRANCH   1   2
BRANCH   1  27
ATOM     27  C   UNL A   1      37.384  23.801  25.702  1.00  0.00     0.042 C 
BRANCH  27  28
ATOM     28  C   UNL A   1      38.492  24.103  26.709  1.00  0.00     0.118 C 
BRANCH  28  29
ATOM     29  N   UNL A   1      39.807  24.203  26.091  1.00  0.00    -0.352 N 
ATOM     30  C   UNL A   1      40.842  25.069  26.346  1.00  0.00     0.251 C 
ATOM     31  H   UNL A   1      39.981  23.548  25.378  1.00  0.00     0.163 HD
ATOM     32  O   UNL A   1      41.804  25.093  25.578  1.00  0.00    -0.269 OA
BRANCH  30  33
ATOM     33  C   UNL A   1      40.805  25.979  27.511  1.00  0.00     0.039 A 
ATOM     34  C   UNL A   1      41.784  26.971  27.622  1.00  0.00     0.014 A 
ATOM     35  C   UNL A   1      39.835  25.847  28.509  1.00  0.00     0.014 A 
ATOM     36  C   UNL A   1      41.749  27.869  28.692  1.00  0.00     0.010 A 
ATOM     37  C   UNL A   1      39.756  26.789  29.532  1.00  0.00     0.010 A 
ATOM     38  C   UNL A   1      40.711  27.811  29.637  1.00  0.00    -0.014 A 
BRANCH  38  39
ATOM     39  C   UNL A   1      40.604  28.817  30.728  1.00  0.00     0.031 A 
ATOM     40  C   UNL A   1      41.461  28.701  31.960  1.00  0.00     0.074 A 
ATOM     41  C   UNL A   1      39.683  29.797  30.639  1.00  0.00     0.049 A 
ATOM     42  N   UNL A   1      41.461  29.440  33.040  1.00  0.00    -0.248 NA
ATOM     43  C   UNL A   1      42.427  27.592  31.994  1.00  0.00     0.031 C 
ATOM     44  C   UNL A   1      38.754  29.985  29.524  1.00  0.00     0.029 A 
ATOM     45  N   UNL A   1      39.363  30.809  31.509  1.00  0.00    -0.354 N 
ATOM     46  C   UNL A   1      42.411  28.879  33.886  1.00  0.00     0.074 A 
ATOM     47  C   UNL A   1      42.930  27.706  33.215  1.00  0.00     0.031 C 
ATOM     48  C   UNL A   1      37.978  31.052  29.770  1.00  0.00     0.029 A 
ATOM     49  C   UNL A   1      38.324  31.601  31.077  1.00  0.00     0.049 A 
ATOM     50  H   UNL A   1      39.832  30.956  32.362  1.00  0.00     0.167 HD
ATOM     51  C   UNL A   1      42.828  29.313  35.099  1.00  0.00     0.037 A 
ATOM     52  C   UNL A   1      37.705  32.641  31.671  1.00  0.00     0.037 A 
ATOM     53  C   UNL A   1      42.317  30.490  35.754  1.00  0.00     0.049 A 
ATOM     54  C   UNL A   1      38.183  33.106  33.019  1.00  0.00     0.074 A 
ATOM     55  C   UNL A   1      42.718  31.049  36.955  1.00  0.00     0.029 A 
ATOM     56  N   UNL A   1      41.284  31.282  35.272  1.00  0.00    -0.354 N 
ATOM     57  N   UNL A   1      39.139  32.612  33.770  1.00  0.00    -0.248 NA
ATOM     58  C   UNL A   1      37.509  34.276  33.598  1.00  0.00     0.031 C 
ATOM     59  C   UNL A   1      41.893  32.146  37.225  1.00  0.00     0.029 A 
ATOM     60  C   UNL A   1      41.016  32.309  36.163  1.00  0.00     0.049 A 
ATOM     61  H   UNL A   1      40.811  31.136  34.421  1.00  0.00     0.167 HD
ATOM     62  C   UNL A   1      39.196  33.423  34.898  1.00  0.00     0.074 A 
ATOM     63  C   UNL A   1      38.189  34.450  34.723  1.00  0.00     0.031 C 
ATOM     64  C   UNL A   1      40.009  33.327  35.979  1.00  0.00     0.037 A 
BRANCH  51  65
ATOM     65  C   UNL A   1      43.888  28.505  35.803  1.00  0.00     0.058 A 
ATOM     66  C   UNL A   1      45.258  28.747  35.606  1.00  0.00     0.135 A 
ATOM     67  C   UNL A   1      43.529  27.487  36.702  1.00  0.00     0.135 A 
ATOM     68  F   UNL A   1      45.660  29.700  34.749  1.00  0.00    -0.206 F 
ATOM     69  C   UNL A   1      46.232  27.984  36.242  1.00  0.00     0.059 A 
ATOM     70  C   UNL A   1      44.488  26.733  37.375  1.00  0.00     0.059 A 
ATOM     71  F   UNL A   1      42.236  27.214  36.935  1.00  0.00    -0.206 F 
ATOM     72  C   UNL A   1      45.837  26.976  37.122  1.00  0.00     0.060 A 
BRANCH  72  73
ATOM     73  S   UNL A   1      47.113  25.986  37.928  1.00  0.00     0.124 S 
ATOM     74  O   UNL A   1      48.129  26.996  38.209  1.00  0.00    -0.237 OA
ATOM     75  O   UNL A   1      46.409  25.456  39.090  1.00  0.00    -0.237 OA
ATOM     76  O   UNL A   1      47.473  25.001  36.913  1.00  0.00    -0.744 OA
ENDBRANCH  72  73
ENDBRANCH  51  65
BRANCH  52  77
ATOM     77  C   UNL A   1      36.571  33.313  30.982  1.00  0.00     0.058 A 
ATOM     78  C   UNL A   1      35.257  33.195  31.462  1.00  0.00     0.135 A 
ATOM     79  C   UNL A   1      36.782  34.116  29.850  1.00  0.00     0.135 A 
ATOM     80  F   UNL A   1      35.002  32.434  32.536  1.00  0.00    -0.206 F 
ATOM     81  C   UNL A   1      34.193  33.839  30.838  1.00  0.00     0.059 A 
ATOM     82  C   UNL A   1      35.739  34.791  29.226  1.00  0.00     0.059 A 
ATOM     83  F   UNL A   1      38.022  34.275  29.361  1.00  0.00    -0.206 F 
ATOM     84  C   UNL A   1      34.446  34.641  29.724  1.00  0.00     0.060 A 
BRANCH  84  85
ATOM     85  S   UNL A   1      33.067  35.527  28.963  1.00  0.00     0.124 S 
ATOM     86  O   UNL A   1      32.324  35.976  30.135  1.00  0.00    -0.237 OA
ATOM     87  O   UNL A   1      33.755  36.568  28.205  1.00  0.00    -0.237 OA
ATOM     88  O   UNL A   1      32.414  34.502  28.155  1.00  0.00    -0.744 OA
ENDBRANCH  84  85
ENDBRANCH  52  77
BRANCH  64  89
ATOM     89  C   UNL A   1      39.871  34.376  37.049  1.00  0.00     0.058 A 
ATOM     90  C   UNL A   1      40.533  35.611  36.967  1.00  0.00     0.135 A 
ATOM     91  C   UNL A   1      39.020  34.162  38.146  1.00  0.00     0.135 A 
ATOM     92  F   UNL A   1      41.364  35.866  35.943  1.00  0.00    -0.206 F 
ATOM     93  C   UNL A   1      40.376  36.587  37.947  1.00  0.00     0.059 A 
ATOM     94  C   UNL A   1      38.824  35.135  39.122  1.00  0.00     0.059 A 
ATOM     95  F   UNL A   1      38.354  33.003  38.270  1.00  0.00    -0.206 F 
ATOM     96  C   UNL A   1      39.516  36.340  39.019  1.00  0.00     0.060 A 
BRANCH  96  97
ATOM     97  S   UNL A   1      39.295  37.629  40.264  1.00  0.00     0.124 S 
ATOM     98  O   UNL A   1      40.634  38.203  40.334  1.00  0.00    -0.237 OA
ATOM     99  O   UNL A   1      38.272  38.476  39.659  1.00  0.00    -0.237 OA
ATOM    100  O   UNL A   1      38.867  36.889  41.447  1.00  0.00    -0.744 OA
ENDBRANCH  96  97
ENDBRANCH  64  89
ENDBRANCH  38  39
ENDBRANCH  30  33
ENDBRANCH  28  29
ENDBRANCH  27  28
ENDBRANCH   1  27
TORSDOF 17
ENDMDL
