MODEL 1
REMARK VINA RESULT:     -11.9      0.000      0.000
REMARK SMILES O=C(NCCCNC(=O)[C@H]1CCC[N@@H+]1CCn1ccnc1)c1ccc(-c2c3nc(c(-c4c(F)cc(S(=O)(=O)[O-])cc4F)c4ccc([nH]4)c(-c4c(F)cc(S(=O)(=O)[O-])cc4F)c4nc(c(-c5c(F)cc(S(=O)(=O)[O-])cc5F)c5ccc2[nH]5)C=C4)C=C3)cc1
REMARK SMILES IDX 5 1 4 2 3 3 1 4 2 5 22 7 23 8 87 9 24 10 86 11 25 12 26 13
REMARK SMILES IDX 27 14 80 15 28 16 85 17 79 18 81 19 29 20 84 21 78 22 77 23
REMARK SMILES IDX 30 25 64 26 43 27 63 28 44 29 47 30 62 31 82 32 45 33 46 34
REMARK SMILES IDX 61 36 83 37 48 38 31 39 32 40 41 41 33 42 34 43 40 44 42 45
REMARK SMILES IDX 35 46 36 47 37 48 38 49 39 50 65 51 66 52 75 53 67 54 68 55
REMARK SMILES IDX 74 56 76 57 69 58 70 59 71 60 72 61 73 62 49 63 50 64 59 65
REMARK SMILES IDX 51 66 52 67 58 68 60 69 53 70 54 71 55 72 56 73 57 74 6 75
REMARK SMILES IDX 7 76 8 77 9 79 10 80 11 81 14 82 12 83 13 84 15 86 16 87
REMARK SMILES IDX 17 88 18 89 21 90 19 91 20 92
REMARK H PARENT 3 6 81 24 47 35 7 78 14 85
REMARK Flexibility Score: inf
ROOT
ATOM      1  C   UNL A   1      36.710  22.260  23.784  1.00  0.00     0.042 C 
ENDROOT
BRANCH   1   2
ATOM      2  C   UNL A   1      37.261  22.747  25.121  1.00  0.00     0.118 C 
BRANCH   2   3
ATOM      3  N   UNL A   1      38.505  22.103  25.506  1.00  0.00    -0.352 N 
ATOM      4  O   UNL A   1      40.480  21.574  26.303  1.00  0.00    -0.269 OA
ATOM      5  C   UNL A   1      39.605  22.443  26.239  1.00  0.00     0.251 C 
ATOM      6  H   UNL A   1      38.570  21.188  25.147  1.00  0.00     0.163 HD
BRANCH   5   7
ATOM      7  C   UNL A   1      39.838  23.746  26.922  1.00  0.00     0.039 A 
ATOM      8  C   UNL A   1      38.951  24.823  26.966  1.00  0.00     0.014 A 
ATOM      9  C   UNL A   1      41.081  23.879  27.572  1.00  0.00     0.014 A 
ATOM     10  C   UNL A   1      39.315  26.015  27.597  1.00  0.00     0.010 A 
ATOM     11  C   UNL A   1      41.441  25.056  28.219  1.00  0.00     0.010 A 
ATOM     12  C   UNL A   1      40.565  26.138  28.210  1.00  0.00    -0.014 A 
BRANCH  12  13
ATOM     13  C   UNL A   1      40.863  27.359  28.964  1.00  0.00     0.031 A 
ATOM     14  C   UNL A   1      41.990  28.183  28.422  1.00  0.00     0.074 A 
ATOM     15  C   UNL A   1      40.074  27.835  29.949  1.00  0.00     0.049 A 
ATOM     16  N   UNL A   1      43.076  28.568  29.010  1.00  0.00    -0.248 NA
ATOM     17  C   UNL A   1      41.927  28.554  26.998  1.00  0.00     0.031 C 
ATOM     18  C   UNL A   1      38.765  27.333  30.375  1.00  0.00     0.029 A 
ATOM     19  N   UNL A   1      40.232  28.957  30.709  1.00  0.00    -0.354 N 
ATOM     20  C   UNL A   1      43.747  29.387  28.098  1.00  0.00     0.074 A 
ATOM     21  C   UNL A   1      43.066  29.227  26.840  1.00  0.00     0.031 C 
ATOM     22  C   UNL A   1      38.157  28.266  31.141  1.00  0.00     0.029 A 
ATOM     23  C   UNL A   1      39.080  29.366  31.370  1.00  0.00     0.049 A 
ATOM     24  H   UNL A   1      41.089  29.436  30.783  1.00  0.00     0.167 HD
ATOM     25  C   UNL A   1      44.700  30.284  28.480  1.00  0.00     0.037 A 
ATOM     26  C   UNL A   1      38.874  30.555  31.992  1.00  0.00     0.037 A 
ATOM     27  C   UNL A   1      45.218  29.979  29.787  1.00  0.00     0.049 A 
ATOM     28  C   UNL A   1      40.206  31.146  32.275  1.00  0.00     0.074 A 
ATOM     29  C   UNL A   1      45.878  28.901  30.344  1.00  0.00     0.029 A 
ATOM     30  N   UNL A   1      44.792  30.739  30.847  1.00  0.00    -0.354 N 
ATOM     31  N   UNL A   1      41.073  30.642  33.111  1.00  0.00    -0.248 NA
ATOM     32  C   UNL A   1      40.751  32.082  31.304  1.00  0.00     0.031 C 
ATOM     33  C   UNL A   1      45.379  28.813  31.676  1.00  0.00     0.029 A 
ATOM     34  C   UNL A   1      44.483  29.869  31.859  1.00  0.00     0.049 A 
ATOM     35  H   UNL A   1      44.723  31.721  30.875  1.00  0.00     0.167 HD
ATOM     36  C   UNL A   1      42.309  30.864  32.521  1.00  0.00     0.074 A 
ATOM     37  C   UNL A   1      42.053  31.832  31.459  1.00  0.00     0.031 C 
ATOM     38  C   UNL A   1      43.373  30.047  32.768  1.00  0.00     0.037 A 
BRANCH  25  39
ATOM     39  C   UNL A   1      44.937  31.627  27.820  1.00  0.00     0.058 A 
ATOM     40  C   UNL A   1      46.168  31.878  27.173  1.00  0.00     0.135 A 
ATOM     41  C   UNL A   1      44.134  32.766  28.051  1.00  0.00     0.135 A 
ATOM     42  F   UNL A   1      47.011  30.872  26.893  1.00  0.00    -0.206 F 
ATOM     43  C   UNL A   1      46.608  33.168  26.874  1.00  0.00     0.059 A 
ATOM     44  C   UNL A   1      44.531  34.055  27.711  1.00  0.00     0.059 A 
ATOM     45  F   UNL A   1      42.970  32.698  28.707  1.00  0.00    -0.206 F 
ATOM     46  C   UNL A   1      45.791  34.252  27.171  1.00  0.00     0.060 A 
BRANCH  46  47
ATOM     47  S   UNL A   1      46.413  35.925  26.926  1.00  0.00     0.124 S 
ATOM     48  O   UNL A   1      47.093  35.795  25.641  1.00  0.00    -0.237 OA
ATOM     49  O   UNL A   1      45.184  36.711  26.923  1.00  0.00    -0.237 OA
ATOM     50  O   UNL A   1      47.281  36.134  28.081  1.00  0.00    -0.744 OA
ENDBRANCH  46  47
ENDBRANCH  25  39
BRANCH  26  51
ATOM     51  C   UNL A   1      37.621  31.358  32.027  1.00  0.00     0.058 A 
ATOM     52  C   UNL A   1      37.057  31.794  33.240  1.00  0.00     0.135 A 
ATOM     53  C   UNL A   1      37.100  31.948  30.857  1.00  0.00     0.135 A 
ATOM     54  F   UNL A   1      37.511  31.310  34.406  1.00  0.00    -0.206 F 
ATOM     55  C   UNL A   1      36.064  32.781  33.292  1.00  0.00     0.059 A 
ATOM     56  C   UNL A   1      36.102  32.923  30.882  1.00  0.00     0.059 A 
ATOM     57  F   UNL A   1      37.610  31.661  29.651  1.00  0.00    -0.206 F 
ATOM     58  C   UNL A   1      35.604  33.352  32.106  1.00  0.00     0.060 A 
BRANCH  58  59
ATOM     59  S   UNL A   1      34.443  34.738  32.170  1.00  0.00     0.124 S 
ATOM     60  O   UNL A   1      34.241  35.027  30.753  1.00  0.00    -0.237 OA
ATOM     61  O   UNL A   1      33.304  34.156  32.870  1.00  0.00    -0.237 OA
ATOM     62  O   UNL A   1      35.174  35.760  32.916  1.00  0.00    -0.744 OA
ENDBRANCH  58  59
ENDBRANCH  26  51
BRANCH  38  63
ATOM     63  C   UNL A   1      43.288  29.071  33.913  1.00  0.00     0.058 A 
ATOM     64  C   UNL A   1      43.545  29.406  35.254  1.00  0.00     0.135 A 
ATOM     65  C   UNL A   1      42.733  27.808  33.662  1.00  0.00     0.135 A 
ATOM     66  F   UNL A   1      43.982  30.627  35.589  1.00  0.00    -0.206 F 
ATOM     67  C   UNL A   1      43.280  28.515  36.296  1.00  0.00     0.059 A 
ATOM     68  C   UNL A   1      42.431  26.916  34.687  1.00  0.00     0.059 A 
ATOM     69  F   UNL A   1      42.408  27.453  32.407  1.00  0.00    -0.206 F 
ATOM     70  C   UNL A   1      42.711  27.275  36.004  1.00  0.00     0.060 A 
BRANCH  70  71
ATOM     71  S   UNL A   1      42.245  26.175  37.358  1.00  0.00     0.124 S 
ATOM     72  O   UNL A   1      40.870  26.593  37.631  1.00  0.00    -0.237 OA
ATOM     73  O   UNL A   1      42.393  24.851  36.755  1.00  0.00    -0.237 OA
ATOM     74  O   UNL A   1      43.211  26.484  38.401  1.00  0.00    -0.744 OA
ENDBRANCH  70  71
ENDBRANCH  38  63
ENDBRANCH  12  13
ENDBRANCH   5   7
ENDBRANCH   2   3
ENDBRANCH   1   2
BRANCH   1  75
ATOM     75  C   UNL A   1      35.345  22.854  23.448  1.00  0.00     0.118 C 
BRANCH  75  76
ATOM     76  N   UNL A   1      34.863  23.816  24.432  1.00  0.00    -0.351 N 
ATOM     77  C   UNL A   1      34.050  23.781  25.526  1.00  0.00     0.278 C 
ATOM     78  H   UNL A   1      35.214  24.720  24.265  1.00  0.00     0.163 HD
ATOM     79  O   UNL A   1      33.957  24.864  26.127  1.00  0.00    -0.268 OA
BRANCH  77  80
ATOM     80  C   UNL A   1      33.245  22.539  26.043  1.00  0.00     0.274 C 
ATOM     81  C   UNL A   1      32.150  22.799  27.045  1.00  0.00     0.081 C 
ATOM     82  N   UNL A   1      32.496  21.928  24.904  1.00  0.00    -0.323 N 
ATOM     83  C   UNL A   1      30.969  23.243  26.181  1.00  0.00     0.068 C 
ATOM     84  C   UNL A   1      31.265  22.711  24.787  1.00  0.00     0.263 C 
ATOM     85  H   UNL A   1      33.076  21.980  24.067  1.00  0.00     0.348 HD
BRANCH  82  86
ATOM     86  C   UNL A   1      32.270  20.469  24.951  1.00  0.00     0.285 C 
BRANCH  86  87
ATOM     87  C   UNL A   1      32.525  19.487  23.772  1.00  0.00     0.184 C 
BRANCH  87  88
ATOM     88  N   UNL A   1      32.866  18.115  24.086  1.00  0.00    -0.332 N 
ATOM     89  C   UNL A   1      32.560  17.421  25.225  1.00  0.00     0.107 A 
ATOM     90  C   UNL A   1      33.560  17.263  23.269  1.00  0.00     0.199 A 
ATOM     91  C   UNL A   1      33.231  16.225  25.103  1.00  0.00     0.130 A 
ATOM     92  N   UNL A   1      33.837  16.134  23.881  1.00  0.00    -0.245 NA
ENDBRANCH  87  88
ENDBRANCH  86  87
ENDBRANCH  82  86
ENDBRANCH  77  80
ENDBRANCH  75  76
ENDBRANCH   1  75
TORSDOF 16
ENDMDL
MODEL 2
REMARK VINA RESULT:     -11.6      1.663      2.385
REMARK SMILES O=C(NCCCNC(=O)[C@H]1CCC[N@@H+]1CCn1ccnc1)c1ccc(-c2c3nc(c(-c4c(F)cc(S(=O)(=O)[O-])cc4F)c4ccc([nH]4)c(-c4c(F)cc(S(=O)(=O)[O-])cc4F)c4nc(c(-c5c(F)cc(S(=O)(=O)[O-])cc5F)c5ccc2[nH]5)C=C4)C=C3)cc1
REMARK SMILES IDX 5 1 4 2 3 3 1 4 2 5 22 7 23 8 87 9 24 10 86 11 25 12 26 13
REMARK SMILES IDX 27 14 80 15 28 16 85 17 79 18 81 19 29 20 84 21 78 22 77 23
REMARK SMILES IDX 30 25 64 26 43 27 63 28 44 29 47 30 62 31 82 32 45 33 46 34
REMARK SMILES IDX 61 36 83 37 48 38 31 39 32 40 41 41 33 42 34 43 40 44 42 45
REMARK SMILES IDX 35 46 36 47 37 48 38 49 39 50 65 51 66 52 75 53 67 54 68 55
REMARK SMILES IDX 74 56 76 57 69 58 70 59 71 60 72 61 73 62 49 63 50 64 59 65
REMARK SMILES IDX 51 66 52 67 58 68 60 69 53 70 54 71 55 72 56 73 57 74 6 75
REMARK SMILES IDX 7 76 8 77 9 79 10 80 11 81 14 82 12 83 13 84 15 86 16 87
REMARK SMILES IDX 17 88 18 89 21 90 19 91 20 92
REMARK H PARENT 3 6 81 24 47 35 7 78 14 85
REMARK Flexibility Score: inf
ROOT
ATOM      1  C   UNL A   1      39.712  20.893  26.030  1.00  0.00     0.042 C 
ENDROOT
BRANCH   1   2
ATOM      2  C   UNL A   1      41.170  20.978  26.475  1.00  0.00     0.118 C 
BRANCH   2   3
ATOM      3  N   UNL A   1      42.044  21.579  25.484  1.00  0.00    -0.352 N 
ATOM      4  O   UNL A   1      43.307  22.901  24.270  1.00  0.00    -0.269 OA
ATOM      5  C   UNL A   1      42.626  22.800  25.295  1.00  0.00     0.251 C 
ATOM      6  H   UNL A   1      42.277  20.945  24.767  1.00  0.00     0.163 HD
BRANCH   5   7
ATOM      7  C   UNL A   1      42.487  23.987  26.182  1.00  0.00     0.039 A 
ATOM      8  C   UNL A   1      42.974  24.103  27.486  1.00  0.00     0.014 A 
ATOM      9  C   UNL A   1      41.792  25.082  25.632  1.00  0.00     0.014 A 
ATOM     10  C   UNL A   1      42.728  25.256  28.235  1.00  0.00     0.010 A 
ATOM     11  C   UNL A   1      41.561  26.241  26.365  1.00  0.00     0.010 A 
ATOM     12  C   UNL A   1      42.009  26.319  27.681  1.00  0.00    -0.014 A 
BRANCH  12  13
ATOM     13  C   UNL A   1      41.874  27.557  28.453  1.00  0.00     0.031 A 
ATOM     14  C   UNL A   1      43.003  28.529  28.301  1.00  0.00     0.074 A 
ATOM     15  C   UNL A   1      40.744  27.911  29.098  1.00  0.00     0.049 A 
ATOM     16  N   UNL A   1      43.766  29.044  29.211  1.00  0.00    -0.248 NA
ATOM     17  C   UNL A   1      43.382  28.910  26.930  1.00  0.00     0.031 C 
ATOM     18  C   UNL A   1      39.443  27.237  29.069  1.00  0.00     0.029 A 
ATOM     19  N   UNL A   1      40.489  29.033  29.832  1.00  0.00    -0.354 N 
ATOM     20  C   UNL A   1      44.597  29.956  28.556  1.00  0.00     0.074 A 
ATOM     21  C   UNL A   1      44.411  29.728  27.147  1.00  0.00     0.031 C 
ATOM     22  C   UNL A   1      38.497  28.071  29.556  1.00  0.00     0.029 A 
ATOM     23  C   UNL A   1      39.138  29.279  30.050  1.00  0.00     0.049 A 
ATOM     24  H   UNL A   1      41.201  29.619  30.178  1.00  0.00     0.167 HD
ATOM     25  C   UNL A   1      45.241  30.964  29.211  1.00  0.00     0.037 A 
ATOM     26  C   UNL A   1      38.583  30.421  30.529  1.00  0.00     0.037 A 
ATOM     27  C   UNL A   1      45.317  30.709  30.625  1.00  0.00     0.049 A 
ATOM     28  C   UNL A   1      39.653  31.176  31.230  1.00  0.00     0.074 A 
ATOM     29  C   UNL A   1      45.881  29.719  31.405  1.00  0.00     0.029 A 
ATOM     30  N   UNL A   1      44.463  31.392  31.455  1.00  0.00    -0.354 N 
ATOM     31  N   UNL A   1      40.240  30.777  32.325  1.00  0.00    -0.248 NA
ATOM     32  C   UNL A   1      40.371  32.189  30.473  1.00  0.00     0.031 C 
ATOM     33  C   UNL A   1      44.974  29.546  32.491  1.00  0.00     0.029 A 
ATOM     34  C   UNL A   1      43.942  30.473  32.327  1.00  0.00     0.049 A 
ATOM     35  H   UNL A   1      44.264  32.356  31.428  1.00  0.00     0.167 HD
ATOM     36  C   UNL A   1      41.564  31.167  32.183  1.00  0.00     0.074 A 
ATOM     37  C   UNL A   1      41.563  32.109  31.068  1.00  0.00     0.031 C 
ATOM     38  C   UNL A   1      42.576  30.491  32.800  1.00  0.00     0.037 A 
BRANCH  25  39
ATOM     39  C   UNL A   1      45.514  32.336  28.630  1.00  0.00     0.058 A 
ATOM     40  C   UNL A   1      46.831  32.849  28.645  1.00  0.00     0.135 A 
ATOM     41  C   UNL A   1      44.504  33.279  28.336  1.00  0.00     0.135 A 
ATOM     42  F   UNL A   1      47.875  32.046  28.903  1.00  0.00    -0.206 F 
ATOM     43  C   UNL A   1      47.109  34.207  28.481  1.00  0.00     0.059 A 
ATOM     44  C   UNL A   1      44.765  34.627  28.117  1.00  0.00     0.059 A 
ATOM     45  F   UNL A   1      43.204  32.959  28.346  1.00  0.00    -0.206 F 
ATOM     46  C   UNL A   1      46.063  35.092  28.243  1.00  0.00     0.060 A 
BRANCH  46  47
ATOM     47  S   UNL A   1      46.396  36.861  28.179  1.00  0.00     0.124 S 
ATOM     48  O   UNL A   1      47.048  36.986  26.880  1.00  0.00    -0.237 OA
ATOM     49  O   UNL A   1      45.055  37.427  28.280  1.00  0.00    -0.237 OA
ATOM     50  O   UNL A   1      47.253  37.084  29.340  1.00  0.00    -0.744 OA
ENDBRANCH  46  47
ENDBRANCH  25  39
BRANCH  26  51
ATOM     51  C   UNL A   1      37.301  31.053  30.113  1.00  0.00     0.058 A 
ATOM     52  C   UNL A   1      36.479  31.730  31.033  1.00  0.00     0.135 A 
ATOM     53  C   UNL A   1      36.991  31.244  28.751  1.00  0.00     0.135 A 
ATOM     54  F   UNL A   1      36.718  31.633  32.349  1.00  0.00    -0.206 F 
ATOM     55  C   UNL A   1      35.436  32.573  30.626  1.00  0.00     0.059 A 
ATOM     56  C   UNL A   1      35.950  32.067  28.321  1.00  0.00     0.059 A 
ATOM     57  F   UNL A   1      37.750  30.705  27.786  1.00  0.00    -0.206 F 
ATOM     58  C   UNL A   1      35.191  32.748  29.264  1.00  0.00     0.060 A 
BRANCH  58  59
ATOM     59  S   UNL A   1      33.956  33.956  28.724  1.00  0.00     0.124 S 
ATOM     60  O   UNL A   1      33.176  33.181  27.764  1.00  0.00    -0.237 OA
ATOM     61  O   UNL A   1      33.281  34.288  29.974  1.00  0.00    -0.237 OA
ATOM     62  O   UNL A   1      34.762  35.031  28.150  1.00  0.00    -0.744 OA
ENDBRANCH  58  59
ENDBRANCH  26  51
BRANCH  38  63
ATOM     63  C   UNL A   1      42.231  29.496  33.877  1.00  0.00     0.058 A 
ATOM     64  C   UNL A   1      41.713  28.212  33.628  1.00  0.00     0.135 A 
ATOM     65  C   UNL A   1      42.629  29.783  35.191  1.00  0.00     0.135 A 
ATOM     66  F   UNL A   1      41.402  27.824  32.384  1.00  0.00    -0.206 F 
ATOM     67  C   UNL A   1      41.578  27.266  34.645  1.00  0.00     0.059 A 
ATOM     68  C   UNL A   1      42.533  28.844  36.214  1.00  0.00     0.059 A 
ATOM     69  F   UNL A   1      43.188  30.970  35.481  1.00  0.00    -0.206 F 
ATOM     70  C   UNL A   1      42.002  27.586  35.935  1.00  0.00     0.060 A 
BRANCH  70  71
ATOM     71  S   UNL A   1      41.953  26.320  37.222  1.00  0.00     0.124 S 
ATOM     72  O   UNL A   1      40.599  26.476  37.752  1.00  0.00    -0.237 OA
ATOM     73  O   UNL A   1      42.198  25.092  36.465  1.00  0.00    -0.237 OA
ATOM     74  O   UNL A   1      43.026  26.706  38.125  1.00  0.00    -0.744 OA
ENDBRANCH  70  71
ENDBRANCH  38  63
ENDBRANCH  12  13
ENDBRANCH   5   7
ENDBRANCH   2   3
ENDBRANCH   1   2
BRANCH   1  75
ATOM     75  C   UNL A   1      38.973  22.223  26.151  1.00  0.00     0.118 C 
BRANCH  75  76
ATOM     76  N   UNL A   1      38.117  22.528  25.010  1.00  0.00    -0.351 N 
ATOM     77  C   UNL A   1      36.844  22.226  24.627  1.00  0.00     0.278 C 
ATOM     78  H   UNL A   1      38.575  23.095  24.349  1.00  0.00     0.163 HD
ATOM     79  O   UNL A   1      36.490  22.765  23.566  1.00  0.00    -0.268 OA
BRANCH  77  80
ATOM     80  C   UNL A   1      35.849  21.277  25.381  1.00  0.00     0.274 C 
ATOM     81  C   UNL A   1      35.152  21.838  26.594  1.00  0.00     0.081 C 
ATOM     82  N   UNL A   1      34.705  20.947  24.480  1.00  0.00    -0.323 N 
ATOM     83  C   UNL A   1      33.990  22.638  26.003  1.00  0.00     0.068 C 
ATOM     84  C   UNL A   1      33.774  22.068  24.609  1.00  0.00     0.263 C 
ATOM     85  H   UNL A   1      35.058  20.836  23.530  1.00  0.00     0.348 HD
BRANCH  82  86
ATOM     86  C   UNL A   1      34.069  19.624  24.656  1.00  0.00     0.285 C 
BRANCH  86  87
ATOM     87  C   UNL A   1      34.818  18.262  24.622  1.00  0.00     0.184 C 
BRANCH  87  88
ATOM     88  N   UNL A   1      34.064  17.060  24.912  1.00  0.00    -0.332 N 
ATOM     89  C   UNL A   1      32.723  16.959  25.167  1.00  0.00     0.107 A 
ATOM     90  C   UNL A   1      34.582  15.793  24.968  1.00  0.00     0.199 A 
ATOM     91  C   UNL A   1      32.528  15.644  25.526  1.00  0.00     0.130 A 
ATOM     92  N   UNL A   1      33.685  14.930  25.387  1.00  0.00    -0.245 NA
ENDBRANCH  87  88
ENDBRANCH  86  87
ENDBRANCH  82  86
ENDBRANCH  77  80
ENDBRANCH  75  76
ENDBRANCH   1  75
TORSDOF 16
ENDMDL
MODEL 3
REMARK VINA RESULT:     -11.6      2.307      3.721
REMARK SMILES O=C(NCCCNC(=O)[C@H]1CCC[N@@H+]1CCn1ccnc1)c1ccc(-c2c3nc(c(-c4c(F)cc(S(=O)(=O)[O-])cc4F)c4ccc([nH]4)c(-c4c(F)cc(S(=O)(=O)[O-])cc4F)c4nc(c(-c5c(F)cc(S(=O)(=O)[O-])cc5F)c5ccc2[nH]5)C=C4)C=C3)cc1
REMARK SMILES IDX 5 1 4 2 3 3 1 4 2 5 22 7 23 8 87 9 24 10 86 11 25 12 26 13
REMARK SMILES IDX 27 14 80 15 28 16 85 17 79 18 81 19 29 20 84 21 78 22 77 23
REMARK SMILES IDX 30 25 64 26 43 27 63 28 44 29 47 30 62 31 82 32 45 33 46 34
REMARK SMILES IDX 61 36 83 37 48 38 31 39 32 40 41 41 33 42 34 43 40 44 42 45
REMARK SMILES IDX 35 46 36 47 37 48 38 49 39 50 65 51 66 52 75 53 67 54 68 55
REMARK SMILES IDX 74 56 76 57 69 58 70 59 71 60 72 61 73 62 49 63 50 64 59 65
REMARK SMILES IDX 51 66 52 67 58 68 60 69 53 70 54 71 55 72 56 73 57 74 6 75
REMARK SMILES IDX 7 76 8 77 9 79 10 80 11 81 14 82 12 83 13 84 15 86 16 87
REMARK SMILES IDX 17 88 18 89 21 90 19 91 20 92
REMARK H PARENT 3 6 81 24 47 35 7 78 14 85
REMARK Flexibility Score: inf
ROOT
ATOM      1  C   UNL A   1      36.669  23.230  24.425  1.00  0.00     0.042 C 
ENDROOT
BRANCH   1   2
ATOM      2  C   UNL A   1      36.921  22.424  25.696  1.00  0.00     0.118 C 
BRANCH   2   3
ATOM      3  N   UNL A   1      38.268  21.889  25.785  1.00  0.00    -0.352 N 
ATOM      4  O   UNL A   1      40.406  21.528  26.126  1.00  0.00    -0.269 OA
ATOM      5  C   UNL A   1      39.467  22.316  26.279  1.00  0.00     0.251 C 
ATOM      6  H   UNL A   1      38.332  20.989  25.390  1.00  0.00     0.163 HD
BRANCH   5   7
ATOM      7  C   UNL A   1      39.730  23.623  26.941  1.00  0.00     0.039 A 
ATOM      8  C   UNL A   1      38.916  24.756  26.880  1.00  0.00     0.014 A 
ATOM      9  C   UNL A   1      40.922  23.699  27.688  1.00  0.00     0.014 A 
ATOM     10  C   UNL A   1      39.306  25.943  27.504  1.00  0.00     0.010 A 
ATOM     11  C   UNL A   1      41.306  24.872  28.329  1.00  0.00     0.010 A 
ATOM     12  C   UNL A   1      40.507  26.007  28.215  1.00  0.00    -0.014 A 
BRANCH  12  13
ATOM     13  C   UNL A   1      40.824  27.231  28.955  1.00  0.00     0.031 A 
ATOM     14  C   UNL A   1      41.948  28.045  28.391  1.00  0.00     0.074 A 
ATOM     15  C   UNL A   1      40.053  27.720  29.949  1.00  0.00     0.049 A 
ATOM     16  N   UNL A   1      43.045  28.428  28.961  1.00  0.00    -0.248 NA
ATOM     17  C   UNL A   1      41.867  28.405  26.966  1.00  0.00     0.031 C 
ATOM     18  C   UNL A   1      38.747  27.229  30.397  1.00  0.00     0.029 A 
ATOM     19  N   UNL A   1      40.228  28.847  30.698  1.00  0.00    -0.354 N 
ATOM     20  C   UNL A   1      43.707  29.235  28.033  1.00  0.00     0.074 A 
ATOM     21  C   UNL A   1      43.008  29.070  26.786  1.00  0.00     0.031 C 
ATOM     22  C   UNL A   1      38.156  28.172  31.165  1.00  0.00     0.029 A 
ATOM     23  C   UNL A   1      39.088  29.268  31.372  1.00  0.00     0.049 A 
ATOM     24  H   UNL A   1      41.089  29.321  30.756  1.00  0.00     0.167 HD
ATOM     25  C   UNL A   1      44.672  30.129  28.394  1.00  0.00     0.037 A 
ATOM     26  C   UNL A   1      38.899  30.463  31.988  1.00  0.00     0.037 A 
ATOM     27  C   UNL A   1      45.206  29.830  29.695  1.00  0.00     0.049 A 
ATOM     28  C   UNL A   1      40.239  31.048  32.248  1.00  0.00     0.074 A 
ATOM     29  C   UNL A   1      45.868  28.753  30.251  1.00  0.00     0.029 A 
ATOM     30  N   UNL A   1      44.801  30.601  30.757  1.00  0.00    -0.354 N 
ATOM     31  N   UNL A   1      41.115  30.544  33.075  1.00  0.00    -0.248 NA
ATOM     32  C   UNL A   1      40.775  31.972  31.261  1.00  0.00     0.031 C 
ATOM     33  C   UNL A   1      45.388  28.678  31.591  1.00  0.00     0.029 A 
ATOM     34  C   UNL A   1      44.501  29.740  31.779  1.00  0.00     0.049 A 
ATOM     35  H   UNL A   1      44.739  31.584  30.778  1.00  0.00     0.167 HD
ATOM     36  C   UNL A   1      42.343  30.754  32.465  1.00  0.00     0.074 A 
ATOM     37  C   UNL A   1      42.077  31.716  31.400  1.00  0.00     0.031 C 
ATOM     38  C   UNL A   1      43.405  29.932  32.703  1.00  0.00     0.037 A 
BRANCH  25  39
ATOM     39  C   UNL A   1      44.907  31.466  27.720  1.00  0.00     0.058 A 
ATOM     40  C   UNL A   1      46.080  31.665  26.960  1.00  0.00     0.135 A 
ATOM     41  C   UNL A   1      44.185  32.639  28.033  1.00  0.00     0.135 A 
ATOM     42  F   UNL A   1      46.845  30.624  26.594  1.00  0.00    -0.206 F 
ATOM     43  C   UNL A   1      46.551  32.936  26.625  1.00  0.00     0.059 A 
ATOM     44  C   UNL A   1      44.608  33.911  27.663  1.00  0.00     0.059 A 
ATOM     45  F   UNL A   1      43.087  32.619  28.799  1.00  0.00    -0.206 F 
ATOM     46  C   UNL A   1      45.818  34.054  27.005  1.00  0.00     0.060 A 
BRANCH  46  47
ATOM     47  S   UNL A   1      46.492  35.699  26.709  1.00  0.00     0.124 S 
ATOM     48  O   UNL A   1      47.230  35.489  25.468  1.00  0.00    -0.237 OA
ATOM     49  O   UNL A   1      45.283  36.509  26.606  1.00  0.00    -0.237 OA
ATOM     50  O   UNL A   1      47.307  35.946  27.894  1.00  0.00    -0.744 OA
ENDBRANCH  46  47
ENDBRANCH  25  39
BRANCH  26  51
ATOM     51  C   UNL A   1      37.651  31.274  32.035  1.00  0.00     0.058 A 
ATOM     52  C   UNL A   1      37.086  31.687  33.255  1.00  0.00     0.135 A 
ATOM     53  C   UNL A   1      37.139  31.892  30.876  1.00  0.00     0.135 A 
ATOM     54  F   UNL A   1      37.531  31.176  34.413  1.00  0.00    -0.206 F 
ATOM     55  C   UNL A   1      36.099  32.680  33.325  1.00  0.00     0.059 A 
ATOM     56  C   UNL A   1      36.149  32.873  30.918  1.00  0.00     0.059 A 
ATOM     57  F   UNL A   1      37.652  31.627  29.666  1.00  0.00    -0.206 F 
ATOM     58  C   UNL A   1      35.649  33.280  32.148  1.00  0.00     0.060 A 
BRANCH  58  59
ATOM     59  S   UNL A   1      34.497  34.673  32.237  1.00  0.00     0.124 S 
ATOM     60  O   UNL A   1      35.257  35.642  33.020  1.00  0.00    -0.237 OA
ATOM     61  O   UNL A   1      34.301  35.003  30.831  1.00  0.00    -0.237 OA
ATOM     62  O   UNL A   1      33.330  34.106  32.910  1.00  0.00    -0.744 OA
ENDBRANCH  58  59
ENDBRANCH  26  51
BRANCH  38  63
ATOM     63  C   UNL A   1      43.331  28.965  33.856  1.00  0.00     0.058 A 
ATOM     64  C   UNL A   1      43.668  29.292  35.182  1.00  0.00     0.135 A 
ATOM     65  C   UNL A   1      42.707  27.728  33.639  1.00  0.00     0.135 A 
ATOM     66  F   UNL A   1      44.176  30.494  35.487  1.00  0.00    -0.206 F 
ATOM     67  C   UNL A   1      43.412  28.419  36.240  1.00  0.00     0.059 A 
ATOM     68  C   UNL A   1      42.415  26.854  34.683  1.00  0.00     0.059 A 
ATOM     69  F   UNL A   1      42.306  27.384  32.403  1.00  0.00    -0.206 F 
ATOM     70  C   UNL A   1      42.774  27.205  35.983  1.00  0.00     0.060 A 
BRANCH  70  71
ATOM     71  S   UNL A   1      42.323  26.133  37.364  1.00  0.00     0.124 S 
ATOM     72  O   UNL A   1      42.563  24.801  36.808  1.00  0.00    -0.237 OA
ATOM     73  O   UNL A   1      43.255  26.557  38.410  1.00  0.00    -0.237 OA
ATOM     74  O   UNL A   1      40.930  26.464  37.616  1.00  0.00    -0.744 OA
ENDBRANCH  70  71
ENDBRANCH  38  63
ENDBRANCH  12  13
ENDBRANCH   5   7
ENDBRANCH   2   3
ENDBRANCH   1   2
BRANCH   1  75
ATOM     75  C   UNL A   1      35.193  23.553  24.205  1.00  0.00     0.118 C 
BRANCH  75  76
ATOM     76  N   UNL A   1      34.731  24.725  24.940  1.00  0.00    -0.351 N 
ATOM     77  C   UNL A   1      33.896  25.774  24.692  1.00  0.00     0.278 C 
ATOM     78  H   UNL A   1      35.118  24.769  25.843  1.00  0.00     0.163 HD
ATOM     79  O   UNL A   1      33.739  26.540  25.657  1.00  0.00    -0.268 OA
BRANCH  77  80
ATOM     80  C   UNL A   1      33.171  26.082  23.336  1.00  0.00     0.274 C 
ATOM     81  C   UNL A   1      32.764  24.901  22.493  1.00  0.00     0.081 C 
ATOM     82  N   UNL A   1      31.859  26.740  23.617  1.00  0.00    -0.323 N 
ATOM     83  C   UNL A   1      31.450  24.441  23.127  1.00  0.00     0.068 C 
ATOM     84  C   UNL A   1      30.930  25.645  23.897  1.00  0.00     0.263 C 
ATOM     85  H   UNL A   1      31.974  27.371  24.410  1.00  0.00     0.348 HD
BRANCH  82  86
ATOM     86  C   UNL A   1      31.359  27.701  22.613  1.00  0.00     0.285 C 
BRANCH  86  87
ATOM     87  C   UNL A   1      30.749  29.094  22.937  1.00  0.00     0.184 C 
BRANCH  87  88
ATOM     88  N   UNL A   1      29.311  29.196  23.073  1.00  0.00    -0.332 N 
ATOM     89  C   UNL A   1      28.409  28.171  23.170  1.00  0.00     0.107 A 
ATOM     90  C   UNL A   1      28.600  30.365  23.140  1.00  0.00     0.199 A 
ATOM     91  C   UNL A   1      27.175  28.779  23.128  1.00  0.00     0.130 A 
ATOM     92  N   UNL A   1      27.307  30.139  23.121  1.00  0.00    -0.245 NA
ENDBRANCH  87  88
ENDBRANCH  86  87
ENDBRANCH  82  86
ENDBRANCH  77  80
ENDBRANCH  75  76
ENDBRANCH   1  75
TORSDOF 16
ENDMDL
