MODEL 1
REMARK VINA RESULT:     -13.4      0.000      0.000
REMARK SMILES Cc1ccc(Nc2cccc(F)c2C#N)cc1C(=O)NCCCNC(=O)c1ccc(-c2c3nc(c(-c4c(F)cc(S(=O)(=O)[O-])cc4F)c4ccc([nH]4)c(-c4c(F)cc(S(=O)(=O)[O-])cc4F)c4nc(c(-c5c(F)cc(S(=O)(=O)[O-])cc5F)c5ccc2[nH]5)C=C4)C=C3)cc1
REMARK SMILES IDX 22 1 21 2 20 3 18 4 19 5 17 7 1 8 2 9 3 10 4 11 16 12 5 13
REMARK SMILES IDX 6 14 7 16 8 17 13 18 9 19 11 20 10 21 12 22 14 23 15 24
REMARK SMILES IDX 23 25 24 26 25 27 26 29 27 30 28 31 92 32 29 33 91 34 30 35
REMARK SMILES IDX 31 36 32 37 85 38 33 39 90 40 84 41 86 42 34 43 89 44 83 45
REMARK SMILES IDX 82 46 35 48 69 49 48 50 68 51 49 52 52 53 67 54 87 55 50 56
REMARK SMILES IDX 51 57 66 59 88 60 53 61 36 62 37 63 46 64 38 65 39 66 45 67
REMARK SMILES IDX 47 68 40 69 41 70 42 71 43 72 44 73 70 74 71 75 80 76 72 77
REMARK SMILES IDX 73 78 79 79 81 80 74 81 75 82 76 83 77 84 78 85 54 86 55 87
REMARK SMILES IDX 64 88 56 89 57 90 63 91 65 92 58 93 59 94 60 95 61 96 62 97
REMARK H PARENT 20 6 6 15 24 28 86 47 52 58
REMARK Flexibility Score: inf
ROOT
ATOM      1  C   UNL A   1      31.539  28.665  25.412  1.00  0.00     0.042 C 
ENDROOT
BRANCH   1   2
ATOM      2  C   UNL A   1      31.546  27.715  26.737  1.00  0.00     0.118 C 
BRANCH   2   3
ATOM      3  N   UNL A   1      30.773  26.463  26.685  1.00  0.00    -0.352 N 
ATOM      4  C   UNL A   1      31.074  25.207  26.204  1.00  0.00     0.251 C 
ATOM      5  O   UNL A   1      30.310  24.265  26.425  1.00  0.00    -0.269 OA
ATOM      6  H   UNL A   1      29.869  26.537  27.067  1.00  0.00     0.163 HD
BRANCH   4   7
ATOM      7  C   UNL A   1      32.373  24.905  25.538  1.00  0.00     0.044 A 
ATOM      8  C   UNL A   1      31.742  25.537  23.105  1.00  0.00     0.045 C 
ATOM      9  C   UNL A   1      32.689  25.173  24.194  1.00  0.00    -0.038 A 
ATOM     10  C   UNL A   1      34.003  25.046  23.762  1.00  0.00     0.006 A 
ATOM     11  C   UNL A   1      34.929  24.422  24.562  1.00  0.00     0.026 A 
ATOM     12  C   UNL A   1      33.337  24.257  26.346  1.00  0.00     0.040 A 
ATOM     13  C   UNL A   1      34.601  23.956  25.842  1.00  0.00     0.039 A 
BRANCH  13  14
ATOM     14  N   UNL A   1      35.563  23.259  26.616  1.00  0.00    -0.354 N 
ATOM     15  H   UNL A   1      35.394  23.122  27.576  1.00  0.00     0.167 HD
BRANCH  14  16
ATOM     16  C   UNL A   1      36.760  22.753  26.047  1.00  0.00     0.059 A 
ATOM     17  C   UNL A   1      37.972  23.362  26.422  1.00  0.00     0.027 A 
ATOM     18  C   UNL A   1      36.792  21.482  25.434  1.00  0.00     0.111 A 
ATOM     19  C   UNL A   1      39.185  22.693  26.251  1.00  0.00     0.005 A 
ATOM     20  C   UNL A   1      38.011  20.827  25.279  1.00  0.00     0.143 A 
ATOM     21  C   UNL A   1      39.201  21.416  25.695  1.00  0.00     0.041 A 
ATOM     22  F   UNL A   1      38.054  19.575  24.798  1.00  0.00    -0.205 F 
BRANCH  18  23
ATOM     23  C   UNL A   1      35.578  20.777  25.081  1.00  0.00     0.104 C 
ATOM     24  N   UNL A   1      34.628  20.215  24.770  1.00  0.00    -0.192 NA
ENDBRANCH  18  23
ENDBRANCH  14  16
ENDBRANCH  13  14
ENDBRANCH   4   7
ENDBRANCH   2   3
ENDBRANCH   1   2
BRANCH   1  25
ATOM     25  C   UNL A   1      32.923  29.306  25.162  1.00  0.00     0.118 C 
BRANCH  25  26
ATOM     26  N   UNL A   1      34.374  29.474  26.025  1.00  0.00    -0.352 N 
ATOM     27  C   UNL A   1      35.204  30.068  27.242  1.00  0.00     0.251 C 
ATOM     28  H   UNL A   1      35.026  28.935  25.521  1.00  0.00     0.163 HD
ATOM     29  O   UNL A   1      35.986  29.180  27.656  1.00  0.00    -0.269 OA
BRANCH  27  30
ATOM     30  C   UNL A   1      35.312  31.492  28.274  1.00  0.00     0.039 A 
ATOM     31  C   UNL A   1      36.321  32.510  28.110  1.00  0.00     0.014 A 
ATOM     32  C   UNL A   1      34.714  31.712  29.508  1.00  0.00     0.014 A 
ATOM     33  C   UNL A   1      37.122  32.965  29.278  1.00  0.00     0.010 A 
ATOM     34  C   UNL A   1      35.519  32.042  30.642  1.00  0.00     0.010 A 
ATOM     35  C   UNL A   1      36.857  32.392  30.536  1.00  0.00    -0.014 A 
BRANCH  35  36
ATOM     36  C   UNL A   1      37.820  31.951  31.662  1.00  0.00     0.031 A 
ATOM     37  C   UNL A   1      38.129  33.005  32.612  1.00  0.00     0.074 A 
ATOM     38  C   UNL A   1      38.320  30.724  32.050  1.00  0.00     0.049 A 
ATOM     39  N   UNL A   1      39.275  33.569  32.790  1.00  0.00    -0.248 NA
ATOM     40  C   UNL A   1      37.033  33.594  33.371  1.00  0.00     0.031 C 
ATOM     41  C   UNL A   1      39.233  30.272  33.131  1.00  0.00     0.029 A 
ATOM     42  N   UNL A   1      38.165  29.495  31.439  1.00  0.00    -0.354 N 
ATOM     43  C   UNL A   1      39.097  34.305  33.944  1.00  0.00     0.074 A 
ATOM     44  C   UNL A   1      37.683  34.574  33.989  1.00  0.00     0.031 C 
ATOM     45  C   UNL A   1      39.850  29.116  32.763  1.00  0.00     0.029 A 
ATOM     46  C   UNL A   1      39.374  28.787  31.442  1.00  0.00     0.049 A 
ATOM     47  H   UNL A   1      37.322  29.162  31.055  1.00  0.00     0.167 HD
ATOM     48  C   UNL A   1      39.991  34.215  34.978  1.00  0.00     0.037 A 
ATOM     49  C   UNL A   1      40.071  28.693  30.261  1.00  0.00     0.037 A 
ATOM     50  C   UNL A   1      40.999  33.169  34.702  1.00  0.00     0.049 A 
ATOM     51  C   UNL A   1      41.268  29.603  30.256  1.00  0.00     0.074 A 
ATOM     52  C   UNL A   1      41.305  31.934  35.258  1.00  0.00     0.029 A 
ATOM     53  N   UNL A   1      41.672  33.187  33.492  1.00  0.00    -0.354 N 
ATOM     54  N   UNL A   1      41.573  30.324  31.293  1.00  0.00    -0.248 NA
ATOM     55  C   UNL A   1      42.169  29.849  29.132  1.00  0.00     0.031 C 
ATOM     56  C   UNL A   1      42.155  31.223  34.346  1.00  0.00     0.029 A 
ATOM     57  C   UNL A   1      42.389  32.034  33.252  1.00  0.00     0.049 A 
ATOM     58  H   UNL A   1      41.640  33.947  32.866  1.00  0.00     0.167 HD
ATOM     59  C   UNL A   1      42.636  31.121  31.030  1.00  0.00     0.074 A 
ATOM     60  C   UNL A   1      42.962  30.812  29.644  1.00  0.00     0.031 C 
ATOM     61  C   UNL A   1      43.136  31.946  31.998  1.00  0.00     0.037 A 
BRANCH  48  62
ATOM     62  C   UNL A   1      39.780  34.861  36.346  1.00  0.00     0.058 A 
ATOM     63  C   UNL A   1      39.046  34.198  37.351  1.00  0.00     0.135 A 
ATOM     64  C   UNL A   1      40.336  36.093  36.771  1.00  0.00     0.135 A 
ATOM     65  F   UNL A   1      38.542  32.972  37.153  1.00  0.00    -0.206 F 
ATOM     66  C   UNL A   1      38.834  34.733  38.628  1.00  0.00     0.059 A 
ATOM     67  C   UNL A   1      40.086  36.679  38.014  1.00  0.00     0.059 A 
ATOM     68  F   UNL A   1      41.243  36.759  36.051  1.00  0.00    -0.206 F 
ATOM     69  C   UNL A   1      39.345  35.983  38.949  1.00  0.00     0.060 A 
BRANCH  69  70
ATOM     70  S   UNL A   1      39.126  36.635  40.611  1.00  0.00     0.124 S 
ATOM     71  O   UNL A   1      38.289  35.615  41.234  1.00  0.00    -0.237 OA
ATOM     72  O   UNL A   1      40.502  36.711  41.092  1.00  0.00    -0.237 OA
ATOM     73  O   UNL A   1      38.474  37.925  40.393  1.00  0.00    -0.744 OA
ENDBRANCH  69  70
ENDBRANCH  48  62
BRANCH  49  74
ATOM     74  C   UNL A   1      39.167  28.448  29.065  1.00  0.00     0.058 A 
ATOM     75  C   UNL A   1      39.391  29.350  28.033  1.00  0.00     0.135 A 
ATOM     76  C   UNL A   1      39.165  27.148  28.610  1.00  0.00     0.135 A 
ATOM     77  F   UNL A   1      38.691  30.491  27.988  1.00  0.00    -0.206 F 
ATOM     78  C   UNL A   1      40.118  28.987  26.877  1.00  0.00     0.059 A 
ATOM     79  C   UNL A   1      40.013  26.846  27.519  1.00  0.00     0.059 A 
ATOM     80  F   UNL A   1      38.751  26.152  29.409  1.00  0.00    -0.206 F 
ATOM     81  C   UNL A   1      40.694  27.726  26.719  1.00  0.00     0.060 A 
BRANCH  81  82
ATOM     82  S   UNL A   1      42.488  27.181  25.640  1.00  0.00     0.124 S 
ATOM     83  O   UNL A   1      42.696  28.182  24.602  1.00  0.00    -0.237 OA
ATOM     84  O   UNL A   1      43.523  27.267  26.653  1.00  0.00    -0.237 OA
ATOM     85  O   UNL A   1      42.274  25.870  25.034  1.00  0.00    -0.744 OA
ENDBRANCH  81  82
ENDBRANCH  49  74
BRANCH  61  86
ATOM     86  C   UNL A   1      44.357  32.799  31.820  1.00  0.00     0.058 A 
ATOM     87  C   UNL A   1      45.555  32.562  32.508  1.00  0.00     0.135 A 
ATOM     88  C   UNL A   1      44.343  33.956  31.005  1.00  0.00     0.135 A 
ATOM     89  F   UNL A   1      45.634  31.639  33.477  1.00  0.00    -0.206 F 
ATOM     90  C   UNL A   1      46.705  33.305  32.262  1.00  0.00     0.059 A 
ATOM     91  C   UNL A   1      45.460  34.739  30.783  1.00  0.00     0.059 A 
ATOM     92  F   UNL A   1      43.244  34.397  30.382  1.00  0.00    -0.206 F 
ATOM     93  C   UNL A   1      46.650  34.378  31.380  1.00  0.00     0.060 A 
BRANCH  93  94
ATOM     94  S   UNL A   1      48.130  35.338  31.066  1.00  0.00     0.124 S 
ATOM     95  O   UNL A   1      47.848  36.575  31.787  1.00  0.00    -0.237 OA
ATOM     96  O   UNL A   1      49.158  34.482  31.650  1.00  0.00    -0.237 OA
ATOM     97  O   UNL A   1      48.161  35.458  29.612  1.00  0.00    -0.744 OA
ENDBRANCH  93  94
ENDBRANCH  61  86
ENDBRANCH  35  36
ENDBRANCH  27  30
ENDBRANCH  25  26
ENDBRANCH   1  25
TORSDOF 16
ENDMDL
MODEL 2
REMARK VINA RESULT:     -12.6      3.506      7.716
REMARK SMILES Cc1ccc(Nc2cccc(F)c2C#N)cc1C(=O)NCCCNC(=O)c1ccc(-c2c3nc(c(-c4c(F)cc(S(=O)(=O)[O-])cc4F)c4ccc([nH]4)c(-c4c(F)cc(S(=O)(=O)[O-])cc4F)c4nc(c(-c5c(F)cc(S(=O)(=O)[O-])cc5F)c5ccc2[nH]5)C=C4)C=C3)cc1
REMARK SMILES IDX 22 1 21 2 20 3 18 4 19 5 17 7 1 8 2 9 3 10 4 11 16 12 5 13
REMARK SMILES IDX 6 14 7 16 8 17 13 18 9 19 11 20 10 21 12 22 14 23 15 24
REMARK SMILES IDX 23 25 24 26 25 27 26 29 27 30 28 31 92 32 29 33 91 34 30 35
REMARK SMILES IDX 31 36 32 37 85 38 33 39 90 40 84 41 86 42 34 43 89 44 83 45
REMARK SMILES IDX 82 46 35 48 69 49 48 50 68 51 49 52 52 53 67 54 87 55 50 56
REMARK SMILES IDX 51 57 66 59 88 60 53 61 36 62 37 63 46 64 38 65 39 66 45 67
REMARK SMILES IDX 47 68 40 69 41 70 42 71 43 72 44 73 70 74 71 75 80 76 72 77
REMARK SMILES IDX 73 78 79 79 81 80 74 81 75 82 76 83 77 84 78 85 54 86 55 87
REMARK SMILES IDX 64 88 56 89 57 90 63 91 65 92 58 93 59 94 60 95 61 96 62 97
REMARK H PARENT 20 6 6 15 24 28 86 47 52 58
REMARK Flexibility Score: inf
ROOT
ATOM      1  C   UNL A   1      33.667  27.997  25.129  1.00  0.00     0.042 C 
ENDROOT
BRANCH   1   2
ATOM      2  C   UNL A   1      33.558  26.490  24.517  1.00  0.00     0.118 C 
BRANCH   2   3
ATOM      3  N   UNL A   1      32.994  25.440  25.383  1.00  0.00    -0.352 N 
ATOM      4  C   UNL A   1      33.424  24.170  25.700  1.00  0.00     0.251 C 
ATOM      5  O   UNL A   1      32.855  23.533  26.590  1.00  0.00    -0.269 OA
ATOM      6  H   UNL A   1      32.148  25.694  25.817  1.00  0.00     0.163 HD
BRANCH   4   7
ATOM      7  C   UNL A   1      34.655  23.579  25.103  1.00  0.00     0.044 A 
ATOM      8  C   UNL A   1      33.781  23.156  22.700  1.00  0.00     0.045 C 
ATOM      9  C   UNL A   1      34.834  23.252  23.747  1.00  0.00    -0.038 A 
ATOM     10  C   UNL A   1      36.101  22.917  23.286  1.00  0.00     0.006 A 
ATOM     11  C   UNL A   1      37.108  22.657  24.182  1.00  0.00     0.026 A 
ATOM     12  C   UNL A   1      35.701  23.299  26.013  1.00  0.00     0.040 A 
ATOM     13  C   UNL A   1      36.914  22.777  25.564  1.00  0.00     0.039 A 
BRANCH  13  14
ATOM     14  N   UNL A   1      37.955  22.438  26.465  1.00  0.00    -0.354 N 
ATOM     15  H   UNL A   1      37.934  21.560  26.910  1.00  0.00     0.167 HD
BRANCH  14  16
ATOM     16  C   UNL A   1      39.024  23.328  26.745  1.00  0.00     0.059 A 
ATOM     17  C   UNL A   1      38.721  24.696  26.873  1.00  0.00     0.027 A 
ATOM     18  C   UNL A   1      40.257  22.849  27.238  1.00  0.00     0.111 A 
ATOM     19  C   UNL A   1      39.596  25.558  27.536  1.00  0.00     0.005 A 
ATOM     20  C   UNL A   1      41.113  23.722  27.903  1.00  0.00     0.143 A 
ATOM     21  C   UNL A   1      40.786  25.065  28.068  1.00  0.00     0.041 A 
ATOM     22  F   UNL A   1      42.239  23.267  28.475  1.00  0.00    -0.205 F 
BRANCH  18  23
ATOM     23  C   UNL A   1      40.600  21.444  27.192  1.00  0.00     0.104 C 
ATOM     24  N   UNL A   1      40.858  20.328  27.124  1.00  0.00    -0.192 NA
ENDBRANCH  18  23
ENDBRANCH  14  16
ENDBRANCH  13  14
ENDBRANCH   4   7
ENDBRANCH   2   3
ENDBRANCH   1   2
BRANCH   1  25
ATOM     25  C   UNL A   1      34.300  27.995  26.539  1.00  0.00     0.118 C 
BRANCH  25  26
ATOM     26  N   UNL A   1      35.198  29.079  27.487  1.00  0.00    -0.352 N 
ATOM     27  C   UNL A   1      36.529  29.474  28.257  1.00  0.00     0.251 C 
ATOM     28  H   UNL A   1      34.593  29.842  27.629  1.00  0.00     0.163 HD
ATOM     29  O   UNL A   1      36.741  30.697  28.075  1.00  0.00    -0.269 OA
BRANCH  27  30
ATOM     30  C   UNL A   1      37.859  28.763  29.167  1.00  0.00     0.039 A 
ATOM     31  C   UNL A   1      37.729  28.311  30.531  1.00  0.00     0.014 A 
ATOM     32  C   UNL A   1      39.219  28.802  28.883  1.00  0.00     0.014 A 
ATOM     33  C   UNL A   1      38.713  28.742  31.560  1.00  0.00     0.010 A 
ATOM     34  C   UNL A   1      40.134  29.323  29.849  1.00  0.00     0.010 A 
ATOM     35  C   UNL A   1      39.773  29.580  31.164  1.00  0.00    -0.014 A 
BRANCH  35  36
ATOM     36  C   UNL A   1      40.414  30.793  31.875  1.00  0.00     0.031 A 
ATOM     37  C   UNL A   1      41.384  30.428  32.894  1.00  0.00     0.074 A 
ATOM     38  C   UNL A   1      40.382  32.153  31.637  1.00  0.00     0.049 A 
ATOM     39  N   UNL A   1      41.271  30.613  34.164  1.00  0.00    -0.248 NA
ATOM     40  C   UNL A   1      42.558  29.667  32.487  1.00  0.00     0.031 C 
ATOM     41  C   UNL A   1      40.997  33.335  32.294  1.00  0.00     0.029 A 
ATOM     42  N   UNL A   1      39.644  32.850  30.700  1.00  0.00    -0.354 N 
ATOM     43  C   UNL A   1      42.532  30.326  34.646  1.00  0.00     0.074 A 
ATOM     44  C   UNL A   1      43.093  29.419  33.677  1.00  0.00     0.031 C 
ATOM     45  C   UNL A   1      40.240  34.441  32.058  1.00  0.00     0.029 A 
ATOM     46  C   UNL A   1      39.114  34.020  31.260  1.00  0.00     0.049 A 
ATOM     47  H   UNL A   1      39.507  32.563  29.768  1.00  0.00     0.167 HD
ATOM     48  C   UNL A   1      43.176  31.194  35.487  1.00  0.00     0.037 A 
ATOM     49  C   UNL A   1      37.773  34.045  31.558  1.00  0.00     0.037 A 
ATOM     50  C   UNL A   1      42.394  32.439  35.645  1.00  0.00     0.049 A 
ATOM     51  C   UNL A   1      37.537  33.916  33.038  1.00  0.00     0.074 A 
ATOM     52  C   UNL A   1      42.580  33.765  35.274  1.00  0.00     0.029 A 
ATOM     53  N   UNL A   1      41.054  32.353  35.983  1.00  0.00    -0.354 N 
ATOM     54  N   UNL A   1      38.528  33.844  33.876  1.00  0.00    -0.248 NA
ATOM     55  C   UNL A   1      36.243  33.792  33.706  1.00  0.00     0.031 C 
ATOM     56  C   UNL A   1      41.324  34.449  35.387  1.00  0.00     0.029 A 
ATOM     57  C   UNL A   1      40.382  33.551  35.851  1.00  0.00     0.049 A 
ATOM     58  H   UNL A   1      40.624  31.520  36.286  1.00  0.00     0.167 HD
ATOM     59  C   UNL A   1      38.078  33.652  35.139  1.00  0.00     0.074 A 
ATOM     60  C   UNL A   1      36.630  33.594  34.982  1.00  0.00     0.031 C 
ATOM     61  C   UNL A   1      38.958  33.571  36.181  1.00  0.00     0.037 A 
BRANCH  48  62
ATOM     62  C   UNL A   1      44.630  31.035  35.927  1.00  0.00     0.058 A 
ATOM     63  C   UNL A   1      44.983  30.101  36.923  1.00  0.00     0.135 A 
ATOM     64  C   UNL A   1      45.741  31.704  35.360  1.00  0.00     0.135 A 
ATOM     65  F   UNL A   1      44.068  29.303  37.489  1.00  0.00    -0.206 F 
ATOM     66  C   UNL A   1      46.301  29.900  37.355  1.00  0.00     0.059 A 
ATOM     67  C   UNL A   1      47.055  31.571  35.817  1.00  0.00     0.059 A 
ATOM     68  F   UNL A   1      45.644  32.452  34.257  1.00  0.00    -0.206 F 
ATOM     69  C   UNL A   1      47.331  30.650  36.807  1.00  0.00     0.060 A 
BRANCH  69  70
ATOM     70  S   UNL A   1      49.028  30.341  37.318  1.00  0.00     0.124 S 
ATOM     71  O   UNL A   1      49.240  31.377  38.324  1.00  0.00    -0.237 OA
ATOM     72  O   UNL A   1      48.951  28.973  37.821  1.00  0.00    -0.237 OA
ATOM     73  O   UNL A   1      49.796  30.506  36.086  1.00  0.00    -0.744 OA
ENDBRANCH  69  70
ENDBRANCH  48  62
BRANCH  49  74
ATOM     74  C   UNL A   1      36.922  33.384  30.488  1.00  0.00     0.058 A 
ATOM     75  C   UNL A   1      35.794  32.764  31.010  1.00  0.00     0.135 A 
ATOM     76  C   UNL A   1      36.605  34.203  29.427  1.00  0.00     0.135 A 
ATOM     77  F   UNL A   1      35.857  31.477  31.375  1.00  0.00    -0.206 F 
ATOM     78  C   UNL A   1      34.512  33.349  30.907  1.00  0.00     0.059 A 
ATOM     79  C   UNL A   1      35.344  34.843  29.462  1.00  0.00     0.059 A 
ATOM     80  F   UNL A   1      37.575  34.716  28.654  1.00  0.00    -0.206 F 
ATOM     81  C   UNL A   1      34.305  34.599  30.321  1.00  0.00     0.060 A 
BRANCH  81  82
ATOM     82  S   UNL A   1      32.798  36.080  30.789  1.00  0.00     0.124 S 
ATOM     83  O   UNL A   1      33.487  37.273  31.262  1.00  0.00    -0.237 OA
ATOM     84  O   UNL A   1      32.166  36.325  29.506  1.00  0.00    -0.237 OA
ATOM     85  O   UNL A   1      31.945  35.543  31.845  1.00  0.00    -0.744 OA
ENDBRANCH  81  82
ENDBRANCH  49  74
BRANCH  61  86
ATOM     86  C   UNL A   1      38.544  33.443  37.617  1.00  0.00     0.058 A 
ATOM     87  C   UNL A   1      38.866  34.400  38.588  1.00  0.00     0.135 A 
ATOM     88  C   UNL A   1      37.873  32.292  38.096  1.00  0.00     0.135 A 
ATOM     89  F   UNL A   1      39.690  35.423  38.316  1.00  0.00    -0.206 F 
ATOM     90  C   UNL A   1      38.395  34.311  39.894  1.00  0.00     0.059 A 
ATOM     91  C   UNL A   1      37.438  32.158  39.401  1.00  0.00     0.059 A 
ATOM     92  F   UNL A   1      37.607  31.229  37.328  1.00  0.00    -0.206 F 
ATOM     93  C   UNL A   1      37.662  33.195  40.283  1.00  0.00     0.060 A 
BRANCH  93  94
ATOM     94  S   UNL A   1      37.059  33.079  41.966  1.00  0.00     0.124 S 
ATOM     95  O   UNL A   1      35.883  33.941  41.927  1.00  0.00    -0.237 OA
ATOM     96  O   UNL A   1      36.795  31.648  42.080  1.00  0.00    -0.237 OA
ATOM     97  O   UNL A   1      38.173  33.580  42.765  1.00  0.00    -0.744 OA
ENDBRANCH  93  94
ENDBRANCH  61  86
ENDBRANCH  35  36
ENDBRANCH  27  30
ENDBRANCH  25  26
ENDBRANCH   1  25
TORSDOF 16
ENDMDL
MODEL 3
REMARK VINA RESULT:     -12.4      5.532      8.706
REMARK SMILES Cc1ccc(Nc2cccc(F)c2C#N)cc1C(=O)NCCCNC(=O)c1ccc(-c2c3nc(c(-c4c(F)cc(S(=O)(=O)[O-])cc4F)c4ccc([nH]4)c(-c4c(F)cc(S(=O)(=O)[O-])cc4F)c4nc(c(-c5c(F)cc(S(=O)(=O)[O-])cc5F)c5ccc2[nH]5)C=C4)C=C3)cc1
REMARK SMILES IDX 22 1 21 2 20 3 18 4 19 5 17 7 1 8 2 9 3 10 4 11 16 12 5 13
REMARK SMILES IDX 6 14 7 16 8 17 13 18 9 19 11 20 10 21 12 22 14 23 15 24
REMARK SMILES IDX 23 25 24 26 25 27 26 29 27 30 28 31 92 32 29 33 91 34 30 35
REMARK SMILES IDX 31 36 32 37 85 38 33 39 90 40 84 41 86 42 34 43 89 44 83 45
REMARK SMILES IDX 82 46 35 48 69 49 48 50 68 51 49 52 52 53 67 54 87 55 50 56
REMARK SMILES IDX 51 57 66 59 88 60 53 61 36 62 37 63 46 64 38 65 39 66 45 67
REMARK SMILES IDX 47 68 40 69 41 70 42 71 43 72 44 73 70 74 71 75 80 76 72 77
REMARK SMILES IDX 73 78 79 79 81 80 74 81 75 82 76 83 77 84 78 85 54 86 55 87
REMARK SMILES IDX 64 88 56 89 57 90 63 91 65 92 58 93 59 94 60 95 61 96 62 97
REMARK H PARENT 20 6 6 15 24 28 86 47 52 58
REMARK Flexibility Score: inf
ROOT
ATOM      1  C   UNL A   1      34.020  31.513  27.980  1.00  0.00     0.042 C 
ENDROOT
BRANCH   1   2
ATOM      2  C   UNL A   1      33.647  30.229  27.046  1.00  0.00     0.118 C 
BRANCH   2   3
ATOM      3  N   UNL A   1      32.638  29.285  27.554  1.00  0.00    -0.352 N 
ATOM      4  C   UNL A   1      32.120  28.116  27.040  1.00  0.00     0.251 C 
ATOM      5  O   UNL A   1      31.392  27.407  27.738  1.00  0.00    -0.269 OA
ATOM      6  H   UNL A   1      32.261  29.537  28.427  1.00  0.00     0.163 HD
BRANCH   4   7
ATOM      7  C   UNL A   1      32.521  27.593  25.703  1.00  0.00     0.044 A 
ATOM      8  C   UNL A   1      30.902  28.971  24.221  1.00  0.00     0.045 C 
ATOM      9  C   UNL A   1      32.062  28.070  24.463  1.00  0.00    -0.038 A 
ATOM     10  C   UNL A   1      32.682  27.646  23.295  1.00  0.00     0.006 A 
ATOM     11  C   UNL A   1      33.553  26.585  23.329  1.00  0.00     0.026 A 
ATOM     12  C   UNL A   1      33.415  26.496  25.721  1.00  0.00     0.040 A 
ATOM     13  C   UNL A   1      33.888  25.946  24.530  1.00  0.00     0.039 A 
BRANCH  13  14
ATOM     14  N   UNL A   1      34.739  24.812  24.524  1.00  0.00    -0.354 N 
ATOM     15  H   UNL A   1      35.579  24.848  24.011  1.00  0.00     0.167 HD
BRANCH  14  16
ATOM     16  C   UNL A   1      34.415  23.627  25.234  1.00  0.00     0.059 A 
ATOM     17  C   UNL A   1      34.668  23.604  26.618  1.00  0.00     0.027 A 
ATOM     18  C   UNL A   1      33.549  22.661  24.678  1.00  0.00     0.111 A 
ATOM     19  C   UNL A   1      34.022  22.681  27.442  1.00  0.00     0.005 A 
ATOM     20  C   UNL A   1      32.908  21.753  25.517  1.00  0.00     0.143 A 
ATOM     21  C   UNL A   1      33.127  21.766  26.892  1.00  0.00     0.041 A 
ATOM     22  F   UNL A   1      31.999  20.898  25.025  1.00  0.00    -0.205 F 
BRANCH  18  23
ATOM     23  C   UNL A   1      33.202  22.670  23.274  1.00  0.00     0.104 C 
ATOM     24  N   UNL A   1      32.957  22.692  22.153  1.00  0.00    -0.192 NA
ENDBRANCH  18  23
ENDBRANCH  14  16
ENDBRANCH  13  14
ENDBRANCH   4   7
ENDBRANCH   2   3
ENDBRANCH   1   2
BRANCH   1  25
ATOM     25  C   UNL A   1      35.545  31.764  28.021  1.00  0.00     0.118 C 
BRANCH  25  26
ATOM     26  N   UNL A   1      36.902  30.988  28.680  1.00  0.00    -0.352 N 
ATOM     27  C   UNL A   1      38.278  30.214  28.506  1.00  0.00     0.251 C 
ATOM     28  H   UNL A   1      36.772  31.046  29.654  1.00  0.00     0.163 HD
ATOM     29  O   UNL A   1      39.072  30.620  29.389  1.00  0.00    -0.269 OA
BRANCH  27  30
ATOM     30  C   UNL A   1      39.100  29.083  27.435  1.00  0.00     0.039 A 
ATOM     31  C   UNL A   1      39.258  27.682  27.739  1.00  0.00     0.014 A 
ATOM     32  C   UNL A   1      39.943  29.362  26.367  1.00  0.00     0.014 A 
ATOM     33  C   UNL A   1      40.596  27.039  27.633  1.00  0.00     0.010 A 
ATOM     34  C   UNL A   1      41.265  28.819  26.342  1.00  0.00     0.010 A 
ATOM     35  C   UNL A   1      41.686  27.826  27.214  1.00  0.00    -0.014 A 
BRANCH  35  36
ATOM     36  C   UNL A   1      43.150  27.857  27.708  1.00  0.00     0.031 A 
ATOM     37  C   UNL A   1      43.794  29.149  27.546  1.00  0.00     0.074 A 
ATOM     38  C   UNL A   1      43.926  26.963  28.420  1.00  0.00     0.049 A 
ATOM     39  N   UNL A   1      44.775  29.426  26.757  1.00  0.00    -0.248 NA
ATOM     40  C   UNL A   1      43.222  30.297  28.239  1.00  0.00     0.031 C 
ATOM     41  C   UNL A   1      45.326  26.973  28.917  1.00  0.00     0.029 A 
ATOM     42  N   UNL A   1      43.615  25.679  28.823  1.00  0.00    -0.354 N 
ATOM     43  C   UNL A   1      45.163  30.690  27.156  1.00  0.00     0.074 A 
ATOM     44  C   UNL A   1      43.978  31.267  27.737  1.00  0.00     0.031 C 
ATOM     45  C   UNL A   1      45.780  25.697  29.046  1.00  0.00     0.029 A 
ATOM     46  C   UNL A   1      44.708  24.824  28.630  1.00  0.00     0.049 A 
ATOM     47  H   UNL A   1      42.746  25.403  29.194  1.00  0.00     0.167 HD
ATOM     48  C   UNL A   1      46.477  30.969  27.421  1.00  0.00     0.037 A 
ATOM     49  C   UNL A   1      44.659  23.939  27.581  1.00  0.00     0.037 A 
ATOM     50  C   UNL A   1      47.294  29.738  27.348  1.00  0.00     0.049 A 
ATOM     51  C   UNL A   1      45.542  24.383  26.446  1.00  0.00     0.074 A 
ATOM     52  C   UNL A   1      47.998  28.975  28.270  1.00  0.00     0.029 A 
ATOM     53  N   UNL A   1      47.195  28.932  26.226  1.00  0.00    -0.354 N 
ATOM     54  N   UNL A   1      46.269  25.455  26.537  1.00  0.00    -0.248 NA
ATOM     55  C   UNL A   1      45.652  23.753  25.132  1.00  0.00     0.031 C 
ATOM     56  C   UNL A   1      48.298  27.705  27.674  1.00  0.00     0.029 A 
ATOM     57  C   UNL A   1      47.802  27.704  26.384  1.00  0.00     0.049 A 
ATOM     58  H   UNL A   1      46.737  29.209  25.399  1.00  0.00     0.167 HD
ATOM     59  C   UNL A   1      46.915  25.700  25.371  1.00  0.00     0.074 A 
ATOM     60  C   UNL A   1      46.472  24.618  24.501  1.00  0.00     0.031 C 
ATOM     61  C   UNL A   1      47.754  26.772  25.259  1.00  0.00     0.037 A 
BRANCH  48  62
ATOM     62  C   UNL A   1      46.964  32.285  28.025  1.00  0.00     0.058 A 
ATOM     63  C   UNL A   1      46.867  32.520  29.412  1.00  0.00     0.135 A 
ATOM     64  C   UNL A   1      47.612  33.328  27.319  1.00  0.00     0.135 A 
ATOM     65  F   UNL A   1      46.379  31.591  30.245  1.00  0.00    -0.206 F 
ATOM     66  C   UNL A   1      47.311  33.699  30.024  1.00  0.00     0.059 A 
ATOM     67  C   UNL A   1      48.004  34.539  27.893  1.00  0.00     0.059 A 
ATOM     68  F   UNL A   1      48.002  33.200  26.047  1.00  0.00    -0.206 F 
ATOM     69  C   UNL A   1      47.866  34.712  29.256  1.00  0.00     0.060 A 
BRANCH  69  70
ATOM     70  S   UNL A   1      48.495  36.196  30.056  1.00  0.00     0.124 S 
ATOM     71  O   UNL A   1      48.066  36.005  31.438  1.00  0.00    -0.237 OA
ATOM     72  O   UNL A   1      49.930  36.087  29.814  1.00  0.00    -0.237 OA
ATOM     73  O   UNL A   1      47.828  37.282  29.343  1.00  0.00    -0.744 OA
ENDBRANCH  69  70
ENDBRANCH  48  62
BRANCH  49  74
ATOM     74  C   UNL A   1      43.290  23.305  27.411  1.00  0.00     0.058 A 
ATOM     75  C   UNL A   1      42.874  23.277  26.087  1.00  0.00     0.135 A 
ATOM     76  C   UNL A   1      43.155  22.072  28.011  1.00  0.00     0.135 A 
ATOM     77  F   UNL A   1      42.164  24.300  25.595  1.00  0.00    -0.206 F 
ATOM     78  C   UNL A   1      42.923  22.091  25.320  1.00  0.00     0.059 A 
ATOM     79  C   UNL A   1      43.336  20.934  27.190  1.00  0.00     0.059 A 
ATOM     80  F   UNL A   1      43.296  21.946  29.340  1.00  0.00    -0.206 F 
ATOM     81  C   UNL A   1      43.431  20.893  25.824  1.00  0.00     0.060 A 
BRANCH  81  82
ATOM     82  S   UNL A   1      44.443  19.300  24.767  1.00  0.00     0.124 S 
ATOM     83  O   UNL A   1      43.640  18.094  24.918  1.00  0.00    -0.237 OA
ATOM     84  O   UNL A   1      44.431  19.757  23.390  1.00  0.00    -0.237 OA
ATOM     85  O   UNL A   1      45.754  19.108  25.379  1.00  0.00    -0.744 OA
ENDBRANCH  81  82
ENDBRANCH  49  74
BRANCH  61  86
ATOM     86  C   UNL A   1      48.570  27.070  24.036  1.00  0.00     0.058 A 
ATOM     87  C   UNL A   1      49.943  26.801  23.955  1.00  0.00     0.135 A 
ATOM     88  C   UNL A   1      48.012  27.727  22.913  1.00  0.00     0.135 A 
ATOM     89  F   UNL A   1      50.639  26.389  25.025  1.00  0.00    -0.206 F 
ATOM     90  C   UNL A   1      50.664  26.997  22.782  1.00  0.00     0.059 A 
ATOM     91  C   UNL A   1      48.721  27.978  21.754  1.00  0.00     0.059 A 
ATOM     92  F   UNL A   1      46.750  28.170  22.879  1.00  0.00    -0.206 F 
ATOM     93  C   UNL A   1      50.036  27.566  21.680  1.00  0.00     0.060 A 
BRANCH  93  94
ATOM     94  S   UNL A   1      50.966  27.823  20.170  1.00  0.00     0.124 S 
ATOM     95  O   UNL A   1      52.194  27.084  20.441  1.00  0.00    -0.237 OA
ATOM     96  O   UNL A   1      50.074  27.233  19.177  1.00  0.00    -0.237 OA
ATOM     97  O   UNL A   1      51.114  29.273  20.100  1.00  0.00    -0.744 OA
ENDBRANCH  93  94
ENDBRANCH  61  86
ENDBRANCH  35  36
ENDBRANCH  27  30
ENDBRANCH  25  26
ENDBRANCH   1  25
TORSDOF 16
ENDMDL
