MODEL 1
REMARK VINA RESULT:     -10.9      0.000      0.000
REMARK SMILES CCc1ccc(N2C(=O)C[C@@H](SC[C@@H](NC(C)=O)C(=O)NCCCNC(=O)c3ccc(-c4c5nc(c(-c6c(F)cc(S(=O)(=O)[O-])cc6F)c6ccc([nH]6)c(-c6c(F)cc(S(=O)(=O)[O-])cc6F)c6nc(c(-c7c(F)cc(S(=O)(=O)[O-])cc7F)c7ccc4[nH]7)C=C6)C=C5)cc3)C2=O)cc1
REMARK SMILES IDX 22 1 21 2 19 3 20 4 14 6 13 7 12 8 11 9 7 10 8 11 94 12 9 13
REMARK SMILES IDX 10 14 95 15 6 16 3 17 4 18 97 19 5 20 96 21 2 22 1 23 15 24
REMARK SMILES IDX 16 25 17 27 18 28 23 29 24 30 25 31 26 32 27 34 28 35 29 36
REMARK SMILES IDX 93 37 30 38 92 39 31 40 32 41 33 42 86 43 34 44 91 45 85 46
REMARK SMILES IDX 87 47 35 48 90 49 84 50 83 51 36 53 70 54 49 55 69 56 50 57
REMARK SMILES IDX 53 58 68 59 88 60 51 61 52 62 67 64 89 65 54 66 37 67 38 68
REMARK SMILES IDX 47 69 39 70 40 71 46 72 48 73 41 74 42 75 43 76 44 77 45 78
REMARK SMILES IDX 71 79 72 80 81 81 73 82 74 83 80 84 82 85 75 86 76 87 77 88
REMARK SMILES IDX 78 89 79 90 55 91 56 92 65 93 57 94 58 95 64 96 66 97 59 98
REMARK SMILES IDX 60 99 61 100 62 101 63 102
REMARK H PARENT 21 5 15 26 25 33 87 52 53 63
REMARK Flexibility Score: inf
ROOT
ATOM      1  C   UNL A   1      46.007  22.850  36.972  1.00  0.00     0.117 C 
ENDROOT
BRANCH   1   2
ATOM      2  N   UNL A   1      45.631  21.518  36.535  1.00  0.00    -0.354 N 
ATOM      3  C   UNL A   1      46.307  20.339  36.638  1.00  0.00     0.243 C 
ATOM      4  O   UNL A   1      45.859  19.369  36.018  1.00  0.00    -0.273 OA
ATOM      5  H   UNL A   1      44.753  21.457  36.095  1.00  0.00     0.163 HD
BRANCH   3   6
ATOM      6  C   UNL A   1      47.686  20.263  37.325  1.00  0.00     0.181 C 
BRANCH   6   7
ATOM      7  C   UNL A   1      47.469  19.463  38.631  1.00  0.00     0.105 C 
BRANCH   7   8
ATOM      8  S   UNL A   1      47.595  20.468  40.163  1.00  0.00    -0.145 SA
BRANCH   8   9
ATOM      9  C   UNL A   1      46.986  19.384  41.509  1.00  0.00     0.146 C 
ATOM     10  N   UNL A   1      45.673  17.448  41.257  1.00  0.00    -0.250 N 
ATOM     11  C   UNL A   1      46.986  17.040  41.272  1.00  0.00     0.235 C 
ATOM     12  C   UNL A   1      45.593  18.827  41.356  1.00  0.00     0.247 C 
ATOM     13  O   UNL A   1      47.476  15.970  40.940  1.00  0.00    -0.274 OA
ATOM     14  C   UNL A   1      47.863  18.174  41.694  1.00  0.00     0.125 C 
ATOM     15  O   UNL A   1      44.605  19.547  41.315  1.00  0.00    -0.273 OA
BRANCH  10  16
ATOM     16  C   UNL A   1      44.556  16.559  41.107  1.00  0.00     0.052 A 
ATOM     17  C   UNL A   1      42.374  14.722  40.783  1.00  0.00    -0.048 A 
ATOM     18  C   UNL A   1      42.818  15.101  42.048  1.00  0.00     0.006 A 
ATOM     19  C   UNL A   1      43.026  15.278  39.677  1.00  0.00     0.006 A 
ATOM     20  C   UNL A   1      43.891  15.997  42.206  1.00  0.00     0.027 A 
ATOM     21  C   UNL A   1      44.093  16.174  39.837  1.00  0.00     0.027 A 
BRANCH  17  22
ATOM     22  C   UNL A   1      41.251  13.741  40.536  1.00  0.00     0.032 C 
ATOM     23  C   UNL A   1      41.136  12.566  41.498  1.00  0.00     0.009 C 
ENDBRANCH  17  22
ENDBRANCH  10  16
ENDBRANCH   8   9
ENDBRANCH   7   8
ENDBRANCH   6   7
BRANCH   6  24
ATOM     24  N   UNL A   1      48.745  19.692  36.484  1.00  0.00    -0.344 N 
ATOM     25  C   UNL A   1      49.479  20.462  35.606  1.00  0.00     0.217 C 
ATOM     26  H   UNL A   1      48.937  18.729  36.548  1.00  0.00     0.164 HD
ATOM     27  C   UNL A   1      50.576  19.697  34.916  1.00  0.00     0.114 C 
ATOM     28  O   UNL A   1      49.241  21.636  35.355  1.00  0.00    -0.275 OA
ENDBRANCH   6  24
ENDBRANCH   3   6
ENDBRANCH   1   2
BRANCH   1  29
ATOM     29  C   UNL A   1      46.055  23.811  35.795  1.00  0.00     0.042 C 
BRANCH  29  30
ATOM     30  C   UNL A   1      47.288  24.699  35.799  1.00  0.00     0.118 C 
BRANCH  30  31
ATOM     31  N   UNL A   1      47.590  25.203  37.132  1.00  0.00    -0.352 N 
ATOM     32  C   UNL A   1      47.155  26.355  37.740  1.00  0.00     0.251 C 
ATOM     33  H   UNL A   1      48.188  24.639  37.674  1.00  0.00     0.163 HD
ATOM     34  O   UNL A   1      47.684  26.739  38.779  1.00  0.00    -0.269 OA
BRANCH  32  35
ATOM     35  C   UNL A   1      46.063  27.134  37.123  1.00  0.00     0.039 A 
ATOM     36  C   UNL A   1      46.380  28.193  36.269  1.00  0.00     0.014 A 
ATOM     37  C   UNL A   1      44.728  26.810  37.380  1.00  0.00     0.014 A 
ATOM     38  C   UNL A   1      45.355  28.885  35.623  1.00  0.00     0.010 A 
ATOM     39  C   UNL A   1      43.715  27.438  36.667  1.00  0.00     0.010 A 
ATOM     40  C   UNL A   1      44.018  28.489  35.789  1.00  0.00    -0.014 A 
BRANCH  40  41
ATOM     41  C   UNL A   1      42.913  29.168  35.068  1.00  0.00     0.031 A 
ATOM     42  C   UNL A   1      42.577  28.761  33.659  1.00  0.00     0.074 A 
ATOM     43  C   UNL A   1      42.269  30.197  35.654  1.00  0.00     0.049 A 
ATOM     44  N   UNL A   1      41.709  29.285  32.833  1.00  0.00    -0.248 NA
ATOM     45  C   UNL A   1      43.340  27.636  33.093  1.00  0.00     0.031 C 
ATOM     46  C   UNL A   1      42.549  30.718  36.994  1.00  0.00     0.029 A 
ATOM     47  N   UNL A   1      41.254  30.995  35.194  1.00  0.00    -0.354 N 
ATOM     48  C   UNL A   1      41.837  28.571  31.647  1.00  0.00     0.074 A 
ATOM     49  C   UNL A   1      42.902  27.613  31.842  1.00  0.00     0.031 C 
ATOM     50  C   UNL A   1      41.710  31.734  37.255  1.00  0.00     0.029 A 
ATOM     51  C   UNL A   1      40.859  31.959  36.091  1.00  0.00     0.049 A 
ATOM     52  H   UNL A   1      40.846  30.889  34.304  1.00  0.00     0.167 HD
ATOM     53  C   UNL A   1      41.113  28.685  30.509  1.00  0.00     0.037 A 
ATOM     54  C   UNL A   1      39.921  32.919  35.984  1.00  0.00     0.037 A 
ATOM     55  C   UNL A   1      40.031  29.617  30.337  1.00  0.00     0.049 A 
ATOM     56  C   UNL A   1      39.116  33.014  34.717  1.00  0.00     0.074 A 
ATOM     57  C   UNL A   1      39.191  29.770  29.249  1.00  0.00     0.029 A 
ATOM     58  N   UNL A   1      39.638  30.554  31.283  1.00  0.00    -0.354 N 
ATOM     59  N   UNL A   1      39.205  32.287  33.628  1.00  0.00    -0.248 NA
ATOM     60  C   UNL A   1      38.078  34.052  34.664  1.00  0.00     0.031 C 
ATOM     61  C   UNL A   1      38.312  30.825  29.522  1.00  0.00     0.029 A 
ATOM     62  C   UNL A   1      38.576  31.298  30.797  1.00  0.00     0.049 A 
ATOM     63  H   UNL A   1      40.051  30.671  32.168  1.00  0.00     0.167 HD
ATOM     64  C   UNL A   1      38.220  32.764  32.771  1.00  0.00     0.074 A 
ATOM     65  C   UNL A   1      37.539  33.833  33.472  1.00  0.00     0.031 C 
ATOM     66  C   UNL A   1      37.906  32.353  31.517  1.00  0.00     0.037 A 
BRANCH  53  67
ATOM     67  C   UNL A   1      41.464  27.771  29.367  1.00  0.00     0.058 A 
ATOM     68  C   UNL A   1      42.628  27.962  28.603  1.00  0.00     0.135 A 
ATOM     69  C   UNL A   1      40.642  26.680  29.044  1.00  0.00     0.135 A 
ATOM     70  F   UNL A   1      43.440  29.000  28.857  1.00  0.00    -0.206 F 
ATOM     71  C   UNL A   1      42.948  27.122  27.541  1.00  0.00     0.059 A 
ATOM     72  C   UNL A   1      40.958  25.810  28.004  1.00  0.00     0.059 A 
ATOM     73  F   UNL A   1      39.517  26.452  29.740  1.00  0.00    -0.206 F 
ATOM     74  C   UNL A   1      42.105  26.049  27.248  1.00  0.00     0.060 A 
BRANCH  74  75
ATOM     75  S   UNL A   1      42.535  24.968  25.869  1.00  0.00     0.124 S 
ATOM     76  O   UNL A   1      41.639  23.838  26.094  1.00  0.00    -0.237 OA
ATOM     77  O   UNL A   1      42.226  25.800  24.710  1.00  0.00    -0.237 OA
ATOM     78  O   UNL A   1      43.954  24.695  26.080  1.00  0.00    -0.744 OA
ENDBRANCH  74  75
ENDBRANCH  53  67
BRANCH  54  79
ATOM     79  C   UNL A   1      39.672  33.844  37.121  1.00  0.00     0.058 A 
ATOM     80  C   UNL A   1      38.827  33.474  38.177  1.00  0.00     0.135 A 
ATOM     81  C   UNL A   1      40.288  35.103  37.187  1.00  0.00     0.135 A 
ATOM     82  F   UNL A   1      38.211  32.282  38.157  1.00  0.00    -0.206 F 
ATOM     83  C   UNL A   1      38.587  34.324  39.252  1.00  0.00     0.059 A 
ATOM     84  C   UNL A   1      40.084  35.962  38.263  1.00  0.00     0.059 A 
ATOM     85  F   UNL A   1      41.122  35.496  36.212  1.00  0.00    -0.206 F 
ATOM     86  C   UNL A   1      39.223  35.567  39.288  1.00  0.00     0.060 A 
BRANCH  86  87
ATOM     87  S   UNL A   1      38.948  36.640  40.713  1.00  0.00     0.124 S 
ATOM     88  O   UNL A   1      40.309  36.834  41.201  1.00  0.00    -0.237 OA
ATOM     89  O   UNL A   1      38.317  37.806  40.102  1.00  0.00    -0.237 OA
ATOM     90  O   UNL A   1      38.076  35.842  41.570  1.00  0.00    -0.744 OA
ENDBRANCH  86  87
ENDBRANCH  54  79
BRANCH  66  91
ATOM     91  C   UNL A   1      36.757  33.039  30.835  1.00  0.00     0.058 A 
ATOM     92  C   UNL A   1      35.426  32.789  31.201  1.00  0.00     0.135 A 
ATOM     93  C   UNL A   1      36.996  34.000  29.838  1.00  0.00     0.135 A 
ATOM     94  F   UNL A   1      35.145  31.875  32.143  1.00  0.00    -0.206 F 
ATOM     95  C   UNL A   1      34.368  33.454  30.589  1.00  0.00     0.059 A 
ATOM     96  C   UNL A   1      35.956  34.694  29.232  1.00  0.00     0.059 A 
ATOM     97  F   UNL A   1      38.253  34.284  29.459  1.00  0.00    -0.206 F 
ATOM     98  C   UNL A   1      34.644  34.406  29.605  1.00  0.00     0.060 A 
BRANCH  98  99
ATOM     99  S   UNL A   1      33.265  35.286  28.842  1.00  0.00     0.124 S 
ATOM    100  O   UNL A   1      33.957  36.352  28.128  1.00  0.00    -0.237 OA
ATOM    101  O   UNL A   1      32.656  34.254  28.009  1.00  0.00    -0.237 OA
ATOM    102  O   UNL A   1      32.462  35.714  29.985  1.00  0.00    -0.744 OA
ENDBRANCH  98  99
ENDBRANCH  66  91
ENDBRANCH  40  41
ENDBRANCH  32  35
ENDBRANCH  30  31
ENDBRANCH  29  30
ENDBRANCH   1  29
TORSDOF 19
ENDMDL
MODEL 2
REMARK VINA RESULT:     -10.8      5.703     13.698
REMARK SMILES CCc1ccc(N2C(=O)C[C@@H](SC[C@@H](NC(C)=O)C(=O)NCCCNC(=O)c3ccc(-c4c5nc(c(-c6c(F)cc(S(=O)(=O)[O-])cc6F)c6ccc([nH]6)c(-c6c(F)cc(S(=O)(=O)[O-])cc6F)c6nc(c(-c7c(F)cc(S(=O)(=O)[O-])cc7F)c7ccc4[nH]7)C=C6)C=C5)cc3)C2=O)cc1
REMARK SMILES IDX 22 1 21 2 19 3 20 4 14 6 13 7 12 8 11 9 7 10 8 11 94 12 9 13
REMARK SMILES IDX 10 14 95 15 6 16 3 17 4 18 97 19 5 20 96 21 2 22 1 23 15 24
REMARK SMILES IDX 16 25 17 27 18 28 23 29 24 30 25 31 26 32 27 34 28 35 29 36
REMARK SMILES IDX 93 37 30 38 92 39 31 40 32 41 33 42 86 43 34 44 91 45 85 46
REMARK SMILES IDX 87 47 35 48 90 49 84 50 83 51 36 53 70 54 49 55 69 56 50 57
REMARK SMILES IDX 53 58 68 59 88 60 51 61 52 62 67 64 89 65 54 66 37 67 38 68
REMARK SMILES IDX 47 69 39 70 40 71 46 72 48 73 41 74 42 75 43 76 44 77 45 78
REMARK SMILES IDX 71 79 72 80 81 81 73 82 74 83 80 84 82 85 75 86 76 87 77 88
REMARK SMILES IDX 78 89 79 90 55 91 56 92 65 93 57 94 58 95 64 96 66 97 59 98
REMARK SMILES IDX 60 99 61 100 62 101 63 102
REMARK H PARENT 21 5 15 26 25 33 87 52 53 63
REMARK Flexibility Score: inf
ROOT
ATOM      1  C   UNL A   1      36.122  32.143  31.869  1.00  0.00     0.117 C 
ENDROOT
BRANCH   1   2
ATOM      2  N   UNL A   1      36.220  30.799  32.405  1.00  0.00    -0.354 N 
ATOM      3  C   UNL A   1      37.198  30.228  33.164  1.00  0.00     0.243 C 
ATOM      4  O   UNL A   1      37.143  29.006  33.338  1.00  0.00    -0.273 OA
ATOM      5  H   UNL A   1      35.464  30.208  32.187  1.00  0.00     0.163 HD
BRANCH   3   6
ATOM      6  C   UNL A   1      38.436  31.031  33.613  1.00  0.00     0.181 C 
BRANCH   6   7
ATOM      7  C   UNL A   1      39.588  30.006  33.734  1.00  0.00     0.105 C 
BRANCH   7   8
ATOM      8  S   UNL A   1      40.451  30.026  35.356  1.00  0.00    -0.145 SA
BRANCH   8   9
ATOM      9  C   UNL A   1      42.166  29.484  35.003  1.00  0.00     0.146 C 
ATOM     10  N   UNL A   1      42.851  27.311  34.420  1.00  0.00    -0.250 N 
ATOM     11  C   UNL A   1      42.626  27.986  33.243  1.00  0.00     0.235 C 
ATOM     12  C   UNL A   1      42.565  28.120  35.506  1.00  0.00     0.247 C 
ATOM     13  O   UNL A   1      42.498  27.555  32.106  1.00  0.00    -0.274 OA
ATOM     14  C   UNL A   1      42.447  29.443  33.524  1.00  0.00     0.125 C 
ATOM     15  O   UNL A   1      42.587  27.847  36.698  1.00  0.00    -0.273 OA
BRANCH  10  16
ATOM     16  C   UNL A   1      43.275  25.941  34.492  1.00  0.00     0.052 A 
ATOM     17  C   UNL A   1      44.171  23.222  34.696  1.00  0.00    -0.048 A 
ATOM     18  C   UNL A   1      42.901  23.599  35.131  1.00  0.00     0.006 A 
ATOM     19  C   UNL A   1      44.986  24.216  34.147  1.00  0.00     0.006 A 
ATOM     20  C   UNL A   1      42.466  24.933  35.037  1.00  0.00     0.027 A 
ATOM     21  C   UNL A   1      44.548  25.544  34.049  1.00  0.00     0.027 A 
BRANCH  17  22
ATOM     22  C   UNL A   1      44.719  21.817  34.796  1.00  0.00     0.032 C 
ATOM     23  C   UNL A   1      46.171  21.610  34.385  1.00  0.00     0.009 C 
ENDBRANCH  17  22
ENDBRANCH  10  16
ENDBRANCH   8   9
ENDBRANCH   7   8
ENDBRANCH   6   7
BRANCH   6  24
ATOM     24  N   UNL A   1      38.773  32.156  32.733  1.00  0.00    -0.344 N 
ATOM     25  C   UNL A   1      39.061  33.412  33.225  1.00  0.00     0.217 C 
ATOM     26  H   UNL A   1      38.793  32.010  31.760  1.00  0.00     0.164 HD
ATOM     27  C   UNL A   1      39.474  34.389  32.159  1.00  0.00     0.114 C 
ATOM     28  O   UNL A   1      38.943  33.734  34.400  1.00  0.00    -0.275 OA
ENDBRANCH   6  24
ENDBRANCH   3   6
ENDBRANCH   1   2
BRANCH   1  29
ATOM     29  C   UNL A   1      34.822  32.326  31.102  1.00  0.00     0.042 C 
BRANCH  29  30
ATOM     30  C   UNL A   1      35.029  32.473  29.603  1.00  0.00     0.118 C 
BRANCH  30  31
ATOM     31  N   UNL A   1      34.274  31.480  28.850  1.00  0.00    -0.352 N 
ATOM     32  C   UNL A   1      34.731  30.376  28.174  1.00  0.00     0.251 C 
ATOM     33  H   UNL A   1      33.300  31.620  28.823  1.00  0.00     0.163 HD
ATOM     34  O   UNL A   1      33.986  29.773  27.407  1.00  0.00    -0.269 OA
BRANCH  32  35
ATOM     35  C   UNL A   1      36.126  29.934  28.365  1.00  0.00     0.039 A 
ATOM     36  C   UNL A   1      37.071  30.216  27.374  1.00  0.00     0.014 A 
ATOM     37  C   UNL A   1      36.503  29.253  29.526  1.00  0.00     0.014 A 
ATOM     38  C   UNL A   1      38.407  29.869  27.581  1.00  0.00     0.010 A 
ATOM     39  C   UNL A   1      37.845  28.992  29.769  1.00  0.00     0.010 A 
ATOM     40  C   UNL A   1      38.809  29.287  28.794  1.00  0.00    -0.014 A 
BRANCH  40  41
ATOM     41  C   UNL A   1      40.232  28.963  29.064  1.00  0.00     0.031 A 
ATOM     42  C   UNL A   1      41.136  30.006  29.665  1.00  0.00     0.074 A 
ATOM     43  C   UNL A   1      40.722  27.762  28.700  1.00  0.00     0.049 A 
ATOM     44  N   UNL A   1      42.421  29.949  29.898  1.00  0.00    -0.248 NA
ATOM     45  C   UNL A   1      40.519  31.295  30.022  1.00  0.00     0.031 C 
ATOM     46  C   UNL A   1      39.953  26.695  28.055  1.00  0.00     0.029 A 
ATOM     47  N   UNL A   1      41.985  27.241  28.808  1.00  0.00    -0.354 N 
ATOM     48  C   UNL A   1      42.770  31.195  30.404  1.00  0.00     0.074 A 
ATOM     49  C   UNL A   1      41.573  32.006  30.396  1.00  0.00     0.031 C 
ATOM     50  C   UNL A   1      40.757  25.639  27.847  1.00  0.00     0.029 A 
ATOM     51  C   UNL A   1      42.102  25.966  28.308  1.00  0.00     0.049 A 
ATOM     52  H   UNL A   1      42.739  27.735  29.205  1.00  0.00     0.167 HD
ATOM     53  C   UNL A   1      43.972  31.616  30.862  1.00  0.00     0.037 A 
ATOM     54  C   UNL A   1      43.174  25.155  28.226  1.00  0.00     0.037 A 
ATOM     55  C   UNL A   1      45.149  30.790  30.901  1.00  0.00     0.049 A 
ATOM     56  C   UNL A   1      44.495  25.638  28.759  1.00  0.00     0.074 A 
ATOM     57  C   UNL A   1      46.400  31.097  31.404  1.00  0.00     0.029 A 
ATOM     58  N   UNL A   1      45.218  29.490  30.418  1.00  0.00    -0.354 N 
ATOM     59  N   UNL A   1      44.793  26.798  29.296  1.00  0.00    -0.248 NA
ATOM     60  C   UNL A   1      45.625  24.702  28.683  1.00  0.00     0.031 C 
ATOM     61  C   UNL A   1      47.237  29.995  31.193  1.00  0.00     0.029 A 
ATOM     62  C   UNL A   1      46.495  28.987  30.599  1.00  0.00     0.049 A 
ATOM     63  H   UNL A   1      44.470  28.999  30.009  1.00  0.00     0.167 HD
ATOM     64  C   UNL A   1      46.137  26.721  29.644  1.00  0.00     0.074 A 
ATOM     65  C   UNL A   1      46.591  25.399  29.267  1.00  0.00     0.031 C 
ATOM     66  C   UNL A   1      46.924  27.661  30.224  1.00  0.00     0.037 A 
BRANCH  53  67
ATOM     67  C   UNL A   1      44.069  33.030  31.367  1.00  0.00     0.058 A 
ATOM     68  C   UNL A   1      43.876  33.342  32.723  1.00  0.00     0.135 A 
ATOM     69  C   UNL A   1      44.379  34.083  30.492  1.00  0.00     0.135 A 
ATOM     70  F   UNL A   1      43.560  32.376  33.600  1.00  0.00    -0.206 F 
ATOM     71  C   UNL A   1      43.957  34.651  33.188  1.00  0.00     0.059 A 
ATOM     72  C   UNL A   1      44.493  35.396  30.940  1.00  0.00     0.059 A 
ATOM     73  F   UNL A   1      44.572  33.842  29.186  1.00  0.00    -0.206 F 
ATOM     74  C   UNL A   1      44.264  35.671  32.288  1.00  0.00     0.060 A 
BRANCH  74  75
ATOM     75  S   UNL A   1      44.367  37.364  32.907  1.00  0.00     0.124 S 
ATOM     76  O   UNL A   1      45.636  37.334  33.627  1.00  0.00    -0.237 OA
ATOM     77  O   UNL A   1      44.356  38.148  31.677  1.00  0.00    -0.237 OA
ATOM     78  O   UNL A   1      43.175  37.494  33.740  1.00  0.00    -0.744 OA
ENDBRANCH  74  75
ENDBRANCH  53  67
BRANCH  54  79
ATOM     79  C   UNL A   1      43.033  23.794  27.646  1.00  0.00     0.058 A 
ATOM     80  C   UNL A   1      42.640  22.709  28.443  1.00  0.00     0.135 A 
ATOM     81  C   UNL A   1      43.265  23.553  26.283  1.00  0.00     0.135 A 
ATOM     82  F   UNL A   1      42.410  22.889  29.753  1.00  0.00    -0.206 F 
ATOM     83  C   UNL A   1      42.496  21.430  27.916  1.00  0.00     0.059 A 
ATOM     84  C   UNL A   1      43.105  22.287  25.726  1.00  0.00     0.059 A 
ATOM     85  F   UNL A   1      43.624  24.561  25.473  1.00  0.00    -0.206 F 
ATOM     86  C   UNL A   1      42.730  21.229  26.554  1.00  0.00     0.060 A 
BRANCH  86  87
ATOM     87  S   UNL A   1      42.488  19.576  25.868  1.00  0.00     0.124 S 
ATOM     88  O   UNL A   1      43.469  19.560  24.789  1.00  0.00    -0.237 OA
ATOM     89  O   UNL A   1      42.786  18.723  27.014  1.00  0.00    -0.237 OA
ATOM     90  O   UNL A   1      41.089  19.587  25.453  1.00  0.00    -0.744 OA
ENDBRANCH  86  87
ENDBRANCH  54  79
BRANCH  66  91
ATOM     91  C   UNL A   1      48.348  27.283  30.516  1.00  0.00     0.058 A 
ATOM     92  C   UNL A   1      48.714  26.669  31.723  1.00  0.00     0.135 A 
ATOM     93  C   UNL A   1      49.348  27.488  29.552  1.00  0.00     0.135 A 
ATOM     94  F   UNL A   1      47.797  26.457  32.680  1.00  0.00    -0.206 F 
ATOM     95  C   UNL A   1      50.029  26.289  31.974  1.00  0.00     0.059 A 
ATOM     96  C   UNL A   1      50.663  27.093  29.771  1.00  0.00     0.059 A 
ATOM     97  F   UNL A   1      49.047  28.062  28.376  1.00  0.00    -0.206 F 
ATOM     98  C   UNL A   1      50.997  26.505  30.990  1.00  0.00     0.060 A 
BRANCH  98  99
ATOM     99  S   UNL A   1      52.692  25.977  31.313  1.00  0.00     0.124 S 
ATOM    100  O   UNL A   1      53.279  26.043  29.979  1.00  0.00    -0.237 OA
ATOM    101  O   UNL A   1      53.159  26.982  32.262  1.00  0.00    -0.237 OA
ATOM    102  O   UNL A   1      52.530  24.633  31.862  1.00  0.00    -0.744 OA
ENDBRANCH  98  99
ENDBRANCH  66  91
ENDBRANCH  40  41
ENDBRANCH  32  35
ENDBRANCH  30  31
ENDBRANCH  29  30
ENDBRANCH   1  29
TORSDOF 19
ENDMDL
MODEL 3
REMARK VINA RESULT:     -10.3      9.368     19.854
REMARK SMILES CCc1ccc(N2C(=O)C[C@@H](SC[C@@H](NC(C)=O)C(=O)NCCCNC(=O)c3ccc(-c4c5nc(c(-c6c(F)cc(S(=O)(=O)[O-])cc6F)c6ccc([nH]6)c(-c6c(F)cc(S(=O)(=O)[O-])cc6F)c6nc(c(-c7c(F)cc(S(=O)(=O)[O-])cc7F)c7ccc4[nH]7)C=C6)C=C5)cc3)C2=O)cc1
REMARK SMILES IDX 22 1 21 2 19 3 20 4 14 6 13 7 12 8 11 9 7 10 8 11 94 12 9 13
REMARK SMILES IDX 10 14 95 15 6 16 3 17 4 18 97 19 5 20 96 21 2 22 1 23 15 24
REMARK SMILES IDX 16 25 17 27 18 28 23 29 24 30 25 31 26 32 27 34 28 35 29 36
REMARK SMILES IDX 93 37 30 38 92 39 31 40 32 41 33 42 86 43 34 44 91 45 85 46
REMARK SMILES IDX 87 47 35 48 90 49 84 50 83 51 36 53 70 54 49 55 69 56 50 57
REMARK SMILES IDX 53 58 68 59 88 60 51 61 52 62 67 64 89 65 54 66 37 67 38 68
REMARK SMILES IDX 47 69 39 70 40 71 46 72 48 73 41 74 42 75 43 76 44 77 45 78
REMARK SMILES IDX 71 79 72 80 81 81 73 82 74 83 80 84 82 85 75 86 76 87 77 88
REMARK SMILES IDX 78 89 79 90 55 91 56 92 65 93 57 94 58 95 64 96 66 97 59 98
REMARK SMILES IDX 60 99 61 100 62 101 63 102
REMARK H PARENT 21 5 15 26 25 33 87 52 53 63
REMARK Flexibility Score: inf
ROOT
ATOM      1  C   UNL A   1      45.001  39.498  28.062  1.00  0.00     0.117 C 
ENDROOT
BRANCH   1   2
ATOM      2  N   UNL A   1      44.036  39.739  27.006  1.00  0.00    -0.354 N 
ATOM      3  C   UNL A   1      43.782  40.872  26.293  1.00  0.00     0.243 C 
ATOM      4  O   UNL A   1      42.777  40.881  25.575  1.00  0.00    -0.273 OA
ATOM      5  H   UNL A   1      43.478  38.964  26.768  1.00  0.00     0.163 HD
BRANCH   3   6
ATOM      6  C   UNL A   1      44.590  42.165  26.529  1.00  0.00     0.181 C 
BRANCH   6   7
ATOM      7  C   UNL A   1      44.262  43.096  25.338  1.00  0.00     0.105 C 
BRANCH   7   8
ATOM      8  S   UNL A   1      45.623  43.269  24.116  1.00  0.00    -0.145 SA
BRANCH   8   9
ATOM      9  C   UNL A   1      44.973  42.559  22.557  1.00  0.00     0.146 C 
ATOM     10  N   UNL A   1      44.514  43.736  20.572  1.00  0.00    -0.250 N 
ATOM     11  C   UNL A   1      45.802  43.263  20.467  1.00  0.00     0.235 C 
ATOM     12  C   UNL A   1      43.971  43.391  21.798  1.00  0.00     0.247 C 
ATOM     13  O   UNL A   1      46.689  43.578  19.687  1.00  0.00    -0.274 OA
ATOM     14  C   UNL A   1      46.072  42.286  21.565  1.00  0.00     0.125 C 
ATOM     15  O   UNL A   1      42.880  43.686  22.269  1.00  0.00    -0.273 OA
BRANCH  10  16
ATOM     16  C   UNL A   1      43.860  44.520  19.563  1.00  0.00     0.052 A 
ATOM     17  C   UNL A   1      42.616  46.073  17.495  1.00  0.00    -0.048 A 
ATOM     18  C   UNL A   1      42.118  44.823  17.859  1.00  0.00     0.006 A 
ATOM     19  C   UNL A   1      43.738  46.546  18.182  1.00  0.00     0.006 A 
ATOM     20  C   UNL A   1      42.733  44.060  18.868  1.00  0.00     0.027 A 
ATOM     21  C   UNL A   1      44.346  45.785  19.191  1.00  0.00     0.027 A 
BRANCH  17  22
ATOM     22  C   UNL A   1      42.029  46.933  16.399  1.00  0.00     0.032 C 
ATOM     23  C   UNL A   1      42.328  48.425  16.456  1.00  0.00     0.009 C 
ENDBRANCH  17  22
ENDBRANCH  10  16
ENDBRANCH   8   9
ENDBRANCH   7   8
ENDBRANCH   6   7
BRANCH   6  24
ATOM     24  N   UNL A   1      44.338  42.801  27.827  1.00  0.00    -0.344 N 
ATOM     25  C   UNL A   1      45.272  43.610  28.441  1.00  0.00     0.217 C 
ATOM     26  H   UNL A   1      43.475  42.646  28.275  1.00  0.00     0.164 HD
ATOM     27  C   UNL A   1      44.772  44.237  29.715  1.00  0.00     0.114 C 
ATOM     28  O   UNL A   1      46.416  43.769  28.038  1.00  0.00    -0.275 OA
ENDBRANCH   6  24
ENDBRANCH   3   6
ENDBRANCH   1   2
BRANCH   1  29
ATOM     29  C   UNL A   1      44.410  38.606  29.142  1.00  0.00     0.042 C 
BRANCH  29  30
ATOM     30  C   UNL A   1      45.440  37.704  29.802  1.00  0.00     0.118 C 
BRANCH  30  31
ATOM     31  N   UNL A   1      46.790  37.989  29.336  1.00  0.00    -0.352 N 
ATOM     32  C   UNL A   1      47.771  37.114  28.939  1.00  0.00     0.251 C 
ATOM     33  H   UNL A   1      47.034  38.942  29.299  1.00  0.00     0.163 HD
ATOM     34  O   UNL A   1      48.924  37.509  28.791  1.00  0.00    -0.269 OA
BRANCH  32  35
ATOM     35  C   UNL A   1      47.429  35.696  28.710  1.00  0.00     0.039 A 
ATOM     36  C   UNL A   1      47.583  34.782  29.756  1.00  0.00     0.014 A 
ATOM     37  C   UNL A   1      46.946  35.273  27.469  1.00  0.00     0.014 A 
ATOM     38  C   UNL A   1      47.192  33.455  29.571  1.00  0.00     0.010 A 
ATOM     39  C   UNL A   1      46.472  33.977  27.317  1.00  0.00     0.010 A 
ATOM     40  C   UNL A   1      46.600  33.052  28.363  1.00  0.00    -0.014 A 
BRANCH  40  41
ATOM     41  C   UNL A   1      46.119  31.663  28.162  1.00  0.00     0.031 A 
ATOM     42  C   UNL A   1      44.721  31.287  28.573  1.00  0.00     0.074 A 
ATOM     43  C   UNL A   1      46.964  30.729  27.681  1.00  0.00     0.049 A 
ATOM     44  N   UNL A   1      44.143  30.114  28.559  1.00  0.00    -0.248 NA
ATOM     45  C   UNL A   1      43.871  32.368  29.101  1.00  0.00     0.031 C 
ATOM     46  C   UNL A   1      48.359  30.964  27.304  1.00  0.00     0.029 A 
ATOM     47  N   UNL A   1      46.776  29.393  27.438  1.00  0.00    -0.354 N 
ATOM     48  C   UNL A   1      42.875  30.310  29.094  1.00  0.00     0.074 A 
ATOM     49  C   UNL A   1      42.786  31.703  29.473  1.00  0.00     0.031 C 
ATOM     50  C   UNL A   1      48.893  29.816  26.856  1.00  0.00     0.029 A 
ATOM     51  C   UNL A   1      47.892  28.758  26.948  1.00  0.00     0.049 A 
ATOM     52  H   UNL A   1      45.922  28.931  27.601  1.00  0.00     0.167 HD
ATOM     53  C   UNL A   1      41.867  29.417  29.230  1.00  0.00     0.037 A 
ATOM     54  C   UNL A   1      48.087  27.468  26.616  1.00  0.00     0.037 A 
ATOM     55  C   UNL A   1      41.953  28.042  28.818  1.00  0.00     0.049 A 
ATOM     56  C   UNL A   1      46.947  26.498  26.759  1.00  0.00     0.074 A 
ATOM     57  C   UNL A   1      40.970  27.070  28.851  1.00  0.00     0.029 A 
ATOM     58  N   UNL A   1      43.091  27.445  28.292  1.00  0.00    -0.354 N 
ATOM     59  N   UNL A   1      45.732  26.714  27.205  1.00  0.00    -0.248 NA
ATOM     60  C   UNL A   1      47.198  25.110  26.346  1.00  0.00     0.031 C 
ATOM     61  C   UNL A   1      41.523  25.874  28.379  1.00  0.00     0.029 A 
ATOM     62  C   UNL A   1      42.838  26.113  28.010  1.00  0.00     0.049 A 
ATOM     63  H   UNL A   1      43.950  27.901  28.141  1.00  0.00     0.167 HD
ATOM     64  C   UNL A   1      45.067  25.498  27.104  1.00  0.00     0.074 A 
ATOM     65  C   UNL A   1      46.011  24.552  26.544  1.00  0.00     0.031 C 
ATOM     66  C   UNL A   1      43.790  25.191  27.443  1.00  0.00     0.037 A 
BRANCH  53  67
ATOM     67  C   UNL A   1      40.583  29.906  29.843  1.00  0.00     0.058 A 
ATOM     68  C   UNL A   1      40.487  30.200  31.213  1.00  0.00     0.135 A 
ATOM     69  C   UNL A   1      39.442  30.104  29.051  1.00  0.00     0.135 A 
ATOM     70  F   UNL A   1      41.543  30.011  32.021  1.00  0.00    -0.206 F 
ATOM     71  C   UNL A   1      39.297  30.643  31.781  1.00  0.00     0.059 A 
ATOM     72  C   UNL A   1      38.248  30.574  29.593  1.00  0.00     0.059 A 
ATOM     73  F   UNL A   1      39.477  29.838  27.736  1.00  0.00    -0.206 F 
ATOM     74  C   UNL A   1      38.182  30.826  30.963  1.00  0.00     0.060 A 
BRANCH  74  75
ATOM     75  S   UNL A   1      36.646  31.403  31.714  1.00  0.00     0.124 S 
ATOM     76  O   UNL A   1      36.911  31.174  33.131  1.00  0.00    -0.237 OA
ATOM     77  O   UNL A   1      36.600  32.801  31.297  1.00  0.00    -0.237 OA
ATOM     78  O   UNL A   1      35.631  30.541  31.118  1.00  0.00    -0.744 OA
ENDBRANCH  74  75
ENDBRANCH  53  67
BRANCH  54  79
ATOM     79  C   UNL A   1      49.406  27.028  26.087  1.00  0.00     0.058 A 
ATOM     80  C   UNL A   1      50.394  26.526  26.946  1.00  0.00     0.135 A 
ATOM     81  C   UNL A   1      49.697  27.082  24.715  1.00  0.00     0.135 A 
ATOM     82  F   UNL A   1      50.163  26.459  28.267  1.00  0.00    -0.206 F 
ATOM     83  C   UNL A   1      51.631  26.105  26.469  1.00  0.00     0.059 A 
ATOM     84  C   UNL A   1      50.918  26.644  24.210  1.00  0.00     0.059 A 
ATOM     85  F   UNL A   1      48.778  27.536  23.849  1.00  0.00    -0.206 F 
ATOM     86  C   UNL A   1      51.883  26.166  25.097  1.00  0.00     0.060 A 
BRANCH  86  87
ATOM     87  S   UNL A   1      53.471  25.567  24.481  1.00  0.00     0.124 S 
ATOM     88  O   UNL A   1      53.418  24.158  24.853  1.00  0.00    -0.237 OA
ATOM     89  O   UNL A   1      53.374  25.855  23.053  1.00  0.00    -0.237 OA
ATOM     90  O   UNL A   1      54.441  26.378  25.210  1.00  0.00    -0.744 OA
ENDBRANCH  86  87
ENDBRANCH  54  79
BRANCH  66  91
ATOM     91  C   UNL A   1      43.329  23.784  27.188  1.00  0.00     0.058 A 
ATOM     92  C   UNL A   1      43.248  22.837  28.220  1.00  0.00     0.135 A 
ATOM     93  C   UNL A   1      42.911  23.397  25.904  1.00  0.00     0.135 A 
ATOM     94  F   UNL A   1      43.642  23.155  29.463  1.00  0.00    -0.206 F 
ATOM     95  C   UNL A   1      42.787  21.545  27.983  1.00  0.00     0.059 A 
ATOM     96  C   UNL A   1      42.423  22.120  25.652  1.00  0.00     0.059 A 
ATOM     97  F   UNL A   1      42.959  24.270  24.885  1.00  0.00    -0.206 F 
ATOM     98  C   UNL A   1      42.376  21.197  26.695  1.00  0.00     0.060 A 
BRANCH  98  99
ATOM     99  S   UNL A   1      41.747  19.529  26.409  1.00  0.00     0.124 S 
ATOM    100  O   UNL A   1      42.145  18.852  27.638  1.00  0.00    -0.237 OA
ATOM    101  O   UNL A   1      40.315  19.758  26.244  1.00  0.00    -0.237 OA
ATOM    102  O   UNL A   1      42.451  19.104  25.201  1.00  0.00    -0.744 OA
ENDBRANCH  98  99
ENDBRANCH  66  91
ENDBRANCH  40  41
ENDBRANCH  32  35
ENDBRANCH  30  31
ENDBRANCH  29  30
ENDBRANCH   1  29
TORSDOF 19
ENDMDL
