MODEL 1
REMARK VINA RESULT:     -10.7      0.000      0.000
REMARK SMILES CCCc1noc(C)c1C(=O)NCCCNC(=O)c1ccc(-c2c3nc(c(-c4c(F)cc(S(=O)(=O)[O-])cc4F)c4ccc([nH]4)c(-c4c(F)cc(S(=O)(=O)[O-])cc4F)c4nc(c(-c5c(F)cc(S(=O)(=O)[O-])cc5F)c5ccc2[nH]5)C=C4)C=C3)cc1
REMARK SMILES IDX 14 1 13 2 12 3 10 4 11 5 9 7 4 8 5 9 6 10 7 11 8 12 3 13
REMARK SMILES IDX 2 14 1 15 15 16 16 17 17 18 18 20 19 21 20 22 84 23 21 24
REMARK SMILES IDX 83 25 22 26 23 27 24 28 77 29 25 30 82 31 76 32 78 33 26 34
REMARK SMILES IDX 81 35 75 36 74 37 27 39 61 40 40 41 60 42 41 43 44 44 59 45
REMARK SMILES IDX 79 46 42 47 43 48 58 50 80 51 45 52 28 53 29 54 38 55 30 56
REMARK SMILES IDX 31 57 37 58 39 59 32 60 33 61 34 62 35 63 36 64 62 65 63 66
REMARK SMILES IDX 72 67 64 68 65 69 71 70 73 71 66 72 67 73 68 74 69 75 70 76
REMARK SMILES IDX 46 77 47 78 56 79 48 80 49 81 55 82 57 83 50 84 51 85 52 86
REMARK SMILES IDX 53 87 54 88
REMARK H PARENT 12 6 16 19 78 38 44 49
REMARK Flexibility Score: inf
ROOT
ATOM      1  C   UNL A   1      44.896  24.106  27.374  1.00  0.00     0.042 C 
ENDROOT
BRANCH   1   2
ATOM      2  C   UNL A   1      45.548  22.873  26.763  1.00  0.00     0.118 C 
BRANCH   2   3
ATOM      3  N   UNL A   1      45.147  22.644  25.396  1.00  0.00    -0.352 N 
ATOM      4  C   UNL A   1      44.179  21.766  24.981  1.00  0.00     0.256 C 
ATOM      5  O   UNL A   1      43.278  22.243  24.282  1.00  0.00    -0.269 OA
ATOM      6  H   UNL A   1      45.609  23.165  24.701  1.00  0.00     0.163 HD
BRANCH   4   7
ATOM      7  C   UNL A   1      44.308  20.329  25.161  1.00  0.00     0.105 A 
ATOM      8  C   UNL A   1      43.245  19.479  25.652  1.00  0.00     0.097 A 
ATOM      9  N   UNL A   1      43.671  18.220  25.812  1.00  0.00    -0.084 NA
ATOM     10  O   UNL A   1      44.969  18.202  25.408  1.00  0.00    -0.361 OA
ATOM     11  C   UNL A   1      45.365  19.437  24.998  1.00  0.00     0.146 A 
ATOM     12  C   UNL A   1      46.789  19.409  24.599  1.00  0.00     0.092 C 
BRANCH   8  13
ATOM     13  C   UNL A   1      41.817  19.730  26.046  1.00  0.00     0.060 C 
BRANCH  13  14
ATOM     14  C   UNL A   1      41.489  20.666  27.205  1.00  0.00     0.003 C 
ATOM     15  C   UNL A   1      40.401  21.689  26.926  1.00  0.00     0.004 C 
ENDBRANCH  13  14
ENDBRANCH   8  13
ENDBRANCH   4   7
ENDBRANCH   2   3
ENDBRANCH   1   2
BRANCH   1  16
ATOM     16  C   UNL A   1      43.394  23.937  27.604  1.00  0.00     0.118 C 
BRANCH  16  17
ATOM     17  N   UNL A   1      42.610  24.379  26.452  1.00  0.00    -0.352 N 
ATOM     18  C   UNL A   1      41.594  25.294  26.356  1.00  0.00     0.251 C 
ATOM     19  H   UNL A   1      42.853  23.947  25.601  1.00  0.00     0.163 HD
ATOM     20  O   UNL A   1      40.890  25.305  25.348  1.00  0.00    -0.269 OA
BRANCH  18  21
ATOM     21  C   UNL A   1      41.349  26.261  27.443  1.00  0.00     0.039 A 
ATOM     22  C   UNL A   1      40.353  25.993  28.385  1.00  0.00     0.014 A 
ATOM     23  C   UNL A   1      42.073  27.455  27.506  1.00  0.00     0.014 A 
ATOM     24  C   UNL A   1      40.126  26.897  29.424  1.00  0.00     0.010 A 
ATOM     25  C   UNL A   1      41.909  28.305  28.591  1.00  0.00     0.010 A 
ATOM     26  C   UNL A   1      40.927  28.042  29.556  1.00  0.00    -0.014 A 
BRANCH  26  27
ATOM     27  C   UNL A   1      40.752  28.986  30.687  1.00  0.00     0.031 A 
ATOM     28  C   UNL A   1      41.605  28.849  31.919  1.00  0.00     0.074 A 
ATOM     29  C   UNL A   1      39.777  29.913  30.628  1.00  0.00     0.049 A 
ATOM     30  N   UNL A   1      41.548  29.520  33.040  1.00  0.00    -0.248 NA
ATOM     31  C   UNL A   1      42.636  27.799  31.902  1.00  0.00     0.031 C 
ATOM     32  C   UNL A   1      38.855  30.104  29.506  1.00  0.00     0.029 A 
ATOM     33  N   UNL A   1      39.390  30.865  31.537  1.00  0.00    -0.354 N 
ATOM     34  C   UNL A   1      42.522  28.964  33.862  1.00  0.00     0.074 A 
ATOM     35  C   UNL A   1      43.109  27.860  33.138  1.00  0.00     0.031 C 
ATOM     36  C   UNL A   1      38.032  31.127  29.779  1.00  0.00     0.029 A 
ATOM     37  C   UNL A   1      38.335  31.638  31.112  1.00  0.00     0.049 A 
ATOM     38  H   UNL A   1      39.827  30.984  32.411  1.00  0.00     0.167 HD
ATOM     39  C   UNL A   1      42.910  29.358  35.099  1.00  0.00     0.037 A 
ATOM     40  C   UNL A   1      37.683  32.640  31.731  1.00  0.00     0.037 A 
ATOM     41  C   UNL A   1      42.332  30.475  35.801  1.00  0.00     0.049 A 
ATOM     42  C   UNL A   1      38.127  33.054  33.108  1.00  0.00     0.074 A 
ATOM     43  C   UNL A   1      42.685  30.993  37.034  1.00  0.00     0.029 A 
ATOM     44  N   UNL A   1      41.277  31.244  35.330  1.00  0.00    -0.354 N 
ATOM     45  N   UNL A   1      39.092  32.559  33.846  1.00  0.00    -0.248 NA
ATOM     46  C   UNL A   1      37.398  34.165  33.733  1.00  0.00     0.031 C 
ATOM     47  C   UNL A   1      41.813  32.045  37.331  1.00  0.00     0.029 A 
ATOM     48  C   UNL A   1      40.952  32.219  36.259  1.00  0.00     0.049 A 
ATOM     49  H   UNL A   1      40.827  31.116  34.465  1.00  0.00     0.167 HD
ATOM     50  C   UNL A   1      39.106  33.319  35.011  1.00  0.00     0.074 A 
ATOM     51  C   UNL A   1      38.062  34.313  34.872  1.00  0.00     0.031 C 
ATOM     52  C   UNL A   1      39.913  33.207  36.096  1.00  0.00     0.037 A 
BRANCH  39  53
ATOM     53  C   UNL A   1      44.013  28.579  35.764  1.00  0.00     0.058 A 
ATOM     54  C   UNL A   1      45.367  28.904  35.573  1.00  0.00     0.135 A 
ATOM     55  C   UNL A   1      43.717  27.507  36.621  1.00  0.00     0.135 A 
ATOM     56  F   UNL A   1      45.711  29.910  34.752  1.00  0.00    -0.206 F 
ATOM     57  C   UNL A   1      46.385  28.174  36.175  1.00  0.00     0.059 A 
ATOM     58  C   UNL A   1      44.718  26.782  37.261  1.00  0.00     0.059 A 
ATOM     59  F   UNL A   1      42.442  27.150  36.842  1.00  0.00    -0.206 F 
ATOM     60  C   UNL A   1      46.050  27.112  37.018  1.00  0.00     0.060 A 
BRANCH  60  61
ATOM     61  S   UNL A   1      47.385  26.172  37.788  1.00  0.00     0.124 S 
ATOM     62  O   UNL A   1      48.492  27.120  37.705  1.00  0.00    -0.237 OA
ATOM     63  O   UNL A   1      46.860  25.928  39.128  1.00  0.00    -0.237 OA
ATOM     64  O   UNL A   1      47.504  24.992  36.939  1.00  0.00    -0.744 OA
ENDBRANCH  60  61
ENDBRANCH  39  53
BRANCH  40  65
ATOM     65  C   UNL A   1      36.565  33.338  31.041  1.00  0.00     0.058 A 
ATOM     66  C   UNL A   1      35.237  33.157  31.457  1.00  0.00     0.135 A 
ATOM     67  C   UNL A   1      36.798  34.209  29.965  1.00  0.00     0.135 A 
ATOM     68  F   UNL A   1      34.962  32.332  32.480  1.00  0.00    -0.206 F 
ATOM     69  C   UNL A   1      34.179  33.797  30.821  1.00  0.00     0.059 A 
ATOM     70  C   UNL A   1      35.759  34.882  29.331  1.00  0.00     0.059 A 
ATOM     71  F   UNL A   1      38.051  34.433  29.540  1.00  0.00    -0.206 F 
ATOM     72  C   UNL A   1      34.451  34.661  29.759  1.00  0.00     0.060 A 
BRANCH  72  73
ATOM     73  S   UNL A   1      33.073  35.521  28.970  1.00  0.00     0.124 S 
ATOM     74  O   UNL A   1      33.757  36.629  28.312  1.00  0.00    -0.237 OA
ATOM     75  O   UNL A   1      32.533  34.491  28.090  1.00  0.00    -0.237 OA
ATOM     76  O   UNL A   1      32.217  35.887  30.095  1.00  0.00    -0.744 OA
ENDBRANCH  72  73
ENDBRANCH  40  65
BRANCH  52  77
ATOM     77  C   UNL A   1      39.725  34.207  37.203  1.00  0.00     0.058 A 
ATOM     78  C   UNL A   1      39.011  33.896  38.371  1.00  0.00     0.135 A 
ATOM     79  C   UNL A   1      40.313  35.480  37.113  1.00  0.00     0.135 A 
ATOM     80  F   UNL A   1      38.424  32.696  38.504  1.00  0.00    -0.206 F 
ATOM     81  C   UNL A   1      38.865  34.820  39.400  1.00  0.00     0.059 A 
ATOM     82  C   UNL A   1      40.206  36.408  38.144  1.00  0.00     0.059 A 
ATOM     83  F   UNL A   1      41.015  35.826  36.023  1.00  0.00    -0.206 F 
ATOM     84  C   UNL A   1      39.469  36.073  39.279  1.00  0.00     0.060 A 
BRANCH  84  85
ATOM     85  S   UNL A   1      39.301  37.248  40.637  1.00  0.00     0.124 S 
ATOM     86  O   UNL A   1      40.664  37.753  40.759  1.00  0.00    -0.237 OA
ATOM     87  O   UNL A   1      38.319  38.193  40.112  1.00  0.00    -0.237 OA
ATOM     88  O   UNL A   1      38.836  36.422  41.747  1.00  0.00    -0.744 OA
ENDBRANCH  84  85
ENDBRANCH  52  77
ENDBRANCH  26  27
ENDBRANCH  18  21
ENDBRANCH  16  17
ENDBRANCH   1  16
TORSDOF 15
ENDMDL
MODEL 2
REMARK VINA RESULT:     -10.7      6.325     14.447
REMARK SMILES CCCc1noc(C)c1C(=O)NCCCNC(=O)c1ccc(-c2c3nc(c(-c4c(F)cc(S(=O)(=O)[O-])cc4F)c4ccc([nH]4)c(-c4c(F)cc(S(=O)(=O)[O-])cc4F)c4nc(c(-c5c(F)cc(S(=O)(=O)[O-])cc5F)c5ccc2[nH]5)C=C4)C=C3)cc1
REMARK SMILES IDX 14 1 13 2 12 3 10 4 11 5 9 7 4 8 5 9 6 10 7 11 8 12 3 13
REMARK SMILES IDX 2 14 1 15 15 16 16 17 17 18 18 20 19 21 20 22 84 23 21 24
REMARK SMILES IDX 83 25 22 26 23 27 24 28 77 29 25 30 82 31 76 32 78 33 26 34
REMARK SMILES IDX 81 35 75 36 74 37 27 39 61 40 40 41 60 42 41 43 44 44 59 45
REMARK SMILES IDX 79 46 42 47 43 48 58 50 80 51 45 52 28 53 29 54 38 55 30 56
REMARK SMILES IDX 31 57 37 58 39 59 32 60 33 61 34 62 35 63 36 64 62 65 63 66
REMARK SMILES IDX 72 67 64 68 65 69 71 70 73 71 66 72 67 73 68 74 69 75 70 76
REMARK SMILES IDX 46 77 47 78 56 79 48 80 49 81 55 82 57 83 50 84 51 85 52 86
REMARK SMILES IDX 53 87 54 88
REMARK H PARENT 12 6 16 19 78 38 44 49
REMARK Flexibility Score: inf
ROOT
ATOM      1  C   UNL A   1      37.753  33.340  31.735  1.00  0.00     0.042 C 
ENDROOT
BRANCH   1   2
ATOM      2  C   UNL A   1      36.895  34.577  31.966  1.00  0.00     0.118 C 
BRANCH   2   3
ATOM      3  N   UNL A   1      35.548  34.259  32.371  1.00  0.00    -0.352 N 
ATOM      4  C   UNL A   1      34.553  33.795  31.549  1.00  0.00     0.256 C 
ATOM      5  O   UNL A   1      34.010  32.740  31.896  1.00  0.00    -0.269 OA
ATOM      6  H   UNL A   1      35.323  34.387  33.320  1.00  0.00     0.163 HD
BRANCH   4   7
ATOM      7  C   UNL A   1      34.014  34.591  30.458  1.00  0.00     0.105 A 
ATOM      8  C   UNL A   1      32.952  35.562  30.616  1.00  0.00     0.097 A 
ATOM      9  N   UNL A   1      32.588  36.072  29.434  1.00  0.00    -0.084 NA
ATOM     10  O   UNL A   1      33.397  35.499  28.505  1.00  0.00    -0.361 OA
ATOM     11  C   UNL A   1      34.266  34.631  29.090  1.00  0.00     0.146 A 
ATOM     12  C   UNL A   1      35.112  33.987  28.061  1.00  0.00     0.092 C 
BRANCH   8  13
ATOM     13  C   UNL A   1      32.175  36.062  31.800  1.00  0.00     0.060 C 
BRANCH  13  14
ATOM     14  C   UNL A   1      32.882  36.804  32.931  1.00  0.00     0.003 C 
ATOM     15  C   UNL A   1      34.029  37.703  32.500  1.00  0.00     0.004 C 
ENDBRANCH  13  14
ENDBRANCH   8  13
ENDBRANCH   4   7
ENDBRANCH   2   3
ENDBRANCH   1   2
BRANCH   1  16
ATOM     16  C   UNL A   1      37.557  32.269  32.809  1.00  0.00     0.118 C 
BRANCH  16  17
ATOM     17  N   UNL A   1      36.668  31.199  32.361  1.00  0.00    -0.352 N 
ATOM     18  C   UNL A   1      36.833  30.240  31.397  1.00  0.00     0.251 C 
ATOM     19  H   UNL A   1      35.803  31.163  32.830  1.00  0.00     0.163 HD
ATOM     20  O   UNL A   1      35.851  29.620  30.993  1.00  0.00    -0.269 OA
BRANCH  18  21
ATOM     21  C   UNL A   1      38.173  29.943  30.855  1.00  0.00     0.039 A 
ATOM     22  C   UNL A   1      39.153  29.422  31.704  1.00  0.00     0.014 A 
ATOM     23  C   UNL A   1      38.476  30.223  29.520  1.00  0.00     0.014 A 
ATOM     24  C   UNL A   1      40.419  29.126  31.195  1.00  0.00     0.010 A 
ATOM     25  C   UNL A   1      39.704  29.841  28.996  1.00  0.00     0.010 A 
ATOM     26  C   UNL A   1      40.692  29.299  29.829  1.00  0.00    -0.014 A 
BRANCH  26  27
ATOM     27  C   UNL A   1      42.007  28.931  29.248  1.00  0.00     0.031 A 
ATOM     28  C   UNL A   1      43.088  29.969  29.115  1.00  0.00     0.074 A 
ATOM     29  C   UNL A   1      42.194  27.683  28.777  1.00  0.00     0.049 A 
ATOM     30  N   UNL A   1      44.268  29.865  28.562  1.00  0.00    -0.248 NA
ATOM     31  C   UNL A   1      42.790  31.311  29.645  1.00  0.00     0.031 C 
ATOM     32  C   UNL A   1      41.199  26.608  28.805  1.00  0.00     0.029 A 
ATOM     33  N   UNL A   1      43.283  27.109  28.171  1.00  0.00    -0.354 N 
ATOM     34  C   UNL A   1      44.845  31.127  28.664  1.00  0.00     0.074 A 
ATOM     35  C   UNL A   1      43.862  31.995  29.271  1.00  0.00     0.031 C 
ATOM     36  C   UNL A   1      41.733  25.499  28.272  1.00  0.00     0.029 A 
ATOM     37  C   UNL A   1      43.090  25.792  27.823  1.00  0.00     0.049 A 
ATOM     38  H   UNL A   1      44.123  27.592  28.004  1.00  0.00     0.167 HD
ATOM     39  C   UNL A   1      46.092  31.517  28.308  1.00  0.00     0.037 A 
ATOM     40  C   UNL A   1      43.913  24.924  27.205  1.00  0.00     0.037 A 
ATOM     41  C   UNL A   1      47.070  30.636  27.725  1.00  0.00     0.049 A 
ATOM     42  C   UNL A   1      45.290  25.384  26.811  1.00  0.00     0.074 A 
ATOM     43  C   UNL A   1      48.379  30.913  27.377  1.00  0.00     0.029 A 
ATOM     44  N   UNL A   1      46.843  29.305  27.403  1.00  0.00    -0.354 N 
ATOM     45  N   UNL A   1      45.843  26.562  26.973  1.00  0.00    -0.248 NA
ATOM     46  C   UNL A   1      46.158  24.394  26.159  1.00  0.00     0.031 C 
ATOM     47  C   UNL A   1      48.929  29.765  26.799  1.00  0.00     0.029 A 
ATOM     48  C   UNL A   1      47.982  28.754  26.838  1.00  0.00     0.049 A 
ATOM     49  H   UNL A   1      45.998  28.824  27.553  1.00  0.00     0.167 HD
ATOM     50  C   UNL A   1      47.135  26.448  26.470  1.00  0.00     0.074 A 
ATOM     51  C   UNL A   1      47.282  25.082  26.011  1.00  0.00     0.031 C 
ATOM     52  C   UNL A   1      48.111  27.387  26.396  1.00  0.00     0.037 A 
BRANCH  39  53
ATOM     53  C   UNL A   1      46.467  32.955  28.547  1.00  0.00     0.058 A 
ATOM     54  C   UNL A   1      46.368  33.923  27.534  1.00  0.00     0.135 A 
ATOM     55  C   UNL A   1      46.912  33.379  29.810  1.00  0.00     0.135 A 
ATOM     56  F   UNL A   1      45.964  33.573  26.302  1.00  0.00    -0.206 F 
ATOM     57  C   UNL A   1      46.731  35.248  27.752  1.00  0.00     0.059 A 
ATOM     58  C   UNL A   1      47.249  34.706  30.062  1.00  0.00     0.059 A 
ATOM     59  F   UNL A   1      47.027  32.498  30.817  1.00  0.00    -0.206 F 
ATOM     60  C   UNL A   1      47.172  35.630  29.020  1.00  0.00     0.060 A 
BRANCH  60  61
ATOM     61  S   UNL A   1      47.642  37.352  29.285  1.00  0.00     0.124 S 
ATOM     62  O   UNL A   1      48.029  37.335  30.692  1.00  0.00    -0.237 OA
ATOM     63  O   UNL A   1      48.732  37.527  28.330  1.00  0.00    -0.237 OA
ATOM     64  O   UNL A   1      46.420  38.089  28.979  1.00  0.00    -0.744 OA
ENDBRANCH  60  61
ENDBRANCH  39  53
BRANCH  40  65
ATOM     65  C   UNL A   1      43.465  23.528  26.950  1.00  0.00     0.058 A 
ATOM     66  C   UNL A   1      43.134  23.105  25.654  1.00  0.00     0.135 A 
ATOM     67  C   UNL A   1      43.372  22.587  27.987  1.00  0.00     0.135 A 
ATOM     68  F   UNL A   1      43.203  23.967  24.628  1.00  0.00    -0.206 F 
ATOM     69  C   UNL A   1      42.709  21.805  25.396  1.00  0.00     0.059 A 
ATOM     70  C   UNL A   1      42.977  21.275  27.751  1.00  0.00     0.059 A 
ATOM     71  F   UNL A   1      43.696  22.936  29.242  1.00  0.00    -0.206 F 
ATOM     72  C   UNL A   1      42.636  20.896  26.453  1.00  0.00     0.060 A 
BRANCH  72  73
ATOM     73  S   UNL A   1      42.127  19.200  26.100  1.00  0.00     0.124 S 
ATOM     74  O   UNL A   1      43.017  18.849  25.000  1.00  0.00    -0.237 OA
ATOM     75  O   UNL A   1      42.387  18.532  27.371  1.00  0.00    -0.237 OA
ATOM     76  O   UNL A   1      40.716  19.339  25.752  1.00  0.00    -0.744 OA
ENDBRANCH  72  73
ENDBRANCH  40  65
BRANCH  52  77
ATOM     77  C   UNL A   1      49.439  26.960  25.834  1.00  0.00     0.058 A 
ATOM     78  C   UNL A   1      49.767  27.148  24.482  1.00  0.00     0.135 A 
ATOM     79  C   UNL A   1      50.416  26.402  26.675  1.00  0.00     0.135 A 
ATOM     80  F   UNL A   1      48.866  27.670  23.635  1.00  0.00    -0.206 F 
ATOM     81  C   UNL A   1      51.007  26.773  23.978  1.00  0.00     0.059 A 
ATOM     82  C   UNL A   1      51.674  26.050  26.198  1.00  0.00     0.059 A 
ATOM     83  F   UNL A   1      50.159  26.211  27.979  1.00  0.00    -0.206 F 
ATOM     84  C   UNL A   1      51.957  26.228  24.845  1.00  0.00     0.060 A 
BRANCH  84  85
ATOM     85  S   UNL A   1      53.574  25.780  24.184  1.00  0.00     0.124 S 
ATOM     86  O   UNL A   1      53.365  25.957  22.751  1.00  0.00    -0.237 OA
ATOM     87  O   UNL A   1      54.453  26.755  24.822  1.00  0.00    -0.237 OA
ATOM     88  O   UNL A   1      53.753  24.400  24.626  1.00  0.00    -0.744 OA
ENDBRANCH  84  85
ENDBRANCH  52  77
ENDBRANCH  26  27
ENDBRANCH  18  21
ENDBRANCH  16  17
ENDBRANCH   1  16
TORSDOF 15
ENDMDL
MODEL 3
REMARK VINA RESULT:     -10.4      0.968      8.772
REMARK SMILES CCCc1noc(C)c1C(=O)NCCCNC(=O)c1ccc(-c2c3nc(c(-c4c(F)cc(S(=O)(=O)[O-])cc4F)c4ccc([nH]4)c(-c4c(F)cc(S(=O)(=O)[O-])cc4F)c4nc(c(-c5c(F)cc(S(=O)(=O)[O-])cc5F)c5ccc2[nH]5)C=C4)C=C3)cc1
REMARK SMILES IDX 14 1 13 2 12 3 10 4 11 5 9 7 4 8 5 9 6 10 7 11 8 12 3 13
REMARK SMILES IDX 2 14 1 15 15 16 16 17 17 18 18 20 19 21 20 22 84 23 21 24
REMARK SMILES IDX 83 25 22 26 23 27 24 28 77 29 25 30 82 31 76 32 78 33 26 34
REMARK SMILES IDX 81 35 75 36 74 37 27 39 61 40 40 41 60 42 41 43 44 44 59 45
REMARK SMILES IDX 79 46 42 47 43 48 58 50 80 51 45 52 28 53 29 54 38 55 30 56
REMARK SMILES IDX 31 57 37 58 39 59 32 60 33 61 34 62 35 63 36 64 62 65 63 66
REMARK SMILES IDX 72 67 64 68 65 69 71 70 73 71 66 72 67 73 68 74 69 75 70 76
REMARK SMILES IDX 46 77 47 78 56 79 48 80 49 81 55 82 57 83 50 84 51 85 52 86
REMARK SMILES IDX 53 87 54 88
REMARK H PARENT 12 6 16 19 78 38 44 49
REMARK Flexibility Score: inf
ROOT
ATOM      1  C   UNL A   1      44.395  24.439  27.324  1.00  0.00     0.042 C 
ENDROOT
BRANCH   1   2
ATOM      2  C   UNL A   1      45.160  23.143  27.087  1.00  0.00     0.118 C 
BRANCH   2   3
ATOM      3  N   UNL A   1      44.871  22.547  25.805  1.00  0.00    -0.352 N 
ATOM      4  C   UNL A   1      43.638  22.125  25.378  1.00  0.00     0.256 C 
ATOM      5  O   UNL A   1      43.245  22.596  24.304  1.00  0.00    -0.269 OA
ATOM      6  H   UNL A   1      45.625  22.433  25.184  1.00  0.00     0.163 HD
BRANCH   4   7
ATOM      7  C   UNL A   1      42.926  21.033  26.022  1.00  0.00     0.105 A 
ATOM      8  C   UNL A   1      43.181  19.633  25.752  1.00  0.00     0.097 A 
ATOM      9  N   UNL A   1      42.315  18.852  26.408  1.00  0.00    -0.084 NA
ATOM     10  O   UNL A   1      41.520  19.685  27.131  1.00  0.00    -0.361 OA
ATOM     11  C   UNL A   1      41.876  20.984  26.934  1.00  0.00     0.146 A 
ATOM     12  C   UNL A   1      40.977  21.879  27.696  1.00  0.00     0.092 C 
BRANCH   8  13
ATOM     13  C   UNL A   1      44.165  18.910  24.877  1.00  0.00     0.060 C 
BRANCH  13  14
ATOM     14  C   UNL A   1      45.636  18.829  25.274  1.00  0.00     0.003 C 
ATOM     15  C   UNL A   1      46.541  19.867  24.631  1.00  0.00     0.004 C 
ENDBRANCH  13  14
ENDBRANCH   8  13
ENDBRANCH   4   7
ENDBRANCH   2   3
ENDBRANCH   1   2
BRANCH   1  16
ATOM     16  C   UNL A   1      44.598  25.465  26.208  1.00  0.00     0.118 C 
BRANCH  16  17
ATOM     17  N   UNL A   1      43.386  25.659  25.415  1.00  0.00    -0.352 N 
ATOM     18  C   UNL A   1      42.149  26.134  25.767  1.00  0.00     0.251 C 
ATOM     19  H   UNL A   1      43.472  25.406  24.467  1.00  0.00     0.163 HD
ATOM     20  O   UNL A   1      41.198  25.949  25.010  1.00  0.00    -0.269 OA
BRANCH  18  21
ATOM     21  C   UNL A   1      41.959  26.866  27.034  1.00  0.00     0.039 A 
ATOM     22  C   UNL A   1      42.550  28.122  27.192  1.00  0.00     0.014 A 
ATOM     23  C   UNL A   1      41.236  26.292  28.083  1.00  0.00     0.014 A 
ATOM     24  C   UNL A   1      42.363  28.826  28.382  1.00  0.00     0.010 A 
ATOM     25  C   UNL A   1      40.974  27.033  29.227  1.00  0.00     0.010 A 
ATOM     26  C   UNL A   1      41.543  28.303  29.395  1.00  0.00    -0.014 A 
BRANCH  26  27
ATOM     27  C   UNL A   1      41.273  29.058  30.643  1.00  0.00     0.031 A 
ATOM     28  C   UNL A   1      40.127  30.032  30.700  1.00  0.00     0.074 A 
ATOM     29  C   UNL A   1      42.105  28.918  31.692  1.00  0.00     0.049 A 
ATOM     30  N   UNL A   1      39.780  30.842  31.665  1.00  0.00    -0.248 NA
ATOM     31  C   UNL A   1      39.278  30.131  29.501  1.00  0.00     0.031 C 
ATOM     32  C   UNL A   1      43.279  28.043  31.733  1.00  0.00     0.029 A 
ATOM     33  N   UNL A   1      42.099  29.517  32.927  1.00  0.00    -0.354 N 
ATOM     34  C   UNL A   1      38.686  31.555  31.185  1.00  0.00     0.074 A 
ATOM     35  C   UNL A   1      38.468  31.129  29.822  1.00  0.00     0.031 C 
ATOM     36  C   UNL A   1      43.860  28.138  32.938  1.00  0.00     0.029 A 
ATOM     37  C   UNL A   1      43.129  29.113  33.742  1.00  0.00     0.049 A 
ATOM     38  H   UNL A   1      41.420  30.174  33.203  1.00  0.00     0.167 HD
ATOM     39  C   UNL A   1      37.917  32.461  31.834  1.00  0.00     0.037 A 
ATOM     40  C   UNL A   1      43.452  29.492  34.993  1.00  0.00     0.037 A 
ATOM     41  C   UNL A   1      38.131  32.860  33.201  1.00  0.00     0.049 A 
ATOM     42  C   UNL A   1      42.588  30.507  35.690  1.00  0.00     0.074 A 
ATOM     43  C   UNL A   1      37.381  33.729  33.972  1.00  0.00     0.029 A 
ATOM     44  N   UNL A   1      39.176  32.415  34.000  1.00  0.00    -0.354 N 
ATOM     45  N   UNL A   1      41.519  31.124  35.245  1.00  0.00    -0.248 NA
ATOM     46  C   UNL A   1      42.968  30.872  37.061  1.00  0.00     0.031 C 
ATOM     47  C   UNL A   1      37.999  33.848  35.221  1.00  0.00     0.029 A 
ATOM     48  C   UNL A   1      39.103  33.010  35.249  1.00  0.00     0.049 A 
ATOM     49  H   UNL A   1      39.867  31.773  33.720  1.00  0.00     0.167 HD
ATOM     50  C   UNL A   1      41.081  31.928  36.292  1.00  0.00     0.074 A 
ATOM     51  C   UNL A   1      41.994  31.708  37.395  1.00  0.00     0.031 C 
ATOM     52  C   UNL A   1      40.018  32.770  36.338  1.00  0.00     0.037 A 
BRANCH  39  53
ATOM     53  C   UNL A   1      36.772  33.075  31.074  1.00  0.00     0.058 A 
ATOM     54  C   UNL A   1      36.983  34.018  30.054  1.00  0.00     0.135 A 
ATOM     55  C   UNL A   1      35.446  32.704  31.352  1.00  0.00     0.135 A 
ATOM     56  F   UNL A   1      38.228  34.423  29.754  1.00  0.00    -0.206 F 
ATOM     57  C   UNL A   1      35.923  34.596  29.364  1.00  0.00     0.059 A 
ATOM     58  C   UNL A   1      34.371  33.245  30.653  1.00  0.00     0.059 A 
ATOM     59  F   UNL A   1      35.184  31.808  32.317  1.00  0.00    -0.206 F 
ATOM     60  C   UNL A   1      34.619  34.204  29.672  1.00  0.00     0.060 A 
BRANCH  60  61
ATOM     61  S   UNL A   1      33.255  34.968  28.769  1.00  0.00     0.124 S 
ATOM     62  O   UNL A   1      32.361  35.345  29.860  1.00  0.00    -0.237 OA
ATOM     63  O   UNL A   1      33.917  36.073  28.083  1.00  0.00    -0.237 OA
ATOM     64  O   UNL A   1      32.775  33.894  27.906  1.00  0.00    -0.744 OA
ENDBRANCH  60  61
ENDBRANCH  39  53
BRANCH  40  65
ATOM     65  C   UNL A   1      44.628  28.885  35.674  1.00  0.00     0.058 A 
ATOM     66  C   UNL A   1      44.506  27.681  36.383  1.00  0.00     0.135 A 
ATOM     67  C   UNL A   1      45.896  29.485  35.621  1.00  0.00     0.135 A 
ATOM     68  F   UNL A   1      43.314  27.070  36.467  1.00  0.00    -0.206 F 
ATOM     69  C   UNL A   1      45.593  27.101  37.030  1.00  0.00     0.059 A 
ATOM     70  C   UNL A   1      47.003  28.911  36.236  1.00  0.00     0.059 A 
ATOM     71  F   UNL A   1      46.071  30.628  34.939  1.00  0.00    -0.206 F 
ATOM     72  C   UNL A   1      46.839  27.724  36.948  1.00  0.00     0.060 A 
BRANCH  72  73
ATOM     73  S   UNL A   1      48.252  26.939  37.754  1.00  0.00     0.124 S 
ATOM     74  O   UNL A   1      48.083  27.379  39.134  1.00  0.00    -0.237 OA
ATOM     75  O   UNL A   1      48.002  25.524  37.499  1.00  0.00    -0.237 OA
ATOM     76  O   UNL A   1      49.398  27.504  37.047  1.00  0.00    -0.744 OA
ENDBRANCH  72  73
ENDBRANCH  40  65
BRANCH  52  77
ATOM     77  C   UNL A   1      39.760  33.487  37.634  1.00  0.00     0.058 A 
ATOM     78  C   UNL A   1      40.433  34.671  37.973  1.00  0.00     0.135 A 
ATOM     79  C   UNL A   1      38.787  33.007  38.527  1.00  0.00     0.135 A 
ATOM     80  F   UNL A   1      41.378  35.168  37.159  1.00  0.00    -0.206 F 
ATOM     81  C   UNL A   1      40.169  35.340  39.163  1.00  0.00     0.059 A 
ATOM     82  C   UNL A   1      38.485  33.678  39.706  1.00  0.00     0.059 A 
ATOM     83  F   UNL A   1      38.106  31.884  38.246  1.00  0.00    -0.206 F 
ATOM     84  C   UNL A   1      39.190  34.838  40.022  1.00  0.00     0.060 A 
BRANCH  84  85
ATOM     85  S   UNL A   1      38.833  35.737  41.545  1.00  0.00     0.124 S 
ATOM     86  O   UNL A   1      39.915  35.285  42.413  1.00  0.00    -0.237 OA
ATOM     87  O   UNL A   1      38.907  37.129  41.111  1.00  0.00    -0.237 OA
ATOM     88  O   UNL A   1      37.499  35.271  41.911  1.00  0.00    -0.744 OA
ENDBRANCH  84  85
ENDBRANCH  52  77
ENDBRANCH  26  27
ENDBRANCH  18  21
ENDBRANCH  16  17
ENDBRANCH   1  16
TORSDOF 15
ENDMDL
