MODEL 1
REMARK VINA RESULT:     -11.4      0.000      0.000
REMARK SMILES CCc1nc(=O)n([C@H]2CCCOC2)c(CC)c1CC(=O)NCCCNC(=O)c1ccc(-c2c3nc(c(-c4c(F)cc(S(=O)(=O)[O-])cc4F)c4ccc([nH]4)c(-c4c(F)cc(S(=O)(=O)[O-])cc4F)c4nc(c(-c5c(F)cc(S(=O)(=O)[O-])cc5F)c5ccc2[nH]5)C=C4)C=C3)cc1
REMARK SMILES IDX 23 1 22 2 21 3 19 4 20 5 18 7 17 8 3 9 4 10 5 11 14 12 6 13
REMARK SMILES IDX 7 14 2 15 1 16 15 17 16 18 8 19 9 20 13 21 10 22 12 23 11 24
REMARK SMILES IDX 24 25 25 26 26 27 27 29 28 30 29 31 93 32 30 33 92 34 31 35
REMARK SMILES IDX 32 36 33 37 86 38 34 39 91 40 85 41 87 42 35 43 90 44 84 45
REMARK SMILES IDX 83 46 36 48 70 49 49 50 69 51 50 52 53 53 68 54 88 55 51 56
REMARK SMILES IDX 52 57 67 59 89 60 54 61 37 62 38 63 47 64 39 65 40 66 46 67
REMARK SMILES IDX 48 68 41 69 42 70 43 71 44 72 45 73 71 74 72 75 81 76 73 77
REMARK SMILES IDX 74 78 80 79 82 80 75 81 76 82 77 83 78 84 79 85 55 86 56 87
REMARK SMILES IDX 65 88 57 89 58 90 64 91 66 92 59 93 60 94 61 95 62 96 63 97
REMARK H PARENT 21 6 25 28 87 47 53 58
REMARK Flexibility Score: inf
ROOT
ATOM      1  C   UNL A   1      37.923  22.648  26.048  1.00  0.00     0.042 C 
ENDROOT
BRANCH   1   2
ATOM      2  C   UNL A   1      36.459  22.858  25.688  1.00  0.00     0.117 C 
BRANCH   2   3
ATOM      3  N   UNL A   1      35.570  22.680  26.817  1.00  0.00    -0.356 N 
ATOM      4  C   UNL A   1      34.214  22.579  26.861  1.00  0.00     0.224 C 
ATOM      5  O   UNL A   1      33.691  22.354  27.955  1.00  0.00    -0.275 OA
ATOM      6  H   UNL A   1      36.018  22.621  27.693  1.00  0.00     0.163 HD
BRANCH   4   7
ATOM      7  C   UNL A   1      33.366  22.686  25.596  1.00  0.00     0.139 C 
BRANCH   7   8
ATOM      8  C   UNL A   1      32.477  23.906  25.498  1.00  0.00     0.003 A 
ATOM      9  C   UNL A   1      31.020  23.756  25.803  1.00  0.00     0.051 A 
ATOM     10  N   UNL A   1      30.150  24.666  25.546  1.00  0.00    -0.198 NA
ATOM     11  C   UNL A   1      30.544  25.863  25.035  1.00  0.00     0.348 A 
ATOM     12  C   UNL A   1      32.873  25.167  25.175  1.00  0.00     0.028 A 
ATOM     13  O   UNL A   1      29.702  26.643  24.594  1.00  0.00    -0.246 OA
ATOM     14  N   UNL A   1      31.920  26.207  25.094  1.00  0.00    -0.291 N 
BRANCH   9  15
ATOM     15  C   UNL A   1      30.496  22.492  26.498  1.00  0.00     0.053 C 
ATOM     16  C   UNL A   1      29.330  22.741  27.448  1.00  0.00     0.011 C 
ENDBRANCH   9  15
BRANCH  12  17
ATOM     17  C   UNL A   1      34.318  25.408  24.779  1.00  0.00     0.051 C 
ATOM     18  C   UNL A   1      34.593  25.005  23.330  1.00  0.00     0.010 C 
ENDBRANCH  12  17
BRANCH  14  19
ATOM     19  C   UNL A   1      32.135  27.688  24.995  1.00  0.00     0.118 C 
ATOM     20  C   UNL A   1      31.405  28.422  26.160  1.00  0.00     0.030 C 
ATOM     21  C   UNL A   1      33.529  28.350  24.931  1.00  0.00     0.185 C 
ATOM     22  C   UNL A   1      32.206  28.343  27.454  1.00  0.00     0.031 C 
ATOM     23  O   UNL A   1      34.259  28.274  26.161  1.00  0.00    -0.379 OA
ATOM     24  C   UNL A   1      33.598  28.915  27.246  1.00  0.00     0.160 C 
ENDBRANCH  14  19
ENDBRANCH   7   8
ENDBRANCH   4   7
ENDBRANCH   2   3
ENDBRANCH   1   2
BRANCH   1  25
ATOM     25  C   UNL A   1      38.651  23.926  26.449  1.00  0.00     0.118 C 
BRANCH  25  26
ATOM     26  N   UNL A   1      40.085  23.878  26.185  1.00  0.00    -0.352 N 
ATOM     27  C   UNL A   1      41.095  24.723  26.583  1.00  0.00     0.251 C 
ATOM     28  H   UNL A   1      40.377  23.117  25.632  1.00  0.00     0.163 HD
ATOM     29  O   UNL A   1      42.217  24.587  26.106  1.00  0.00    -0.269 OA
BRANCH  27  30
ATOM     30  C   UNL A   1      40.824  25.803  27.556  1.00  0.00     0.039 A 
ATOM     31  C   UNL A   1      41.555  26.991  27.522  1.00  0.00     0.014 A 
ATOM     32  C   UNL A   1      39.831  25.623  28.524  1.00  0.00     0.014 A 
ATOM     33  C   UNL A   1      41.435  27.903  28.563  1.00  0.00     0.010 A 
ATOM     34  C   UNL A   1      39.642  26.592  29.515  1.00  0.00     0.010 A 
ATOM     35  C   UNL A   1      40.483  27.715  29.577  1.00  0.00    -0.014 A 
BRANCH  35  36
ATOM     36  C   UNL A   1      40.399  28.700  30.688  1.00  0.00     0.031 A 
ATOM     37  C   UNL A   1      39.352  29.785  30.678  1.00  0.00     0.074 A 
ATOM     38  C   UNL A   1      41.234  28.576  31.740  1.00  0.00     0.049 A 
ATOM     39  N   UNL A   1      39.129  30.719  31.568  1.00  0.00    -0.248 NA
ATOM     40  C   UNL A   1      38.442  29.837  29.522  1.00  0.00     0.031 C 
ATOM     41  C   UNL A   1      42.291  27.569  31.863  1.00  0.00     0.029 A 
ATOM     42  N   UNL A   1      41.317  29.284  32.913  1.00  0.00    -0.354 N 
ATOM     43  C   UNL A   1      38.076  31.478  31.072  1.00  0.00     0.074 A 
ATOM     44  C   UNL A   1      37.716  30.915  29.790  1.00  0.00     0.031 C 
ATOM     45  C   UNL A   1      42.882  27.692  33.059  1.00  0.00     0.029 A 
ATOM     46  C   UNL A   1      42.297  28.827  33.764  1.00  0.00     0.049 A 
ATOM     47  H   UNL A   1      40.730  30.044  33.126  1.00  0.00     0.167 HD
ATOM     48  C   UNL A   1      37.458  32.541  31.641  1.00  0.00     0.037 A 
ATOM     49  C   UNL A   1      42.699  29.283  34.966  1.00  0.00     0.037 A 
ATOM     50  C   UNL A   1      37.788  33.066  32.942  1.00  0.00     0.049 A 
ATOM     51  C   UNL A   1      42.003  30.472  35.567  1.00  0.00     0.074 A 
ATOM     52  C   UNL A   1      37.180  34.106  33.625  1.00  0.00     0.029 A 
ATOM     53  N   UNL A   1      38.805  32.593  33.756  1.00  0.00    -0.354 N 
ATOM     54  N   UNL A   1      40.992  31.159  35.091  1.00  0.00    -0.248 NA
ATOM     55  C   UNL A   1      42.502  30.954  36.863  1.00  0.00     0.031 C 
ATOM     56  C   UNL A   1      37.860  34.294  34.830  1.00  0.00     0.029 A 
ATOM     57  C   UNL A   1      38.860  33.339  34.923  1.00  0.00     0.049 A 
ATOM     58  H   UNL A   1      39.401  31.841  33.539  1.00  0.00     0.167 HD
ATOM     59  C   UNL A   1      40.730  32.148  36.032  1.00  0.00     0.074 A 
ATOM     60  C   UNL A   1      41.671  31.955  37.115  1.00  0.00     0.031 C 
ATOM     61  C   UNL A   1      39.799  33.132  35.996  1.00  0.00     0.037 A 
BRANCH  48  62
ATOM     62  C   UNL A   1      36.354  33.223  30.881  1.00  0.00     0.058 A 
ATOM     63  C   UNL A   1      35.011  33.111  31.271  1.00  0.00     0.135 A 
ATOM     64  C   UNL A   1      36.658  34.096  29.824  1.00  0.00     0.135 A 
ATOM     65  F   UNL A   1      34.663  32.280  32.266  1.00  0.00    -0.206 F 
ATOM     66  C   UNL A   1      34.008  33.845  30.643  1.00  0.00     0.059 A 
ATOM     67  C   UNL A   1      35.676  34.858  29.198  1.00  0.00     0.059 A 
ATOM     68  F   UNL A   1      37.928  34.239  29.410  1.00  0.00    -0.206 F 
ATOM     69  C   UNL A   1      34.353  34.726  29.616  1.00  0.00     0.060 A 
BRANCH  69  70
ATOM     70  S   UNL A   1      33.050  35.725  28.862  1.00  0.00     0.124 S 
ATOM     71  O   UNL A   1      33.828  36.715  28.125  1.00  0.00    -0.237 OA
ATOM     72  O   UNL A   1      32.339  34.744  28.049  1.00  0.00    -0.237 OA
ATOM     73  O   UNL A   1      32.308  36.241  30.008  1.00  0.00    -0.744 OA
ENDBRANCH  69  70
ENDBRANCH  48  62
BRANCH  49  74
ATOM     74  C   UNL A   1      43.837  28.627  35.663  1.00  0.00     0.058 A 
ATOM     75  C   UNL A   1      45.164  28.997  35.401  1.00  0.00     0.135 A 
ATOM     76  C   UNL A   1      43.615  27.620  36.617  1.00  0.00     0.135 A 
ATOM     77  F   UNL A   1      45.428  29.949  34.494  1.00  0.00    -0.206 F 
ATOM     78  C   UNL A   1      46.231  28.382  36.047  1.00  0.00     0.059 A 
ATOM     79  C   UNL A   1      44.664  27.013  37.299  1.00  0.00     0.059 A 
ATOM     80  F   UNL A   1      42.363  27.240  36.917  1.00  0.00    -0.206 F 
ATOM     81  C   UNL A   1      45.971  27.392  36.997  1.00  0.00     0.060 A 
BRANCH  81  82
ATOM     82  S   UNL A   1      47.361  26.628  37.857  1.00  0.00     0.124 S 
ATOM     83  O   UNL A   1      46.731  26.178  39.093  1.00  0.00    -0.237 OA
ATOM     84  O   UNL A   1      47.759  25.578  36.925  1.00  0.00    -0.237 OA
ATOM     85  O   UNL A   1      48.314  27.725  37.997  1.00  0.00    -0.744 OA
ENDBRANCH  81  82
ENDBRANCH  49  74
BRANCH  61  86
ATOM     86  C   UNL A   1      39.736  34.074  37.164  1.00  0.00     0.058 A 
ATOM     87  C   UNL A   1      40.367  35.326  37.129  1.00  0.00     0.135 A 
ATOM     88  C   UNL A   1      38.969  33.756  38.297  1.00  0.00     0.135 A 
ATOM     89  F   UNL A   1      41.119  35.674  36.071  1.00  0.00    -0.206 F 
ATOM     90  C   UNL A   1      40.251  36.227  38.181  1.00  0.00     0.059 A 
ATOM     91  C   UNL A   1      38.816  34.652  39.349  1.00  0.00     0.059 A 
ATOM     92  F   UNL A   1      38.337  32.573  38.375  1.00  0.00    -0.206 F 
ATOM     93  C   UNL A   1      39.466  35.884  39.284  1.00  0.00     0.060 A 
BRANCH  93  94
ATOM     94  S   UNL A   1      39.283  37.086  40.618  1.00  0.00     0.124 S 
ATOM     95  O   UNL A   1      40.652  37.568  40.771  1.00  0.00    -0.237 OA
ATOM     96  O   UNL A   1      38.336  38.039  40.049  1.00  0.00    -0.237 OA
ATOM     97  O   UNL A   1      38.771  36.288  41.728  1.00  0.00    -0.744 OA
ENDBRANCH  93  94
ENDBRANCH  61  86
ENDBRANCH  35  36
ENDBRANCH  27  30
ENDBRANCH  25  26
ENDBRANCH   1  25
TORSDOF 17
ENDMDL
MODEL 2
REMARK VINA RESULT:     -11.4      6.412     11.430
REMARK SMILES CCc1nc(=O)n([C@H]2CCCOC2)c(CC)c1CC(=O)NCCCNC(=O)c1ccc(-c2c3nc(c(-c4c(F)cc(S(=O)(=O)[O-])cc4F)c4ccc([nH]4)c(-c4c(F)cc(S(=O)(=O)[O-])cc4F)c4nc(c(-c5c(F)cc(S(=O)(=O)[O-])cc5F)c5ccc2[nH]5)C=C4)C=C3)cc1
REMARK SMILES IDX 23 1 22 2 21 3 19 4 20 5 18 7 17 8 3 9 4 10 5 11 14 12 6 13
REMARK SMILES IDX 7 14 2 15 1 16 15 17 16 18 8 19 9 20 13 21 10 22 12 23 11 24
REMARK SMILES IDX 24 25 25 26 26 27 27 29 28 30 29 31 93 32 30 33 92 34 31 35
REMARK SMILES IDX 32 36 33 37 86 38 34 39 91 40 85 41 87 42 35 43 90 44 84 45
REMARK SMILES IDX 83 46 36 48 70 49 49 50 69 51 50 52 53 53 68 54 88 55 51 56
REMARK SMILES IDX 52 57 67 59 89 60 54 61 37 62 38 63 47 64 39 65 40 66 46 67
REMARK SMILES IDX 48 68 41 69 42 70 43 71 44 72 45 73 71 74 72 75 81 76 73 77
REMARK SMILES IDX 74 78 80 79 82 80 75 81 76 82 77 83 78 84 79 85 55 86 56 87
REMARK SMILES IDX 65 88 57 89 58 90 64 91 66 92 59 93 60 94 61 95 62 96 63 97
REMARK H PARENT 21 6 25 28 87 47 53 58
REMARK Flexibility Score: inf
ROOT
ATOM      1  C   UNL A   1      33.711  30.958  27.607  1.00  0.00     0.042 C 
ENDROOT
BRANCH   1   2
ATOM      2  C   UNL A   1      33.312  30.158  26.374  1.00  0.00     0.117 C 
BRANCH   2   3
ATOM      3  N   UNL A   1      32.376  29.094  26.671  1.00  0.00    -0.356 N 
ATOM      4  C   UNL A   1      32.557  27.746  26.699  1.00  0.00     0.224 C 
ATOM      5  O   UNL A   1      31.606  27.048  27.057  1.00  0.00    -0.275 OA
ATOM      6  H   UNL A   1      31.462  29.394  26.887  1.00  0.00     0.163 HD
BRANCH   4   7
ATOM      7  C   UNL A   1      33.903  27.116  26.353  1.00  0.00     0.139 C 
BRANCH   7   8
ATOM      8  C   UNL A   1      33.927  26.245  25.117  1.00  0.00     0.003 A 
ATOM      9  C   UNL A   1      33.843  26.902  23.776  1.00  0.00     0.051 A 
ATOM     10  N   UNL A   1      33.641  26.252  22.686  1.00  0.00    -0.198 NA
ATOM     11  C   UNL A   1      33.565  24.895  22.703  1.00  0.00     0.348 A 
ATOM     12  C   UNL A   1      34.044  24.889  25.090  1.00  0.00     0.028 A 
ATOM     13  O   UNL A   1      33.163  24.295  21.708  1.00  0.00    -0.246 OA
ATOM     14  N   UNL A   1      34.023  24.204  23.855  1.00  0.00    -0.291 N 
BRANCH   9  15
ATOM     15  C   UNL A   1      34.044  28.417  23.637  1.00  0.00     0.053 C 
ATOM     16  C   UNL A   1      33.010  29.104  22.753  1.00  0.00     0.011 C 
ENDBRANCH   9  15
BRANCH  12  17
ATOM     17  C   UNL A   1      34.065  24.124  26.400  1.00  0.00     0.051 C 
ATOM     18  C   UNL A   1      32.666  23.684  26.833  1.00  0.00     0.010 C 
ENDBRANCH  12  17
BRANCH  14  19
ATOM     19  C   UNL A   1      34.367  22.774  23.555  1.00  0.00     0.118 C 
ATOM     20  C   UNL A   1      35.828  22.668  23.024  1.00  0.00     0.030 C 
ATOM     21  C   UNL A   1      34.241  21.628  24.582  1.00  0.00     0.185 C 
ATOM     22  C   UNL A   1      36.838  22.722  24.165  1.00  0.00     0.031 C 
ATOM     23  O   UNL A   1      35.207  21.693  25.638  1.00  0.00    -0.379 OA
ATOM     24  C   UNL A   1      36.550  21.624  25.174  1.00  0.00     0.160 C 
ENDBRANCH  14  19
ENDBRANCH   7   8
ENDBRANCH   4   7
ENDBRANCH   2   3
ENDBRANCH   1   2
BRANCH   1  25
ATOM     25  C   UNL A   1      35.057  30.553  28.197  1.00  0.00     0.118 C 
BRANCH  25  26
ATOM     26  N   UNL A   1      35.225  30.973  29.584  1.00  0.00    -0.352 N 
ATOM     27  C   UNL A   1      36.276  30.786  30.452  1.00  0.00     0.251 C 
ATOM     28  H   UNL A   1      34.464  31.471  29.959  1.00  0.00     0.163 HD
ATOM     29  O   UNL A   1      36.140  31.081  31.635  1.00  0.00    -0.269 OA
BRANCH  27  30
ATOM     30  C   UNL A   1      37.550  30.209  29.969  1.00  0.00     0.039 A 
ATOM     31  C   UNL A   1      38.423  29.575  30.852  1.00  0.00     0.014 A 
ATOM     32  C   UNL A   1      37.880  30.311  28.614  1.00  0.00     0.014 A 
ATOM     33  C   UNL A   1      39.700  29.227  30.427  1.00  0.00     0.010 A 
ATOM     34  C   UNL A   1      39.129  29.866  28.168  1.00  0.00     0.010 A 
ATOM     35  C   UNL A   1      40.073  29.373  29.082  1.00  0.00    -0.014 A 
BRANCH  35  36
ATOM     36  C   UNL A   1      41.455  29.012  28.668  1.00  0.00     0.031 A 
ATOM     37  C   UNL A   1      42.564  30.033  28.712  1.00  0.00     0.074 A 
ATOM     38  C   UNL A   1      41.722  27.740  28.307  1.00  0.00     0.049 A 
ATOM     39  N   UNL A   1      43.826  29.888  28.399  1.00  0.00    -0.248 NA
ATOM     40  C   UNL A   1      42.215  31.392  29.158  1.00  0.00     0.031 C 
ATOM     41  C   UNL A   1      40.732  26.662  28.222  1.00  0.00     0.029 A 
ATOM     42  N   UNL A   1      42.903  27.129  27.966  1.00  0.00    -0.354 N 
ATOM     43  C   UNL A   1      44.414  31.134  28.586  1.00  0.00     0.074 A 
ATOM     44  C   UNL A   1      43.368  32.034  29.017  1.00  0.00     0.031 C 
ATOM     45  C   UNL A   1      41.351  25.518  27.900  1.00  0.00     0.029 A 
ATOM     46  C   UNL A   1      42.769  25.788  27.688  1.00  0.00     0.049 A 
ATOM     47  H   UNL A   1      43.763  27.605  27.925  1.00  0.00     0.167 HD
ATOM     48  C   UNL A   1      45.711  31.490  28.424  1.00  0.00     0.037 A 
ATOM     49  C   UNL A   1      43.677  24.879  27.284  1.00  0.00     0.037 A 
ATOM     50  C   UNL A   1      46.758  30.576  28.043  1.00  0.00     0.049 A 
ATOM     51  C   UNL A   1      45.107  25.306  27.101  1.00  0.00     0.074 A 
ATOM     52  C   UNL A   1      48.112  30.835  27.907  1.00  0.00     0.029 A 
ATOM     53  N   UNL A   1      46.575  29.236  27.743  1.00  0.00    -0.354 N 
ATOM     54  N   UNL A   1      45.645  26.485  27.309  1.00  0.00    -0.248 NA
ATOM     55  C   UNL A   1      46.053  24.288  26.624  1.00  0.00     0.031 C 
ATOM     56  C   UNL A   1      48.739  29.663  27.478  1.00  0.00     0.029 A 
ATOM     57  C   UNL A   1      47.786  28.660  27.395  1.00  0.00     0.049 A 
ATOM     58  H   UNL A   1      45.712  28.763  27.771  1.00  0.00     0.167 HD
ATOM     59  C   UNL A   1      46.992  26.347  26.996  1.00  0.00     0.074 A 
ATOM     60  C   UNL A   1      47.192  24.966  26.609  1.00  0.00     0.031 C 
ATOM     61  C   UNL A   1      47.971  27.282  27.018  1.00  0.00     0.037 A 
BRANCH  48  62
ATOM     62  C   UNL A   1      46.097  32.925  28.657  1.00  0.00     0.058 A 
ATOM     63  C   UNL A   1      46.043  33.881  27.632  1.00  0.00     0.135 A 
ATOM     64  C   UNL A   1      46.410  33.371  29.952  1.00  0.00     0.135 A 
ATOM     65  F   UNL A   1      45.763  33.506  26.373  1.00  0.00    -0.206 F 
ATOM     66  C   UNL A   1      46.278  35.229  27.882  1.00  0.00     0.059 A 
ATOM     67  C   UNL A   1      46.625  34.717  30.230  1.00  0.00     0.059 A 
ATOM     68  F   UNL A   1      46.478  32.497  30.969  1.00  0.00    -0.206 F 
ATOM     69  C   UNL A   1      46.556  35.640  29.188  1.00  0.00     0.060 A 
BRANCH  69  70
ATOM     70  S   UNL A   1      46.786  37.403  29.507  1.00  0.00     0.124 S 
ATOM     71  O   UNL A   1      47.172  37.399  30.915  1.00  0.00    -0.237 OA
ATOM     72  O   UNL A   1      47.841  37.754  28.562  1.00  0.00    -0.237 OA
ATOM     73  O   UNL A   1      45.475  37.977  29.221  1.00  0.00    -0.744 OA
ENDBRANCH  69  70
ENDBRANCH  48  62
BRANCH  49  74
ATOM     74  C   UNL A   1      43.251  23.484  26.998  1.00  0.00     0.058 A 
ATOM     75  C   UNL A   1      43.045  23.038  25.685  1.00  0.00     0.135 A 
ATOM     76  C   UNL A   1      43.052  22.562  28.040  1.00  0.00     0.135 A 
ATOM     77  F   UNL A   1      43.215  23.882  24.656  1.00  0.00    -0.206 F 
ATOM     78  C   UNL A   1      42.641  21.735  25.414  1.00  0.00     0.059 A 
ATOM     79  C   UNL A   1      42.680  21.246  27.792  1.00  0.00     0.059 A 
ATOM     80  F   UNL A   1      43.253  22.933  29.315  1.00  0.00    -0.206 F 
ATOM     81  C   UNL A   1      42.464  20.845  26.475  1.00  0.00     0.060 A 
BRANCH  81  82
ATOM     82  S   UNL A   1      41.977  19.145  26.110  1.00  0.00     0.124 S 
ATOM     83  O   UNL A   1      42.351  18.462  27.343  1.00  0.00    -0.237 OA
ATOM     84  O   UNL A   1      40.545  19.283  25.865  1.00  0.00    -0.237 OA
ATOM     85  O   UNL A   1      42.777  18.812  24.935  1.00  0.00    -0.744 OA
ENDBRANCH  81  82
ENDBRANCH  49  74
BRANCH  61  86
ATOM     86  C   UNL A   1      49.356  26.851  26.627  1.00  0.00     0.058 A 
ATOM     87  C   UNL A   1      50.254  26.333  27.571  1.00  0.00     0.135 A 
ATOM     88  C   UNL A   1      49.759  26.878  25.281  1.00  0.00     0.135 A 
ATOM     89  F   UNL A   1      49.919  26.292  28.871  1.00  0.00    -0.206 F 
ATOM     90  C   UNL A   1      51.510  25.867  27.199  1.00  0.00     0.059 A 
ATOM     91  C   UNL A   1      51.000  26.393  24.882  1.00  0.00     0.059 A 
ATOM     92  F   UNL A   1      48.932  27.356  24.338  1.00  0.00    -0.206 F 
ATOM     93  C   UNL A   1      51.871  25.894  25.850  1.00  0.00     0.060 A 
BRANCH  93  94
ATOM     94  S   UNL A   1      53.485  25.238  25.377  1.00  0.00     0.124 S 
ATOM     95  O   UNL A   1      53.699  25.885  24.086  1.00  0.00    -0.237 OA
ATOM     96  O   UNL A   1      54.338  25.699  26.466  1.00  0.00    -0.237 OA
ATOM     97  O   UNL A   1      53.265  23.796  25.327  1.00  0.00    -0.744 OA
ENDBRANCH  93  94
ENDBRANCH  61  86
ENDBRANCH  35  36
ENDBRANCH  27  30
ENDBRANCH  25  26
ENDBRANCH   1  25
TORSDOF 17
ENDMDL
MODEL 3
REMARK VINA RESULT:     -11.3      2.288      8.324
REMARK SMILES CCc1nc(=O)n([C@H]2CCCOC2)c(CC)c1CC(=O)NCCCNC(=O)c1ccc(-c2c3nc(c(-c4c(F)cc(S(=O)(=O)[O-])cc4F)c4ccc([nH]4)c(-c4c(F)cc(S(=O)(=O)[O-])cc4F)c4nc(c(-c5c(F)cc(S(=O)(=O)[O-])cc5F)c5ccc2[nH]5)C=C4)C=C3)cc1
REMARK SMILES IDX 23 1 22 2 21 3 19 4 20 5 18 7 17 8 3 9 4 10 5 11 14 12 6 13
REMARK SMILES IDX 7 14 2 15 1 16 15 17 16 18 8 19 9 20 13 21 10 22 12 23 11 24
REMARK SMILES IDX 24 25 25 26 26 27 27 29 28 30 29 31 93 32 30 33 92 34 31 35
REMARK SMILES IDX 32 36 33 37 86 38 34 39 91 40 85 41 87 42 35 43 90 44 84 45
REMARK SMILES IDX 83 46 36 48 70 49 49 50 69 51 50 52 53 53 68 54 88 55 51 56
REMARK SMILES IDX 52 57 67 59 89 60 54 61 37 62 38 63 47 64 39 65 40 66 46 67
REMARK SMILES IDX 48 68 41 69 42 70 43 71 44 72 45 73 71 74 72 75 81 76 73 77
REMARK SMILES IDX 74 78 80 79 82 80 75 81 76 82 77 83 78 84 79 85 55 86 56 87
REMARK SMILES IDX 65 88 57 89 58 90 64 91 66 92 59 93 60 94 61 95 62 96 63 97
REMARK H PARENT 21 6 25 28 87 47 53 58
REMARK Flexibility Score: inf
ROOT
ATOM      1  C   UNL A   1      32.035  30.896  26.909  1.00  0.00     0.042 C 
ENDROOT
BRANCH   1   2
ATOM      2  C   UNL A   1      32.253  29.929  25.753  1.00  0.00     0.117 C 
BRANCH   2   3
ATOM      3  N   UNL A   1      31.378  28.777  25.809  1.00  0.00    -0.356 N 
ATOM      4  C   UNL A   1      31.674  27.450  25.854  1.00  0.00     0.224 C 
ATOM      5  O   UNL A   1      30.737  26.657  25.973  1.00  0.00    -0.275 OA
ATOM      6  H   UNL A   1      30.416  28.987  25.817  1.00  0.00     0.163 HD
BRANCH   4   7
ATOM      7  C   UNL A   1      33.117  26.954  25.812  1.00  0.00     0.139 C 
BRANCH   7   8
ATOM      8  C   UNL A   1      33.439  25.945  24.731  1.00  0.00     0.003 A 
ATOM      9  C   UNL A   1      33.349  26.375  23.302  1.00  0.00     0.051 A 
ATOM     10  N   UNL A   1      33.391  25.552  22.315  1.00  0.00    -0.198 NA
ATOM     11  C   UNL A   1      33.595  24.226  22.540  1.00  0.00     0.348 A 
ATOM     12  C   UNL A   1      33.834  24.658  24.925  1.00  0.00     0.028 A 
ATOM     13  O   UNL A   1      33.423  23.421  21.627  1.00  0.00    -0.246 OA
ATOM     14  N   UNL A   1      34.074  23.819  23.813  1.00  0.00    -0.291 N 
BRANCH   9  15
ATOM     15  C   UNL A   1      33.247  27.864  22.940  1.00  0.00     0.053 C 
ATOM     16  C   UNL A   1      34.403  28.379  22.092  1.00  0.00     0.011 C 
ENDBRANCH   9  15
BRANCH  12  17
ATOM     17  C   UNL A   1      33.887  24.106  26.337  1.00  0.00     0.051 C 
ATOM     18  C   UNL A   1      32.515  23.634  26.822  1.00  0.00     0.010 C 
ENDBRANCH  12  17
BRANCH  14  19
ATOM     19  C   UNL A   1      34.731  22.471  23.763  1.00  0.00     0.118 C 
ATOM     20  C   UNL A   1      36.242  22.618  23.408  1.00  0.00     0.030 C 
ATOM     21  C   UNL A   1      34.701  21.459  24.928  1.00  0.00     0.185 C 
ATOM     22  C   UNL A   1      37.061  23.026  24.626  1.00  0.00     0.031 C 
ATOM     23  O   UNL A   1      35.487  21.858  26.057  1.00  0.00    -0.379 OA
ATOM     24  C   UNL A   1      36.867  22.023  25.750  1.00  0.00     0.160 C 
ENDBRANCH  14  19
ENDBRANCH   7   8
ENDBRANCH   4   7
ENDBRANCH   2   3
ENDBRANCH   1   2
BRANCH   1  25
ATOM     25  C   UNL A   1      33.245  31.769  27.221  1.00  0.00     0.118 C 
BRANCH  25  26
ATOM     26  N   UNL A   1      32.900  33.169  27.445  1.00  0.00    -0.352 N 
ATOM     27  C   UNL A   1      33.362  34.063  28.384  1.00  0.00     0.251 C 
ATOM     28  H   UNL A   1      32.229  33.533  26.824  1.00  0.00     0.163 HD
ATOM     29  O   UNL A   1      32.812  35.153  28.499  1.00  0.00    -0.269 OA
BRANCH  27  30
ATOM     30  C   UNL A   1      34.494  33.703  29.264  1.00  0.00     0.039 A 
ATOM     31  C   UNL A   1      35.793  34.108  28.954  1.00  0.00     0.014 A 
ATOM     32  C   UNL A   1      34.257  32.941  30.412  1.00  0.00     0.014 A 
ATOM     33  C   UNL A   1      36.865  33.589  29.670  1.00  0.00     0.010 A 
ATOM     34  C   UNL A   1      35.333  32.504  31.191  1.00  0.00     0.010 A 
ATOM     35  C   UNL A   1      36.651  32.776  30.794  1.00  0.00    -0.014 A 
BRANCH  35  36
ATOM     36  C   UNL A   1      37.823  32.220  31.522  1.00  0.00     0.031 A 
ATOM     37  C   UNL A   1      38.181  32.717  32.901  1.00  0.00     0.074 A 
ATOM     38  C   UNL A   1      38.532  31.220  30.961  1.00  0.00     0.049 A 
ATOM     39  N   UNL A   1      39.159  32.337  33.683  1.00  0.00    -0.248 NA
ATOM     40  C   UNL A   1      37.339  33.779  33.477  1.00  0.00     0.031 C 
ATOM     41  C   UNL A   1      38.286  30.656  29.630  1.00  0.00     0.029 A 
ATOM     42  N   UNL A   1      39.588  30.484  31.438  1.00  0.00    -0.354 N 
ATOM     43  C   UNL A   1      39.066  33.124  34.825  1.00  0.00     0.074 A 
ATOM     44  C   UNL A   1      37.950  34.023  34.629  1.00  0.00     0.031 C 
ATOM     45  C   UNL A   1      39.130  29.638  29.419  1.00  0.00     0.029 A 
ATOM     46  C   UNL A   1      40.024  29.515  30.565  1.00  0.00     0.049 A 
ATOM     47  H   UNL A   1      39.993  30.635  32.322  1.00  0.00     0.167 HD
ATOM     48  C   UNL A   1      39.834  33.091  35.940  1.00  0.00     0.037 A 
ATOM     49  C   UNL A   1      41.044  28.640  30.661  1.00  0.00     0.037 A 
ATOM     50  C   UNL A   1      40.913  32.158  36.149  1.00  0.00     0.049 A 
ATOM     51  C   UNL A   1      41.887  28.634  31.905  1.00  0.00     0.074 A 
ATOM     52  C   UNL A   1      41.712  32.013  37.271  1.00  0.00     0.029 A 
ATOM     53  N   UNL A   1      41.339  31.214  35.229  1.00  0.00    -0.354 N 
ATOM     54  N   UNL A   1      41.764  29.371  32.984  1.00  0.00    -0.248 NA
ATOM     55  C   UNL A   1      43.009  27.687  31.947  1.00  0.00     0.031 C 
ATOM     56  C   UNL A   1      42.654  31.014  37.010  1.00  0.00     0.029 A 
ATOM     57  C   UNL A   1      42.410  30.501  35.746  1.00  0.00     0.049 A 
ATOM     58  H   UNL A   1      40.943  31.071  34.340  1.00  0.00     0.167 HD
ATOM     59  C   UNL A   1      42.788  28.970  33.834  1.00  0.00     0.074 A 
ATOM     60  C   UNL A   1      43.505  27.910  33.156  1.00  0.00     0.031 C 
ATOM     61  C   UNL A   1      43.110  29.445  35.062  1.00  0.00     0.037 A 
BRANCH  48  62
ATOM     62  C   UNL A   1      39.553  34.079  37.037  1.00  0.00     0.058 A 
ATOM     63  C   UNL A   1      38.790  33.735  38.164  1.00  0.00     0.135 A 
ATOM     64  C   UNL A   1      40.156  35.348  37.017  1.00  0.00     0.135 A 
ATOM     65  F   UNL A   1      38.180  32.541  38.227  1.00  0.00    -0.206 F 
ATOM     66  C   UNL A   1      38.639  34.612  39.235  1.00  0.00     0.059 A 
ATOM     67  C   UNL A   1      40.039  36.231  38.087  1.00  0.00     0.059 A 
ATOM     68  F   UNL A   1      40.895  35.728  35.963  1.00  0.00    -0.206 F 
ATOM     69  C   UNL A   1      39.279  35.853  39.193  1.00  0.00     0.060 A 
BRANCH  69  70
ATOM     70  S   UNL A   1      39.133  36.947  40.622  1.00  0.00     0.124 S 
ATOM     71  O   UNL A   1      38.427  36.095  41.574  1.00  0.00    -0.237 OA
ATOM     72  O   UNL A   1      40.529  37.231  40.939  1.00  0.00    -0.237 OA
ATOM     73  O   UNL A   1      38.367  38.079  40.110  1.00  0.00    -0.744 OA
ENDBRANCH  69  70
ENDBRANCH  48  62
BRANCH  49  74
ATOM     74  C   UNL A   1      41.337  27.719  29.531  1.00  0.00     0.058 A 
ATOM     75  C   UNL A   1      42.462  27.901  28.714  1.00  0.00     0.135 A 
ATOM     76  C   UNL A   1      40.498  26.627  29.253  1.00  0.00     0.135 A 
ATOM     77  F   UNL A   1      43.291  28.934  28.934  1.00  0.00    -0.206 F 
ATOM     78  C   UNL A   1      42.737  27.045  27.653  1.00  0.00     0.059 A 
ATOM     79  C   UNL A   1      40.770  25.739  28.218  1.00  0.00     0.059 A 
ATOM     80  F   UNL A   1      39.417  26.397  30.015  1.00  0.00    -0.206 F 
ATOM     81  C   UNL A   1      41.885  25.965  27.414  1.00  0.00     0.060 A 
BRANCH  81  82
ATOM     82  S   UNL A   1      42.273  24.838  26.059  1.00  0.00     0.124 S 
ATOM     83  O   UNL A   1      42.233  25.735  24.911  1.00  0.00    -0.237 OA
ATOM     84  O   UNL A   1      43.593  24.345  26.438  1.00  0.00    -0.237 OA
ATOM     85  O   UNL A   1      41.200  23.850  26.126  1.00  0.00    -0.744 OA
ENDBRANCH  81  82
ENDBRANCH  49  74
BRANCH  61  86
ATOM     86  C   UNL A   1      44.279  28.818  35.766  1.00  0.00     0.058 A 
ATOM     87  C   UNL A   1      45.575  29.340  35.637  1.00  0.00     0.135 A 
ATOM     88  C   UNL A   1      44.090  27.737  36.642  1.00  0.00     0.135 A 
ATOM     89  F   UNL A   1      45.810  30.368  34.805  1.00  0.00    -0.206 F 
ATOM     90  C   UNL A   1      46.646  28.805  36.343  1.00  0.00     0.059 A 
ATOM     91  C   UNL A   1      45.141  27.203  37.380  1.00  0.00     0.059 A 
ATOM     92  F   UNL A   1      42.867  27.208  36.808  1.00  0.00    -0.206 F 
ATOM     93  C   UNL A   1      46.418  27.741  37.218  1.00  0.00     0.060 A 
BRANCH  93  94
ATOM     94  S   UNL A   1      47.810  27.091  38.167  1.00  0.00     0.124 S 
ATOM     95  O   UNL A   1      47.537  27.629  39.496  1.00  0.00    -0.237 OA
ATOM     96  O   UNL A   1      47.640  25.650  38.019  1.00  0.00    -0.237 OA
ATOM     97  O   UNL A   1      48.975  27.653  37.490  1.00  0.00    -0.744 OA
ENDBRANCH  93  94
ENDBRANCH  61  86
ENDBRANCH  35  36
ENDBRANCH  27  30
ENDBRANCH  25  26
ENDBRANCH   1  25
TORSDOF 17
ENDMDL
