MODEL 1
REMARK VINA RESULT:     -11.2      0.000      0.000
REMARK SMILES C[C@@H](CC(=O)NCCCNC(=O)c1ccc(-c2c3nc(c(-c4c(F)cc(S(=O)(=O)[O-])cc4F)c4ccc([nH]4)c(-c4c(F)cc(S(=O)(=O)[O-])cc4F)c4nc(c(-c5c(F)cc(S(=O)(=O)[O-])cc5F)c5ccc2[nH]5)C=C4)C=C3)cc1)CC(=O)N(C)C[C@H]1CCC[N@H+]1C
REMARK SMILES IDX 4 1 5 2 6 3 3 5 2 6 1 7 79 8 80 9 81 10 82 11 83 12 84 13
REMARK SMILES IDX 85 14 86 15 89 16 87 17 88 18 90 19 7 21 8 22 9 23 10 24
REMARK SMILES IDX 11 25 12 27 13 28 14 29 78 30 15 31 77 32 16 33 17 34 18 35
REMARK SMILES IDX 71 36 19 37 76 38 70 39 72 40 20 41 75 42 69 43 68 44 21 46
REMARK SMILES IDX 55 47 34 48 54 49 35 50 38 51 53 52 73 53 36 54 37 55 52 57
REMARK SMILES IDX 74 58 39 59 22 60 23 61 32 62 24 63 25 64 31 65 33 66 26 67
REMARK SMILES IDX 27 68 28 69 29 70 30 71 56 72 57 73 66 74 58 75 59 76 65 77
REMARK SMILES IDX 67 78 60 79 61 80 62 81 63 82 64 83 40 84 41 85 50 86 42 87
REMARK SMILES IDX 43 88 49 89 51 90 44 91 45 92 46 93 47 94 48 95
REMARK H PARENT 6 4 89 20 10 26 72 45 38 56
REMARK Flexibility Score: inf
ROOT
ATOM      1  C   UNL A   1      32.219  27.844  27.054  1.00  0.00     0.220 C 
ATOM      2  O   UNL A   1      31.237  27.440  27.680  1.00  0.00    -0.275 OA
ATOM      3  N   UNL A   1      33.127  28.603  27.724  1.00  0.00    -0.356 N 
ATOM      4  H   UNL A   1      32.931  28.725  28.682  1.00  0.00     0.163 HD
ENDROOT
BRANCH   1   5
ATOM      5  C   UNL A   1      32.400  27.496  25.587  1.00  0.00     0.103 C 
BRANCH   5   6
ATOM      6  C   UNL A   1      31.628  28.352  24.556  1.00  0.00     0.004 C 
ATOM      7  C   UNL A   1      31.455  29.794  25.039  1.00  0.00     0.009 C 
BRANCH   6   8
ATOM      8  C   UNL A   1      30.325  27.691  24.067  1.00  0.00     0.104 C 
BRANCH   8   9
ATOM      9  C   UNL A   1      29.802  28.271  22.758  1.00  0.00     0.222 C 
ATOM     10  O   UNL A   1      30.572  28.349  21.796  1.00  0.00    -0.275 OA
BRANCH   9  11
ATOM     11  N   UNL A   1      28.499  28.755  22.695  1.00  0.00    -0.340 N 
ATOM     12  C   UNL A   1      27.352  28.220  23.412  1.00  0.00     0.147 C 
BRANCH  11  13
ATOM     13  C   UNL A   1      28.199  29.795  21.698  1.00  0.00     0.184 C 
BRANCH  13  14
ATOM     14  C   UNL A   1      27.451  31.043  22.256  1.00  0.00     0.203 C 
ATOM     15  C   UNL A   1      27.743  31.219  23.749  1.00  0.00     0.073 C 
ATOM     16  N   UNL A   1      27.861  32.370  21.760  1.00  0.00    -0.333 N 
ATOM     17  C   UNL A   1      28.974  32.116  23.816  1.00  0.00     0.068 C 
ATOM     18  C   UNL A   1      29.120  32.709  22.422  1.00  0.00     0.262 C 
ATOM     19  C   UNL A   1      27.911  32.534  20.323  1.00  0.00     0.333 C 
ATOM     20  H   UNL A   1      27.124  33.032  22.005  1.00  0.00     0.348 HD
ENDBRANCH  13  14
ENDBRANCH  11  13
ENDBRANCH   9  11
ENDBRANCH   8   9
ENDBRANCH   6   8
ENDBRANCH   5   6
ENDBRANCH   1   5
BRANCH   3  21
ATOM     21  C   UNL A   1      34.337  29.263  27.267  1.00  0.00     0.117 C 
BRANCH  21  22
ATOM     22  C   UNL A   1      34.257  30.776  27.454  1.00  0.00     0.042 C 
BRANCH  22  23
ATOM     23  C   UNL A   1      35.448  31.403  28.172  1.00  0.00     0.118 C 
BRANCH  23  24
ATOM     24  N   UNL A   1      35.392  31.203  29.609  1.00  0.00    -0.352 N 
ATOM     25  C   UNL A   1      36.264  30.554  30.451  1.00  0.00     0.251 C 
ATOM     26  H   UNL A   1      34.604  31.595  30.051  1.00  0.00     0.163 HD
ATOM     27  O   UNL A   1      35.904  30.327  31.605  1.00  0.00    -0.269 OA
BRANCH  25  28
ATOM     28  C   UNL A   1      37.610  30.111  30.002  1.00  0.00     0.039 A 
ATOM     29  C   UNL A   1      38.542  29.729  30.973  1.00  0.00     0.014 A 
ATOM     30  C   UNL A   1      37.998  30.143  28.659  1.00  0.00     0.014 A 
ATOM     31  C   UNL A   1      39.836  29.344  30.601  1.00  0.00     0.010 A 
ATOM     32  C   UNL A   1      39.269  29.696  28.281  1.00  0.00     0.010 A 
ATOM     33  C   UNL A   1      40.208  29.305  29.248  1.00  0.00    -0.014 A 
BRANCH  33  34
ATOM     34  C   UNL A   1      41.581  28.895  28.838  1.00  0.00     0.031 A 
ATOM     35  C   UNL A   1      42.695  29.912  28.799  1.00  0.00     0.074 A 
ATOM     36  C   UNL A   1      41.826  27.621  28.470  1.00  0.00     0.049 A 
ATOM     37  N   UNL A   1      43.931  29.768  28.392  1.00  0.00    -0.248 NA
ATOM     38  C   UNL A   1      42.373  31.270  29.262  1.00  0.00     0.031 C 
ATOM     39  C   UNL A   1      40.838  26.541  28.440  1.00  0.00     0.029 A 
ATOM     40  N   UNL A   1      42.984  27.019  28.040  1.00  0.00    -0.354 N 
ATOM     41  C   UNL A   1      44.530  31.014  28.541  1.00  0.00     0.074 A 
ATOM     42  C   UNL A   1      43.509  31.915  29.032  1.00  0.00     0.031 C 
ATOM     43  C   UNL A   1      41.434  25.409  28.030  1.00  0.00     0.029 A 
ATOM     44  C   UNL A   1      42.835  25.686  27.733  1.00  0.00     0.049 A 
ATOM     45  H   UNL A   1      43.841  27.497  27.959  1.00  0.00     0.167 HD
ATOM     46  C   UNL A   1      45.817  31.374  28.316  1.00  0.00     0.037 A 
ATOM     47  C   UNL A   1      43.724  24.791  27.257  1.00  0.00     0.037 A 
ATOM     48  C   UNL A   1      46.845  30.474  27.858  1.00  0.00     0.049 A 
ATOM     49  C   UNL A   1      45.147  25.219  27.005  1.00  0.00     0.074 A 
ATOM     50  C   UNL A   1      48.181  30.746  27.620  1.00  0.00     0.029 A 
ATOM     51  N   UNL A   1      46.656  29.129  27.584  1.00  0.00    -0.354 N 
ATOM     52  N   UNL A   1      45.694  26.398  27.175  1.00  0.00    -0.248 NA
ATOM     53  C   UNL A   1      46.072  24.193  26.501  1.00  0.00     0.031 C 
ATOM     54  C   UNL A   1      48.796  29.569  27.178  1.00  0.00     0.029 A 
ATOM     55  C   UNL A   1      47.850  28.558  27.178  1.00  0.00     0.049 A 
ATOM     56  H   UNL A   1      45.800  28.650  27.666  1.00  0.00     0.167 HD
ATOM     57  C   UNL A   1      47.034  26.246  26.831  1.00  0.00     0.074 A 
ATOM     58  C   UNL A   1      47.216  24.861  26.452  1.00  0.00     0.031 C 
ATOM     59  C   UNL A   1      48.024  27.171  26.830  1.00  0.00     0.037 A 
BRANCH  46  60
ATOM     60  C   UNL A   1      46.202  32.802  28.581  1.00  0.00     0.058 A 
ATOM     61  C   UNL A   1      46.631  33.218  29.851  1.00  0.00     0.135 A 
ATOM     62  C   UNL A   1      46.209  33.750  27.543  1.00  0.00     0.135 A 
ATOM     63  F   UNL A   1      46.628  32.357  30.880  1.00  0.00    -0.206 F 
ATOM     64  C   UNL A   1      47.040  34.527  30.088  1.00  0.00     0.059 A 
ATOM     65  C   UNL A   1      46.638  35.057  27.752  1.00  0.00     0.059 A 
ATOM     66  F   UNL A   1      45.809  33.404  26.310  1.00  0.00    -0.206 F 
ATOM     67  C   UNL A   1      47.042  35.438  29.032  1.00  0.00     0.060 A 
BRANCH  67  68
ATOM     68  S   UNL A   1      47.601  37.124  29.351  1.00  0.00     0.124 S 
ATOM     69  O   UNL A   1      46.939  37.415  30.619  1.00  0.00    -0.237 OA
ATOM     70  O   UNL A   1      49.050  36.967  29.415  1.00  0.00    -0.237 OA
ATOM     71  O   UNL A   1      47.105  37.872  28.199  1.00  0.00    -0.744 OA
ENDBRANCH  67  68
ENDBRANCH  46  60
BRANCH  47  72
ATOM     72  C   UNL A   1      43.307  23.389  26.987  1.00  0.00     0.058 A 
ATOM     73  C   UNL A   1      43.113  22.478  28.036  1.00  0.00     0.135 A 
ATOM     74  C   UNL A   1      43.130  22.923  25.676  1.00  0.00     0.135 A 
ATOM     75  F   UNL A   1      43.276  22.875  29.308  1.00  0.00    -0.206 F 
ATOM     76  C   UNL A   1      42.794  21.146  27.795  1.00  0.00     0.059 A 
ATOM     77  C   UNL A   1      42.786  21.602  25.410  1.00  0.00     0.059 A 
ATOM     78  F   UNL A   1      43.283  23.760  24.637  1.00  0.00    -0.206 F 
ATOM     79  C   UNL A   1      42.639  20.716  26.477  1.00  0.00     0.060 A 
BRANCH  79  80
ATOM     80  S   UNL A   1      42.217  18.988  26.168  1.00  0.00     0.124 S 
ATOM     81  O   UNL A   1      40.809  19.093  25.800  1.00  0.00    -0.237 OA
ATOM     82  O   UNL A   1      43.134  18.633  25.090  1.00  0.00    -0.237 OA
ATOM     83  O   UNL A   1      42.491  18.346  27.450  1.00  0.00    -0.744 OA
ENDBRANCH  79  80
ENDBRANCH  47  72
BRANCH  59  84
ATOM     84  C   UNL A   1      49.404  26.712  26.455  1.00  0.00     0.058 A 
ATOM     85  C   UNL A   1      50.330  26.291  27.422  1.00  0.00     0.135 A 
ATOM     86  C   UNL A   1      49.786  26.643  25.106  1.00  0.00     0.135 A 
ATOM     87  F   UNL A   1      50.015  26.344  28.726  1.00  0.00    -0.206 F 
ATOM     88  C   UNL A   1      51.596  25.836  27.066  1.00  0.00     0.059 A 
ATOM     89  C   UNL A   1      51.038  26.170  24.725  1.00  0.00     0.059 A 
ATOM     90  F   UNL A   1      48.934  27.026  24.141  1.00  0.00    -0.206 F 
ATOM     91  C   UNL A   1      51.940  25.778  25.713  1.00  0.00     0.060 A 
BRANCH  91  92
ATOM     92  S   UNL A   1      53.571  25.150  25.259  1.00  0.00     0.124 S 
ATOM     93  O   UNL A   1      53.716  25.665  23.902  1.00  0.00    -0.237 OA
ATOM     94  O   UNL A   1      54.434  25.761  26.266  1.00  0.00    -0.237 OA
ATOM     95  O   UNL A   1      53.419  23.702  25.369  1.00  0.00    -0.744 OA
ENDBRANCH  91  92
ENDBRANCH  59  84
ENDBRANCH  33  34
ENDBRANCH  25  28
ENDBRANCH  23  24
ENDBRANCH  22  23
ENDBRANCH  21  22
ENDBRANCH   3  21
TORSDOF 19
ENDMDL
MODEL 2
REMARK VINA RESULT:     -10.8      7.286     12.746
REMARK SMILES C[C@@H](CC(=O)NCCCNC(=O)c1ccc(-c2c3nc(c(-c4c(F)cc(S(=O)(=O)[O-])cc4F)c4ccc([nH]4)c(-c4c(F)cc(S(=O)(=O)[O-])cc4F)c4nc(c(-c5c(F)cc(S(=O)(=O)[O-])cc5F)c5ccc2[nH]5)C=C4)C=C3)cc1)CC(=O)N(C)C[C@H]1CCC[N@H+]1C
REMARK SMILES IDX 4 1 5 2 6 3 3 5 2 6 1 7 79 8 80 9 81 10 82 11 83 12 84 13
REMARK SMILES IDX 85 14 86 15 89 16 87 17 88 18 90 19 7 21 8 22 9 23 10 24
REMARK SMILES IDX 11 25 12 27 13 28 14 29 78 30 15 31 77 32 16 33 17 34 18 35
REMARK SMILES IDX 71 36 19 37 76 38 70 39 72 40 20 41 75 42 69 43 68 44 21 46
REMARK SMILES IDX 55 47 34 48 54 49 35 50 38 51 53 52 73 53 36 54 37 55 52 57
REMARK SMILES IDX 74 58 39 59 22 60 23 61 32 62 24 63 25 64 31 65 33 66 26 67
REMARK SMILES IDX 27 68 28 69 29 70 30 71 56 72 57 73 66 74 58 75 59 76 65 77
REMARK SMILES IDX 67 78 60 79 61 80 62 81 63 82 64 83 40 84 41 85 50 86 42 87
REMARK SMILES IDX 43 88 49 89 51 90 44 91 45 92 46 93 47 94 48 95
REMARK H PARENT 6 4 89 20 10 26 72 45 38 56
REMARK Flexibility Score: inf
ROOT
ATOM      1  C   UNL A   1      36.303  22.943  23.608  1.00  0.00     0.220 C 
ATOM      2  O   UNL A   1      36.280  22.946  22.376  1.00  0.00    -0.275 OA
ATOM      3  N   UNL A   1      37.404  22.428  24.218  1.00  0.00    -0.356 N 
ATOM      4  H   UNL A   1      38.115  22.139  23.602  1.00  0.00     0.163 HD
ENDROOT
BRANCH   1   5
ATOM      5  C   UNL A   1      35.137  23.501  24.407  1.00  0.00     0.103 C 
BRANCH   5   6
ATOM      6  C   UNL A   1      33.818  23.765  23.644  1.00  0.00     0.004 C 
ATOM      7  C   UNL A   1      33.785  25.175  23.051  1.00  0.00     0.009 C 
BRANCH   6   8
ATOM      8  C   UNL A   1      32.560  23.391  24.452  1.00  0.00     0.104 C 
BRANCH   8   9
ATOM      9  C   UNL A   1      32.430  21.897  24.720  1.00  0.00     0.222 C 
ATOM     10  O   UNL A   1      32.270  21.516  25.883  1.00  0.00    -0.275 OA
BRANCH   9  11
ATOM     11  N   UNL A   1      32.558  20.998  23.665  1.00  0.00    -0.340 N 
ATOM     12  C   UNL A   1      31.870  21.077  22.386  1.00  0.00     0.147 C 
BRANCH  11  13
ATOM     13  C   UNL A   1      33.325  19.764  23.902  1.00  0.00     0.184 C 
BRANCH  13  14
ATOM     14  C   UNL A   1      32.512  18.445  23.741  1.00  0.00     0.203 C 
ATOM     15  C   UNL A   1      32.942  17.704  22.470  1.00  0.00     0.073 C 
ATOM     16  N   UNL A   1      32.724  17.379  24.738  1.00  0.00    -0.333 N 
ATOM     17  C   UNL A   1      34.071  16.776  22.907  1.00  0.00     0.068 C 
ATOM     18  C   UNL A   1      34.004  16.743  24.427  1.00  0.00     0.262 C 
ATOM     19  C   UNL A   1      32.603  17.764  26.128  1.00  0.00     0.333 C 
ATOM     20  H   UNL A   1      31.951  16.718  24.652  1.00  0.00     0.348 HD
ENDBRANCH  13  14
ENDBRANCH  11  13
ENDBRANCH   9  11
ENDBRANCH   8   9
ENDBRANCH   6   8
ENDBRANCH   5   6
ENDBRANCH   1   5
BRANCH   3  21
ATOM     21  C   UNL A   1      37.708  22.233  25.624  1.00  0.00     0.117 C 
BRANCH  21  22
ATOM     22  C   UNL A   1      38.421  23.443  26.220  1.00  0.00     0.042 C 
BRANCH  22  23
ATOM     23  C   UNL A   1      39.762  23.143  26.882  1.00  0.00     0.118 C 
BRANCH  23  24
ATOM     24  N   UNL A   1      40.883  23.647  26.110  1.00  0.00    -0.352 N 
ATOM     25  C   UNL A   1      41.532  24.857  26.171  1.00  0.00     0.251 C 
ATOM     26  H   UNL A   1      41.234  23.023  25.433  1.00  0.00     0.163 HD
ATOM     27  O   UNL A   1      42.322  25.145  25.273  1.00  0.00    -0.269 OA
BRANCH  25  28
ATOM     28  C   UNL A   1      41.296  25.823  27.277  1.00  0.00     0.039 A 
ATOM     29  C   UNL A   1      42.132  26.941  27.373  1.00  0.00     0.014 A 
ATOM     30  C   UNL A   1      40.328  25.608  28.262  1.00  0.00     0.014 A 
ATOM     31  C   UNL A   1      41.975  27.855  28.422  1.00  0.00     0.010 A 
ATOM     32  C   UNL A   1      40.127  26.556  29.272  1.00  0.00     0.010 A 
ATOM     33  C   UNL A   1      40.957  27.683  29.372  1.00  0.00    -0.014 A 
BRANCH  33  34
ATOM     34  C   UNL A   1      40.776  28.650  30.492  1.00  0.00     0.031 A 
ATOM     35  C   UNL A   1      41.632  28.544  31.730  1.00  0.00     0.074 A 
ATOM     36  C   UNL A   1      39.827  29.604  30.417  1.00  0.00     0.049 A 
ATOM     37  N   UNL A   1      41.570  29.236  32.840  1.00  0.00    -0.248 NA
ATOM     38  C   UNL A   1      42.683  27.514  31.727  1.00  0.00     0.031 C 
ATOM     39  C   UNL A   1      38.916  29.808  29.288  1.00  0.00     0.029 A 
ATOM     40  N   UNL A   1      39.463  30.580  31.313  1.00  0.00    -0.354 N 
ATOM     41  C   UNL A   1      42.563  28.723  33.666  1.00  0.00     0.074 A 
ATOM     42  C   UNL A   1      43.183  27.629  32.949  1.00  0.00     0.031 C 
ATOM     43  C   UNL A   1      38.110  30.850  29.554  1.00  0.00     0.029 A 
ATOM     44  C   UNL A   1      38.419  31.367  30.883  1.00  0.00     0.049 A 
ATOM     45  H   UNL A   1      39.907  30.703  32.183  1.00  0.00     0.167 HD
ATOM     46  C   UNL A   1      42.944  29.137  34.899  1.00  0.00     0.037 A 
ATOM     47  C   UNL A   1      37.778  32.384  31.493  1.00  0.00     0.037 A 
ATOM     48  C   UNL A   1      42.353  30.245  35.604  1.00  0.00     0.049 A 
ATOM     49  C   UNL A   1      38.214  32.819  32.868  1.00  0.00     0.074 A 
ATOM     50  C   UNL A   1      42.686  30.749  36.849  1.00  0.00     0.029 A 
ATOM     51  N   UNL A   1      41.317  31.029  35.122  1.00  0.00    -0.354 N 
ATOM     52  N   UNL A   1      39.171  32.332  33.620  1.00  0.00    -0.248 NA
ATOM     53  C   UNL A   1      37.487  33.944  33.474  1.00  0.00     0.031 C 
ATOM     54  C   UNL A   1      41.836  31.823  37.131  1.00  0.00     0.029 A 
ATOM     55  C   UNL A   1      40.998  32.011  36.044  1.00  0.00     0.049 A 
ATOM     56  H   UNL A   1      40.873  30.906  34.251  1.00  0.00     0.167 HD
ATOM     57  C   UNL A   1      39.182  33.113  34.772  1.00  0.00     0.074 A 
ATOM     58  C   UNL A   1      38.143  34.107  34.615  1.00  0.00     0.031 C 
ATOM     59  C   UNL A   1      39.980  33.013  35.863  1.00  0.00     0.037 A 
BRANCH  46  60
ATOM     60  C   UNL A   1      44.074  28.404  35.567  1.00  0.00     0.058 A 
ATOM     61  C   UNL A   1      43.833  27.311  36.415  1.00  0.00     0.135 A 
ATOM     62  C   UNL A   1      45.410  28.751  35.307  1.00  0.00     0.135 A 
ATOM     63  F   UNL A   1      42.576  26.949  36.709  1.00  0.00    -0.206 F 
ATOM     64  C   UNL A   1      44.878  26.596  36.994  1.00  0.00     0.059 A 
ATOM     65  C   UNL A   1      46.470  28.034  35.855  1.00  0.00     0.059 A 
ATOM     66  F   UNL A   1      45.695  29.787  34.504  1.00  0.00    -0.206 F 
ATOM     67  C   UNL A   1      46.192  26.964  36.705  1.00  0.00     0.060 A 
BRANCH  67  68
ATOM     68  S   UNL A   1      47.535  26.008  37.443  1.00  0.00     0.124 S 
ATOM     69  O   UNL A   1      46.820  25.236  38.454  1.00  0.00    -0.237 OA
ATOM     70  O   UNL A   1      48.040  25.248  36.305  1.00  0.00    -0.237 OA
ATOM     71  O   UNL A   1      48.438  27.033  37.959  1.00  0.00    -0.744 OA
ENDBRANCH  67  68
ENDBRANCH  46  60
BRANCH  47  72
ATOM     72  C   UNL A   1      36.651  33.077  30.813  1.00  0.00     0.058 A 
ATOM     73  C   UNL A   1      36.889  34.048  29.828  1.00  0.00     0.135 A 
ATOM     74  C   UNL A   1      35.319  32.810  31.161  1.00  0.00     0.135 A 
ATOM     75  F   UNL A   1      38.147  34.341  29.466  1.00  0.00    -0.206 F 
ATOM     76  C   UNL A   1      35.848  34.756  29.237  1.00  0.00     0.059 A 
ATOM     77  C   UNL A   1      34.259  33.487  30.565  1.00  0.00     0.059 A 
ATOM     78  F   UNL A   1      35.037  31.876  32.083  1.00  0.00    -0.206 F 
ATOM     79  C   UNL A   1      34.535  34.472  29.617  1.00  0.00     0.060 A 
BRANCH  79  80
ATOM     80  S   UNL A   1      33.186  35.387  28.841  1.00  0.00     0.124 S 
ATOM     81  O   UNL A   1      33.917  36.320  27.992  1.00  0.00    -0.237 OA
ATOM     82  O   UNL A   1      32.455  34.331  28.149  1.00  0.00    -0.237 OA
ATOM     83  O   UNL A   1      32.490  35.977  29.980  1.00  0.00    -0.744 OA
ENDBRANCH  79  80
ENDBRANCH  47  72
BRANCH  59  84
ATOM     84  C   UNL A   1      39.801  34.033  36.951  1.00  0.00     0.058 A 
ATOM     85  C   UNL A   1      40.306  35.336  36.832  1.00  0.00     0.135 A 
ATOM     86  C   UNL A   1      39.068  33.715  38.106  1.00  0.00     0.135 A 
ATOM     87  F   UNL A   1      41.019  35.688  35.750  1.00  0.00    -0.206 F 
ATOM     88  C   UNL A   1      40.108  36.286  37.830  1.00  0.00     0.059 A 
ATOM     89  C   UNL A   1      38.838  34.654  39.106  1.00  0.00     0.059 A 
ATOM     90  F   UNL A   1      38.556  32.484  38.265  1.00  0.00    -0.206 F 
ATOM     91  C   UNL A   1      39.371  35.935  38.963  1.00  0.00     0.060 A 
BRANCH  91  92
ATOM     92  S   UNL A   1      39.087  37.186  40.235  1.00  0.00     0.124 S 
ATOM     93  O   UNL A   1      40.441  37.411  40.732  1.00  0.00    -0.237 OA
ATOM     94  O   UNL A   1      38.502  38.283  39.471  1.00  0.00    -0.237 OA
ATOM     95  O   UNL A   1      38.177  36.523  41.165  1.00  0.00    -0.744 OA
ENDBRANCH  91  92
ENDBRANCH  59  84
ENDBRANCH  33  34
ENDBRANCH  25  28
ENDBRANCH  23  24
ENDBRANCH  22  23
ENDBRANCH  21  22
ENDBRANCH   3  21
TORSDOF 19
ENDMDL
MODEL 3
REMARK VINA RESULT:     -10.8      2.054      3.680
REMARK SMILES C[C@@H](CC(=O)NCCCNC(=O)c1ccc(-c2c3nc(c(-c4c(F)cc(S(=O)(=O)[O-])cc4F)c4ccc([nH]4)c(-c4c(F)cc(S(=O)(=O)[O-])cc4F)c4nc(c(-c5c(F)cc(S(=O)(=O)[O-])cc5F)c5ccc2[nH]5)C=C4)C=C3)cc1)CC(=O)N(C)C[C@H]1CCC[N@H+]1C
REMARK SMILES IDX 4 1 5 2 6 3 3 5 2 6 1 7 79 8 80 9 81 10 82 11 83 12 84 13
REMARK SMILES IDX 85 14 86 15 89 16 87 17 88 18 90 19 7 21 8 22 9 23 10 24
REMARK SMILES IDX 11 25 12 27 13 28 14 29 78 30 15 31 77 32 16 33 17 34 18 35
REMARK SMILES IDX 71 36 19 37 76 38 70 39 72 40 20 41 75 42 69 43 68 44 21 46
REMARK SMILES IDX 55 47 34 48 54 49 35 50 38 51 53 52 73 53 36 54 37 55 52 57
REMARK SMILES IDX 74 58 39 59 22 60 23 61 32 62 24 63 25 64 31 65 33 66 26 67
REMARK SMILES IDX 27 68 28 69 29 70 30 71 56 72 57 73 66 74 58 75 59 76 65 77
REMARK SMILES IDX 67 78 60 79 61 80 62 81 63 82 64 83 40 84 41 85 50 86 42 87
REMARK SMILES IDX 43 88 49 89 51 90 44 91 45 92 46 93 47 94 48 95
REMARK H PARENT 6 4 89 20 10 26 72 45 38 56
REMARK Flexibility Score: inf
ROOT
ATOM      1  C   UNL A   1      31.677  28.204  26.958  1.00  0.00     0.220 C 
ATOM      2  O   UNL A   1      31.003  27.420  27.631  1.00  0.00    -0.275 OA
ATOM      3  N   UNL A   1      32.358  29.178  27.618  1.00  0.00    -0.356 N 
ATOM      4  H   UNL A   1      32.282  29.137  28.599  1.00  0.00     0.163 HD
ENDROOT
BRANCH   1   5
ATOM      5  C   UNL A   1      31.737  28.074  25.446  1.00  0.00     0.103 C 
BRANCH   5   6
ATOM      6  C   UNL A   1      32.689  27.003  24.864  1.00  0.00     0.004 C 
ATOM      7  C   UNL A   1      34.031  27.610  24.449  1.00  0.00     0.009 C 
BRANCH   6   8
ATOM      8  C   UNL A   1      32.032  26.125  23.781  1.00  0.00     0.104 C 
BRANCH   8   9
ATOM      9  C   UNL A   1      30.840  25.322  24.289  1.00  0.00     0.222 C 
ATOM     10  O   UNL A   1      29.711  25.626  23.894  1.00  0.00    -0.275 OA
BRANCH   9  11
ATOM     11  N   UNL A   1      31.043  24.314  25.226  1.00  0.00    -0.340 N 
ATOM     12  C   UNL A   1      30.351  24.177  26.498  1.00  0.00     0.147 C 
BRANCH  11  13
ATOM     13  C   UNL A   1      32.166  23.388  25.009  1.00  0.00     0.184 C 
BRANCH  13  14
ATOM     14  C   UNL A   1      31.978  21.971  25.631  1.00  0.00     0.203 C 
ATOM     15  C   UNL A   1      32.155  20.890  24.560  1.00  0.00     0.073 C 
ATOM     16  N   UNL A   1      32.975  21.515  26.617  1.00  0.00    -0.333 N 
ATOM     17  C   UNL A   1      33.639  20.537  24.583  1.00  0.00     0.068 C 
ATOM     18  C   UNL A   1      34.177  21.137  25.874  1.00  0.00     0.262 C 
ATOM     19  C   UNL A   1      33.247  22.411  27.721  1.00  0.00     0.333 C 
ATOM     20  H   UNL A   1      32.578  20.715  27.110  1.00  0.00     0.348 HD
ENDBRANCH  13  14
ENDBRANCH  11  13
ENDBRANCH   9  11
ENDBRANCH   8   9
ENDBRANCH   6   8
ENDBRANCH   5   6
ENDBRANCH   1   5
BRANCH   3  21
ATOM     21  C   UNL A   1      33.179  30.268  27.121  1.00  0.00     0.117 C 
BRANCH  21  22
ATOM     22  C   UNL A   1      34.661  30.023  27.387  1.00  0.00     0.042 C 
BRANCH  22  23
ATOM     23  C   UNL A   1      35.393  31.170  28.077  1.00  0.00     0.118 C 
BRANCH  23  24
ATOM     24  N   UNL A   1      35.378  31.042  29.523  1.00  0.00    -0.352 N 
ATOM     25  C   UNL A   1      36.280  30.448  30.373  1.00  0.00     0.251 C 
ATOM     26  H   UNL A   1      34.595  31.446  29.965  1.00  0.00     0.163 HD
ATOM     27  O   UNL A   1      35.954  30.276  31.547  1.00  0.00    -0.269 OA
BRANCH  25  28
ATOM     28  C   UNL A   1      37.620  30.001  29.911  1.00  0.00     0.039 A 
ATOM     29  C   UNL A   1      38.550  29.585  30.872  1.00  0.00     0.014 A 
ATOM     30  C   UNL A   1      38.006  30.059  28.569  1.00  0.00     0.014 A 
ATOM     31  C   UNL A   1      39.838  29.194  30.488  1.00  0.00     0.010 A 
ATOM     32  C   UNL A   1      39.271  29.606  28.178  1.00  0.00     0.010 A 
ATOM     33  C   UNL A   1      40.207  29.182  29.134  1.00  0.00    -0.014 A 
BRANCH  33  34
ATOM     34  C   UNL A   1      41.574  28.766  28.712  1.00  0.00     0.031 A 
ATOM     35  C   UNL A   1      42.688  29.782  28.642  1.00  0.00     0.074 A 
ATOM     36  C   UNL A   1      41.816  27.487  28.359  1.00  0.00     0.049 A 
ATOM     37  N   UNL A   1      43.919  29.632  28.221  1.00  0.00    -0.248 NA
ATOM     38  C   UNL A   1      42.372  31.148  29.090  1.00  0.00     0.031 C 
ATOM     39  C   UNL A   1      40.827  26.406  28.359  1.00  0.00     0.029 A 
ATOM     40  N   UNL A   1      42.967  26.879  27.923  1.00  0.00    -0.354 N 
ATOM     41  C   UNL A   1      44.519  30.881  28.344  1.00  0.00     0.074 A 
ATOM     42  C   UNL A   1      43.504  31.789  28.835  1.00  0.00     0.031 C 
ATOM     43  C   UNL A   1      41.418  25.268  27.958  1.00  0.00     0.029 A 
ATOM     44  C   UNL A   1      42.815  25.541  27.638  1.00  0.00     0.049 A 
ATOM     45  H   UNL A   1      43.823  27.356  27.824  1.00  0.00     0.167 HD
ATOM     46  C   UNL A   1      45.803  31.237  28.095  1.00  0.00     0.037 A 
ATOM     47  C   UNL A   1      43.697  24.639  27.164  1.00  0.00     0.037 A 
ATOM     48  C   UNL A   1      46.825  30.331  27.638  1.00  0.00     0.049 A 
ATOM     49  C   UNL A   1      45.116  25.063  26.886  1.00  0.00     0.074 A 
ATOM     50  C   UNL A   1      48.157  30.598  27.378  1.00  0.00     0.029 A 
ATOM     51  N   UNL A   1      46.633  28.981  27.386  1.00  0.00    -0.354 N 
ATOM     52  N   UNL A   1      45.665  26.244  27.031  1.00  0.00    -0.248 NA
ATOM     53  C   UNL A   1      46.035  24.030  26.386  1.00  0.00     0.031 C 
ATOM     54  C   UNL A   1      48.767  29.415  26.946  1.00  0.00     0.029 A 
ATOM     55  C   UNL A   1      47.821  28.405  26.973  1.00  0.00     0.049 A 
ATOM     56  H   UNL A   1      45.778  28.504  27.487  1.00  0.00     0.167 HD
ATOM     57  C   UNL A   1      47.001  26.087  26.672  1.00  0.00     0.074 A 
ATOM     58  C   UNL A   1      47.178  24.697  26.311  1.00  0.00     0.031 C 
ATOM     59  C   UNL A   1      47.991  27.013  26.643  1.00  0.00     0.037 A 
BRANCH  46  60
ATOM     60  C   UNL A   1      46.192  32.669  28.334  1.00  0.00     0.058 A 
ATOM     61  C   UNL A   1      46.713  33.087  29.568  1.00  0.00     0.135 A 
ATOM     62  C   UNL A   1      46.107  33.618  27.301  1.00  0.00     0.135 A 
ATOM     63  F   UNL A   1      46.799  32.225  30.592  1.00  0.00    -0.206 F 
ATOM     64  C   UNL A   1      47.124  34.400  29.776  1.00  0.00     0.059 A 
ATOM     65  C   UNL A   1      46.536  34.931  27.480  1.00  0.00     0.059 A 
ATOM     66  F   UNL A   1      45.617  33.270  26.102  1.00  0.00    -0.206 F 
ATOM     67  C   UNL A   1      47.034  35.314  28.725  1.00  0.00     0.060 A 
BRANCH  67  68
ATOM     68  S   UNL A   1      47.597  37.006  29.005  1.00  0.00     0.124 S 
ATOM     69  O   UNL A   1      48.943  36.961  28.443  1.00  0.00    -0.237 OA
ATOM     70  O   UNL A   1      46.622  37.788  28.254  1.00  0.00    -0.237 OA
ATOM     71  O   UNL A   1      47.528  37.152  30.457  1.00  0.00    -0.744 OA
ENDBRANCH  67  68
ENDBRANCH  46  60
BRANCH  47  72
ATOM     72  C   UNL A   1      43.277  23.233  26.921  1.00  0.00     0.058 A 
ATOM     73  C   UNL A   1      43.115  22.333  27.985  1.00  0.00     0.135 A 
ATOM     74  C   UNL A   1      43.065  22.753  25.620  1.00  0.00     0.135 A 
ATOM     75  F   UNL A   1      43.312  22.744  29.247  1.00  0.00    -0.206 F 
ATOM     76  C   UNL A   1      42.794  20.997  27.767  1.00  0.00     0.059 A 
ATOM     77  C   UNL A   1      42.718  21.428  25.378  1.00  0.00     0.059 A 
ATOM     78  F   UNL A   1      43.187  23.579  24.568  1.00  0.00    -0.206 F 
ATOM     79  C   UNL A   1      42.603  20.553  26.458  1.00  0.00     0.060 A 
BRANCH  79  80
ATOM     80  S   UNL A   1      42.177  18.820  26.179  1.00  0.00     0.124 S 
ATOM     81  O   UNL A   1      40.787  18.927  25.751  1.00  0.00    -0.237 OA
ATOM     82  O   UNL A   1      43.135  18.428  25.150  1.00  0.00    -0.237 OA
ATOM     83  O   UNL A   1      42.393  18.213  27.489  1.00  0.00    -0.744 OA
ENDBRANCH  79  80
ENDBRANCH  47  72
BRANCH  59  84
ATOM     84  C   UNL A   1      49.366  26.548  26.257  1.00  0.00     0.058 A 
ATOM     85  C   UNL A   1      49.864  26.715  24.956  1.00  0.00     0.135 A 
ATOM     86  C   UNL A   1      50.216  25.976  27.217  1.00  0.00     0.135 A 
ATOM     87  F   UNL A   1      49.088  27.251  24.000  1.00  0.00    -0.206 F 
ATOM     88  C   UNL A   1      51.151  26.312  24.614  1.00  0.00     0.059 A 
ATOM     89  C   UNL A   1      51.514  25.587  26.904  1.00  0.00     0.059 A 
ATOM     90  F   UNL A   1      49.791  25.803  28.479  1.00  0.00    -0.206 F 
ATOM     91  C   UNL A   1      51.970  25.750  25.596  1.00  0.00     0.060 A 
BRANCH  91  92
ATOM     92  S   UNL A   1      53.651  25.266  25.150  1.00  0.00     0.124 S 
ATOM     93  O   UNL A   1      53.531  23.813  25.084  1.00  0.00    -0.237 OA
ATOM     94  O   UNL A   1      53.846  25.946  23.873  1.00  0.00    -0.237 OA
ATOM     95  O   UNL A   1      54.456  25.780  26.255  1.00  0.00    -0.744 OA
ENDBRANCH  91  92
ENDBRANCH  59  84
ENDBRANCH  33  34
ENDBRANCH  25  28
ENDBRANCH  23  24
ENDBRANCH  22  23
ENDBRANCH  21  22
ENDBRANCH   3  21
TORSDOF 19
ENDMDL
