MODEL 1
REMARK VINA RESULT:     -11.7      0.000      0.000
REMARK SMILES CC(C)(C)C(=O)C[N@H+]1CCCC[C@H]1C(=O)NCCCNC(=O)c1ccc(-c2c3nc(c(-c4c(F)cc(S(=O)(=O)[O-])cc4F)c4ccc([nH]4)c(-c4c(F)cc(S(=O)(=O)[O-])cc4F)c4nc(c(-c5c(F)cc(S(=O)(=O)[O-])cc5F)c5ccc2[nH]5)C=C4)C=C3)cc1
REMARK SMILES IDX 18 1 17 2 16 3 14 4 15 5 13 7 8 8 9 9 10 11 12 12 11 13 7 14
REMARK SMILES IDX 5 15 6 16 2 17 1 18 3 19 4 20 19 21 20 22 21 23 22 25 23 26
REMARK SMILES IDX 24 27 88 28 25 29 87 30 26 31 27 32 28 33 81 34 29 35 86 36
REMARK SMILES IDX 80 37 82 38 30 39 85 40 79 41 78 42 31 44 65 45 44 46 64 47
REMARK SMILES IDX 45 48 48 49 63 50 83 51 46 52 47 53 62 55 84 56 49 57 32 58
REMARK SMILES IDX 33 59 42 60 34 61 35 62 41 63 43 64 36 65 37 66 38 67 39 68
REMARK SMILES IDX 40 69 66 70 67 71 76 72 68 73 69 74 75 75 77 76 70 77 71 78
REMARK SMILES IDX 72 79 73 80 74 81 50 82 51 83 60 84 52 85 53 86 59 87 61 88
REMARK SMILES IDX 54 89 55 90 56 91 57 92 58 93
REMARK H PARENT 16 6 8 10 20 24 82 43 48 54
REMARK Flexibility Score: inf
ROOT
ATOM      1  C   UNL A   1      38.069  23.870  26.011  1.00  0.00     0.042 C 
ENDROOT
BRANCH   1   2
ATOM      2  C   UNL A   1      37.234  22.602  25.888  1.00  0.00     0.118 C 
BRANCH   2   3
ATOM      3  N   UNL A   1      35.945  22.744  26.542  1.00  0.00    -0.351 N 
ATOM      4  C   UNL A   1      34.691  22.458  26.073  1.00  0.00     0.278 C 
ATOM      5  O   UNL A   1      33.733  22.740  26.793  1.00  0.00    -0.268 OA
ATOM      6  H   UNL A   1      35.978  23.097  27.460  1.00  0.00     0.163 HD
BRANCH   4   7
ATOM      7  C   UNL A   1      34.565  21.791  24.684  1.00  0.00     0.274 C 
ATOM      8  N   UNL A   1      33.403  20.878  24.514  1.00  0.00    -0.319 N 
ATOM      9  C   UNL A   1      32.127  21.616  24.480  1.00  0.00     0.263 C 
ATOM     10  H   UNL A   1      33.550  20.435  23.607  1.00  0.00     0.349 HD
ATOM     11  C   UNL A   1      32.111  22.690  23.387  1.00  0.00     0.062 C 
ATOM     12  C   UNL A   1      34.599  22.795  23.529  1.00  0.00     0.076 C 
ATOM     13  C   UNL A   1      33.320  23.613  23.457  1.00  0.00     0.012 C 
BRANCH   8  14
ATOM     14  C   UNL A   1      33.348  19.777  25.494  1.00  0.00     0.340 C 
BRANCH  14  15
ATOM     15  C   UNL A   1      33.060  18.402  24.874  1.00  0.00     0.192 C 
ATOM     16  O   UNL A   1      31.881  18.060  24.711  1.00  0.00    -0.293 OA
BRANCH  15  17
ATOM     17  C   UNL A   1      34.214  17.455  24.449  1.00  0.00     0.026 C 
ATOM     18  C   UNL A   1      34.177  16.213  25.369  1.00  0.00     0.019 C 
ATOM     19  C   UNL A   1      35.605  18.084  24.599  1.00  0.00     0.019 C 
ATOM     20  C   UNL A   1      34.024  16.997  23.000  1.00  0.00     0.019 C 
ENDBRANCH  15  17
ENDBRANCH  14  15
ENDBRANCH   8  14
ENDBRANCH   4   7
ENDBRANCH   2   3
ENDBRANCH   1   2
BRANCH   1  21
ATOM     21  C   UNL A   1      39.311  23.701  26.871  1.00  0.00     0.118 C 
BRANCH  21  22
ATOM     22  N   UNL A   1      40.528  24.040  26.152  1.00  0.00    -0.352 N 
ATOM     23  C   UNL A   1      41.320  25.154  26.259  1.00  0.00     0.251 C 
ATOM     24  H   UNL A   1      40.828  23.373  25.493  1.00  0.00     0.163 HD
ATOM     25  O   UNL A   1      42.193  25.356  25.414  1.00  0.00    -0.269 OA
BRANCH  23  26
ATOM     26  C   UNL A   1      41.117  26.112  27.365  1.00  0.00     0.039 A 
ATOM     27  C   UNL A   1      40.147  25.828  28.330  1.00  0.00     0.014 A 
ATOM     28  C   UNL A   1      41.858  27.295  27.445  1.00  0.00     0.014 A 
ATOM     29  C   UNL A   1      39.951  26.711  29.393  1.00  0.00     0.010 A 
ATOM     30  C   UNL A   1      41.727  28.124  28.556  1.00  0.00     0.010 A 
ATOM     31  C   UNL A   1      40.757  27.853  29.529  1.00  0.00    -0.014 A 
BRANCH  31  32
ATOM     32  C   UNL A   1      40.574  28.785  30.671  1.00  0.00     0.031 A 
ATOM     33  C   UNL A   1      41.436  28.654  31.900  1.00  0.00     0.074 A 
ATOM     34  C   UNL A   1      39.609  29.724  30.615  1.00  0.00     0.049 A 
ATOM     35  N   UNL A   1      41.418  29.364  32.999  1.00  0.00    -0.248 NA
ATOM     36  C   UNL A   1      42.431  27.569  31.906  1.00  0.00     0.031 C 
ATOM     37  C   UNL A   1      38.675  29.913  29.502  1.00  0.00     0.029 A 
ATOM     38  N   UNL A   1      39.253  30.698  31.514  1.00  0.00    -0.354 N 
ATOM     39  C   UNL A   1      42.385  28.805  33.827  1.00  0.00     0.074 A 
ATOM     40  C   UNL A   1      42.928  27.660  33.130  1.00  0.00     0.031 C 
ATOM     41  C   UNL A   1      37.880  30.961  29.767  1.00  0.00     0.029 A 
ATOM     42  C   UNL A   1      38.218  31.495  31.083  1.00  0.00     0.049 A 
ATOM     43  H   UNL A   1      39.696  30.814  32.386  1.00  0.00     0.167 HD
ATOM     44  C   UNL A   1      42.803  29.223  35.046  1.00  0.00     0.037 A 
ATOM     45  C   UNL A   1      37.612  32.539  31.680  1.00  0.00     0.037 A 
ATOM     46  C   UNL A   1      42.273  30.379  35.723  1.00  0.00     0.049 A 
ATOM     47  C   UNL A   1      38.100  32.988  33.032  1.00  0.00     0.074 A 
ATOM     48  C   UNL A   1      42.666  30.922  36.934  1.00  0.00     0.029 A 
ATOM     49  N   UNL A   1      41.236  31.170  35.249  1.00  0.00    -0.354 N 
ATOM     50  N   UNL A   1      39.062  32.490  33.771  1.00  0.00    -0.248 NA
ATOM     51  C   UNL A   1      37.427  34.152  33.625  1.00  0.00     0.031 C 
ATOM     52  C   UNL A   1      41.833  32.010  37.217  1.00  0.00     0.029 A 
ATOM     53  C   UNL A   1      40.962  32.183  36.153  1.00  0.00     0.049 A 
ATOM     54  H   UNL A   1      40.766  31.031  34.396  1.00  0.00     0.167 HD
ATOM     55  C   UNL A   1      39.133  33.299  34.900  1.00  0.00     0.074 A 
ATOM     56  C   UNL A   1      38.126  34.328  34.737  1.00  0.00     0.031 C 
ATOM     57  C   UNL A   1      39.959  33.204  35.973  1.00  0.00     0.037 A 
BRANCH  44  58
ATOM     58  C   UNL A   1      43.886  28.429  35.726  1.00  0.00     0.058 A 
ATOM     59  C   UNL A   1      43.590  27.384  36.618  1.00  0.00     0.135 A 
ATOM     60  C   UNL A   1      45.240  28.690  35.455  1.00  0.00     0.135 A 
ATOM     61  F   UNL A   1      42.314  27.100  36.927  1.00  0.00    -0.206 F 
ATOM     62  C   UNL A   1      44.594  26.649  37.240  1.00  0.00     0.059 A 
ATOM     63  C   UNL A   1      46.260  27.946  36.043  1.00  0.00     0.059 A 
ATOM     64  F   UNL A   1      45.583  29.677  34.613  1.00  0.00    -0.206 F 
ATOM     65  C   UNL A   1      45.928  26.937  36.944  1.00  0.00     0.060 A 
BRANCH  65  66
ATOM     66  S   UNL A   1      47.218  25.966  37.750  1.00  0.00     0.124 S 
ATOM     67  O   UNL A   1      48.020  25.541  36.606  1.00  0.00    -0.237 OA
ATOM     68  O   UNL A   1      47.842  26.947  38.631  1.00  0.00    -0.237 OA
ATOM     69  O   UNL A   1      46.475  24.906  38.424  1.00  0.00    -0.744 OA
ENDBRANCH  65  66
ENDBRANCH  44  58
BRANCH  45  70
ATOM     70  C   UNL A   1      36.503  33.252  30.993  1.00  0.00     0.058 A 
ATOM     71  C   UNL A   1      36.753  34.084  29.890  1.00  0.00     0.135 A 
ATOM     72  C   UNL A   1      35.173  33.117  31.418  1.00  0.00     0.135 A 
ATOM     73  F   UNL A   1      38.008  34.250  29.446  1.00  0.00    -0.206 F 
ATOM     74  C   UNL A   1      35.729  34.775  29.250  1.00  0.00     0.059 A 
ATOM     75  C   UNL A   1      34.128  33.774  30.776  1.00  0.00     0.059 A 
ATOM     76  F   UNL A   1      34.876  32.318  32.455  1.00  0.00    -0.206 F 
ATOM     77  C   UNL A   1      34.419  34.612  29.700  1.00  0.00     0.060 A 
BRANCH  77  78
ATOM     78  S   UNL A   1      33.093  35.483  28.838  1.00  0.00     0.124 S 
ATOM     79  O   UNL A   1      32.477  34.402  28.077  1.00  0.00    -0.237 OA
ATOM     80  O   UNL A   1      32.305  36.015  29.945  1.00  0.00    -0.237 OA
ATOM     81  O   UNL A   1      33.806  36.484  28.050  1.00  0.00    -0.744 OA
ENDBRANCH  77  78
ENDBRANCH  45  70
BRANCH  57  82
ATOM     82  C   UNL A   1      39.837  34.267  37.032  1.00  0.00     0.058 A 
ATOM     83  C   UNL A   1      40.442  35.527  36.894  1.00  0.00     0.135 A 
ATOM     84  C   UNL A   1      39.086  34.024  38.193  1.00  0.00     0.135 A 
ATOM     85  F   UNL A   1      41.174  35.810  35.805  1.00  0.00    -0.206 F 
ATOM     86  C   UNL A   1      40.344  36.492  37.892  1.00  0.00     0.059 A 
ATOM     87  C   UNL A   1      38.946  34.988  39.187  1.00  0.00     0.059 A 
ATOM     88  F   UNL A   1      38.473  32.843  38.370  1.00  0.00    -0.206 F 
ATOM     89  C   UNL A   1      39.595  36.210  39.037  1.00  0.00     0.060 A 
BRANCH  89  90
ATOM     90  S   UNL A   1      39.476  37.470  40.324  1.00  0.00     0.124 S 
ATOM     91  O   UNL A   1      38.750  36.755  41.368  1.00  0.00    -0.237 OA
ATOM     92  O   UNL A   1      40.878  37.758  40.612  1.00  0.00    -0.237 OA
ATOM     93  O   UNL A   1      38.741  38.551  39.674  1.00  0.00    -0.744 OA
ENDBRANCH  89  90
ENDBRANCH  57  82
ENDBRANCH  31  32
ENDBRANCH  23  26
ENDBRANCH  21  22
ENDBRANCH   1  21
TORSDOF 16
ENDMDL
MODEL 2
REMARK VINA RESULT:     -11.6      0.300      1.692
REMARK SMILES CC(C)(C)C(=O)C[N@H+]1CCCC[C@H]1C(=O)NCCCNC(=O)c1ccc(-c2c3nc(c(-c4c(F)cc(S(=O)(=O)[O-])cc4F)c4ccc([nH]4)c(-c4c(F)cc(S(=O)(=O)[O-])cc4F)c4nc(c(-c5c(F)cc(S(=O)(=O)[O-])cc5F)c5ccc2[nH]5)C=C4)C=C3)cc1
REMARK SMILES IDX 18 1 17 2 16 3 14 4 15 5 13 7 8 8 9 9 10 11 12 12 11 13 7 14
REMARK SMILES IDX 5 15 6 16 2 17 1 18 3 19 4 20 19 21 20 22 21 23 22 25 23 26
REMARK SMILES IDX 24 27 88 28 25 29 87 30 26 31 27 32 28 33 81 34 29 35 86 36
REMARK SMILES IDX 80 37 82 38 30 39 85 40 79 41 78 42 31 44 65 45 44 46 64 47
REMARK SMILES IDX 45 48 48 49 63 50 83 51 46 52 47 53 62 55 84 56 49 57 32 58
REMARK SMILES IDX 33 59 42 60 34 61 35 62 41 63 43 64 36 65 37 66 38 67 39 68
REMARK SMILES IDX 40 69 66 70 67 71 76 72 68 73 69 74 75 75 77 76 70 77 71 78
REMARK SMILES IDX 72 79 73 80 74 81 50 82 51 83 60 84 52 85 53 86 59 87 61 88
REMARK SMILES IDX 54 89 55 90 56 91 57 92 58 93
REMARK H PARENT 16 6 8 10 20 24 82 43 48 54
REMARK Flexibility Score: inf
ROOT
ATOM      1  C   UNL A   1      38.129  23.933  26.102  1.00  0.00     0.042 C 
ENDROOT
BRANCH   1   2
ATOM      2  C   UNL A   1      37.248  22.702  25.928  1.00  0.00     0.118 C 
BRANCH   2   3
ATOM      3  N   UNL A   1      35.901  22.933  26.420  1.00  0.00    -0.351 N 
ATOM      4  C   UNL A   1      34.697  22.694  25.815  1.00  0.00     0.278 C 
ATOM      5  O   UNL A   1      33.678  23.051  26.408  1.00  0.00    -0.268 OA
ATOM      6  H   UNL A   1      35.846  23.317  27.325  1.00  0.00     0.163 HD
BRANCH   4   7
ATOM      7  C   UNL A   1      34.696  21.985  24.442  1.00  0.00     0.274 C 
ATOM      8  N   UNL A   1      33.607  20.994  24.232  1.00  0.00    -0.319 N 
ATOM      9  C   UNL A   1      32.291  21.647  24.101  1.00  0.00     0.263 C 
ATOM     10  H   UNL A   1      33.836  20.538  23.349  1.00  0.00     0.349 HD
ATOM     11  C   UNL A   1      32.273  22.688  22.977  1.00  0.00     0.062 C 
ATOM     12  C   UNL A   1      34.736  22.957  23.262  1.00  0.00     0.076 C 
ATOM     13  C   UNL A   1      33.415  23.689  23.090  1.00  0.00     0.012 C 
BRANCH   8  14
ATOM     14  C   UNL A   1      33.562  19.917  25.239  1.00  0.00     0.340 C 
BRANCH  14  15
ATOM     15  C   UNL A   1      33.121  18.557  24.682  1.00  0.00     0.192 C 
ATOM     16  O   UNL A   1      31.919  18.376  24.444  1.00  0.00    -0.293 OA
BRANCH  15  17
ATOM     17  C   UNL A   1      34.151  17.428  24.411  1.00  0.00     0.026 C 
ATOM     18  C   UNL A   1      35.567  18.013  24.614  1.00  0.00     0.019 C 
ATOM     19  C   UNL A   1      34.091  16.879  22.980  1.00  0.00     0.019 C 
ATOM     20  C   UNL A   1      33.953  16.275  25.400  1.00  0.00     0.019 C 
ENDBRANCH  15  17
ENDBRANCH  14  15
ENDBRANCH   8  14
ENDBRANCH   4   7
ENDBRANCH   2   3
ENDBRANCH   1   2
BRANCH   1  21
ATOM     21  C   UNL A   1      39.347  23.691  26.978  1.00  0.00     0.118 C 
BRANCH  21  22
ATOM     22  N   UNL A   1      40.590  23.992  26.287  1.00  0.00    -0.352 N 
ATOM     23  C   UNL A   1      41.405  25.088  26.400  1.00  0.00     0.251 C 
ATOM     24  H   UNL A   1      40.891  23.309  25.645  1.00  0.00     0.163 HD
ATOM     25  O   UNL A   1      42.304  25.259  25.576  1.00  0.00    -0.269 OA
BRANCH  23  26
ATOM     26  C   UNL A   1      41.196  26.066  27.488  1.00  0.00     0.039 A 
ATOM     27  C   UNL A   1      40.198  25.816  28.433  1.00  0.00     0.014 A 
ATOM     28  C   UNL A   1      41.959  27.235  27.569  1.00  0.00     0.014 A 
ATOM     29  C   UNL A   1      39.995  26.717  29.479  1.00  0.00     0.010 A 
ATOM     30  C   UNL A   1      41.820  28.082  28.664  1.00  0.00     0.010 A 
ATOM     31  C   UNL A   1      40.822  27.845  29.619  1.00  0.00    -0.014 A 
BRANCH  31  32
ATOM     32  C   UNL A   1      40.632  28.796  30.743  1.00  0.00     0.031 A 
ATOM     33  C   UNL A   1      41.484  28.686  31.980  1.00  0.00     0.074 A 
ATOM     34  C   UNL A   1      39.668  29.735  30.664  1.00  0.00     0.049 A 
ATOM     35  N   UNL A   1      41.459  29.414  33.067  1.00  0.00    -0.248 NA
ATOM     36  C   UNL A   1      42.478  27.600  32.012  1.00  0.00     0.031 C 
ATOM     37  C   UNL A   1      38.743  29.906  29.541  1.00  0.00     0.029 A 
ATOM     38  N   UNL A   1      39.307  30.724  31.543  1.00  0.00    -0.354 N 
ATOM     39  C   UNL A   1      42.419  28.869  33.911  1.00  0.00     0.074 A 
ATOM     40  C   UNL A   1      42.966  27.712  33.238  1.00  0.00     0.031 C 
ATOM     41  C   UNL A   1      37.946  30.959  29.782  1.00  0.00     0.029 A 
ATOM     42  C   UNL A   1      38.276  31.515  31.091  1.00  0.00     0.049 A 
ATOM     43  H   UNL A   1      39.743  30.856  32.416  1.00  0.00     0.167 HD
ATOM     44  C   UNL A   1      42.829  29.307  35.126  1.00  0.00     0.037 A 
ATOM     45  C   UNL A   1      37.667  32.570  31.666  1.00  0.00     0.037 A 
ATOM     46  C   UNL A   1      42.296  30.475  35.779  1.00  0.00     0.049 A 
ATOM     47  C   UNL A   1      38.145  33.042  33.013  1.00  0.00     0.074 A 
ATOM     48  C   UNL A   1      42.680  31.038  36.983  1.00  0.00     0.029 A 
ATOM     49  N   UNL A   1      41.263  31.259  35.283  1.00  0.00    -0.354 N 
ATOM     50  N   UNL A   1      39.101  32.555  33.768  1.00  0.00    -0.248 NA
ATOM     51  C   UNL A   1      37.469  34.216  33.581  1.00  0.00     0.031 C 
ATOM     52  C   UNL A   1      41.847  32.132  37.241  1.00  0.00     0.029 A 
ATOM     53  C   UNL A   1      40.984  32.287  36.168  1.00  0.00     0.049 A 
ATOM     54  H   UNL A   1      40.799  31.105  34.430  1.00  0.00     0.167 HD
ATOM     55  C   UNL A   1      39.165  33.384  34.883  1.00  0.00     0.074 A 
ATOM     56  C   UNL A   1      38.161  34.411  34.695  1.00  0.00     0.031 C 
ATOM     57  C   UNL A   1      39.983  33.306  35.963  1.00  0.00     0.037 A 
BRANCH  44  58
ATOM     58  C   UNL A   1      43.906  28.523  35.827  1.00  0.00     0.058 A 
ATOM     59  C   UNL A   1      45.270  28.796  35.628  1.00  0.00     0.135 A 
ATOM     60  C   UNL A   1      43.572  27.508  36.739  1.00  0.00     0.135 A 
ATOM     61  F   UNL A   1      45.650  29.744  34.755  1.00  0.00    -0.206 F 
ATOM     62  C   UNL A   1      46.262  28.072  36.282  1.00  0.00     0.059 A 
ATOM     63  C   UNL A   1      44.548  26.792  37.428  1.00  0.00     0.059 A 
ATOM     64  F   UNL A   1      42.285  27.201  36.968  1.00  0.00    -0.206 F 
ATOM     65  C   UNL A   1      45.890  27.072  37.182  1.00  0.00     0.060 A 
BRANCH  65  66
ATOM     66  S   UNL A   1      47.190  26.151  38.031  1.00  0.00     0.124 S 
ATOM     67  O   UNL A   1      48.361  26.493  37.228  1.00  0.00    -0.237 OA
ATOM     68  O   UNL A   1      47.153  26.726  39.372  1.00  0.00    -0.237 OA
ATOM     69  O   UNL A   1      46.745  24.765  37.933  1.00  0.00    -0.744 OA
ENDBRANCH  65  66
ENDBRANCH  44  58
BRANCH  45  70
ATOM     70  C   UNL A   1      36.563  33.273  30.958  1.00  0.00     0.058 A 
ATOM     71  C   UNL A   1      35.230  33.123  31.370  1.00  0.00     0.135 A 
ATOM     72  C   UNL A   1      36.816  34.108  29.860  1.00  0.00     0.135 A 
ATOM     73  F   UNL A   1      34.936  32.332  32.413  1.00  0.00    -0.206 F 
ATOM     74  C   UNL A   1      34.185  33.756  30.705  1.00  0.00     0.059 A 
ATOM     75  C   UNL A   1      35.790  34.775  29.196  1.00  0.00     0.059 A 
ATOM     76  F   UNL A   1      38.075  34.302  29.436  1.00  0.00    -0.206 F 
ATOM     77  C   UNL A   1      34.476  34.581  29.619  1.00  0.00     0.060 A 
BRANCH  77  78
ATOM     78  S   UNL A   1      33.116  35.428  28.786  1.00  0.00     0.124 S 
ATOM     79  O   UNL A   1      32.490  34.332  28.056  1.00  0.00    -0.237 OA
ATOM     80  O   UNL A   1      32.355  35.964  29.910  1.00  0.00    -0.237 OA
ATOM     81  O   UNL A   1      33.795  36.427  27.967  1.00  0.00    -0.744 OA
ENDBRANCH  77  78
ENDBRANCH  45  70
BRANCH  57  82
ATOM     82  C   UNL A   1      39.855  34.387  37.003  1.00  0.00     0.058 A 
ATOM     83  C   UNL A   1      38.964  34.279  38.083  1.00  0.00     0.135 A 
ATOM     84  C   UNL A   1      40.653  35.540  36.925  1.00  0.00     0.135 A 
ATOM     85  F   UNL A   1      38.176  33.200  38.204  1.00  0.00    -0.206 F 
ATOM     86  C   UNL A   1      38.837  35.298  39.023  1.00  0.00     0.059 A 
ATOM     87  C   UNL A   1      40.567  36.554  37.873  1.00  0.00     0.059 A 
ATOM     88  F   UNL A   1      41.533  35.689  35.922  1.00  0.00    -0.206 F 
ATOM     89  C   UNL A   1      39.641  36.433  38.907  1.00  0.00     0.060 A 
BRANCH  89  90
ATOM     90  S   UNL A   1      39.466  37.748  40.132  1.00  0.00     0.124 S 
ATOM     91  O   UNL A   1      40.742  38.443  40.000  1.00  0.00    -0.237 OA
ATOM     92  O   UNL A   1      38.295  38.474  39.647  1.00  0.00    -0.237 OA
ATOM     93  O   UNL A   1      39.271  37.021  41.383  1.00  0.00    -0.744 OA
ENDBRANCH  89  90
ENDBRANCH  57  82
ENDBRANCH  31  32
ENDBRANCH  23  26
ENDBRANCH  21  22
ENDBRANCH   1  21
TORSDOF 16
ENDMDL
MODEL 3
REMARK VINA RESULT:     -11.6      7.359     12.304
REMARK SMILES CC(C)(C)C(=O)C[N@H+]1CCCC[C@H]1C(=O)NCCCNC(=O)c1ccc(-c2c3nc(c(-c4c(F)cc(S(=O)(=O)[O-])cc4F)c4ccc([nH]4)c(-c4c(F)cc(S(=O)(=O)[O-])cc4F)c4nc(c(-c5c(F)cc(S(=O)(=O)[O-])cc5F)c5ccc2[nH]5)C=C4)C=C3)cc1
REMARK SMILES IDX 18 1 17 2 16 3 14 4 15 5 13 7 8 8 9 9 10 11 12 12 11 13 7 14
REMARK SMILES IDX 5 15 6 16 2 17 1 18 3 19 4 20 19 21 20 22 21 23 22 25 23 26
REMARK SMILES IDX 24 27 88 28 25 29 87 30 26 31 27 32 28 33 81 34 29 35 86 36
REMARK SMILES IDX 80 37 82 38 30 39 85 40 79 41 78 42 31 44 65 45 44 46 64 47
REMARK SMILES IDX 45 48 48 49 63 50 83 51 46 52 47 53 62 55 84 56 49 57 32 58
REMARK SMILES IDX 33 59 42 60 34 61 35 62 41 63 43 64 36 65 37 66 38 67 39 68
REMARK SMILES IDX 40 69 66 70 67 71 76 72 68 73 69 74 75 75 77 76 70 77 71 78
REMARK SMILES IDX 72 79 73 80 74 81 50 82 51 83 60 84 52 85 53 86 59 87 61 88
REMARK SMILES IDX 54 89 55 90 56 91 57 92 58 93
REMARK H PARENT 16 6 8 10 20 24 82 43 48 54
REMARK Flexibility Score: inf
ROOT
ATOM      1  C   UNL A   1      34.086  28.955  27.225  1.00  0.00     0.042 C 
ENDROOT
BRANCH   1   2
ATOM      2  C   UNL A   1      33.326  29.723  26.151  1.00  0.00     0.118 C 
BRANCH   2   3
ATOM      3  N   UNL A   1      33.802  29.392  24.819  1.00  0.00    -0.351 N 
ATOM      4  C   UNL A   1      33.271  28.542  23.888  1.00  0.00     0.278 C 
ATOM      5  O   UNL A   1      33.905  28.365  22.847  1.00  0.00    -0.268 OA
ATOM      6  H   UNL A   1      34.630  29.849  24.545  1.00  0.00     0.163 HD
BRANCH   4   7
ATOM      7  C   UNL A   1      31.911  27.876  24.197  1.00  0.00     0.274 C 
ATOM      8  N   UNL A   1      30.958  27.801  23.057  1.00  0.00    -0.319 N 
ATOM      9  C   UNL A   1      31.404  26.839  22.033  1.00  0.00     0.263 C 
ATOM     10  H   UNL A   1      30.087  27.464  23.466  1.00  0.00     0.349 HD
ATOM     11  C   UNL A   1      31.630  25.440  22.616  1.00  0.00     0.062 C 
ATOM     12  C   UNL A   1      32.049  26.494  24.838  1.00  0.00     0.076 C 
ATOM     13  C   UNL A   1      32.537  25.457  23.840  1.00  0.00     0.012 C 
BRANCH   8  14
ATOM     14  C   UNL A   1      30.636  29.106  22.448  1.00  0.00     0.340 C 
BRANCH  14  15
ATOM     15  C   UNL A   1      29.668  29.961  23.277  1.00  0.00     0.192 C 
ATOM     16  O   UNL A   1      30.074  30.460  24.335  1.00  0.00    -0.293 OA
BRANCH  15  17
ATOM     17  C   UNL A   1      28.210  30.209  22.804  1.00  0.00     0.026 C 
ATOM     18  C   UNL A   1      27.397  28.919  23.062  1.00  0.00     0.019 C 
ATOM     19  C   UNL A   1      28.099  30.519  21.307  1.00  0.00     0.019 C 
ATOM     20  C   UNL A   1      27.577  31.353  23.602  1.00  0.00     0.019 C 
ENDBRANCH  15  17
ENDBRANCH  14  15
ENDBRANCH   8  14
ENDBRANCH   4   7
ENDBRANCH   2   3
ENDBRANCH   1   2
BRANCH   1  21
ATOM     21  C   UNL A   1      35.361  29.645  27.681  1.00  0.00     0.118 C 
BRANCH  21  22
ATOM     22  N   UNL A   1      35.324  29.995  29.091  1.00  0.00    -0.352 N 
ATOM     23  C   UNL A   1      36.319  29.928  30.031  1.00  0.00     0.251 C 
ATOM     24  H   UNL A   1      34.458  30.331  29.419  1.00  0.00     0.163 HD
ATOM     25  O   UNL A   1      36.035  30.070  31.221  1.00  0.00    -0.269 OA
BRANCH  23  26
ATOM     26  C   UNL A   1      37.715  29.670  29.624  1.00  0.00     0.039 A 
ATOM     27  C   UNL A   1      38.644  29.306  30.602  1.00  0.00     0.014 A 
ATOM     28  C   UNL A   1      38.120  29.806  28.292  1.00  0.00     0.014 A 
ATOM     29  C   UNL A   1      39.964  29.040  30.237  1.00  0.00     0.010 A 
ATOM     30  C   UNL A   1      39.411  29.448  27.917  1.00  0.00     0.010 A 
ATOM     31  C   UNL A   1      40.354  29.083  28.888  1.00  0.00    -0.014 A 
BRANCH  31  32
ATOM     32  C   UNL A   1      41.750  28.777  28.486  1.00  0.00     0.031 A 
ATOM     33  C   UNL A   1      42.129  27.378  28.074  1.00  0.00     0.074 A 
ATOM     34  C   UNL A   1      42.682  29.749  28.526  1.00  0.00     0.049 A 
ATOM     35  N   UNL A   1      43.295  26.915  27.703  1.00  0.00    -0.248 NA
ATOM     36  C   UNL A   1      41.066  26.361  28.108  1.00  0.00     0.031 C 
ATOM     37  C   UNL A   1      42.448  31.129  28.961  1.00  0.00     0.029 A 
ATOM     38  N   UNL A   1      44.014  29.728  28.197  1.00  0.00    -0.354 N 
ATOM     39  C   UNL A   1      43.108  25.557  27.472  1.00  0.00     0.074 A 
ATOM     40  C   UNL A   1      41.733  25.258  27.804  1.00  0.00     0.031 C 
ATOM     41  C   UNL A   1      43.586  31.830  28.835  1.00  0.00     0.029 A 
ATOM     42  C   UNL A   1      44.640  30.943  28.350  1.00  0.00     0.049 A 
ATOM     43  H   UNL A   1      44.478  28.919  27.881  1.00  0.00     0.167 HD
ATOM     44  C   UNL A   1      43.993  24.647  27.000  1.00  0.00     0.037 A 
ATOM     45  C   UNL A   1      45.918  31.303  28.122  1.00  0.00     0.037 A 
ATOM     46  C   UNL A   1      45.355  24.959  26.648  1.00  0.00     0.049 A 
ATOM     47  C   UNL A   1      46.880  30.274  27.591  1.00  0.00     0.074 A 
ATOM     48  C   UNL A   1      46.317  24.124  26.107  1.00  0.00     0.029 A 
ATOM     49  N   UNL A   1      45.948  26.204  26.802  1.00  0.00    -0.354 N 
ATOM     50  N   UNL A   1      46.669  29.010  27.314  1.00  0.00    -0.248 NA
ATOM     51  C   UNL A   1      48.254  30.726  27.329  1.00  0.00     0.031 C 
ATOM     52  C   UNL A   1      47.506  24.850  25.982  1.00  0.00     0.029 A 
ATOM     53  C   UNL A   1      47.269  26.154  26.387  1.00  0.00     0.049 A 
ATOM     54  H   UNL A   1      45.497  27.004  27.155  1.00  0.00     0.167 HD
ATOM     55  C   UNL A   1      47.872  28.524  26.813  1.00  0.00     0.074 A 
ATOM     56  C   UNL A   1      48.800  29.636  26.811  1.00  0.00     0.031 C 
ATOM     57  C   UNL A   1      48.180  27.272  26.387  1.00  0.00     0.037 A 
BRANCH  44  58
ATOM     58  C   UNL A   1      43.518  23.228  26.834  1.00  0.00     0.058 A 
ATOM     59  C   UNL A   1      43.292  22.389  27.937  1.00  0.00     0.135 A 
ATOM     60  C   UNL A   1      43.250  22.710  25.556  1.00  0.00     0.135 A 
ATOM     61  F   UNL A   1      43.547  22.825  29.182  1.00  0.00    -0.206 F 
ATOM     62  C   UNL A   1      42.847  21.080  27.780  1.00  0.00     0.059 A 
ATOM     63  C   UNL A   1      42.774  21.413  25.377  1.00  0.00     0.059 A 
ATOM     64  F   UNL A   1      43.449  23.464  24.464  1.00  0.00    -0.206 F 
ATOM     65  C   UNL A   1      42.590  20.601  26.494  1.00  0.00     0.060 A 
BRANCH  65  66
ATOM     66  S   UNL A   1      42.003  18.905  26.309  1.00  0.00     0.124 S 
ATOM     67  O   UNL A   1      42.092  18.414  27.682  1.00  0.00    -0.237 OA
ATOM     68  O   UNL A   1      40.651  19.097  25.792  1.00  0.00    -0.237 OA
ATOM     69  O   UNL A   1      42.952  18.316  25.370  1.00  0.00    -0.744 OA
ENDBRANCH  65  66
ENDBRANCH  44  58
BRANCH  45  70
ATOM     70  C   UNL A   1      46.354  32.705  28.362  1.00  0.00     0.058 A 
ATOM     71  C   UNL A   1      46.248  33.676  27.354  1.00  0.00     0.135 A 
ATOM     72  C   UNL A   1      46.880  33.104  29.599  1.00  0.00     0.135 A 
ATOM     73  F   UNL A   1      45.754  33.344  26.152  1.00  0.00    -0.206 F 
ATOM     74  C   UNL A   1      46.671  34.986  27.556  1.00  0.00     0.059 A 
ATOM     75  C   UNL A   1      47.283  34.415  29.835  1.00  0.00     0.059 A 
ATOM     76  F   UNL A   1      46.984  32.220  30.603  1.00  0.00    -0.206 F 
ATOM     77  C   UNL A   1      47.186  35.346  28.801  1.00  0.00     0.060 A 
BRANCH  77  78
ATOM     78  S   UNL A   1      47.697  37.058  29.065  1.00  0.00     0.124 S 
ATOM     79  O   UNL A   1      47.110  37.342  30.369  1.00  0.00    -0.237 OA
ATOM     80  O   UNL A   1      49.152  36.953  29.027  1.00  0.00    -0.237 OA
ATOM     81  O   UNL A   1      47.098  37.764  27.936  1.00  0.00    -0.744 OA
ENDBRANCH  77  78
ENDBRANCH  45  70
BRANCH  57  82
ATOM     82  C   UNL A   1      49.566  27.052  25.843  1.00  0.00     0.058 A 
ATOM     83  C   UNL A   1      49.863  27.209  24.479  1.00  0.00     0.135 A 
ATOM     84  C   UNL A   1      50.616  26.698  26.706  1.00  0.00     0.135 A 
ATOM     85  F   UNL A   1      48.896  27.543  23.611  1.00  0.00    -0.206 F 
ATOM     86  C   UNL A   1      51.143  26.977  23.984  1.00  0.00     0.059 A 
ATOM     87  C   UNL A   1      51.910  26.496  26.237  1.00  0.00     0.059 A 
ATOM     88  F   UNL A   1      50.392  26.550  28.021  1.00  0.00    -0.206 F 
ATOM     89  C   UNL A   1      52.159  26.618  24.872  1.00  0.00     0.060 A 
BRANCH  89  90
ATOM     90  S   UNL A   1      53.815  26.320  24.218  1.00  0.00     0.124 S 
ATOM     91  O   UNL A   1      53.585  26.418  22.781  1.00  0.00    -0.237 OA
ATOM     92  O   UNL A   1      54.587  27.408  24.812  1.00  0.00    -0.237 OA
ATOM     93  O   UNL A   1      54.141  24.986  24.712  1.00  0.00    -0.744 OA
ENDBRANCH  89  90
ENDBRANCH  57  82
ENDBRANCH  31  32
ENDBRANCH  23  26
ENDBRANCH  21  22
ENDBRANCH   1  21
TORSDOF 16
ENDMDL
