MODEL 1
REMARK VINA RESULT:     -12.2      0.000      0.000
REMARK SMILES Cc1nonc1C[C@@H](C(=O)NCCCNC(=O)c1ccc(-c2c3nc(c(-c4c(F)cc(S(=O)(=O)[O-])cc4F)c4ccc([nH]4)c(-c4c(F)cc(S(=O)(=O)[O-])cc4F)c4nc(c(-c5c(F)cc(S(=O)(=O)[O-])cc5F)c5ccc2[nH]5)C=C4)C=C3)cc1)c1ccccc1Br
REMARK SMILES IDX 13 1 12 2 11 3 9 4 10 5 8 7 7 8 6 9 1 10 2 11 3 12 4 13 5 14
REMARK SMILES IDX 84 15 85 16 89 17 86 18 88 19 90 20 87 21 14 22 15 23 16 24
REMARK SMILES IDX 17 26 18 27 19 28 83 29 20 30 82 31 21 32 22 33 23 34 76 35
REMARK SMILES IDX 24 36 81 37 75 38 77 39 25 40 80 41 74 42 73 43 26 45 60 46
REMARK SMILES IDX 39 47 59 48 40 49 43 50 58 51 78 52 41 53 42 54 57 56 79 57
REMARK SMILES IDX 44 58 27 59 28 60 37 61 29 62 30 63 36 64 38 65 31 66 32 67
REMARK SMILES IDX 33 68 34 69 35 70 61 71 62 72 71 73 63 74 64 75 70 76 72 77
REMARK SMILES IDX 65 78 66 79 67 80 68 81 69 82 45 83 46 84 55 85 47 86 48 87
REMARK SMILES IDX 54 88 56 89 49 90 50 91 51 92 52 93 53 94
REMARK H PARENT 11 6 15 25 77 44 43 55
REMARK Flexibility Score: inf
ROOT
ATOM      1  C   UNL A   1      37.548  23.267  25.780  1.00  0.00     0.042 C 
ENDROOT
BRANCH   1   2
ATOM      2  C   UNL A   1      36.292  24.131  25.654  1.00  0.00     0.117 C 
BRANCH   2   3
ATOM      3  N   UNL A   1      35.149  23.436  26.227  1.00  0.00    -0.355 N 
ATOM      4  C   UNL A   1      33.825  23.766  26.263  1.00  0.00     0.227 C 
ATOM      5  O   UNL A   1      33.133  23.223  27.130  1.00  0.00    -0.274 OA
ATOM      6  H   UNL A   1      35.368  22.582  26.664  1.00  0.00     0.163 HD
BRANCH   4   7
ATOM      7  C   UNL A   1      33.203  24.692  25.199  1.00  0.00     0.116 C 
BRANCH   7   8
ATOM      8  C   UNL A   1      34.204  24.788  24.020  1.00  0.00     0.080 C 
BRANCH   8   9
ATOM      9  C   UNL A   1      33.653  24.995  22.656  1.00  0.00     0.109 A 
ATOM     10  C   UNL A   1      33.300  27.587  22.470  1.00  0.00     0.073 C 
ATOM     11  C   UNL A   1      33.278  26.186  22.002  1.00  0.00     0.105 A 
ATOM     12  N   UNL A   1      32.903  25.906  20.753  1.00  0.00    -0.055 NA
ATOM     13  O   UNL A   1      33.128  24.543  20.604  1.00  0.00    -0.244 OA
ATOM     14  N   UNL A   1      33.607  23.985  21.785  1.00  0.00    -0.055 NA
ENDBRANCH   8   9
ENDBRANCH   7   8
BRANCH   7  15
ATOM     15  C   UNL A   1      32.896  26.091  25.824  1.00  0.00    -0.021 A 
ATOM     16  C   UNL A   1      33.936  27.019  26.066  1.00  0.00     0.006 A 
ATOM     17  C   UNL A   1      31.601  26.497  26.221  1.00  0.00     0.021 A 
ATOM     18  C   UNL A   1      33.729  28.214  26.762  1.00  0.00     0.000 A 
ATOM     19  C   UNL A   1      31.405  27.678  26.960  1.00  0.00     0.016 A 
ATOM     20  Br  UNL A   1      30.005  25.572  25.750  1.00  0.00    -0.051 Br
ATOM     21  C   UNL A   1      32.469  28.525  27.246  1.00  0.00     0.001 A 
ENDBRANCH   7  15
ENDBRANCH   4   7
ENDBRANCH   2   3
ENDBRANCH   1   2
BRANCH   1  22
ATOM     22  C   UNL A   1      38.618  23.851  26.697  1.00  0.00     0.118 C 
BRANCH  22  23
ATOM     23  N   UNL A   1      39.817  24.224  25.972  1.00  0.00    -0.352 N 
ATOM     24  C   UNL A   1      40.689  25.273  26.139  1.00  0.00     0.251 C 
ATOM     25  H   UNL A   1      40.048  23.620  25.230  1.00  0.00     0.163 HD
ATOM     26  O   UNL A   1      41.503  25.486  25.241  1.00  0.00    -0.269 OA
BRANCH  24  27
ATOM     27  C   UNL A   1      40.680  26.157  27.338  1.00  0.00     0.039 A 
ATOM     28  C   UNL A   1      39.797  25.839  28.378  1.00  0.00     0.014 A 
ATOM     29  C   UNL A   1      41.419  27.339  27.426  1.00  0.00     0.014 A 
ATOM     30  C   UNL A   1      39.667  26.684  29.487  1.00  0.00     0.010 A 
ATOM     31  C   UNL A   1      41.362  28.132  28.579  1.00  0.00     0.010 A 
ATOM     32  C   UNL A   1      40.455  27.838  29.607  1.00  0.00    -0.014 A 
BRANCH  32  33
ATOM     33  C   UNL A   1      40.282  28.769  30.760  1.00  0.00     0.031 A 
ATOM     34  C   UNL A   1      41.151  28.634  31.990  1.00  0.00     0.074 A 
ATOM     35  C   UNL A   1      39.341  29.733  30.718  1.00  0.00     0.049 A 
ATOM     36  N   UNL A   1      41.144  29.344  33.092  1.00  0.00    -0.248 NA
ATOM     37  C   UNL A   1      42.138  27.543  31.993  1.00  0.00     0.031 C 
ATOM     38  C   UNL A   1      38.397  29.948  29.619  1.00  0.00     0.029 A 
ATOM     39  N   UNL A   1      39.024  30.719  31.621  1.00  0.00    -0.354 N 
ATOM     40  C   UNL A   1      42.103  28.771  33.922  1.00  0.00     0.074 A 
ATOM     41  C   UNL A   1      42.635  27.624  33.219  1.00  0.00     0.031 C 
ATOM     42  C   UNL A   1      37.632  31.017  29.897  1.00  0.00     0.029 A 
ATOM     43  C   UNL A   1      38.011  31.549  31.203  1.00  0.00     0.049 A 
ATOM     44  H   UNL A   1      39.481  30.821  32.487  1.00  0.00     0.167 HD
ATOM     45  C   UNL A   1      42.525  29.173  35.146  1.00  0.00     0.037 A 
ATOM     46  C   UNL A   1      37.454  32.622  31.797  1.00  0.00     0.037 A 
ATOM     47  C   UNL A   1      42.033  30.341  35.830  1.00  0.00     0.049 A 
ATOM     48  C   UNL A   1      37.975  33.084  33.131  1.00  0.00     0.074 A 
ATOM     49  C   UNL A   1      42.437  30.861  37.048  1.00  0.00     0.029 A 
ATOM     50  N   UNL A   1      41.037  31.178  35.351  1.00  0.00    -0.354 N 
ATOM     51  N   UNL A   1      38.917  32.557  33.877  1.00  0.00    -0.248 NA
ATOM     52  C   UNL A   1      37.368  34.297  33.697  1.00  0.00     0.031 C 
ATOM     53  C   UNL A   1      41.667  32.000  37.317  1.00  0.00     0.029 A 
ATOM     54  C   UNL A   1      40.810  32.208  36.249  1.00  0.00     0.049 A 
ATOM     55  H   UNL A   1      40.560  31.057  34.499  1.00  0.00     0.167 HD
ATOM     56  C   UNL A   1      39.033  33.388  34.985  1.00  0.00     0.074 A 
ATOM     57  C   UNL A   1      38.077  34.460  34.807  1.00  0.00     0.031 C 
ATOM     58  C   UNL A   1      39.859  33.273  36.056  1.00  0.00     0.037 A 
BRANCH  45  59
ATOM     59  C   UNL A   1      43.588  28.347  35.820  1.00  0.00     0.058 A 
ATOM     60  C   UNL A   1      44.955  28.603  35.626  1.00  0.00     0.135 A 
ATOM     61  C   UNL A   1      43.238  27.300  36.690  1.00  0.00     0.135 A 
ATOM     62  F   UNL A   1      45.347  29.582  34.795  1.00  0.00    -0.206 F 
ATOM     63  C   UNL A   1      45.936  27.830  36.240  1.00  0.00     0.059 A 
ATOM     64  C   UNL A   1      44.203  26.532  37.336  1.00  0.00     0.059 A 
ATOM     65  F   UNL A   1      41.946  27.013  36.915  1.00  0.00    -0.206 F 
ATOM     66  C   UNL A   1      45.550  26.793  37.089  1.00  0.00     0.060 A 
BRANCH  66  67
ATOM     67  S   UNL A   1      46.834  25.795  37.875  1.00  0.00     0.124 S 
ATOM     68  O   UNL A   1      48.003  26.654  37.722  1.00  0.00    -0.237 OA
ATOM     69  O   UNL A   1      46.329  25.648  39.236  1.00  0.00    -0.237 OA
ATOM     70  O   UNL A   1      46.846  24.570  37.080  1.00  0.00    -0.744 OA
ENDBRANCH  66  67
ENDBRANCH  45  59
BRANCH  46  71
ATOM     71  C   UNL A   1      36.364  33.368  31.111  1.00  0.00     0.058 A 
ATOM     72  C   UNL A   1      36.638  34.192  30.009  1.00  0.00     0.135 A 
ATOM     73  C   UNL A   1      35.031  33.263  31.535  1.00  0.00     0.135 A 
ATOM     74  F   UNL A   1      37.899  34.329  29.572  1.00  0.00    -0.206 F 
ATOM     75  C   UNL A   1      35.633  34.900  29.360  1.00  0.00     0.059 A 
ATOM     76  C   UNL A   1      34.004  33.944  30.888  1.00  0.00     0.059 A 
ATOM     77  F   UNL A   1      34.716  32.476  32.575  1.00  0.00    -0.206 F 
ATOM     78  C   UNL A   1      34.317  34.769  29.808  1.00  0.00     0.060 A 
BRANCH  78  79
ATOM     79  S   UNL A   1      33.009  35.652  28.928  1.00  0.00     0.124 S 
ATOM     80  O   UNL A   1      32.151  36.077  30.027  1.00  0.00    -0.237 OA
ATOM     81  O   UNL A   1      33.751  36.711  28.251  1.00  0.00    -0.237 OA
ATOM     82  O   UNL A   1      32.449  34.630  28.047  1.00  0.00    -0.744 OA
ENDBRANCH  78  79
ENDBRANCH  46  71
BRANCH  58  83
ATOM     83  C   UNL A   1      39.788  34.357  37.095  1.00  0.00     0.058 A 
ATOM     84  C   UNL A   1      38.984  34.233  38.239  1.00  0.00     0.135 A 
ATOM     85  C   UNL A   1      40.546  35.531  36.949  1.00  0.00     0.135 A 
ATOM     86  F   UNL A   1      38.239  33.133  38.425  1.00  0.00    -0.206 F 
ATOM     87  C   UNL A   1      38.903  35.253  39.182  1.00  0.00     0.059 A 
ATOM     88  C   UNL A   1      40.498  36.552  37.893  1.00  0.00     0.059 A 
ATOM     89  F   UNL A   1      41.342  35.694  35.881  1.00  0.00    -0.206 F 
ATOM     90  C   UNL A   1      39.657  36.412  38.996  1.00  0.00     0.060 A 
BRANCH  90  91
ATOM     91  S   UNL A   1      39.542  37.733  40.222  1.00  0.00     0.124 S 
ATOM     92  O   UNL A   1      38.530  38.597  39.626  1.00  0.00    -0.237 OA
ATOM     93  O   UNL A   1      39.133  37.014  41.425  1.00  0.00    -0.237 OA
ATOM     94  O   UNL A   1      40.895  38.280  40.258  1.00  0.00    -0.744 OA
ENDBRANCH  90  91
ENDBRANCH  58  83
ENDBRANCH  32  33
ENDBRANCH  24  27
ENDBRANCH  22  23
ENDBRANCH   1  22
TORSDOF 16
ENDMDL
MODEL 2
REMARK VINA RESULT:     -12.0      6.884     12.218
REMARK SMILES Cc1nonc1C[C@@H](C(=O)NCCCNC(=O)c1ccc(-c2c3nc(c(-c4c(F)cc(S(=O)(=O)[O-])cc4F)c4ccc([nH]4)c(-c4c(F)cc(S(=O)(=O)[O-])cc4F)c4nc(c(-c5c(F)cc(S(=O)(=O)[O-])cc5F)c5ccc2[nH]5)C=C4)C=C3)cc1)c1ccccc1Br
REMARK SMILES IDX 13 1 12 2 11 3 9 4 10 5 8 7 7 8 6 9 1 10 2 11 3 12 4 13 5 14
REMARK SMILES IDX 84 15 85 16 89 17 86 18 88 19 90 20 87 21 14 22 15 23 16 24
REMARK SMILES IDX 17 26 18 27 19 28 83 29 20 30 82 31 21 32 22 33 23 34 76 35
REMARK SMILES IDX 24 36 81 37 75 38 77 39 25 40 80 41 74 42 73 43 26 45 60 46
REMARK SMILES IDX 39 47 59 48 40 49 43 50 58 51 78 52 41 53 42 54 57 56 79 57
REMARK SMILES IDX 44 58 27 59 28 60 37 61 29 62 30 63 36 64 38 65 31 66 32 67
REMARK SMILES IDX 33 68 34 69 35 70 61 71 62 72 71 73 63 74 64 75 70 76 72 77
REMARK SMILES IDX 65 78 66 79 67 80 68 81 69 82 45 83 46 84 55 85 47 86 48 87
REMARK SMILES IDX 54 88 56 89 49 90 50 91 51 92 52 93 53 94
REMARK H PARENT 11 6 15 25 77 44 43 55
REMARK Flexibility Score: inf
ROOT
ATOM      1  C   UNL A   1      33.967  29.503  27.376  1.00  0.00     0.042 C 
ENDROOT
BRANCH   1   2
ATOM      2  C   UNL A   1      33.898  28.193  26.588  1.00  0.00     0.117 C 
BRANCH   2   3
ATOM      3  N   UNL A   1      32.661  27.490  26.897  1.00  0.00    -0.355 N 
ATOM      4  C   UNL A   1      32.004  26.498  26.228  1.00  0.00     0.227 C 
ATOM      5  O   UNL A   1      30.803  26.351  26.479  1.00  0.00    -0.274 OA
ATOM      6  H   UNL A   1      32.224  27.780  27.729  1.00  0.00     0.163 HD
BRANCH   4   7
ATOM      7  C   UNL A   1      32.753  25.537  25.286  1.00  0.00     0.116 C 
BRANCH   7   8
ATOM      8  C   UNL A   1      31.846  25.288  24.054  1.00  0.00     0.080 C 
BRANCH   8   9
ATOM      9  C   UNL A   1      32.501  24.939  22.768  1.00  0.00     0.109 A 
ATOM     10  C   UNL A   1      32.711  22.325  22.818  1.00  0.00     0.073 C 
ATOM     11  C   UNL A   1      32.859  23.678  22.246  1.00  0.00     0.105 A 
ATOM     12  N   UNL A   1      33.360  23.834  21.019  1.00  0.00    -0.055 NA
ATOM     13  O   UNL A   1      33.233  25.189  20.745  1.00  0.00    -0.244 OA
ATOM     14  N   UNL A   1      32.686  25.869  21.828  1.00  0.00    -0.055 NA
ENDBRANCH   8   9
ENDBRANCH   7   8
BRANCH   7  15
ATOM     15  C   UNL A   1      33.097  24.211  26.039  1.00  0.00    -0.021 A 
ATOM     16  C   UNL A   1      32.147  23.593  26.885  1.00  0.00     0.006 A 
ATOM     17  C   UNL A   1      34.361  23.581  25.966  1.00  0.00     0.021 A 
ATOM     18  C   UNL A   1      32.463  22.497  27.695  1.00  0.00     0.000 A 
ATOM     19  C   UNL A   1      34.688  22.509  26.815  1.00  0.00     0.016 A 
ATOM     20  Br  UNL A   1      35.703  24.036  24.694  1.00  0.00    -0.051 Br
ATOM     21  C   UNL A   1      33.747  21.980  27.690  1.00  0.00     0.001 A 
ENDBRANCH   7  15
ENDBRANCH   4   7
ENDBRANCH   2   3
ENDBRANCH   1   2
BRANCH   1  22
ATOM     22  C   UNL A   1      35.369  29.870  27.854  1.00  0.00     0.118 C 
BRANCH  22  23
ATOM     23  N   UNL A   1      35.405  30.152  29.276  1.00  0.00    -0.352 N 
ATOM     24  C   UNL A   1      36.414  30.025  30.201  1.00  0.00     0.251 C 
ATOM     25  H   UNL A   1      34.559  30.495  29.644  1.00  0.00     0.163 HD
ATOM     26  O   UNL A   1      36.112  30.120  31.390  1.00  0.00    -0.269 OA
BRANCH  24  27
ATOM     27  C   UNL A   1      37.833  29.770  29.828  1.00  0.00     0.039 A 
ATOM     28  C   UNL A   1      38.192  29.915  28.480  1.00  0.00     0.014 A 
ATOM     29  C   UNL A   1      38.789  29.287  30.725  1.00  0.00     0.014 A 
ATOM     30  C   UNL A   1      39.484  29.592  28.048  1.00  0.00     0.010 A 
ATOM     31  C   UNL A   1      40.106  29.059  30.311  1.00  0.00     0.010 A 
ATOM     32  C   UNL A   1      40.463  29.169  28.959  1.00  0.00    -0.014 A 
BRANCH  32  33
ATOM     33  C   UNL A   1      41.823  28.773  28.494  1.00  0.00     0.031 A 
ATOM     34  C   UNL A   1      42.939  29.792  28.435  1.00  0.00     0.074 A 
ATOM     35  C   UNL A   1      42.068  27.503  28.113  1.00  0.00     0.049 A 
ATOM     36  N   UNL A   1      44.183  29.639  28.054  1.00  0.00    -0.248 NA
ATOM     37  C   UNL A   1      42.605  31.170  28.832  1.00  0.00     0.031 C 
ATOM     38  C   UNL A   1      41.076  26.427  28.068  1.00  0.00     0.029 A 
ATOM     39  N   UNL A   1      43.228  26.899  27.695  1.00  0.00    -0.354 N 
ATOM     40  C   UNL A   1      44.769  30.898  28.142  1.00  0.00     0.074 A 
ATOM     41  C   UNL A   1      43.731  31.815  28.562  1.00  0.00     0.031 C 
ATOM     42  C   UNL A   1      41.676  25.290  27.680  1.00  0.00     0.029 A 
ATOM     43  C   UNL A   1      43.088  25.558  27.422  1.00  0.00     0.049 A 
ATOM     44  H   UNL A   1      44.081  27.381  27.599  1.00  0.00     0.167 HD
ATOM     45  C   UNL A   1      46.056  31.261  27.920  1.00  0.00     0.037 A 
ATOM     46  C   UNL A   1      43.994  24.645  27.019  1.00  0.00     0.037 A 
ATOM     47  C   UNL A   1      47.104  30.345  27.549  1.00  0.00     0.049 A 
ATOM     48  C   UNL A   1      45.428  25.057  26.832  1.00  0.00     0.074 A 
ATOM     49  C   UNL A   1      48.449  30.606  27.355  1.00  0.00     0.029 A 
ATOM     50  N   UNL A   1      46.926  28.988  27.324  1.00  0.00    -0.354 N 
ATOM     51  N   UNL A   1      45.971  26.244  26.969  1.00  0.00    -0.248 NA
ATOM     52  C   UNL A   1      46.378  24.002  26.453  1.00  0.00     0.031 C 
ATOM     53  C   UNL A   1      49.081  29.411  26.990  1.00  0.00     0.029 A 
ATOM     54  C   UNL A   1      48.135  28.399  26.992  1.00  0.00     0.049 A 
ATOM     55  H   UNL A   1      46.066  28.513  27.391  1.00  0.00     0.167 HD
ATOM     56  C   UNL A   1      47.327  26.072  26.717  1.00  0.00     0.074 A 
ATOM     57  C   UNL A   1      47.526  24.666  26.435  1.00  0.00     0.031 C 
ATOM     58  C   UNL A   1      48.321  26.997  26.721  1.00  0.00     0.037 A 
BRANCH  45  59
ATOM     59  C   UNL A   1      46.408  32.715  28.091  1.00  0.00     0.058 A 
ATOM     60  C   UNL A   1      46.213  33.647  27.058  1.00  0.00     0.135 A 
ATOM     61  C   UNL A   1      46.923  33.189  29.308  1.00  0.00     0.135 A 
ATOM     62  F   UNL A   1      45.736  33.246  25.869  1.00  0.00    -0.206 F 
ATOM     63  C   UNL A   1      46.550  34.987  27.213  1.00  0.00     0.059 A 
ATOM     64  C   UNL A   1      47.241  34.532  29.494  1.00  0.00     0.059 A 
ATOM     65  F   UNL A   1      47.127  32.344  30.331  1.00  0.00    -0.206 F 
ATOM     66  C   UNL A   1      47.069  35.420  28.433  1.00  0.00     0.060 A 
BRANCH  66  67
ATOM     67  S   UNL A   1      47.507  37.162  28.618  1.00  0.00     0.124 S 
ATOM     68  O   UNL A   1      46.651  37.784  27.613  1.00  0.00    -0.237 OA
ATOM     69  O   UNL A   1      47.149  37.431  30.008  1.00  0.00    -0.237 OA
ATOM     70  O   UNL A   1      48.937  37.186  28.327  1.00  0.00    -0.744 OA
ENDBRANCH  66  67
ENDBRANCH  45  59
BRANCH  46  71
ATOM     71  C   UNL A   1      43.578  23.232  26.808  1.00  0.00     0.058 A 
ATOM     72  C   UNL A   1      43.483  22.694  25.516  1.00  0.00     0.135 A 
ATOM     73  C   UNL A   1      43.279  22.392  27.891  1.00  0.00     0.135 A 
ATOM     74  F   UNL A   1      43.752  23.462  24.449  1.00  0.00    -0.206 F 
ATOM     75  C   UNL A   1      43.090  21.378  25.301  1.00  0.00     0.059 A 
ATOM     76  C   UNL A   1      42.905  21.064  27.702  1.00  0.00     0.059 A 
ATOM     77  F   UNL A   1      43.370  22.855  29.146  1.00  0.00    -0.206 F 
ATOM     78  C   UNL A   1      42.804  20.570  26.402  1.00  0.00     0.060 A 
BRANCH  78  79
ATOM     79  S   UNL A   1      42.343  18.846  26.117  1.00  0.00     0.124 S 
ATOM     80  O   UNL A   1      43.288  18.458  25.077  1.00  0.00    -0.237 OA
ATOM     81  O   UNL A   1      42.558  18.247  27.431  1.00  0.00    -0.237 OA
ATOM     82  O   UNL A   1      40.946  18.937  25.701  1.00  0.00    -0.744 OA
ENDBRANCH  78  79
ENDBRANCH  46  71
BRANCH  58  83
ATOM     83  C   UNL A   1      49.715  26.506  26.447  1.00  0.00     0.058 A 
ATOM     84  C   UNL A   1      50.244  26.467  25.148  1.00  0.00     0.135 A 
ATOM     85  C   UNL A   1      50.537  26.081  27.504  1.00  0.00     0.135 A 
ATOM     86  F   UNL A   1      49.498  26.861  24.103  1.00  0.00    -0.206 F 
ATOM     87  C   UNL A   1      51.525  25.985  24.900  1.00  0.00     0.059 A 
ATOM     88  C   UNL A   1      51.831  25.618  27.280  1.00  0.00     0.059 A 
ATOM     89  F   UNL A   1      50.086  26.111  28.767  1.00  0.00    -0.206 F 
ATOM     90  C   UNL A   1      52.308  25.555  25.972  1.00  0.00     0.060 A 
BRANCH  90  91
ATOM     91  S   UNL A   1      53.968  24.926  25.642  1.00  0.00     0.124 S 
ATOM     92  O   UNL A   1      53.695  23.527  25.333  1.00  0.00    -0.237 OA
ATOM     93  O   UNL A   1      54.402  25.750  24.518  1.00  0.00    -0.237 OA
ATOM     94  O   UNL A   1      54.677  25.166  26.896  1.00  0.00    -0.744 OA
ENDBRANCH  90  91
ENDBRANCH  58  83
ENDBRANCH  32  33
ENDBRANCH  24  27
ENDBRANCH  22  23
ENDBRANCH   1  22
TORSDOF 16
ENDMDL
MODEL 3
REMARK VINA RESULT:     -12.0      5.007     10.450
REMARK SMILES Cc1nonc1C[C@@H](C(=O)NCCCNC(=O)c1ccc(-c2c3nc(c(-c4c(F)cc(S(=O)(=O)[O-])cc4F)c4ccc([nH]4)c(-c4c(F)cc(S(=O)(=O)[O-])cc4F)c4nc(c(-c5c(F)cc(S(=O)(=O)[O-])cc5F)c5ccc2[nH]5)C=C4)C=C3)cc1)c1ccccc1Br
REMARK SMILES IDX 13 1 12 2 11 3 9 4 10 5 8 7 7 8 6 9 1 10 2 11 3 12 4 13 5 14
REMARK SMILES IDX 84 15 85 16 89 17 86 18 88 19 90 20 87 21 14 22 15 23 16 24
REMARK SMILES IDX 17 26 18 27 19 28 83 29 20 30 82 31 21 32 22 33 23 34 76 35
REMARK SMILES IDX 24 36 81 37 75 38 77 39 25 40 80 41 74 42 73 43 26 45 60 46
REMARK SMILES IDX 39 47 59 48 40 49 43 50 58 51 78 52 41 53 42 54 57 56 79 57
REMARK SMILES IDX 44 58 27 59 28 60 37 61 29 62 30 63 36 64 38 65 31 66 32 67
REMARK SMILES IDX 33 68 34 69 35 70 61 71 62 72 71 73 63 74 64 75 70 76 72 77
REMARK SMILES IDX 65 78 66 79 67 80 68 81 69 82 45 83 46 84 55 85 47 86 48 87
REMARK SMILES IDX 54 88 56 89 49 90 50 91 51 92 52 93 53 94
REMARK H PARENT 11 6 15 25 77 44 43 55
REMARK Flexibility Score: inf
ROOT
ATOM      1  C   UNL A   1      32.804  28.065  25.865  1.00  0.00     0.042 C 
ENDROOT
BRANCH   1   2
ATOM      2  C   UNL A   1      31.443  27.368  25.877  1.00  0.00     0.117 C 
BRANCH   2   3
ATOM      3  N   UNL A   1      31.498  26.180  26.717  1.00  0.00    -0.355 N 
ATOM      4  C   UNL A   1      31.695  24.867  26.401  1.00  0.00     0.227 C 
ATOM      5  O   UNL A   1      31.312  24.027  27.221  1.00  0.00    -0.274 OA
ATOM      6  H   UNL A   1      31.370  26.354  27.678  1.00  0.00     0.163 HD
BRANCH   4   7
ATOM      7  C   UNL A   1      32.460  24.458  25.128  1.00  0.00     0.116 C 
BRANCH   7   8
ATOM      8  C   UNL A   1      31.528  24.721  23.917  1.00  0.00     0.080 C 
BRANCH   8   9
ATOM      9  C   UNL A   1      32.159  24.946  22.591  1.00  0.00     0.109 A 
ATOM     10  C   UNL A   1      32.080  27.546  22.253  1.00  0.00     0.073 C 
ATOM     11  C   UNL A   1      32.396  26.148  21.893  1.00  0.00     0.105 A 
ATOM     12  N   UNL A   1      33.057  25.881  20.766  1.00  0.00    -0.055 NA
ATOM     13  O   UNL A   1      33.305  24.516  20.806  1.00  0.00    -0.244 OA
ATOM     14  N   UNL A   1      32.757  23.942  21.948  1.00  0.00    -0.055 NA
ENDBRANCH   8   9
ENDBRANCH   7   8
BRANCH   7  15
ATOM     15  C   UNL A   1      32.891  22.959  25.223  1.00  0.00    -0.021 A 
ATOM     16  C   UNL A   1      31.992  21.924  24.871  1.00  0.00     0.006 A 
ATOM     17  C   UNL A   1      34.157  22.543  25.697  1.00  0.00     0.021 A 
ATOM     18  C   UNL A   1      32.281  20.573  25.088  1.00  0.00     0.000 A 
ATOM     19  C   UNL A   1      34.425  21.186  25.955  1.00  0.00     0.016 A 
ATOM     20  Br  UNL A   1      35.633  23.716  25.957  1.00  0.00    -0.051 Br
ATOM     21  C   UNL A   1      33.483  20.206  25.668  1.00  0.00     0.001 A 
ENDBRANCH   7  15
ENDBRANCH   4   7
ENDBRANCH   2   3
ENDBRANCH   1   2
BRANCH   1  22
ATOM     22  C   UNL A   1      33.394  28.307  27.251  1.00  0.00     0.118 C 
BRANCH  22  23
ATOM     23  N   UNL A   1      33.442  29.717  27.587  1.00  0.00    -0.352 N 
ATOM     24  C   UNL A   1      34.446  30.490  28.118  1.00  0.00     0.251 C 
ATOM     25  H   UNL A   1      32.608  30.207  27.401  1.00  0.00     0.163 HD
ATOM     26  O   UNL A   1      34.148  31.616  28.517  1.00  0.00    -0.269 OA
BRANCH  24  27
ATOM     27  C   UNL A   1      35.855  30.023  28.241  1.00  0.00     0.039 A 
ATOM     28  C   UNL A   1      36.284  29.557  29.491  1.00  0.00     0.014 A 
ATOM     29  C   UNL A   1      36.793  30.132  27.211  1.00  0.00     0.014 A 
ATOM     30  C   UNL A   1      37.622  29.200  29.699  1.00  0.00     0.010 A 
ATOM     31  C   UNL A   1      38.106  29.683  27.390  1.00  0.00     0.010 A 
ATOM     32  C   UNL A   1      38.550  29.249  28.648  1.00  0.00    -0.014 A 
BRANCH  32  33
ATOM     33  C   UNL A   1      39.987  28.920  28.878  1.00  0.00     0.031 A 
ATOM     34  C   UNL A   1      40.914  29.939  29.503  1.00  0.00     0.074 A 
ATOM     35  C   UNL A   1      40.473  27.715  28.521  1.00  0.00     0.049 A 
ATOM     36  N   UNL A   1      42.192  29.839  29.776  1.00  0.00    -0.248 NA
ATOM     37  C   UNL A   1      40.335  31.249  29.841  1.00  0.00     0.031 C 
ATOM     38  C   UNL A   1      39.708  26.655  27.861  1.00  0.00     0.029 A 
ATOM     39  N   UNL A   1      41.727  27.174  28.667  1.00  0.00    -0.354 N 
ATOM     40  C   UNL A   1      42.571  31.075  30.292  1.00  0.00     0.074 A 
ATOM     41  C   UNL A   1      41.400  31.925  30.246  1.00  0.00     0.031 C 
ATOM     42  C   UNL A   1      40.498  25.582  27.691  1.00  0.00     0.029 A 
ATOM     43  C   UNL A   1      41.832  25.883  28.204  1.00  0.00     0.049 A 
ATOM     44  H   UNL A   1      42.481  27.665  29.066  1.00  0.00     0.167 HD
ATOM     45  C   UNL A   1      43.772  31.464  30.785  1.00  0.00     0.037 A 
ATOM     46  C   UNL A   1      42.878  25.034  28.200  1.00  0.00     0.037 A 
ATOM     47  C   UNL A   1      44.926  30.608  30.878  1.00  0.00     0.049 A 
ATOM     48  C   UNL A   1      44.187  25.468  28.801  1.00  0.00     0.074 A 
ATOM     49  C   UNL A   1      46.171  30.894  31.412  1.00  0.00     0.029 A 
ATOM     50  N   UNL A   1      44.975  29.295  30.436  1.00  0.00    -0.354 N 
ATOM     51  N   UNL A   1      44.509  26.625  29.329  1.00  0.00    -0.248 NA
ATOM     52  C   UNL A   1      45.270  24.475  28.822  1.00  0.00     0.031 C 
ATOM     53  C   UNL A   1      46.981  29.760  31.270  1.00  0.00     0.029 A 
ATOM     54  C   UNL A   1      46.228  28.758  30.682  1.00  0.00     0.049 A 
ATOM     55  H   UNL A   1      44.229  28.815  30.009  1.00  0.00     0.167 HD
ATOM     56  C   UNL A   1      45.821  26.490  29.767  1.00  0.00     0.074 A 
ATOM     57  C   UNL A   1      46.229  25.135  29.457  1.00  0.00     0.031 C 
ATOM     58  C   UNL A   1      46.618  27.406  30.374  1.00  0.00     0.037 A 
BRANCH  45  59
ATOM     59  C   UNL A   1      43.894  32.882  31.278  1.00  0.00     0.058 A 
ATOM     60  C   UNL A   1      43.559  33.235  32.596  1.00  0.00     0.135 A 
ATOM     61  C   UNL A   1      44.373  33.896  30.433  1.00  0.00     0.135 A 
ATOM     62  F   UNL A   1      43.083  32.309  33.443  1.00  0.00    -0.206 F 
ATOM     63  C   UNL A   1      43.660  34.548  33.047  1.00  0.00     0.059 A 
ATOM     64  C   UNL A   1      44.508  35.211  30.871  1.00  0.00     0.059 A 
ATOM     65  F   UNL A   1      44.711  33.615  29.164  1.00  0.00    -0.206 F 
ATOM     66  C   UNL A   1      44.130  35.530  32.175  1.00  0.00     0.060 A 
BRANCH  66  67
ATOM     67  S   UNL A   1      44.251  37.230  32.772  1.00  0.00     0.124 S 
ATOM     68  O   UNL A   1      43.098  37.307  33.662  1.00  0.00    -0.237 OA
ATOM     69  O   UNL A   1      45.557  37.243  33.424  1.00  0.00    -0.237 OA
ATOM     70  O   UNL A   1      44.157  38.026  31.551  1.00  0.00    -0.744 OA
ENDBRANCH  66  67
ENDBRANCH  45  59
BRANCH  46  71
ATOM     71  C   UNL A   1      42.718  23.664  27.644  1.00  0.00     0.058 A 
ATOM     72  C   UNL A   1      42.418  22.577  28.481  1.00  0.00     0.135 A 
ATOM     73  C   UNL A   1      42.851  23.414  26.270  1.00  0.00     0.135 A 
ATOM     74  F   UNL A   1      42.289  22.766  29.803  1.00  0.00    -0.206 F 
ATOM     75  C   UNL A   1      42.271  21.289  27.979  1.00  0.00     0.059 A 
ATOM     76  C   UNL A   1      42.685  22.137  25.741  1.00  0.00     0.059 A 
ATOM     77  F   UNL A   1      43.121  24.422  25.427  1.00  0.00    -0.206 F 
ATOM     78  C   UNL A   1      42.406  21.079  26.605  1.00  0.00     0.060 A 
BRANCH  78  79
ATOM     79  S   UNL A   1      42.163  19.411  25.954  1.00  0.00     0.124 S 
ATOM     80  O   UNL A   1      42.988  19.443  24.752  1.00  0.00    -0.237 OA
ATOM     81  O   UNL A   1      42.658  18.578  27.046  1.00  0.00    -0.237 OA
ATOM     82  O   UNL A   1      40.721  19.346  25.731  1.00  0.00    -0.744 OA
ENDBRANCH  78  79
ENDBRANCH  46  71
BRANCH  58  83
ATOM     83  C   UNL A   1      47.997  26.957  30.774  1.00  0.00     0.058 A 
ATOM     84  C   UNL A   1      48.237  26.308  31.996  1.00  0.00     0.135 A 
ATOM     85  C   UNL A   1      49.089  27.169  29.917  1.00  0.00     0.135 A 
ATOM     86  F   UNL A   1      47.228  26.084  32.852  1.00  0.00    -0.206 F 
ATOM     87  C   UNL A   1      49.520  25.921  32.371  1.00  0.00     0.059 A 
ATOM     88  C   UNL A   1      50.375  26.767  30.262  1.00  0.00     0.059 A 
ATOM     89  F   UNL A   1      48.911  27.772  28.732  1.00  0.00    -0.206 F 
ATOM     90  C   UNL A   1      50.584  26.162  31.501  1.00  0.00     0.060 A 
BRANCH  90  91
ATOM     91  S   UNL A   1      52.246  25.661  31.997  1.00  0.00     0.124 S 
ATOM     92  O   UNL A   1      53.015  25.969  30.797  1.00  0.00    -0.237 OA
ATOM     93  O   UNL A   1      52.504  26.516  33.152  1.00  0.00    -0.237 OA
ATOM     94  O   UNL A   1      52.095  24.241  32.300  1.00  0.00    -0.744 OA
ENDBRANCH  90  91
ENDBRANCH  58  83
ENDBRANCH  32  33
ENDBRANCH  24  27
ENDBRANCH  22  23
ENDBRANCH   1  22
TORSDOF 16
ENDMDL
