MODEL 1
REMARK VINA RESULT:     -10.8      0.000      0.000
REMARK SMILES C[C@H]1CC[C@@](CCOCCO)(C(=O)NCCCNC(=O)c2ccc(-c3c4nc(c(-c5c(F)cc(S(=O)(=O)[O-])cc5F)c5ccc([nH]5)c(-c5c(F)cc(S(=O)(=O)[O-])cc5F)c5nc(c(-c6c(F)cc(S(=O)(=O)[O-])cc6F)c6ccc3[nH]6)C=C5)C=C4)cc2)C1
REMARK SMILES IDX 12 1 13 2 14 3 5 5 1 6 2 7 3 8 87 9 4 10 6 11 7 12 8 13 9 14
REMARK SMILES IDX 10 15 11 16 15 18 16 19 17 20 18 21 19 22 20 24 21 25 22 26
REMARK SMILES IDX 86 27 23 28 85 29 24 30 25 31 26 32 79 33 27 34 84 35 78 36
REMARK SMILES IDX 80 37 28 38 83 39 77 40 76 41 29 43 63 44 42 45 62 46 43 47
REMARK SMILES IDX 46 48 61 49 81 50 44 51 45 52 60 54 82 55 47 56 30 57 31 58
REMARK SMILES IDX 40 59 32 60 33 61 39 62 41 63 34 64 35 65 36 66 37 67 38 68
REMARK SMILES IDX 64 69 65 70 74 71 66 72 67 73 73 74 75 75 68 76 69 77 70 78
REMARK SMILES IDX 71 79 72 80 48 81 49 82 58 83 50 84 51 85 57 86 59 87 52 88
REMARK SMILES IDX 53 89 54 90 55 91 56 92
REMARK H PARENT 14 4 11 17 18 23 80 42 46 53
REMARK Flexibility Score: inf
ROOT
ATOM      1  C   UNL A   1      34.664  22.482  26.681  1.00  0.00     0.226 C 
ATOM      2  O   UNL A   1      34.103  22.248  27.765  1.00  0.00    -0.274 OA
ATOM      3  N   UNL A   1      35.926  21.978  26.621  1.00  0.00    -0.356 N 
ATOM      4  H   UNL A   1      36.347  21.920  27.509  1.00  0.00     0.163 HD
ENDROOT
BRANCH   1   5
ATOM      5  C   UNL A   1      33.924  23.377  25.634  1.00  0.00     0.052 C 
ATOM      6  C   UNL A   1      31.884  26.556  26.416  1.00  0.00     0.007 C 
ATOM      7  C   UNL A   1      32.585  25.458  25.628  1.00  0.00    -0.013 C 
ATOM      8  C   UNL A   1      33.995  25.863  25.228  1.00  0.00     0.004 C 
ATOM      9  C   UNL A   1      32.776  24.139  26.389  1.00  0.00     0.020 C 
ATOM     10  C   UNL A   1      34.832  24.589  25.259  1.00  0.00     0.017 C 
BRANCH   5  11
ATOM     11  C   UNL A   1      33.337  22.687  24.388  1.00  0.00     0.045 C 
BRANCH  11  12
ATOM     12  C   UNL A   1      31.931  22.063  24.462  1.00  0.00     0.161 C 
BRANCH  12  13
ATOM     13  O   UNL A   1      31.809  20.700  24.842  1.00  0.00    -0.379 OA
BRANCH  13  14
ATOM     14  C   UNL A   1      32.992  19.914  24.996  1.00  0.00     0.188 C 
BRANCH  14  15
ATOM     15  C   UNL A   1      32.787  18.429  25.289  1.00  0.00     0.184 C 
BRANCH  15  16
ATOM     16  O   UNL A   1      32.788  18.122  26.675  1.00  0.00    -0.394 OA
ATOM     17  H   UNL A   1      33.641  18.379  27.062  1.00  0.00     0.210 HD
ENDBRANCH  15  16
ENDBRANCH  14  15
ENDBRANCH  13  14
ENDBRANCH  12  13
ENDBRANCH  11  12
ENDBRANCH   5  11
ENDBRANCH   1   5
BRANCH   3  18
ATOM     18  C   UNL A   1      36.806  21.504  25.558  1.00  0.00     0.117 C 
BRANCH  18  19
ATOM     19  C   UNL A   1      38.073  22.328  25.274  1.00  0.00     0.042 C 
BRANCH  19  20
ATOM     20  C   UNL A   1      38.460  23.389  26.306  1.00  0.00     0.118 C 
BRANCH  20  21
ATOM     21  N   UNL A   1      39.887  23.295  26.588  1.00  0.00    -0.352 N 
ATOM     22  C   UNL A   1      40.820  24.228  26.961  1.00  0.00     0.251 C 
ATOM     23  H   UNL A   1      40.252  22.386  26.492  1.00  0.00     0.163 HD
ATOM     24  O   UNL A   1      41.993  23.997  26.662  1.00  0.00    -0.269 OA
BRANCH  22  25
ATOM     25  C   UNL A   1      40.508  25.448  27.753  1.00  0.00     0.039 A 
ATOM     26  C   UNL A   1      41.521  26.413  27.886  1.00  0.00     0.014 A 
ATOM     27  C   UNL A   1      39.355  25.573  28.532  1.00  0.00     0.014 A 
ATOM     28  C   UNL A   1      41.405  27.457  28.812  1.00  0.00     0.010 A 
ATOM     29  C   UNL A   1      39.221  26.645  29.430  1.00  0.00     0.010 A 
ATOM     30  C   UNL A   1      40.260  27.574  29.612  1.00  0.00    -0.014 A 
BRANCH  30  31
ATOM     31  C   UNL A   1      40.193  28.593  30.703  1.00  0.00     0.031 A 
ATOM     32  C   UNL A   1      41.137  28.503  31.879  1.00  0.00     0.074 A 
ATOM     33  C   UNL A   1      39.300  29.600  30.652  1.00  0.00     0.049 A 
ATOM     34  N   UNL A   1      41.196  29.246  32.957  1.00  0.00    -0.248 NA
ATOM     35  C   UNL A   1      42.137  27.425  31.842  1.00  0.00     0.031 C 
ATOM     36  C   UNL A   1      38.335  29.823  29.577  1.00  0.00     0.029 A 
ATOM     37  N   UNL A   1      39.059  30.629  31.532  1.00  0.00    -0.354 N 
ATOM     38  C   UNL A   1      42.217  28.710  33.737  1.00  0.00     0.074 A 
ATOM     39  C   UNL A   1      42.727  27.561  33.021  1.00  0.00     0.031 C 
ATOM     40  C   UNL A   1      37.618  30.925  29.851  1.00  0.00     0.029 A 
ATOM     41  C   UNL A   1      38.047  31.472  31.136  1.00  0.00     0.049 A 
ATOM     42  H   UNL A   1      39.565  30.751  32.368  1.00  0.00     0.167 HD
ATOM     43  C   UNL A   1      42.699  29.140  34.929  1.00  0.00     0.037 A 
ATOM     44  C   UNL A   1      37.521  32.558  31.738  1.00  0.00     0.037 A 
ATOM     45  C   UNL A   1      42.223  30.306  35.629  1.00  0.00     0.049 A 
ATOM     46  C   UNL A   1      38.070  33.020  33.061  1.00  0.00     0.074 A 
ATOM     47  C   UNL A   1      42.667  30.833  36.831  1.00  0.00     0.029 A 
ATOM     48  N   UNL A   1      41.203  31.135  35.186  1.00  0.00    -0.354 N 
ATOM     49  N   UNL A   1      39.038  32.501  33.780  1.00  0.00    -0.248 NA
ATOM     50  C   UNL A   1      37.459  34.219  33.654  1.00  0.00     0.031 C 
ATOM     51  C   UNL A   1      41.899  31.966  37.125  1.00  0.00     0.029 A 
ATOM     52  C   UNL A   1      41.002  32.165  36.090  1.00  0.00     0.049 A 
ATOM     53  H   UNL A   1      40.698  31.009  34.350  1.00  0.00     0.167 HD
ATOM     54  C   UNL A   1      39.170  33.326  34.891  1.00  0.00     0.074 A 
ATOM     55  C   UNL A   1      38.187  34.380  34.751  1.00  0.00     0.031 C 
ATOM     56  C   UNL A   1      40.031  33.220  35.934  1.00  0.00     0.037 A 
BRANCH  43  57
ATOM     57  C   UNL A   1      43.801  28.332  35.560  1.00  0.00     0.058 A 
ATOM     58  C   UNL A   1      45.150  28.540  35.230  1.00  0.00     0.135 A 
ATOM     59  C   UNL A   1      43.506  27.339  36.508  1.00  0.00     0.135 A 
ATOM     60  F   UNL A   1      45.488  29.470  34.322  1.00  0.00    -0.206 F 
ATOM     61  C   UNL A   1      46.163  27.762  35.781  1.00  0.00     0.059 A 
ATOM     62  C   UNL A   1      44.506  26.566  37.093  1.00  0.00     0.059 A 
ATOM     63  F   UNL A   1      42.235  27.102  36.868  1.00  0.00    -0.206 F 
ATOM     64  C   UNL A   1      45.830  26.770  36.705  1.00  0.00     0.060 A 
BRANCH  64  65
ATOM     65  S   UNL A   1      47.148  25.742  37.388  1.00  0.00     0.124 S 
ATOM     66  O   UNL A   1      46.503  25.202  38.582  1.00  0.00    -0.237 OA
ATOM     67  O   UNL A   1      47.395  24.786  36.314  1.00  0.00    -0.237 OA
ATOM     68  O   UNL A   1      48.226  26.694  37.634  1.00  0.00    -0.744 OA
ENDBRANCH  64  65
ENDBRANCH  43  57
BRANCH  44  69
ATOM     69  C   UNL A   1      36.424  33.309  31.073  1.00  0.00     0.058 A 
ATOM     70  C   UNL A   1      35.118  33.272  31.583  1.00  0.00     0.135 A 
ATOM     71  C   UNL A   1      36.660  34.089  29.931  1.00  0.00     0.135 A 
ATOM     72  F   UNL A   1      34.843  32.530  32.666  1.00  0.00    -0.206 F 
ATOM     73  C   UNL A   1      34.082  33.979  30.983  1.00  0.00     0.059 A 
ATOM     74  C   UNL A   1      35.643  34.821  29.324  1.00  0.00     0.059 A 
ATOM     75  F   UNL A   1      37.894  34.164  29.411  1.00  0.00    -0.206 F 
ATOM     76  C   UNL A   1      34.355  34.755  29.854  1.00  0.00     0.060 A 
BRANCH  76  77
ATOM     77  S   UNL A   1      33.015  35.719  29.122  1.00  0.00     0.124 S 
ATOM     78  O   UNL A   1      32.247  36.096  30.294  1.00  0.00    -0.237 OA
ATOM     79  O   UNL A   1      33.742  36.797  28.453  1.00  0.00    -0.237 OA
ATOM     80  O   UNL A   1      32.373  34.761  28.219  1.00  0.00    -0.744 OA
ENDBRANCH  76  77
ENDBRANCH  44  69
BRANCH  56  81
ATOM     81  C   UNL A   1      39.984  34.292  36.986  1.00  0.00     0.058 A 
ATOM     82  C   UNL A   1      40.825  35.414  36.934  1.00  0.00     0.135 A 
ATOM     83  C   UNL A   1      39.052  34.218  38.034  1.00  0.00     0.135 A 
ATOM     84  F   UNL A   1      41.738  35.530  35.957  1.00  0.00    -0.206 F 
ATOM     85  C   UNL A   1      40.756  36.419  37.895  1.00  0.00     0.059 A 
ATOM     86  C   UNL A   1      38.952  35.220  38.995  1.00  0.00     0.059 A 
ATOM     87  F   UNL A   1      38.219  33.169  38.124  1.00  0.00    -0.206 F 
ATOM     88  C   UNL A   1      39.816  36.312  38.923  1.00  0.00     0.060 A 
BRANCH  88  89
ATOM     89  S   UNL A   1      39.710  37.636  40.146  1.00  0.00     0.124 S 
ATOM     90  O   UNL A   1      38.307  38.024  40.038  1.00  0.00    -0.237 OA
ATOM     91  O   UNL A   1      40.085  36.957  41.382  1.00  0.00    -0.237 OA
ATOM     92  O   UNL A   1      40.674  38.620  39.664  1.00  0.00    -0.744 OA
ENDBRANCH  88  89
ENDBRANCH  56  81
ENDBRANCH  30  31
ENDBRANCH  22  25
ENDBRANCH  20  21
ENDBRANCH  19  20
ENDBRANCH  18  19
ENDBRANCH   3  18
TORSDOF 19
ENDMDL
MODEL 2
REMARK VINA RESULT:     -10.7      7.057     12.523
REMARK SMILES C[C@H]1CC[C@@](CCOCCO)(C(=O)NCCCNC(=O)c2ccc(-c3c4nc(c(-c5c(F)cc(S(=O)(=O)[O-])cc5F)c5ccc([nH]5)c(-c5c(F)cc(S(=O)(=O)[O-])cc5F)c5nc(c(-c6c(F)cc(S(=O)(=O)[O-])cc6F)c6ccc3[nH]6)C=C5)C=C4)cc2)C1
REMARK SMILES IDX 12 1 13 2 14 3 5 5 1 6 2 7 3 8 87 9 4 10 6 11 7 12 8 13 9 14
REMARK SMILES IDX 10 15 11 16 15 18 16 19 17 20 18 21 19 22 20 24 21 25 22 26
REMARK SMILES IDX 86 27 23 28 85 29 24 30 25 31 26 32 79 33 27 34 84 35 78 36
REMARK SMILES IDX 80 37 28 38 83 39 77 40 76 41 29 43 63 44 42 45 62 46 43 47
REMARK SMILES IDX 46 48 61 49 81 50 44 51 45 52 60 54 82 55 47 56 30 57 31 58
REMARK SMILES IDX 40 59 32 60 33 61 39 62 41 63 34 64 35 65 36 66 37 67 38 68
REMARK SMILES IDX 64 69 65 70 74 71 66 72 67 73 73 74 75 75 68 76 69 77 70 78
REMARK SMILES IDX 71 79 72 80 48 81 49 82 58 83 50 84 51 85 57 86 59 87 52 88
REMARK SMILES IDX 53 89 54 90 55 91 56 92
REMARK H PARENT 14 4 11 17 18 23 80 42 46 53
REMARK Flexibility Score: inf
ROOT
ATOM      1  C   UNL A   1      33.668  28.400  24.437  1.00  0.00     0.226 C 
ATOM      2  O   UNL A   1      34.187  28.683  23.344  1.00  0.00    -0.274 OA
ATOM      3  N   UNL A   1      33.844  29.373  25.371  1.00  0.00    -0.356 N 
ATOM      4  H   UNL A   1      34.667  29.891  25.219  1.00  0.00     0.163 HD
ENDROOT
BRANCH   1   5
ATOM      5  C   UNL A   1      33.018  26.989  24.613  1.00  0.00     0.052 C 
ATOM      6  C   UNL A   1      34.448  23.659  23.295  1.00  0.00     0.007 C 
ATOM      7  C   UNL A   1      33.548  24.645  24.026  1.00  0.00    -0.013 C 
ATOM      8  C   UNL A   1      33.964  24.821  25.477  1.00  0.00     0.004 C 
ATOM      9  C   UNL A   1      33.558  26.071  23.459  1.00  0.00     0.020 C 
ATOM     10  C   UNL A   1      33.667  26.272  25.836  1.00  0.00     0.017 C 
BRANCH   5  11
ATOM     11  C   UNL A   1      31.479  26.909  24.645  1.00  0.00     0.045 C 
BRANCH  11  12
ATOM     12  C   UNL A   1      30.693  26.964  23.322  1.00  0.00     0.161 C 
BRANCH  12  13
ATOM     13  O   UNL A   1      30.942  28.037  22.425  1.00  0.00    -0.379 OA
BRANCH  13  14
ATOM     14  C   UNL A   1      30.529  29.354  22.788  1.00  0.00     0.188 C 
BRANCH  14  15
ATOM     15  C   UNL A   1      29.485  30.012  21.887  1.00  0.00     0.184 C 
BRANCH  15  16
ATOM     16  O   UNL A   1      29.604  31.426  21.827  1.00  0.00    -0.394 OA
ATOM     17  H   UNL A   1      30.470  31.692  22.174  1.00  0.00     0.210 HD
ENDBRANCH  15  16
ENDBRANCH  14  15
ENDBRANCH  13  14
ENDBRANCH  12  13
ENDBRANCH  11  12
ENDBRANCH   5  11
ENDBRANCH   1   5
BRANCH   3  18
ATOM     18  C   UNL A   1      33.109  29.833  26.544  1.00  0.00     0.117 C 
BRANCH  18  19
ATOM     19  C   UNL A   1      33.793  30.880  27.438  1.00  0.00     0.042 C 
BRANCH  19  20
ATOM     20  C   UNL A   1      35.246  30.612  27.838  1.00  0.00     0.118 C 
BRANCH  20  21
ATOM     21  N   UNL A   1      35.360  30.617  29.291  1.00  0.00    -0.352 N 
ATOM     22  C   UNL A   1      36.336  30.174  30.145  1.00  0.00     0.251 C 
ATOM     23  H   UNL A   1      34.584  31.014  29.749  1.00  0.00     0.163 HD
ATOM     24  O   UNL A   1      35.985  29.856  31.282  1.00  0.00    -0.269 OA
BRANCH  22  25
ATOM     25  C   UNL A   1      37.783  30.124  29.800  1.00  0.00     0.039 A 
ATOM     26  C   UNL A   1      38.124  30.034  28.440  1.00  0.00     0.014 A 
ATOM     27  C   UNL A   1      38.786  29.948  30.757  1.00  0.00     0.014 A 
ATOM     28  C   UNL A   1      39.432  29.727  28.043  1.00  0.00     0.010 A 
ATOM     29  C   UNL A   1      40.107  29.683  30.356  1.00  0.00     0.010 A 
ATOM     30  C   UNL A   1      40.437  29.528  28.999  1.00  0.00    -0.014 A 
BRANCH  30  31
ATOM     31  C   UNL A   1      41.794  29.056  28.592  1.00  0.00     0.031 A 
ATOM     32  C   UNL A   1      42.954  30.024  28.565  1.00  0.00     0.074 A 
ATOM     33  C   UNL A   1      42.004  27.770  28.248  1.00  0.00     0.049 A 
ATOM     34  N   UNL A   1      44.191  29.829  28.179  1.00  0.00    -0.248 NA
ATOM     35  C   UNL A   1      42.680  31.395  29.020  1.00  0.00     0.031 C 
ATOM     36  C   UNL A   1      40.986  26.721  28.237  1.00  0.00     0.029 A 
ATOM     37  N   UNL A   1      43.148  27.127  27.840  1.00  0.00    -0.354 N 
ATOM     38  C   UNL A   1      44.834  31.057  28.318  1.00  0.00     0.074 A 
ATOM     39  C   UNL A   1      43.840  31.995  28.794  1.00  0.00     0.031 C 
ATOM     40  C   UNL A   1      41.552  25.563  27.858  1.00  0.00     0.029 A 
ATOM     41  C   UNL A   1      42.966  25.791  27.567  1.00  0.00     0.049 A 
ATOM     42  H   UNL A   1      44.018  27.580  27.752  1.00  0.00     0.167 HD
ATOM     43  C   UNL A   1      46.132  31.374  28.089  1.00  0.00     0.037 A 
ATOM     44  C   UNL A   1      43.834  24.856  27.130  1.00  0.00     0.037 A 
ATOM     45  C   UNL A   1      47.136  30.437  27.653  1.00  0.00     0.049 A 
ATOM     46  C   UNL A   1      45.271  25.228  26.881  1.00  0.00     0.074 A 
ATOM     47  C   UNL A   1      48.482  30.662  27.416  1.00  0.00     0.029 A 
ATOM     48  N   UNL A   1      46.908  29.094  27.398  1.00  0.00    -0.354 N 
ATOM     49  N   UNL A   1      45.859  26.393  27.021  1.00  0.00    -0.248 NA
ATOM     50  C   UNL A   1      46.166  24.157  26.418  1.00  0.00     0.031 C 
ATOM     51  C   UNL A   1      49.063  29.459  26.997  1.00  0.00     0.029 A 
ATOM     52  C   UNL A   1      48.086  28.478  27.005  1.00  0.00     0.049 A 
ATOM     53  H   UNL A   1      46.037  28.643  27.485  1.00  0.00     0.167 HD
ATOM     54  C   UNL A   1      47.195  26.187  26.694  1.00  0.00     0.074 A 
ATOM     55  C   UNL A   1      47.332  24.787  26.351  1.00  0.00     0.031 C 
ATOM     56  C   UNL A   1      48.216  27.079  26.681  1.00  0.00     0.037 A 
BRANCH  43  57
ATOM     57  C   UNL A   1      46.539  32.808  28.298  1.00  0.00     0.058 A 
ATOM     58  C   UNL A   1      46.451  33.757  27.266  1.00  0.00     0.135 A 
ATOM     59  C   UNL A   1      47.020  33.240  29.544  1.00  0.00     0.135 A 
ATOM     60  F   UNL A   1      46.008  33.396  26.051  1.00  0.00    -0.206 F 
ATOM     61  C   UNL A   1      46.869  35.072  27.449  1.00  0.00     0.059 A 
ATOM     62  C   UNL A   1      47.418  34.557  29.758  1.00  0.00     0.059 A 
ATOM     63  F   UNL A   1      47.118  32.378  30.568  1.00  0.00    -0.206 F 
ATOM     64  C   UNL A   1      47.361  35.460  28.696  1.00  0.00     0.060 A 
BRANCH  64  65
ATOM     65  S   UNL A   1      47.934  37.159  28.913  1.00  0.00     0.124 S 
ATOM     66  O   UNL A   1      48.762  37.033  30.110  1.00  0.00    -0.237 OA
ATOM     67  O   UNL A   1      48.653  37.413  27.670  1.00  0.00    -0.237 OA
ATOM     68  O   UNL A   1      46.697  37.914  29.083  1.00  0.00    -0.744 OA
ENDBRANCH  64  65
ENDBRANCH  43  57
BRANCH  44  69
ATOM     69  C   UNL A   1      43.371  23.458  26.928  1.00  0.00     0.058 A 
ATOM     70  C   UNL A   1      43.191  22.942  25.637  1.00  0.00     0.135 A 
ATOM     71  C   UNL A   1      43.117  22.609  28.015  1.00  0.00     0.135 A 
ATOM     72  F   UNL A   1      43.411  23.722  24.567  1.00  0.00    -0.206 F 
ATOM     73  C   UNL A   1      42.772  21.633  25.427  1.00  0.00     0.059 A 
ATOM     74  C   UNL A   1      42.715  21.289  27.830  1.00  0.00     0.059 A 
ATOM     75  F   UNL A   1      43.284  23.053  29.269  1.00  0.00    -0.206 F 
ATOM     76  C   UNL A   1      42.540  20.812  26.532  1.00  0.00     0.060 A 
BRANCH  76  77
ATOM     77  S   UNL A   1      42.058  19.094  26.247  1.00  0.00     0.124 S 
ATOM     78  O   UNL A   1      42.963  18.705  25.183  1.00  0.00    -0.237 OA
ATOM     79  O   UNL A   1      42.300  18.486  27.555  1.00  0.00    -0.237 OA
ATOM     80  O   UNL A   1      40.645  19.205  25.875  1.00  0.00    -0.744 OA
ENDBRANCH  76  77
ENDBRANCH  44  69
BRANCH  56  81
ATOM     81  C   UNL A   1      49.583  26.565  26.327  1.00  0.00     0.058 A 
ATOM     82  C   UNL A   1      50.120  26.721  25.040  1.00  0.00     0.135 A 
ATOM     83  C   UNL A   1      50.385  25.951  27.303  1.00  0.00     0.135 A 
ATOM     84  F   UNL A   1      49.392  27.295  24.069  1.00  0.00    -0.206 F 
ATOM     85  C   UNL A   1      51.399  26.269  24.726  1.00  0.00     0.059 A 
ATOM     86  C   UNL A   1      51.674  25.510  27.017  1.00  0.00     0.059 A 
ATOM     87  F   UNL A   1      49.923  25.786  28.552  1.00  0.00    -0.206 F 
ATOM     88  C   UNL A   1      52.168  25.663  25.722  1.00  0.00     0.060 A 
BRANCH  88  89
ATOM     89  S   UNL A   1      53.839  25.112  25.316  1.00  0.00     0.124 S 
ATOM     90  O   UNL A   1      53.688  23.661  25.355  1.00  0.00    -0.237 OA
ATOM     91  O   UNL A   1      54.051  25.691  23.993  1.00  0.00    -0.237 OA
ATOM     92  O   UNL A   1      54.654  25.688  26.381  1.00  0.00    -0.744 OA
ENDBRANCH  88  89
ENDBRANCH  56  81
ENDBRANCH  30  31
ENDBRANCH  22  25
ENDBRANCH  20  21
ENDBRANCH  19  20
ENDBRANCH  18  19
ENDBRANCH   3  18
TORSDOF 19
ENDMDL
MODEL 3
REMARK VINA RESULT:     -10.6      5.034     10.695
REMARK SMILES C[C@H]1CC[C@@](CCOCCO)(C(=O)NCCCNC(=O)c2ccc(-c3c4nc(c(-c5c(F)cc(S(=O)(=O)[O-])cc5F)c5ccc([nH]5)c(-c5c(F)cc(S(=O)(=O)[O-])cc5F)c5nc(c(-c6c(F)cc(S(=O)(=O)[O-])cc6F)c6ccc3[nH]6)C=C5)C=C4)cc2)C1
REMARK SMILES IDX 12 1 13 2 14 3 5 5 1 6 2 7 3 8 87 9 4 10 6 11 7 12 8 13 9 14
REMARK SMILES IDX 10 15 11 16 15 18 16 19 17 20 18 21 19 22 20 24 21 25 22 26
REMARK SMILES IDX 86 27 23 28 85 29 24 30 25 31 26 32 79 33 27 34 84 35 78 36
REMARK SMILES IDX 80 37 28 38 83 39 77 40 76 41 29 43 63 44 42 45 62 46 43 47
REMARK SMILES IDX 46 48 61 49 81 50 44 51 45 52 60 54 82 55 47 56 30 57 31 58
REMARK SMILES IDX 40 59 32 60 33 61 39 62 41 63 34 64 35 65 36 66 37 67 38 68
REMARK SMILES IDX 64 69 65 70 74 71 66 72 67 73 73 74 75 75 68 76 69 77 70 78
REMARK SMILES IDX 71 79 72 80 48 81 49 82 58 83 50 84 51 85 57 86 59 87 52 88
REMARK SMILES IDX 53 89 54 90 55 91 56 92
REMARK H PARENT 14 4 11 17 18 23 80 42 46 53
REMARK Flexibility Score: inf
ROOT
ATOM      1  C   UNL A   1      30.922  26.567  24.968  1.00  0.00     0.226 C 
ATOM      2  O   UNL A   1      30.068  25.734  25.314  1.00  0.00    -0.274 OA
ATOM      3  N   UNL A   1      31.965  26.644  25.838  1.00  0.00    -0.356 N 
ATOM      4  H   UNL A   1      31.703  26.407  26.756  1.00  0.00     0.163 HD
ENDROOT
BRANCH   1   5
ATOM      5  C   UNL A   1      30.641  27.448  23.707  1.00  0.00     0.052 C 
ATOM      6  C   UNL A   1      27.355  29.319  22.944  1.00  0.00     0.007 C 
ATOM      7  C   UNL A   1      28.795  28.839  22.824  1.00  0.00    -0.013 C 
ATOM      8  C   UNL A   1      29.767  29.801  23.487  1.00  0.00     0.004 C 
ATOM      9  C   UNL A   1      29.084  27.491  23.498  1.00  0.00     0.020 C 
ATOM     10  C   UNL A   1      30.893  28.947  24.060  1.00  0.00     0.017 C 
BRANCH   5  11
ATOM     11  C   UNL A   1      31.318  27.043  22.384  1.00  0.00     0.045 C 
BRANCH  11  12
ATOM     12  C   UNL A   1      32.800  26.627  22.391  1.00  0.00     0.161 C 
BRANCH  12  13
ATOM     13  O   UNL A   1      33.136  25.296  22.026  1.00  0.00    -0.379 OA
BRANCH  13  14
ATOM     14  C   UNL A   1      33.785  24.458  22.982  1.00  0.00     0.188 C 
BRANCH  14  15
ATOM     15  C   UNL A   1      33.625  22.951  22.785  1.00  0.00     0.184 C 
BRANCH  15  16
ATOM     16  O   UNL A   1      32.474  22.600  22.032  1.00  0.00    -0.394 OA
ATOM     17  H   UNL A   1      32.657  22.722  21.086  1.00  0.00     0.210 HD
ENDBRANCH  15  16
ENDBRANCH  14  15
ENDBRANCH  13  14
ENDBRANCH  12  13
ENDBRANCH  11  12
ENDBRANCH   5  11
ENDBRANCH   1   5
BRANCH   3  18
ATOM     18  C   UNL A   1      33.378  26.995  25.738  1.00  0.00     0.117 C 
BRANCH  18  19
ATOM     19  C   UNL A   1      33.796  28.384  26.250  1.00  0.00     0.042 C 
BRANCH  19  20
ATOM     20  C   UNL A   1      33.039  28.937  27.460  1.00  0.00     0.118 C 
BRANCH  20  21
ATOM     21  N   UNL A   1      33.498  30.291  27.743  1.00  0.00    -0.352 N 
ATOM     22  C   UNL A   1      34.610  30.778  28.379  1.00  0.00     0.251 C 
ATOM     23  H   UNL A   1      32.891  30.993  27.414  1.00  0.00     0.163 HD
ATOM     24  O   UNL A   1      34.517  31.890  28.900  1.00  0.00    -0.269 OA
BRANCH  22  25
ATOM     25  C   UNL A   1      35.923  30.077  28.413  1.00  0.00     0.039 A 
ATOM     26  C   UNL A   1      36.326  29.515  29.637  1.00  0.00     0.014 A 
ATOM     27  C   UNL A   1      36.845  30.140  27.366  1.00  0.00     0.014 A 
ATOM     28  C   UNL A   1      37.641  29.068  29.825  1.00  0.00     0.010 A 
ATOM     29  C   UNL A   1      38.150  29.651  27.543  1.00  0.00     0.010 A 
ATOM     30  C   UNL A   1      38.576  29.149  28.785  1.00  0.00    -0.014 A 
BRANCH  30  31
ATOM     31  C   UNL A   1      40.012  28.813  29.023  1.00  0.00     0.031 A 
ATOM     32  C   UNL A   1      40.923  29.820  29.686  1.00  0.00     0.074 A 
ATOM     33  C   UNL A   1      40.511  27.617  28.655  1.00  0.00     0.049 A 
ATOM     34  N   UNL A   1      42.210  29.748  29.922  1.00  0.00    -0.248 NA
ATOM     35  C   UNL A   1      40.304  31.078  30.130  1.00  0.00     0.031 C 
ATOM     36  C   UNL A   1      39.752  26.543  28.016  1.00  0.00     0.029 A 
ATOM     37  N   UNL A   1      41.782  27.104  28.767  1.00  0.00    -0.354 N 
ATOM     38  C   UNL A   1      42.559  30.959  30.514  1.00  0.00     0.074 A 
ATOM     39  C   UNL A   1      41.353  31.757  30.572  1.00  0.00     0.031 C 
ATOM     40  C   UNL A   1      40.565  25.495  27.807  1.00  0.00     0.029 A 
ATOM     41  C   UNL A   1      41.912  25.830  28.266  1.00  0.00     0.049 A 
ATOM     42  H   UNL A   1      42.530  27.603  29.170  1.00  0.00     0.167 HD
ATOM     43  C   UNL A   1      43.765  31.367  30.983  1.00  0.00     0.037 A 
ATOM     44  C   UNL A   1      42.989  25.024  28.181  1.00  0.00     0.037 A 
ATOM     45  C   UNL A   1      44.961  30.564  30.964  1.00  0.00     0.049 A 
ATOM     46  C   UNL A   1      44.319  25.494  28.707  1.00  0.00     0.074 A 
ATOM     47  C   UNL A   1      46.223  30.883  31.437  1.00  0.00     0.029 A 
ATOM     48  N   UNL A   1      45.043  29.276  30.456  1.00  0.00    -0.354 N 
ATOM     49  N   UNL A   1      44.627  26.641  29.266  1.00  0.00    -0.248 NA
ATOM     50  C   UNL A   1      45.448  24.559  28.595  1.00  0.00     0.031 C 
ATOM     51  C   UNL A   1      47.073  29.797  31.194  1.00  0.00     0.029 A 
ATOM     52  C   UNL A   1      46.332  28.789  30.600  1.00  0.00     0.049 A 
ATOM     53  H   UNL A   1      44.294  28.780  30.051  1.00  0.00     0.167 HD
ATOM     54  C   UNL A   1      45.975  26.552  29.598  1.00  0.00     0.074 A 
ATOM     55  C   UNL A   1      46.424  25.240  29.181  1.00  0.00     0.031 C 
ATOM     56  C   UNL A   1      46.767  27.475  30.197  1.00  0.00     0.037 A 
BRANCH  43  57
ATOM     57  C   UNL A   1      43.850  32.758  31.550  1.00  0.00     0.058 A 
ATOM     58  C   UNL A   1      44.114  33.871  30.735  1.00  0.00     0.135 A 
ATOM     59  C   UNL A   1      43.663  32.983  32.923  1.00  0.00     0.135 A 
ATOM     60  F   UNL A   1      44.311  33.713  29.417  1.00  0.00    -0.206 F 
ATOM     61  C   UNL A   1      44.236  35.151  31.268  1.00  0.00     0.059 A 
ATOM     62  C   UNL A   1      43.753  34.258  33.474  1.00  0.00     0.059 A 
ATOM     63  F   UNL A   1      43.400  31.957  33.748  1.00  0.00    -0.206 F 
ATOM     64  C   UNL A   1      44.064  35.333  32.642  1.00  0.00     0.060 A 
BRANCH  64  65
ATOM     65  S   UNL A   1      44.259  36.991  33.328  1.00  0.00     0.124 S 
ATOM     66  O   UNL A   1      42.890  37.296  33.738  1.00  0.00    -0.237 OA
ATOM     67  O   UNL A   1      45.211  36.777  34.413  1.00  0.00    -0.237 OA
ATOM     68  O   UNL A   1      44.764  37.767  32.201  1.00  0.00    -0.744 OA
ENDBRANCH  64  65
ENDBRANCH  43  57
BRANCH  44  69
ATOM     69  C   UNL A   1      42.847  23.664  27.597  1.00  0.00     0.058 A 
ATOM     70  C   UNL A   1      43.074  23.442  26.232  1.00  0.00     0.135 A 
ATOM     71  C   UNL A   1      42.501  22.561  28.392  1.00  0.00     0.135 A 
ATOM     72  F   UNL A   1      43.396  24.470  25.431  1.00  0.00    -0.206 F 
ATOM     73  C   UNL A   1      42.960  22.176  25.670  1.00  0.00     0.059 A 
ATOM     74  C   UNL A   1      42.399  21.279  27.857  1.00  0.00     0.059 A 
ATOM     75  F   UNL A   1      42.283  22.720  29.706  1.00  0.00    -0.206 F 
ATOM     76  C   UNL A   1      42.625  21.098  26.493  1.00  0.00     0.060 A 
BRANCH  76  77
ATOM     77  S   UNL A   1      42.542  19.447  25.765  1.00  0.00     0.124 S 
ATOM     78  O   UNL A   1      42.976  18.613  26.871  1.00  0.00    -0.237 OA
ATOM     79  O   UNL A   1      41.132  19.345  25.395  1.00  0.00    -0.237 OA
ATOM     80  O   UNL A   1      43.468  19.538  24.633  1.00  0.00    -0.744 OA
ENDBRANCH  76  77
ENDBRANCH  44  69
BRANCH  56  81
ATOM     81  C   UNL A   1      48.192  27.089  30.480  1.00  0.00     0.058 A 
ATOM     82  C   UNL A   1      49.238  27.441  29.613  1.00  0.00     0.135 A 
ATOM     83  C   UNL A   1      48.519  26.400  31.659  1.00  0.00     0.135 A 
ATOM     84  F   UNL A   1      48.978  28.095  28.471  1.00  0.00    -0.206 F 
ATOM     85  C   UNL A   1      50.559  27.107  29.897  1.00  0.00     0.059 A 
ATOM     86  C   UNL A   1      49.835  26.073  31.972  1.00  0.00     0.059 A 
ATOM     87  F   UNL A   1      47.557  26.048  32.525  1.00  0.00    -0.206 F 
ATOM     88  C   UNL A   1      50.848  26.421  31.079  1.00  0.00     0.060 A 
BRANCH  88  89
ATOM     89  S   UNL A   1      52.569  26.022  31.455  1.00  0.00     0.124 S 
ATOM     90  O   UNL A   1      53.176  26.062  30.129  1.00  0.00    -0.237 OA
ATOM     91  O   UNL A   1      52.953  27.100  32.361  1.00  0.00    -0.237 OA
ATOM     92  O   UNL A   1      52.483  24.700  32.069  1.00  0.00    -0.744 OA
ENDBRANCH  88  89
ENDBRANCH  56  81
ENDBRANCH  30  31
ENDBRANCH  22  25
ENDBRANCH  20  21
ENDBRANCH  19  20
ENDBRANCH  18  19
ENDBRANCH   3  18
TORSDOF 19
ENDMDL
