MODEL 1
REMARK VINA RESULT:     -11.8      0.000      0.000
REMARK SMILES CC[C@@](C)([NH2+]CC(=O)Nc1ccc(Br)cc1F)C(=O)NCCCNC(=O)c1ccc(-c2c3nc(c(-c4c(F)cc(S(=O)(=O)[O-])cc4F)c4ccc([nH]4)c(-c4c(F)cc(S(=O)(=O)[O-])cc4F)c4nc(c(-c5c(F)cc(S(=O)(=O)[O-])cc5F)c5ccc2[nH]5)C=C4)C=C3)cc1
REMARK SMILES IDX 21 1 20 2 18 3 19 4 3 6 4 7 2 8 1 9 5 10 6 13 7 14 8 15 9 16
REMARK SMILES IDX 10 18 11 19 16 20 12 21 15 22 17 23 13 24 14 25 22 26 23 27
REMARK SMILES IDX 24 28 25 29 26 31 27 32 28 33 92 34 29 35 91 36 30 37 31 38
REMARK SMILES IDX 32 39 85 40 33 41 90 42 84 43 86 44 34 45 89 46 83 47 82 48
REMARK SMILES IDX 35 50 69 51 48 52 68 53 49 54 52 55 67 56 87 57 50 58 51 59
REMARK SMILES IDX 66 61 88 62 53 63 36 64 37 65 46 66 38 67 39 68 45 69 47 70
REMARK SMILES IDX 40 71 41 72 42 73 43 74 44 75 70 76 71 77 80 78 72 79 73 80
REMARK SMILES IDX 79 81 81 82 74 83 75 84 76 85 77 86 78 87 54 88 55 89 64 90
REMARK SMILES IDX 56 91 57 92 63 93 65 94 58 95 59 96 60 97 61 98 62 99
REMARK H PARENT 20 5 5 11 5 12 9 17 24 30 86 49 52 60
REMARK Flexibility Score: inf
ROOT
ATOM      1  C   UNL A   1      36.171  23.843  26.231  1.00  0.00     0.118 C 
ENDROOT
BRANCH   1   2
ATOM      2  N   UNL A   1      35.222  22.728  26.245  1.00  0.00    -0.351 N 
ATOM      3  C   UNL A   1      34.592  21.965  25.288  1.00  0.00     0.281 C 
ATOM      4  O   UNL A   1      34.687  20.758  25.561  1.00  0.00    -0.268 OA
ATOM      5  H   UNL A   1      34.975  22.460  27.159  1.00  0.00     0.163 HD
BRANCH   3   6
ATOM      6  C   UNL A   1      33.590  22.478  24.100  1.00  0.00     0.172 C 
ATOM      7  C   UNL A   1      33.840  23.103  22.696  1.00  0.00     0.090 C 
BRANCH   6   8
ATOM      8  C   UNL A   1      32.862  21.118  23.695  1.00  0.00     0.075 C 
ATOM      9  C   UNL A   1      31.986  21.194  22.408  1.00  0.00     0.011 C 
ENDBRANCH   6   8
BRANCH   6  10
ATOM     10  N   UNL A   1      32.695  23.452  24.731  1.00  0.00    -0.326 N 
ATOM     11  H   UNL A   1      32.155  23.895  23.988  1.00  0.00     0.347 HD
ATOM     12  H   UNL A   1      33.316  24.070  25.255  1.00  0.00     0.347 HD
BRANCH  10  13
ATOM     13  C   UNL A   1      31.729  22.953  25.741  1.00  0.00     0.363 C 
BRANCH  13  14
ATOM     14  C   UNL A   1      30.646  23.789  26.502  1.00  0.00     0.279 C 
ATOM     15  O   UNL A   1      30.134  23.230  27.494  1.00  0.00    -0.268 OA
ATOM     16  N   UNL A   1      30.287  25.115  26.409  1.00  0.00    -0.319 N 
ATOM     17  H   UNL A   1      29.885  25.408  27.258  1.00  0.00     0.170 HD
BRANCH  16  18
ATOM     18  C   UNL A   1      30.307  26.200  25.491  1.00  0.00     0.077 A 
ATOM     19  C   UNL A   1      29.450  26.101  24.387  1.00  0.00     0.030 A 
ATOM     20  C   UNL A   1      31.219  27.269  25.457  1.00  0.00     0.147 A 
ATOM     21  C   UNL A   1      29.358  27.134  23.435  1.00  0.00     0.018 A 
ATOM     22  C   UNL A   1      31.119  28.318  24.539  1.00  0.00     0.057 A 
ATOM     23  F   UNL A   1      32.294  27.322  26.243  1.00  0.00    -0.205 F 
ATOM     24  C   UNL A   1      30.161  28.264  23.548  1.00  0.00     0.021 A 
ATOM     25  Br  UNL A   1      29.986  29.699  22.334  1.00  0.00    -0.051 Br
ENDBRANCH  16  18
ENDBRANCH  13  14
ENDBRANCH  10  13
ENDBRANCH   6  10
ENDBRANCH   3   6
ENDBRANCH   1   2
BRANCH   1  26
ATOM     26  C   UNL A   1      37.588  23.495  25.791  1.00  0.00     0.042 C 
BRANCH  26  27
ATOM     27  C   UNL A   1      38.671  24.142  26.645  1.00  0.00     0.118 C 
BRANCH  27  28
ATOM     28  N   UNL A   1      39.950  24.336  25.962  1.00  0.00    -0.352 N 
ATOM     29  C   UNL A   1      41.008  25.160  26.281  1.00  0.00     0.251 C 
ATOM     30  H   UNL A   1      40.073  23.795  25.148  1.00  0.00     0.163 HD
ATOM     31  O   UNL A   1      41.980  25.204  25.527  1.00  0.00    -0.269 OA
BRANCH  29  32
ATOM     32  C   UNL A   1      40.967  26.017  27.490  1.00  0.00     0.039 A 
ATOM     33  C   UNL A   1      41.811  27.129  27.573  1.00  0.00     0.014 A 
ATOM     34  C   UNL A   1      40.083  25.748  28.535  1.00  0.00     0.014 A 
ATOM     35  C   UNL A   1      41.704  28.007  28.657  1.00  0.00     0.010 A 
ATOM     36  C   UNL A   1      39.890  26.685  29.544  1.00  0.00     0.010 A 
ATOM     37  C   UNL A   1      40.709  27.817  29.630  1.00  0.00    -0.014 A 
BRANCH  37  38
ATOM     38  C   UNL A   1      40.526  28.766  30.760  1.00  0.00     0.031 A 
ATOM     39  C   UNL A   1      41.380  28.638  31.997  1.00  0.00     0.074 A 
ATOM     40  C   UNL A   1      39.552  29.697  30.704  1.00  0.00     0.049 A 
ATOM     41  N   UNL A   1      41.340  29.332  33.106  1.00  0.00    -0.248 NA
ATOM     42  C   UNL A   1      42.385  27.561  32.008  1.00  0.00     0.031 C 
ATOM     43  C   UNL A   1      38.602  29.868  29.600  1.00  0.00     0.029 A 
ATOM     44  N   UNL A   1      39.193  30.675  31.599  1.00  0.00    -0.354 N 
ATOM     45  C   UNL A   1      42.290  28.760  33.946  1.00  0.00     0.074 A 
ATOM     46  C   UNL A   1      42.837  27.618  33.250  1.00  0.00     0.031 C 
ATOM     47  C   UNL A   1      37.803  30.914  29.863  1.00  0.00     0.029 A 
ATOM     48  C   UNL A   1      38.156  31.468  31.165  1.00  0.00     0.049 A 
ATOM     49  H   UNL A   1      39.637  30.797  32.469  1.00  0.00     0.167 HD
ATOM     50  C   UNL A   1      42.699  29.169  35.170  1.00  0.00     0.037 A 
ATOM     51  C   UNL A   1      37.566  32.531  31.748  1.00  0.00     0.037 A 
ATOM     52  C   UNL A   1      42.187  30.338  35.834  1.00  0.00     0.049 A 
ATOM     53  C   UNL A   1      38.074  33.001  33.084  1.00  0.00     0.074 A 
ATOM     54  C   UNL A   1      42.581  30.886  37.042  1.00  0.00     0.029 A 
ATOM     55  N   UNL A   1      41.172  31.145  35.339  1.00  0.00    -0.354 N 
ATOM     56  N   UNL A   1      39.025  32.492  33.831  1.00  0.00    -0.248 NA
ATOM     57  C   UNL A   1      37.441  34.199  33.650  1.00  0.00     0.031 C 
ATOM     58  C   UNL A   1      41.782  32.007  37.293  1.00  0.00     0.029 A 
ATOM     59  C   UNL A   1      40.920  32.182  36.221  1.00  0.00     0.049 A 
ATOM     60  H   UNL A   1      40.702  31.001  34.487  1.00  0.00     0.167 HD
ATOM     61  C   UNL A   1      39.122  33.322  34.942  1.00  0.00     0.074 A 
ATOM     62  C   UNL A   1      38.144  34.375  34.760  1.00  0.00     0.031 C 
ATOM     63  C   UNL A   1      39.945  33.223  36.017  1.00  0.00     0.037 A 
BRANCH  50  64
ATOM     64  C   UNL A   1      43.770  28.361  35.854  1.00  0.00     0.058 A 
ATOM     65  C   UNL A   1      43.451  27.317  36.739  1.00  0.00     0.135 A 
ATOM     66  C   UNL A   1      45.128  28.619  35.612  1.00  0.00     0.135 A 
ATOM     67  F   UNL A   1      42.170  27.037  37.023  1.00  0.00    -0.206 F 
ATOM     68  C   UNL A   1      44.441  26.584  37.386  1.00  0.00     0.059 A 
ATOM     69  C   UNL A   1      46.135  27.877  36.225  1.00  0.00     0.059 A 
ATOM     70  F   UNL A   1      45.491  29.605  34.776  1.00  0.00    -0.206 F 
ATOM     71  C   UNL A   1      45.780  26.872  37.124  1.00  0.00     0.060 A 
BRANCH  71  72
ATOM     72  S   UNL A   1      47.050  25.909  37.971  1.00  0.00     0.124 S 
ATOM     73  O   UNL A   1      46.904  24.606  37.327  1.00  0.00    -0.237 OA
ATOM     74  O   UNL A   1      48.268  26.643  37.645  1.00  0.00    -0.237 OA
ATOM     75  O   UNL A   1      46.642  25.966  39.371  1.00  0.00    -0.744 OA
ENDBRANCH  71  72
ENDBRANCH  50  64
BRANCH  51  76
ATOM     76  C   UNL A   1      36.466  33.250  31.050  1.00  0.00     0.058 A 
ATOM     77  C   UNL A   1      36.728  34.043  29.922  1.00  0.00     0.135 A 
ATOM     78  C   UNL A   1      35.135  33.148  31.480  1.00  0.00     0.135 A 
ATOM     79  F   UNL A   1      37.986  34.175  29.472  1.00  0.00    -0.206 F 
ATOM     80  C   UNL A   1      35.714  34.727  29.258  1.00  0.00     0.059 A 
ATOM     81  C   UNL A   1      34.100  33.802  30.818  1.00  0.00     0.059 A 
ATOM     82  F   UNL A   1      34.827  32.387  32.542  1.00  0.00    -0.206 F 
ATOM     83  C   UNL A   1      34.402  34.599  29.714  1.00  0.00     0.060 A 
BRANCH  83  84
ATOM     84  S   UNL A   1      33.086  35.451  28.815  1.00  0.00     0.124 S 
ATOM     85  O   UNL A   1      33.846  36.413  28.026  1.00  0.00    -0.237 OA
ATOM     86  O   UNL A   1      32.466  34.360  28.069  1.00  0.00    -0.237 OA
ATOM     87  O   UNL A   1      32.264  36.016  29.881  1.00  0.00    -0.744 OA
ENDBRANCH  83  84
ENDBRANCH  51  76
BRANCH  63  88
ATOM     88  C   UNL A   1      39.841  34.299  37.061  1.00  0.00     0.058 A 
ATOM     89  C   UNL A   1      40.499  35.529  36.919  1.00  0.00     0.135 A 
ATOM     90  C   UNL A   1      39.044  34.105  38.201  1.00  0.00     0.135 A 
ATOM     91  F   UNL A   1      41.275  35.762  35.848  1.00  0.00    -0.206 F 
ATOM     92  C   UNL A   1      40.398  36.521  37.889  1.00  0.00     0.059 A 
ATOM     93  C   UNL A   1      38.907  35.093  39.170  1.00  0.00     0.059 A 
ATOM     94  F   UNL A   1      38.383  32.950  38.376  1.00  0.00    -0.206 F 
ATOM     95  C   UNL A   1      39.601  36.292  39.013  1.00  0.00     0.060 A 
BRANCH  95  96
ATOM     96  S   UNL A   1      39.469  37.589  40.260  1.00  0.00     0.124 S 
ATOM     97  O   UNL A   1      40.856  38.024  40.379  1.00  0.00    -0.237 OA
ATOM     98  O   UNL A   1      38.559  38.540  39.629  1.00  0.00    -0.237 OA
ATOM     99  O   UNL A   1      38.927  36.890  41.422  1.00  0.00    -0.744 OA
ENDBRANCH  95  96
ENDBRANCH  63  88
ENDBRANCH  37  38
ENDBRANCH  29  32
ENDBRANCH  27  28
ENDBRANCH  26  27
ENDBRANCH   1  26
TORSDOF 18
ENDMDL
MODEL 2
REMARK VINA RESULT:     -11.7      1.559      2.073
REMARK SMILES CC[C@@](C)([NH2+]CC(=O)Nc1ccc(Br)cc1F)C(=O)NCCCNC(=O)c1ccc(-c2c3nc(c(-c4c(F)cc(S(=O)(=O)[O-])cc4F)c4ccc([nH]4)c(-c4c(F)cc(S(=O)(=O)[O-])cc4F)c4nc(c(-c5c(F)cc(S(=O)(=O)[O-])cc5F)c5ccc2[nH]5)C=C4)C=C3)cc1
REMARK SMILES IDX 21 1 20 2 18 3 19 4 3 6 4 7 2 8 1 9 5 10 6 13 7 14 8 15 9 16
REMARK SMILES IDX 10 18 11 19 16 20 12 21 15 22 17 23 13 24 14 25 22 26 23 27
REMARK SMILES IDX 24 28 25 29 26 31 27 32 28 33 92 34 29 35 91 36 30 37 31 38
REMARK SMILES IDX 32 39 85 40 33 41 90 42 84 43 86 44 34 45 89 46 83 47 82 48
REMARK SMILES IDX 35 50 69 51 48 52 68 53 49 54 52 55 67 56 87 57 50 58 51 59
REMARK SMILES IDX 66 61 88 62 53 63 36 64 37 65 46 66 38 67 39 68 45 69 47 70
REMARK SMILES IDX 40 71 41 72 42 73 43 74 44 75 70 76 71 77 80 78 72 79 73 80
REMARK SMILES IDX 79 81 81 82 74 83 75 84 76 85 77 86 78 87 54 88 55 89 64 90
REMARK SMILES IDX 56 91 57 92 63 93 65 94 58 95 59 96 60 97 61 98 62 99
REMARK H PARENT 20 5 5 11 5 12 9 17 24 30 86 49 52 60
REMARK Flexibility Score: inf
ROOT
ATOM      1  C   UNL A   1      37.993  22.946  25.999  1.00  0.00     0.118 C 
ENDROOT
BRANCH   1   2
ATOM      2  N   UNL A   1      37.443  22.494  24.719  1.00  0.00    -0.351 N 
ATOM      3  C   UNL A   1      36.379  22.861  23.927  1.00  0.00     0.281 C 
ATOM      4  O   UNL A   1      36.739  22.984  22.744  1.00  0.00    -0.268 OA
ATOM      5  H   UNL A   1      37.959  21.750  24.334  1.00  0.00     0.163 HD
BRANCH   3   6
ATOM      6  C   UNL A   1      34.792  22.867  24.323  1.00  0.00     0.172 C 
ATOM      7  C   UNL A   1      33.806  21.750  24.777  1.00  0.00     0.090 C 
BRANCH   6   8
ATOM      8  C   UNL A   1      34.795  23.803  25.614  1.00  0.00     0.075 C 
ATOM      9  C   UNL A   1      33.991  23.254  26.832  1.00  0.00     0.011 C 
ENDBRANCH   6   8
BRANCH   6  10
ATOM     10  N   UNL A   1      34.100  23.461  23.175  1.00  0.00    -0.326 N 
ATOM     11  H   UNL A   1      33.178  23.029  23.119  1.00  0.00     0.347 HD
ATOM     12  H   UNL A   1      34.719  23.283  22.383  1.00  0.00     0.347 HD
BRANCH  10  13
ATOM     13  C   UNL A   1      33.902  24.931  23.170  1.00  0.00     0.363 C 
BRANCH  13  14
ATOM     14  C   UNL A   1      32.536  25.697  23.167  1.00  0.00     0.279 C 
ATOM     15  O   UNL A   1      31.652  25.217  22.428  1.00  0.00    -0.268 OA
ATOM     16  N   UNL A   1      32.048  26.693  23.983  1.00  0.00    -0.319 N 
ATOM     17  H   UNL A   1      31.065  26.671  23.978  1.00  0.00     0.170 HD
BRANCH  16  18
ATOM     18  C   UNL A   1      32.499  27.742  24.830  1.00  0.00     0.077 A 
ATOM     19  C   UNL A   1      33.561  27.437  25.692  1.00  0.00     0.030 A 
ATOM     20  C   UNL A   1      31.885  28.988  25.042  1.00  0.00     0.147 A 
ATOM     21  C   UNL A   1      34.114  28.410  26.547  1.00  0.00     0.018 A 
ATOM     22  C   UNL A   1      32.440  29.975  25.861  1.00  0.00     0.057 A 
ATOM     23  F   UNL A   1      30.686  29.293  24.543  1.00  0.00    -0.205 F 
ATOM     24  C   UNL A   1      33.579  29.693  26.587  1.00  0.00     0.021 A 
ATOM     25  Br  UNL A   1      34.364  31.035  27.657  1.00  0.00    -0.051 Br
ENDBRANCH  16  18
ENDBRANCH  13  14
ENDBRANCH  10  13
ENDBRANCH   6  10
ENDBRANCH   3   6
ENDBRANCH   1   2
BRANCH   1  26
ATOM     26  C   UNL A   1      39.287  22.269  26.435  1.00  0.00     0.042 C 
BRANCH  26  27
ATOM     27  C   UNL A   1      40.309  23.227  27.033  1.00  0.00     0.118 C 
BRANCH  27  28
ATOM     28  N   UNL A   1      41.187  23.870  26.055  1.00  0.00    -0.352 N 
ATOM     29  C   UNL A   1      41.670  25.160  26.010  1.00  0.00     0.251 C 
ATOM     30  H   UNL A   1      41.478  23.290  25.313  1.00  0.00     0.163 HD
ATOM     31  O   UNL A   1      42.364  25.507  25.054  1.00  0.00    -0.269 OA
BRANCH  29  32
ATOM     32  C   UNL A   1      41.328  26.137  27.073  1.00  0.00     0.039 A 
ATOM     33  C   UNL A   1      40.374  25.796  28.037  1.00  0.00     0.014 A 
ATOM     34  C   UNL A   1      41.960  27.378  27.141  1.00  0.00     0.014 A 
ATOM     35  C   UNL A   1      40.124  26.663  29.106  1.00  0.00     0.010 A 
ATOM     36  C   UNL A   1      41.805  28.178  28.268  1.00  0.00     0.010 A 
ATOM     37  C   UNL A   1      40.872  27.843  29.256  1.00  0.00    -0.014 A 
BRANCH  37  38
ATOM     38  C   UNL A   1      40.676  28.754  30.415  1.00  0.00     0.031 A 
ATOM     39  C   UNL A   1      41.533  28.600  31.648  1.00  0.00     0.074 A 
ATOM     40  C   UNL A   1      39.688  29.671  30.388  1.00  0.00     0.049 A 
ATOM     41  N   UNL A   1      41.483  29.257  32.778  1.00  0.00    -0.248 NA
ATOM     42  C   UNL A   1      42.553  27.538  31.624  1.00  0.00     0.031 C 
ATOM     43  C   UNL A   1      38.736  29.863  29.290  1.00  0.00     0.029 A 
ATOM     44  N   UNL A   1      39.316  30.616  31.313  1.00  0.00    -0.354 N 
ATOM     45  C   UNL A   1      42.441  28.674  33.600  1.00  0.00     0.074 A 
ATOM     46  C   UNL A   1      43.005  27.562  32.868  1.00  0.00     0.031 C 
ATOM     47  C   UNL A   1      37.921  30.888  29.586  1.00  0.00     0.029 A 
ATOM     48  C   UNL A   1      38.267  31.407  30.904  1.00  0.00     0.049 A 
ATOM     49  H   UNL A   1      39.758  30.717  32.186  1.00  0.00     0.167 HD
ATOM     50  C   UNL A   1      42.844  29.050  34.835  1.00  0.00     0.037 A 
ATOM     51  C   UNL A   1      37.661  32.441  31.520  1.00  0.00     0.037 A 
ATOM     52  C   UNL A   1      42.316  30.190  35.536  1.00  0.00     0.049 A 
ATOM     53  C   UNL A   1      38.163  32.877  32.871  1.00  0.00     0.074 A 
ATOM     54  C   UNL A   1      42.702  30.706  36.761  1.00  0.00     0.029 A 
ATOM     55  N   UNL A   1      41.289  30.997  35.067  1.00  0.00    -0.354 N 
ATOM     56  N   UNL A   1      39.122  32.359  33.601  1.00  0.00    -0.248 NA
ATOM     57  C   UNL A   1      37.513  34.047  33.474  1.00  0.00     0.031 C 
ATOM     58  C   UNL A   1      41.886  31.806  37.047  1.00  0.00     0.029 A 
ATOM     59  C   UNL A   1      41.022  32.002  35.981  1.00  0.00     0.049 A 
ATOM     60  H   UNL A   1      40.820  30.873  34.210  1.00  0.00     0.167 HD
ATOM     61  C   UNL A   1      39.207  33.155  34.737  1.00  0.00     0.074 A 
ATOM     62  C   UNL A   1      38.213  34.199  34.588  1.00  0.00     0.031 C 
ATOM     63  C   UNL A   1      40.031  33.034  35.808  1.00  0.00     0.037 A 
BRANCH  50  64
ATOM     64  C   UNL A   1      43.927  28.237  35.494  1.00  0.00     0.058 A 
ATOM     65  C   UNL A   1      43.626  27.210  36.404  1.00  0.00     0.135 A 
ATOM     66  C   UNL A   1      45.280  28.473  35.202  1.00  0.00     0.135 A 
ATOM     67  F   UNL A   1      42.351  26.951  36.735  1.00  0.00    -0.206 F 
ATOM     68  C   UNL A   1      44.627  26.472  37.027  1.00  0.00     0.059 A 
ATOM     69  C   UNL A   1      46.297  27.726  35.791  1.00  0.00     0.059 A 
ATOM     70  F   UNL A   1      45.627  29.443  34.341  1.00  0.00    -0.206 F 
ATOM     71  C   UNL A   1      45.960  26.738  36.716  1.00  0.00     0.060 A 
BRANCH  71  72
ATOM     72  S   UNL A   1      47.245  25.769  37.532  1.00  0.00     0.124 S 
ATOM     73  O   UNL A   1      48.442  26.227  36.833  1.00  0.00    -0.237 OA
ATOM     74  O   UNL A   1      47.122  26.195  38.923  1.00  0.00    -0.237 OA
ATOM     75  O   UNL A   1      46.851  24.389  37.266  1.00  0.00    -0.744 OA
ENDBRANCH  71  72
ENDBRANCH  50  64
BRANCH  51  76
ATOM     76  C   UNL A   1      36.551  33.165  30.845  1.00  0.00     0.058 A 
ATOM     77  C   UNL A   1      36.810  34.067  29.800  1.00  0.00     0.135 A 
ATOM     78  C   UNL A   1      35.212  32.963  31.213  1.00  0.00     0.135 A 
ATOM     79  F   UNL A   1      38.074  34.298  29.412  1.00  0.00    -0.206 F 
ATOM     80  C   UNL A   1      35.786  34.757  29.159  1.00  0.00     0.059 A 
ATOM     81  C   UNL A   1      34.168  33.623  30.570  1.00  0.00     0.059 A 
ATOM     82  F   UNL A   1      34.908  32.098  32.193  1.00  0.00    -0.206 F 
ATOM     83  C   UNL A   1      34.467  34.526  29.551  1.00  0.00     0.060 A 
BRANCH  83  84
ATOM     84  S   UNL A   1      33.141  35.390  28.679  1.00  0.00     0.124 S 
ATOM     85  O   UNL A   1      32.537  34.305  27.916  1.00  0.00    -0.237 OA
ATOM     86  O   UNL A   1      32.342  35.919  29.780  1.00  0.00    -0.237 OA
ATOM     87  O   UNL A   1      33.854  36.394  27.896  1.00  0.00    -0.744 OA
ENDBRANCH  83  84
ENDBRANCH  51  76
BRANCH  63  88
ATOM     88  C   UNL A   1      39.912  34.075  36.886  1.00  0.00     0.058 A 
ATOM     89  C   UNL A   1      40.650  35.267  36.844  1.00  0.00     0.135 A 
ATOM     90  C   UNL A   1      39.021  33.890  37.955  1.00  0.00     0.135 A 
ATOM     91  F   UNL A   1      41.517  35.491  35.844  1.00  0.00    -0.206 F 
ATOM     92  C   UNL A   1      40.535  36.227  37.844  1.00  0.00     0.059 A 
ATOM     93  C   UNL A   1      38.869  34.848  38.951  1.00  0.00     0.059 A 
ATOM     94  F   UNL A   1      38.281  32.772  38.034  1.00  0.00    -0.206 F 
ATOM     95  C   UNL A   1      39.642  36.006  38.896  1.00  0.00     0.060 A 
BRANCH  95  96
ATOM     96  S   UNL A   1      39.492  37.263  40.183  1.00  0.00     0.124 S 
ATOM     97  O   UNL A   1      40.875  37.707  40.320  1.00  0.00    -0.237 OA
ATOM     98  O   UNL A   1      38.575  38.223  39.577  1.00  0.00    -0.237 OA
ATOM     99  O   UNL A   1      38.953  36.522  41.319  1.00  0.00    -0.744 OA
ENDBRANCH  95  96
ENDBRANCH  63  88
ENDBRANCH  37  38
ENDBRANCH  29  32
ENDBRANCH  27  28
ENDBRANCH  26  27
ENDBRANCH   1  26
TORSDOF 18
ENDMDL
MODEL 3
REMARK VINA RESULT:     -11.5      6.771     12.207
REMARK SMILES CC[C@@](C)([NH2+]CC(=O)Nc1ccc(Br)cc1F)C(=O)NCCCNC(=O)c1ccc(-c2c3nc(c(-c4c(F)cc(S(=O)(=O)[O-])cc4F)c4ccc([nH]4)c(-c4c(F)cc(S(=O)(=O)[O-])cc4F)c4nc(c(-c5c(F)cc(S(=O)(=O)[O-])cc5F)c5ccc2[nH]5)C=C4)C=C3)cc1
REMARK SMILES IDX 21 1 20 2 18 3 19 4 3 6 4 7 2 8 1 9 5 10 6 13 7 14 8 15 9 16
REMARK SMILES IDX 10 18 11 19 16 20 12 21 15 22 17 23 13 24 14 25 22 26 23 27
REMARK SMILES IDX 24 28 25 29 26 31 27 32 28 33 92 34 29 35 91 36 30 37 31 38
REMARK SMILES IDX 32 39 85 40 33 41 90 42 84 43 86 44 34 45 89 46 83 47 82 48
REMARK SMILES IDX 35 50 69 51 48 52 68 53 49 54 52 55 67 56 87 57 50 58 51 59
REMARK SMILES IDX 66 61 88 62 53 63 36 64 37 65 46 66 38 67 39 68 45 69 47 70
REMARK SMILES IDX 40 71 41 72 42 73 43 74 44 75 70 76 71 77 80 78 72 79 73 80
REMARK SMILES IDX 79 81 81 82 74 83 75 84 76 85 77 86 78 87 54 88 55 89 64 90
REMARK SMILES IDX 56 91 57 92 63 93 65 94 58 95 59 96 60 97 61 98 62 99
REMARK H PARENT 20 5 5 11 5 12 9 17 24 30 86 49 52 60
REMARK Flexibility Score: inf
ROOT
ATOM      1  C   UNL A   1      33.003  29.283  26.934  1.00  0.00     0.118 C 
ENDROOT
BRANCH   1   2
ATOM      2  N   UNL A   1      32.493  29.262  25.562  1.00  0.00    -0.351 N 
ATOM      3  C   UNL A   1      31.581  28.501  24.867  1.00  0.00     0.281 C 
ATOM      4  O   UNL A   1      30.805  29.229  24.226  1.00  0.00    -0.268 OA
ATOM      5  H   UNL A   1      32.902  29.961  25.001  1.00  0.00     0.163 HD
BRANCH   3   6
ATOM      6  C   UNL A   1      31.611  26.885  24.616  1.00  0.00     0.172 C 
ATOM      7  C   UNL A   1      30.980  25.966  23.529  1.00  0.00     0.090 C 
BRANCH   6   8
ATOM      8  C   UNL A   1      33.164  26.638  24.349  1.00  0.00     0.075 C 
ATOM      9  C   UNL A   1      33.946  25.997  25.536  1.00  0.00     0.011 C 
ENDBRANCH   6   8
BRANCH   6  10
ATOM     10  N   UNL A   1      31.133  26.282  25.864  1.00  0.00    -0.326 N 
ATOM     11  H   UNL A   1      30.576  26.986  26.348  1.00  0.00     0.347 HD
ATOM     12  H   UNL A   1      31.981  25.983  26.346  1.00  0.00     0.347 HD
BRANCH  10  13
ATOM     13  C   UNL A   1      30.307  25.053  25.770  1.00  0.00     0.363 C 
BRANCH  13  14
ATOM     14  C   UNL A   1      30.485  23.733  26.592  1.00  0.00     0.279 C 
ATOM     15  O   UNL A   1      29.540  23.442  27.353  1.00  0.00    -0.268 OA
ATOM     16  N   UNL A   1      31.405  22.713  26.491  1.00  0.00    -0.319 N 
ATOM     17  H   UNL A   1      31.020  21.885  26.858  1.00  0.00     0.170 HD
BRANCH  16  18
ATOM     18  C   UNL A   1      32.726  22.463  26.029  1.00  0.00     0.077 A 
ATOM     19  C   UNL A   1      32.931  22.543  24.645  1.00  0.00     0.030 A 
ATOM     20  C   UNL A   1      33.806  21.960  26.774  1.00  0.00     0.147 A 
ATOM     21  C   UNL A   1      34.207  22.354  24.081  1.00  0.00     0.018 A 
ATOM     22  C   UNL A   1      35.086  21.798  26.235  1.00  0.00     0.057 A 
ATOM     23  F   UNL A   1      33.674  21.522  28.026  1.00  0.00    -0.205 F 
ATOM     24  C   UNL A   1      35.290  22.031  24.891  1.00  0.00     0.021 A 
ATOM     25  Br  UNL A   1      37.024  21.865  24.164  1.00  0.00    -0.051 Br
ENDBRANCH  16  18
ENDBRANCH  13  14
ENDBRANCH  10  13
ENDBRANCH   6  10
ENDBRANCH   3   6
ENDBRANCH   1   2
BRANCH   1  26
ATOM     26  C   UNL A   1      33.970  30.414  27.260  1.00  0.00     0.042 C 
BRANCH  26  27
ATOM     27  C   UNL A   1      35.228  29.955  27.986  1.00  0.00     0.118 C 
BRANCH  27  28
ATOM     28  N   UNL A   1      35.401  30.523  29.324  1.00  0.00    -0.352 N 
ATOM     29  C   UNL A   1      36.517  30.568  30.130  1.00  0.00     0.251 C 
ATOM     30  H   UNL A   1      34.593  30.936  29.707  1.00  0.00     0.163 HD
ATOM     31  O   UNL A   1      36.423  31.056  31.256  1.00  0.00    -0.269 OA
BRANCH  29  32
ATOM     32  C   UNL A   1      37.809  29.999  29.672  1.00  0.00     0.039 A 
ATOM     33  C   UNL A   1      38.165  30.104  28.324  1.00  0.00     0.014 A 
ATOM     34  C   UNL A   1      38.684  29.385  30.568  1.00  0.00     0.014 A 
ATOM     35  C   UNL A   1      39.427  29.672  27.901  1.00  0.00     0.010 A 
ATOM     36  C   UNL A   1      39.980  29.074  30.174  1.00  0.00     0.010 A 
ATOM     37  C   UNL A   1      40.365  29.195  28.833  1.00  0.00    -0.014 A 
BRANCH  37  38
ATOM     38  C   UNL A   1      41.736  28.788  28.426  1.00  0.00     0.031 A 
ATOM     39  C   UNL A   1      42.839  29.815  28.362  1.00  0.00     0.074 A 
ATOM     40  C   UNL A   1      41.974  27.514  28.050  1.00  0.00     0.049 A 
ATOM     41  N   UNL A   1      44.083  29.671  27.983  1.00  0.00    -0.248 NA
ATOM     42  C   UNL A   1      42.488  31.196  28.732  1.00  0.00     0.031 C 
ATOM     43  C   UNL A   1      40.973  26.445  27.986  1.00  0.00     0.029 A 
ATOM     44  N   UNL A   1      43.135  26.900  27.648  1.00  0.00    -0.354 N 
ATOM     45  C   UNL A   1      44.649  30.940  28.045  1.00  0.00     0.074 A 
ATOM     46  C   UNL A   1      43.595  31.853  28.426  1.00  0.00     0.031 C 
ATOM     47  C   UNL A   1      41.570  25.302  27.613  1.00  0.00     0.029 A 
ATOM     48  C   UNL A   1      42.987  25.559  27.379  1.00  0.00     0.049 A 
ATOM     49  H   UNL A   1      43.992  27.376  27.559  1.00  0.00     0.167 HD
ATOM     50  C   UNL A   1      45.935  31.308  27.844  1.00  0.00     0.037 A 
ATOM     51  C   UNL A   1      43.895  24.639  26.998  1.00  0.00     0.037 A 
ATOM     52  C   UNL A   1      46.989  30.385  27.517  1.00  0.00     0.049 A 
ATOM     53  C   UNL A   1      45.330  25.060  26.833  1.00  0.00     0.074 A 
ATOM     54  C   UNL A   1      48.341  30.638  27.362  1.00  0.00     0.029 A 
ATOM     55  N   UNL A   1      46.808  29.026  27.303  1.00  0.00    -0.354 N 
ATOM     56  N   UNL A   1      45.861  26.253  26.970  1.00  0.00    -0.248 NA
ATOM     57  C   UNL A   1      46.293  24.010  26.478  1.00  0.00     0.031 C 
ATOM     58  C   UNL A   1      48.973  29.436  27.022  1.00  0.00     0.029 A 
ATOM     59  C   UNL A   1      48.021  28.428  27.009  1.00  0.00     0.049 A 
ATOM     60  H   UNL A   1      45.944  28.557  27.353  1.00  0.00     0.167 HD
ATOM     61  C   UNL A   1      47.223  26.091  26.743  1.00  0.00     0.074 A 
ATOM     62  C   UNL A   1      47.435  24.683  26.477  1.00  0.00     0.031 C 
ATOM     63  C   UNL A   1      48.210  27.022  26.752  1.00  0.00     0.037 A 
BRANCH  50  64
ATOM     64  C   UNL A   1      46.276  32.767  27.998  1.00  0.00     0.058 A 
ATOM     65  C   UNL A   1      46.742  33.289  29.216  1.00  0.00     0.135 A 
ATOM     66  C   UNL A   1      46.151  33.651  26.914  1.00  0.00     0.135 A 
ATOM     67  F   UNL A   1      46.863  32.495  30.291  1.00  0.00    -0.206 F 
ATOM     68  C   UNL A   1      47.038  34.641  29.364  1.00  0.00     0.059 A 
ATOM     69  C   UNL A   1      46.471  35.002  27.031  1.00  0.00     0.059 A 
ATOM     70  F   UNL A   1      45.709  33.208  25.727  1.00  0.00    -0.206 F 
ATOM     71  C   UNL A   1      46.898  35.490  28.266  1.00  0.00     0.060 A 
BRANCH  71  72
ATOM     72  S   UNL A   1      47.288  37.239  28.475  1.00  0.00     0.124 S 
ATOM     73  O   UNL A   1      48.728  37.246  28.236  1.00  0.00    -0.237 OA
ATOM     74  O   UNL A   1      46.471  37.867  27.441  1.00  0.00    -0.237 OA
ATOM     75  O   UNL A   1      46.879  37.517  29.848  1.00  0.00    -0.744 OA
ENDBRANCH  71  72
ENDBRANCH  50  64
BRANCH  51  76
ATOM     76  C   UNL A   1      43.484  23.223  26.798  1.00  0.00     0.058 A 
ATOM     77  C   UNL A   1      43.430  22.663  25.512  1.00  0.00     0.135 A 
ATOM     78  C   UNL A   1      43.153  22.396  27.882  1.00  0.00     0.135 A 
ATOM     79  F   UNL A   1      43.734  23.414  24.441  1.00  0.00    -0.206 F 
ATOM     80  C   UNL A   1      43.044  21.343  25.305  1.00  0.00     0.059 A 
ATOM     81  C   UNL A   1      42.789  21.065  27.703  1.00  0.00     0.059 A 
ATOM     82  F   UNL A   1      43.207  22.876  29.134  1.00  0.00    -0.206 F 
ATOM     83  C   UNL A   1      42.726  20.551  26.408  1.00  0.00     0.060 A 
BRANCH  83  84
ATOM     84  S   UNL A   1      42.274  18.823  26.133  1.00  0.00     0.124 S 
ATOM     85  O   UNL A   1      40.871  18.945  25.753  1.00  0.00    -0.237 OA
ATOM     86  O   UNL A   1      43.192  18.430  25.068  1.00  0.00    -0.237 OA
ATOM     87  O   UNL A   1      42.527  18.200  27.428  1.00  0.00    -0.744 OA
ENDBRANCH  83  84
ENDBRANCH  51  76
BRANCH  63  88
ATOM     88  C   UNL A   1      49.610  26.540  26.498  1.00  0.00     0.058 A 
ATOM     89  C   UNL A   1      50.441  26.103  27.540  1.00  0.00     0.135 A 
ATOM     90  C   UNL A   1      50.113  26.482  25.188  1.00  0.00     0.135 A 
ATOM     91  F   UNL A   1      50.008  26.141  28.811  1.00  0.00    -0.206 F 
ATOM     92  C   UNL A   1      51.735  25.658  27.298  1.00  0.00     0.059 A 
ATOM     93  C   UNL A   1      51.394  26.014  24.919  1.00  0.00     0.059 A 
ATOM     94  F   UNL A   1      49.352  26.875  24.153  1.00  0.00    -0.206 F 
ATOM     95  C   UNL A   1      52.204  25.619  25.983  1.00  0.00     0.060 A 
BRANCH  95  96
ATOM     96  S   UNL A   1      53.882  25.029  25.677  1.00  0.00     0.124 S 
ATOM     97  O   UNL A   1      53.628  23.725  25.074  1.00  0.00    -0.237 OA
ATOM     98  O   UNL A   1      54.415  26.049  24.780  1.00  0.00    -0.237 OA
ATOM     99  O   UNL A   1      54.479  25.001  27.009  1.00  0.00    -0.744 OA
ENDBRANCH  95  96
ENDBRANCH  63  88
ENDBRANCH  37  38
ENDBRANCH  29  32
ENDBRANCH  27  28
ENDBRANCH  26  27
ENDBRANCH   1  26
TORSDOF 18
ENDMDL
