MODEL 1
REMARK VINA RESULT:     -12.4      0.000      0.000
REMARK SMILES Cc1ccc(NC(=O)N[C@@H]2C=C[C@@H](C(=O)NCCCNC(=O)c3ccc(-c4c5nc(c(-c6c(F)cc(S(=O)(=O)[O-])cc6F)c6ccc([nH]6)c(-c6c(F)cc(S(=O)(=O)[O-])cc6F)c6nc(c(-c7c(F)cc(S(=O)(=O)[O-])cc7F)c7ccc4[nH]7)C=C6)C=C5)cc3)C2)c(F)c1
REMARK SMILES IDX 18 1 17 2 16 3 14 4 15 5 13 7 10 8 11 9 89 10 12 11 9 12
REMARK SMILES IDX 6 13 7 14 8 16 5 18 1 19 2 20 3 21 92 22 4 23 90 24 91 25
REMARK SMILES IDX 19 26 20 27 21 28 22 30 23 31 24 32 88 33 25 34 87 35 26 36
REMARK SMILES IDX 27 37 28 38 81 39 29 40 86 41 80 42 82 43 30 44 85 45 79 46
REMARK SMILES IDX 78 47 31 49 65 50 44 51 64 52 45 53 48 54 63 55 83 56 46 57
REMARK SMILES IDX 47 58 62 60 84 61 49 62 32 63 33 64 42 65 34 66 35 67 41 68
REMARK SMILES IDX 43 69 36 70 37 71 38 72 39 73 40 74 66 75 67 76 76 77 68 78
REMARK SMILES IDX 69 79 75 80 77 81 70 82 71 83 72 84 73 85 74 86 50 87 51 88
REMARK SMILES IDX 60 89 52 90 53 91 59 92 61 93 54 94 55 95 56 96 57 97 58 98
REMARK H PARENT 16 6 6 15 9 17 20 29 82 48 48 59
REMARK Flexibility Score: inf
ROOT
ATOM      1  C   UNL A   1      32.051  27.700  27.182  1.00  0.00     0.042 C 
ENDROOT
BRANCH   1   2
ATOM      2  C   UNL A   1      31.971  26.458  26.309  1.00  0.00     0.117 C 
BRANCH   2   3
ATOM      3  N   UNL A   1      31.197  25.398  26.916  1.00  0.00    -0.356 N 
ATOM      4  C   UNL A   1      30.781  24.179  26.502  1.00  0.00     0.227 C 
ATOM      5  O   UNL A   1      30.180  23.515  27.360  1.00  0.00    -0.274 OA
ATOM      6  H   UNL A   1      30.908  25.610  27.833  1.00  0.00     0.163 HD
BRANCH   4   7
ATOM      7  C   UNL A   1      31.069  23.529  25.142  1.00  0.00     0.103 C 
ATOM      8  C   UNL A   1      32.292  24.616  23.318  1.00  0.00     0.107 C 
ATOM      9  C   UNL A   1      33.148  23.641  24.054  1.00  0.00    -0.006 C 
ATOM     10  C   UNL A   1      30.875  24.251  23.804  1.00  0.00     0.047 C 
ATOM     11  C   UNL A   1      32.499  23.082  25.078  1.00  0.00    -0.016 C 
BRANCH   8  12
ATOM     12  N   UNL A   1      32.496  24.545  21.891  1.00  0.00    -0.332 N 
ATOM     13  N   UNL A   1      32.775  26.821  21.237  1.00  0.00    -0.305 N 
ATOM     14  C   UNL A   1      32.712  25.497  20.952  1.00  0.00     0.319 C 
ATOM     15  H   UNL A   1      33.304  27.351  20.598  1.00  0.00     0.171 HD
ATOM     16  O   UNL A   1      33.024  25.123  19.819  1.00  0.00    -0.248 OA
ATOM     17  H   UNL A   1      32.475  23.630  21.531  1.00  0.00     0.165 HD
BRANCH  13  18
ATOM     18  C   UNL A   1      32.216  27.567  22.285  1.00  0.00     0.078 A 
ATOM     19  C   UNL A   1      30.346  30.628  24.624  1.00  0.00     0.044 C 
ATOM     20  C   UNL A   1      30.985  29.439  23.968  1.00  0.00    -0.048 A 
ATOM     21  C   UNL A   1      30.213  28.556  23.200  1.00  0.00     0.006 A 
ATOM     22  C   UNL A   1      32.373  29.273  23.999  1.00  0.00     0.045 A 
ATOM     23  C   UNL A   1      30.824  27.591  22.393  1.00  0.00     0.029 A 
ATOM     24  C   UNL A   1      32.979  28.339  23.163  1.00  0.00     0.147 A 
ATOM     25  F   UNL A   1      34.318  28.270  23.143  1.00  0.00    -0.205 F 
ENDBRANCH  13  18
ENDBRANCH   8  12
ENDBRANCH   4   7
ENDBRANCH   2   3
ENDBRANCH   1   2
BRANCH   1  26
ATOM     26  C   UNL A   1      33.440  28.315  27.253  1.00  0.00     0.118 C 
BRANCH  26  27
ATOM     27  N   UNL A   1      33.427  29.731  27.605  1.00  0.00    -0.352 N 
ATOM     28  C   UNL A   1      34.430  30.511  28.133  1.00  0.00     0.251 C 
ATOM     29  H   UNL A   1      32.575  30.196  27.441  1.00  0.00     0.163 HD
ATOM     30  O   UNL A   1      34.182  31.661  28.489  1.00  0.00    -0.269 OA
BRANCH  28  31
ATOM     31  C   UNL A   1      35.792  29.953  28.301  1.00  0.00     0.039 A 
ATOM     32  C   UNL A   1      36.712  30.066  27.256  1.00  0.00     0.014 A 
ATOM     33  C   UNL A   1      36.171  29.350  29.502  1.00  0.00     0.014 A 
ATOM     34  C   UNL A   1      38.036  29.661  27.453  1.00  0.00     0.010 A 
ATOM     35  C   UNL A   1      37.508  29.048  29.730  1.00  0.00     0.010 A 
ATOM     36  C   UNL A   1      38.458  29.196  28.709  1.00  0.00    -0.014 A 
BRANCH  36  37
ATOM     37  C   UNL A   1      39.878  28.845  28.986  1.00  0.00     0.031 A 
ATOM     38  C   UNL A   1      40.807  29.884  29.558  1.00  0.00     0.074 A 
ATOM     39  C   UNL A   1      40.356  27.633  28.635  1.00  0.00     0.049 A 
ATOM     40  N   UNL A   1      42.102  29.830  29.734  1.00  0.00    -0.248 NA
ATOM     41  C   UNL A   1      40.205  31.172  29.940  1.00  0.00     0.031 C 
ATOM     42  C   UNL A   1      39.579  26.559  28.013  1.00  0.00     0.029 A 
ATOM     43  N   UNL A   1      41.619  27.107  28.737  1.00  0.00    -0.354 N 
ATOM     44  C   UNL A   1      42.473  31.084  30.206  1.00  0.00     0.074 A 
ATOM     45  C   UNL A   1      41.275  31.894  30.238  1.00  0.00     0.031 C 
ATOM     46  C   UNL A   1      40.374  25.495  27.814  1.00  0.00     0.029 A 
ATOM     47  C   UNL A   1      41.726  25.822  28.258  1.00  0.00     0.049 A 
ATOM     48  H   UNL A   1      42.380  27.604  29.118  1.00  0.00     0.167 HD
ATOM     49  C   UNL A   1      43.693  31.516  30.603  1.00  0.00     0.037 A 
ATOM     50  C   UNL A   1      42.791  25.001  28.180  1.00  0.00     0.037 A 
ATOM     51  C   UNL A   1      44.870  30.689  30.628  1.00  0.00     0.049 A 
ATOM     52  C   UNL A   1      44.125  25.481  28.685  1.00  0.00     0.074 A 
ATOM     53  C   UNL A   1      46.139  31.009  31.078  1.00  0.00     0.029 A 
ATOM     54  N   UNL A   1      44.918  29.371  30.199  1.00  0.00    -0.354 N 
ATOM     55  N   UNL A   1      44.447  26.656  29.173  1.00  0.00    -0.248 NA
ATOM     56  C   UNL A   1      45.238  24.523  28.638  1.00  0.00     0.031 C 
ATOM     57  C   UNL A   1      46.960  29.889  30.902  1.00  0.00     0.029 A 
ATOM     58  C   UNL A   1      46.193  28.862  30.374  1.00  0.00     0.049 A 
ATOM     59  H   UNL A   1      44.156  28.870  29.826  1.00  0.00     0.167 HD
ATOM     60  C   UNL A   1      45.790  26.569  29.517  1.00  0.00     0.074 A 
ATOM     61  C   UNL A   1      46.219  25.224  29.190  1.00  0.00     0.031 C 
ATOM     62  C   UNL A   1      46.596  27.515  30.058  1.00  0.00     0.037 A 
BRANCH  49  63
ATOM     63  C   UNL A   1      43.808  32.946  31.055  1.00  0.00     0.058 A 
ATOM     64  C   UNL A   1      43.647  33.306  32.403  1.00  0.00     0.135 A 
ATOM     65  C   UNL A   1      44.087  33.969  30.134  1.00  0.00     0.135 A 
ATOM     66  F   UNL A   1      43.361  32.372  33.324  1.00  0.00    -0.206 F 
ATOM     67  C   UNL A   1      43.715  34.633  32.815  1.00  0.00     0.059 A 
ATOM     68  C   UNL A   1      44.189  35.300  30.530  1.00  0.00     0.059 A 
ATOM     69  F   UNL A   1      44.252  33.681  28.833  1.00  0.00    -0.206 F 
ATOM     70  C   UNL A   1      43.981  35.624  31.870  1.00  0.00     0.060 A 
BRANCH  70  71
ATOM     71  S   UNL A   1      44.053  37.342  32.416  1.00  0.00     0.124 S 
ATOM     72  O   UNL A   1      45.435  37.442  32.874  1.00  0.00    -0.237 OA
ATOM     73  O   UNL A   1      43.737  38.075  31.194  1.00  0.00    -0.237 OA
ATOM     74  O   UNL A   1      43.038  37.409  33.462  1.00  0.00    -0.744 OA
ENDBRANCH  70  71
ENDBRANCH  49  63
BRANCH  50  75
ATOM     75  C   UNL A   1      42.630  23.625  27.642  1.00  0.00     0.058 A 
ATOM     76  C   UNL A   1      42.742  23.376  26.266  1.00  0.00     0.135 A 
ATOM     77  C   UNL A   1      42.385  22.531  28.486  1.00  0.00     0.135 A 
ATOM     78  F   UNL A   1      42.972  24.392  25.419  1.00  0.00    -0.206 F 
ATOM     79  C   UNL A   1      42.600  22.096  25.742  1.00  0.00     0.059 A 
ATOM     80  C   UNL A   1      42.260  21.237  27.989  1.00  0.00     0.059 A 
ATOM     81  F   UNL A   1      42.288  22.713  29.813  1.00  0.00    -0.206 F 
ATOM     82  C   UNL A   1      42.361  21.032  26.613  1.00  0.00     0.060 A 
BRANCH  82  83
ATOM     83  S   UNL A   1      42.233  19.364  25.928  1.00  0.00     0.124 S 
ATOM     84  O   UNL A   1      42.749  18.556  27.028  1.00  0.00    -0.237 OA
ATOM     85  O   UNL A   1      40.801  19.248  25.668  1.00  0.00    -0.237 OA
ATOM     86  O   UNL A   1      43.075  19.427  24.738  1.00  0.00    -0.744 OA
ENDBRANCH  82  83
ENDBRANCH  50  75
BRANCH  62  87
ATOM     87  C   UNL A   1      48.011  27.120  30.374  1.00  0.00     0.058 A 
ATOM     88  C   UNL A   1      49.059  27.351  29.472  1.00  0.00     0.135 A 
ATOM     89  C   UNL A   1      48.324  26.551  31.619  1.00  0.00     0.135 A 
ATOM     90  F   UNL A   1      48.809  27.888  28.268  1.00  0.00    -0.206 F 
ATOM     91  C   UNL A   1      50.371  27.012  29.785  1.00  0.00     0.059 A 
ATOM     92  C   UNL A   1      49.632  26.226  31.961  1.00  0.00     0.059 A 
ATOM     93  F   UNL A   1      47.357  26.319  32.520  1.00  0.00    -0.206 F 
ATOM     94  C   UNL A   1      50.648  26.449  31.033  1.00  0.00     0.060 A 
BRANCH  94  95
ATOM     95  S   UNL A   1      52.359  26.046  31.444  1.00  0.00     0.124 S 
ATOM     96  O   UNL A   1      52.702  27.126  32.363  1.00  0.00    -0.237 OA
ATOM     97  O   UNL A   1      52.235  24.721  32.042  1.00  0.00    -0.237 OA
ATOM     98  O   UNL A   1      53.036  26.082  30.150  1.00  0.00    -0.744 OA
ENDBRANCH  94  95
ENDBRANCH  62  87
ENDBRANCH  36  37
ENDBRANCH  28  31
ENDBRANCH  26  27
ENDBRANCH   1  26
TORSDOF 15
ENDMDL
MODEL 2
REMARK VINA RESULT:     -12.4      1.721      3.303
REMARK SMILES Cc1ccc(NC(=O)N[C@@H]2C=C[C@@H](C(=O)NCCCNC(=O)c3ccc(-c4c5nc(c(-c6c(F)cc(S(=O)(=O)[O-])cc6F)c6ccc([nH]6)c(-c6c(F)cc(S(=O)(=O)[O-])cc6F)c6nc(c(-c7c(F)cc(S(=O)(=O)[O-])cc7F)c7ccc4[nH]7)C=C6)C=C5)cc3)C2)c(F)c1
REMARK SMILES IDX 18 1 17 2 16 3 14 4 15 5 13 7 10 8 11 9 89 10 12 11 9 12
REMARK SMILES IDX 6 13 7 14 8 16 5 18 1 19 2 20 3 21 92 22 4 23 90 24 91 25
REMARK SMILES IDX 19 26 20 27 21 28 22 30 23 31 24 32 88 33 25 34 87 35 26 36
REMARK SMILES IDX 27 37 28 38 81 39 29 40 86 41 80 42 82 43 30 44 85 45 79 46
REMARK SMILES IDX 78 47 31 49 65 50 44 51 64 52 45 53 48 54 63 55 83 56 46 57
REMARK SMILES IDX 47 58 62 60 84 61 49 62 32 63 33 64 42 65 34 66 35 67 41 68
REMARK SMILES IDX 43 69 36 70 37 71 38 72 39 73 40 74 66 75 67 76 76 77 68 78
REMARK SMILES IDX 69 79 75 80 77 81 70 82 71 83 72 84 73 85 74 86 50 87 51 88
REMARK SMILES IDX 60 89 52 90 53 91 59 92 61 93 54 94 55 95 56 96 57 97 58 98
REMARK H PARENT 16 6 6 15 9 17 20 29 82 48 48 59
REMARK Flexibility Score: inf
ROOT
ATOM      1  C   UNL A   1      33.263  26.841  26.055  1.00  0.00     0.042 C 
ENDROOT
BRANCH   1   2
ATOM      2  C   UNL A   1      33.739  25.683  25.193  1.00  0.00     0.117 C 
BRANCH   2   3
ATOM      3  N   UNL A   1      33.889  26.048  23.802  1.00  0.00    -0.356 N 
ATOM      4  C   UNL A   1      33.498  25.491  22.633  1.00  0.00     0.227 C 
ATOM      5  O   UNL A   1      33.763  26.160  21.623  1.00  0.00    -0.274 OA
ATOM      6  H   UNL A   1      34.389  26.888  23.678  1.00  0.00     0.163 HD
BRANCH   4   7
ATOM      7  C   UNL A   1      32.689  24.198  22.464  1.00  0.00     0.103 C 
ATOM      8  C   UNL A   1      32.447  22.479  24.193  1.00  0.00     0.107 C 
ATOM      9  C   UNL A   1      31.234  23.342  24.099  1.00  0.00    -0.006 C 
ATOM     10  C   UNL A   1      33.203  22.819  22.894  1.00  0.00     0.047 C 
ATOM     11  C   UNL A   1      31.381  24.310  23.190  1.00  0.00    -0.016 C 
BRANCH   8  12
ATOM     12  N   UNL A   1      32.106  21.087  24.367  1.00  0.00    -0.332 N 
ATOM     13  N   UNL A   1      33.824  20.250  25.794  1.00  0.00    -0.305 N 
ATOM     14  C   UNL A   1      32.692  20.085  25.065  1.00  0.00     0.319 C 
ATOM     15  H   UNL A   1      33.927  19.611  26.536  1.00  0.00     0.171 HD
ATOM     16  O   UNL A   1      32.075  19.022  25.168  1.00  0.00    -0.248 OA
ATOM     17  H   UNL A   1      31.292  20.813  23.887  1.00  0.00     0.165 HD
BRANCH  13  18
ATOM     18  C   UNL A   1      34.873  21.173  25.673  1.00  0.00     0.078 A 
ATOM     19  C   UNL A   1      38.587  23.265  26.075  1.00  0.00     0.044 C 
ATOM     20  C   UNL A   1      37.245  22.660  25.784  1.00  0.00    -0.048 A 
ATOM     21  C   UNL A   1      37.140  21.550  24.934  1.00  0.00     0.006 A 
ATOM     22  C   UNL A   1      36.105  23.105  26.460  1.00  0.00     0.045 A 
ATOM     23  C   UNL A   1      35.943  20.832  24.843  1.00  0.00     0.029 A 
ATOM     24  C   UNL A   1      34.928  22.364  26.398  1.00  0.00     0.147 A 
ATOM     25  F   UNL A   1      33.880  22.762  27.135  1.00  0.00    -0.205 F 
ENDBRANCH  13  18
ENDBRANCH   8  12
ENDBRANCH   4   7
ENDBRANCH   2   3
ENDBRANCH   1   2
BRANCH   1  26
ATOM     26  C   UNL A   1      34.349  27.857  26.376  1.00  0.00     0.118 C 
BRANCH  26  27
ATOM     27  N   UNL A   1      33.824  29.128  26.863  1.00  0.00    -0.352 N 
ATOM     28  C   UNL A   1      34.419  30.068  27.675  1.00  0.00     0.251 C 
ATOM     29  H   UNL A   1      32.910  29.345  26.569  1.00  0.00     0.163 HD
ATOM     30  O   UNL A   1      33.759  31.018  28.088  1.00  0.00    -0.269 OA
BRANCH  28  31
ATOM     31  C   UNL A   1      35.837  29.910  28.073  1.00  0.00     0.039 A 
ATOM     32  C   UNL A   1      36.139  29.444  29.355  1.00  0.00     0.014 A 
ATOM     33  C   UNL A   1      36.865  30.187  27.171  1.00  0.00     0.014 A 
ATOM     34  C   UNL A   1      37.468  29.167  29.696  1.00  0.00     0.010 A 
ATOM     35  C   UNL A   1      38.169  29.811  27.474  1.00  0.00     0.010 A 
ATOM     36  C   UNL A   1      38.488  29.300  28.740  1.00  0.00    -0.014 A 
BRANCH  36  37
ATOM     37  C   UNL A   1      39.899  28.925  29.033  1.00  0.00     0.031 A 
ATOM     38  C   UNL A   1      40.838  29.947  29.618  1.00  0.00     0.074 A 
ATOM     39  C   UNL A   1      40.361  27.706  28.685  1.00  0.00     0.049 A 
ATOM     40  N   UNL A   1      42.131  29.872  29.808  1.00  0.00    -0.248 NA
ATOM     41  C   UNL A   1      40.254  31.245  29.994  1.00  0.00     0.031 C 
ATOM     42  C   UNL A   1      39.573  26.646  28.053  1.00  0.00     0.029 A 
ATOM     43  N   UNL A   1      41.614  27.159  28.801  1.00  0.00    -0.354 N 
ATOM     44  C   UNL A   1      42.516  31.119  30.286  1.00  0.00     0.074 A 
ATOM     45  C   UNL A   1      41.331  31.949  30.306  1.00  0.00     0.031 C 
ATOM     46  C   UNL A   1      40.353  25.569  27.862  1.00  0.00     0.029 A 
ATOM     47  C   UNL A   1      41.705  25.873  28.321  1.00  0.00     0.049 A 
ATOM     48  H   UNL A   1      42.378  27.642  29.192  1.00  0.00     0.167 HD
ATOM     49  C   UNL A   1      43.739  31.530  30.698  1.00  0.00     0.037 A 
ATOM     50  C   UNL A   1      42.757  25.035  28.254  1.00  0.00     0.037 A 
ATOM     51  C   UNL A   1      44.902  30.683  30.735  1.00  0.00     0.049 A 
ATOM     52  C   UNL A   1      44.093  25.491  28.775  1.00  0.00     0.074 A 
ATOM     53  C   UNL A   1      46.171  30.981  31.201  1.00  0.00     0.029 A 
ATOM     54  N   UNL A   1      44.932  29.366  30.305  1.00  0.00    -0.354 N 
ATOM     55  N   UNL A   1      44.428  26.660  29.269  1.00  0.00    -0.248 NA
ATOM     56  C   UNL A   1      45.190  24.515  28.739  1.00  0.00     0.031 C 
ATOM     57  C   UNL A   1      46.975  29.848  31.032  1.00  0.00     0.029 A 
ATOM     58  C   UNL A   1      46.197  28.835  30.493  1.00  0.00     0.049 A 
ATOM     59  H   UNL A   1      44.167  28.878  29.922  1.00  0.00     0.167 HD
ATOM     60  C   UNL A   1      45.766  26.550  29.629  1.00  0.00     0.074 A 
ATOM     61  C   UNL A   1      46.177  25.199  29.303  1.00  0.00     0.031 C 
ATOM     62  C   UNL A   1      46.581  27.482  30.180  1.00  0.00     0.037 A 
BRANCH  49  63
ATOM     63  C   UNL A   1      43.872  32.957  31.154  1.00  0.00     0.058 A 
ATOM     64  C   UNL A   1      43.704  33.317  32.501  1.00  0.00     0.135 A 
ATOM     65  C   UNL A   1      44.177  33.976  30.238  1.00  0.00     0.135 A 
ATOM     66  F   UNL A   1      43.393  32.386  33.417  1.00  0.00    -0.206 F 
ATOM     67  C   UNL A   1      43.789  34.643  32.916  1.00  0.00     0.059 A 
ATOM     68  C   UNL A   1      44.297  35.306  30.637  1.00  0.00     0.059 A 
ATOM     69  F   UNL A   1      44.351  33.689  28.938  1.00  0.00    -0.206 F 
ATOM     70  C   UNL A   1      44.081  35.630  31.976  1.00  0.00     0.060 A 
BRANCH  70  71
ATOM     71  S   UNL A   1      44.175  37.346  32.525  1.00  0.00     0.124 S 
ATOM     72  O   UNL A   1      43.101  37.392  33.514  1.00  0.00    -0.237 OA
ATOM     73  O   UNL A   1      45.530  37.433  33.059  1.00  0.00    -0.237 OA
ATOM     74  O   UNL A   1      43.936  38.108  31.303  1.00  0.00    -0.744 OA
ENDBRANCH  70  71
ENDBRANCH  49  63
BRANCH  50  75
ATOM     75  C   UNL A   1      42.580  23.662  27.712  1.00  0.00     0.058 A 
ATOM     76  C   UNL A   1      42.610  23.428  26.329  1.00  0.00     0.135 A 
ATOM     77  C   UNL A   1      42.398  22.557  28.557  1.00  0.00     0.135 A 
ATOM     78  F   UNL A   1      42.776  24.455  25.481  1.00  0.00    -0.206 F 
ATOM     79  C   UNL A   1      42.451  22.152  25.800  1.00  0.00     0.059 A 
ATOM     80  C   UNL A   1      42.259  21.267  28.054  1.00  0.00     0.059 A 
ATOM     81  F   UNL A   1      42.381  22.724  29.890  1.00  0.00    -0.206 F 
ATOM     82  C   UNL A   1      42.278  21.076  26.673  1.00  0.00     0.060 A 
BRANCH  82  83
ATOM     83  S   UNL A   1      42.127  19.415  25.979  1.00  0.00     0.124 S 
ATOM     84  O   UNL A   1      42.683  18.598  27.053  1.00  0.00    -0.237 OA
ATOM     85  O   UNL A   1      40.687  19.298  25.769  1.00  0.00    -0.237 OA
ATOM     86  O   UNL A   1      42.927  19.488  24.761  1.00  0.00    -0.744 OA
ENDBRANCH  82  83
ENDBRANCH  50  75
BRANCH  62  87
ATOM     87  C   UNL A   1      47.985  27.062  30.511  1.00  0.00     0.058 A 
ATOM     88  C   UNL A   1      49.055  27.314  29.639  1.00  0.00     0.135 A 
ATOM     89  C   UNL A   1      48.268  26.450  31.743  1.00  0.00     0.135 A 
ATOM     90  F   UNL A   1      48.834  27.893  28.449  1.00  0.00    -0.206 F 
ATOM     91  C   UNL A   1      50.356  26.952  29.968  1.00  0.00     0.059 A 
ATOM     92  C   UNL A   1      49.565  26.100  32.101  1.00  0.00     0.059 A 
ATOM     93  F   UNL A   1      47.279  26.197  32.615  1.00  0.00    -0.206 F 
ATOM     94  C   UNL A   1      50.602  26.345  31.202  1.00  0.00     0.060 A 
BRANCH  94  95
ATOM     95  S   UNL A   1      52.300  25.912  31.634  1.00  0.00     0.124 S 
ATOM     96  O   UNL A   1      52.135  24.555  32.146  1.00  0.00    -0.237 OA
ATOM     97  O   UNL A   1      52.990  26.026  30.354  1.00  0.00    -0.237 OA
ATOM     98  O   UNL A   1      52.665  26.919  32.627  1.00  0.00    -0.744 OA
ENDBRANCH  94  95
ENDBRANCH  62  87
ENDBRANCH  36  37
ENDBRANCH  28  31
ENDBRANCH  26  27
ENDBRANCH   1  26
TORSDOF 15
ENDMDL
MODEL 3
REMARK VINA RESULT:     -12.3      2.961      4.164
REMARK SMILES Cc1ccc(NC(=O)N[C@@H]2C=C[C@@H](C(=O)NCCCNC(=O)c3ccc(-c4c5nc(c(-c6c(F)cc(S(=O)(=O)[O-])cc6F)c6ccc([nH]6)c(-c6c(F)cc(S(=O)(=O)[O-])cc6F)c6nc(c(-c7c(F)cc(S(=O)(=O)[O-])cc7F)c7ccc4[nH]7)C=C6)C=C5)cc3)C2)c(F)c1
REMARK SMILES IDX 18 1 17 2 16 3 14 4 15 5 13 7 10 8 11 9 89 10 12 11 9 12
REMARK SMILES IDX 6 13 7 14 8 16 5 18 1 19 2 20 3 21 92 22 4 23 90 24 91 25
REMARK SMILES IDX 19 26 20 27 21 28 22 30 23 31 24 32 88 33 25 34 87 35 26 36
REMARK SMILES IDX 27 37 28 38 81 39 29 40 86 41 80 42 82 43 30 44 85 45 79 46
REMARK SMILES IDX 78 47 31 49 65 50 44 51 64 52 45 53 48 54 63 55 83 56 46 57
REMARK SMILES IDX 47 58 62 60 84 61 49 62 32 63 33 64 42 65 34 66 35 67 41 68
REMARK SMILES IDX 43 69 36 70 37 71 38 72 39 73 40 74 66 75 67 76 76 77 68 78
REMARK SMILES IDX 69 79 75 80 77 81 70 82 71 83 72 84 73 85 74 86 50 87 51 88
REMARK SMILES IDX 60 89 52 90 53 91 59 92 61 93 54 94 55 95 56 96 57 97 58 98
REMARK H PARENT 16 6 6 15 9 17 20 29 82 48 48 59
REMARK Flexibility Score: inf
ROOT
ATOM      1  C   UNL A   1      35.322  32.475  27.960  1.00  0.00     0.042 C 
ENDROOT
BRANCH   1   2
ATOM      2  C   UNL A   1      33.961  31.884  28.286  1.00  0.00     0.117 C 
BRANCH   2   3
ATOM      3  N   UNL A   1      33.206  31.535  27.103  1.00  0.00    -0.356 N 
ATOM      4  C   UNL A   1      32.672  30.385  26.630  1.00  0.00     0.227 C 
ATOM      5  O   UNL A   1      32.017  30.507  25.584  1.00  0.00    -0.274 OA
ATOM      6  H   UNL A   1      33.046  32.304  26.509  1.00  0.00     0.163 HD
BRANCH   4   7
ATOM      7  C   UNL A   1      32.719  29.010  27.309  1.00  0.00     0.103 C 
ATOM      8  C   UNL A   1      31.600  27.004  26.457  1.00  0.00     0.107 C 
ATOM      9  C   UNL A   1      33.060  26.992  26.155  1.00  0.00    -0.006 C 
ATOM     10  C   UNL A   1      31.484  28.125  27.508  1.00  0.00     0.047 C 
ATOM     11  C   UNL A   1      33.665  28.106  26.577  1.00  0.00    -0.016 C 
BRANCH   8  12
ATOM     12  N   UNL A   1      31.125  25.707  26.876  1.00  0.00    -0.332 N 
ATOM     13  N   UNL A   1      30.359  24.696  24.857  1.00  0.00    -0.305 N 
ATOM     14  C   UNL A   1      30.576  24.673  26.195  1.00  0.00     0.319 C 
ATOM     15  H   UNL A   1      30.339  23.808  24.432  1.00  0.00     0.171 HD
ATOM     16  O   UNL A   1      30.419  23.609  26.799  1.00  0.00    -0.248 OA
ATOM     17  H   UNL A   1      31.217  25.542  27.842  1.00  0.00     0.165 HD
BRANCH  13  18
ATOM     18  C   UNL A   1      30.158  25.766  23.973  1.00  0.00     0.078 A 
ATOM     19  C   UNL A   1      30.177  29.608  22.083  1.00  0.00     0.044 C 
ATOM     20  C   UNL A   1      30.088  28.193  22.574  1.00  0.00    -0.048 A 
ATOM     21  C   UNL A   1      31.185  27.330  22.448  1.00  0.00     0.006 A 
ATOM     22  C   UNL A   1      28.964  27.760  23.286  1.00  0.00     0.045 A 
ATOM     23  C   UNL A   1      31.204  26.098  23.110  1.00  0.00     0.029 A 
ATOM     24  C   UNL A   1      29.004  26.551  23.975  1.00  0.00     0.147 A 
ATOM     25  F   UNL A   1      27.948  26.207  24.728  1.00  0.00    -0.205 F 
ENDBRANCH  13  18
ENDBRANCH   8  12
ENDBRANCH   4   7
ENDBRANCH   2   3
ENDBRANCH   1   2
BRANCH   1  26
ATOM     26  C   UNL A   1      36.263  32.549  29.154  1.00  0.00     0.118 C 
BRANCH  26  27
ATOM     27  N   UNL A   1      35.926  31.604  30.213  1.00  0.00    -0.352 N 
ATOM     28  C   UNL A   1      36.657  30.548  30.709  1.00  0.00     0.251 C 
ATOM     29  H   UNL A   1      35.047  31.741  30.634  1.00  0.00     0.163 HD
ATOM     30  O   UNL A   1      36.141  29.779  31.517  1.00  0.00    -0.269 OA
BRANCH  28  31
ATOM     31  C   UNL A   1      38.045  30.324  30.242  1.00  0.00     0.039 A 
ATOM     32  C   UNL A   1      39.086  30.315  31.173  1.00  0.00     0.014 A 
ATOM     33  C   UNL A   1      38.313  30.087  28.893  1.00  0.00     0.014 A 
ATOM     34  C   UNL A   1      40.380  29.975  30.761  1.00  0.00     0.010 A 
ATOM     35  C   UNL A   1      39.573  29.646  28.507  1.00  0.00     0.010 A 
ATOM     36  C   UNL A   1      40.624  29.587  29.434  1.00  0.00    -0.014 A 
BRANCH  36  37
ATOM     37  C   UNL A   1      41.964  29.127  28.979  1.00  0.00     0.031 A 
ATOM     38  C   UNL A   1      43.101  30.112  28.883  1.00  0.00     0.074 A 
ATOM     39  C   UNL A   1      42.136  27.856  28.560  1.00  0.00     0.049 A 
ATOM     40  N   UNL A   1      44.295  29.951  28.375  1.00  0.00    -0.248 NA
ATOM     41  C   UNL A   1      42.842  31.472  29.384  1.00  0.00     0.031 C 
ATOM     42  C   UNL A   1      41.102  26.819  28.539  1.00  0.00     0.029 A 
ATOM     43  N   UNL A   1      43.244  27.225  28.053  1.00  0.00    -0.354 N 
ATOM     44  C   UNL A   1      44.912  31.194  28.457  1.00  0.00     0.074 A 
ATOM     45  C   UNL A   1      43.942  32.111  29.015  1.00  0.00     0.031 C 
ATOM     46  C   UNL A   1      41.631  25.677  28.072  1.00  0.00     0.029 A 
ATOM     47  C   UNL A   1      43.029  25.906  27.723  1.00  0.00     0.049 A 
ATOM     48  H   UNL A   1      44.113  27.673  27.937  1.00  0.00     0.167 HD
ATOM     49  C   UNL A   1      46.179  31.538  28.125  1.00  0.00     0.037 A 
ATOM     50  C   UNL A   1      43.862  24.988  27.196  1.00  0.00     0.037 A 
ATOM     51  C   UNL A   1      47.160  30.609  27.629  1.00  0.00     0.049 A 
ATOM     52  C   UNL A   1      45.284  25.376  26.893  1.00  0.00     0.074 A 
ATOM     53  C   UNL A   1      48.492  30.841  27.330  1.00  0.00     0.029 A 
ATOM     54  N   UNL A   1      46.920  29.268  27.375  1.00  0.00    -0.354 N 
ATOM     55  N   UNL A   1      45.864  26.545  27.023  1.00  0.00    -0.248 NA
ATOM     56  C   UNL A   1      46.167  24.319  26.381  1.00  0.00     0.031 C 
ATOM     57  C   UNL A   1      49.051  29.641  26.874  1.00  0.00     0.029 A 
ATOM     58  C   UNL A   1      48.077  28.657  26.923  1.00  0.00     0.049 A 
ATOM     59  H   UNL A   1      46.054  28.815  27.499  1.00  0.00     0.167 HD
ATOM     60  C   UNL A   1      47.186  26.359  26.637  1.00  0.00     0.074 A 
ATOM     61  C   UNL A   1      47.323  24.962  26.276  1.00  0.00     0.031 C 
ATOM     62  C   UNL A   1      48.197  27.260  26.587  1.00  0.00     0.037 A 
BRANCH  49  63
ATOM     63  C   UNL A   1      46.575  32.978  28.305  1.00  0.00     0.058 A 
ATOM     64  C   UNL A   1      47.122  33.445  29.511  1.00  0.00     0.135 A 
ATOM     65  C   UNL A   1      46.413  33.901  27.259  1.00  0.00     0.135 A 
ATOM     66  F   UNL A   1      47.283  32.610  30.550  1.00  0.00    -0.206 F 
ATOM     67  C   UNL A   1      47.453  34.785  29.689  1.00  0.00     0.059 A 
ATOM     68  C   UNL A   1      46.765  35.240  27.406  1.00  0.00     0.059 A 
ATOM     69  F   UNL A   1      45.897  33.508  26.084  1.00  0.00    -0.206 F 
ATOM     70  C   UNL A   1      47.266  35.676  28.633  1.00  0.00     0.060 A 
BRANCH  70  71
ATOM     71  S   UNL A   1      47.686  37.413  28.882  1.00  0.00     0.124 S 
ATOM     72  O   UNL A   1      46.687  37.812  29.870  1.00  0.00    -0.237 OA
ATOM     73  O   UNL A   1      49.060  37.339  29.367  1.00  0.00    -0.237 OA
ATOM     74  O   UNL A   1      47.523  37.996  27.554  1.00  0.00    -0.744 OA
ENDBRANCH  70  71
ENDBRANCH  49  63
BRANCH  50  75
ATOM     75  C   UNL A   1      43.385  23.600  26.962  1.00  0.00     0.058 A 
ATOM     76  C   UNL A   1      43.133  23.139  25.661  1.00  0.00     0.135 A 
ATOM     77  C   UNL A   1      43.190  22.703  28.022  1.00  0.00     0.135 A 
ATOM     78  F   UNL A   1      43.301  23.963  24.615  1.00  0.00    -0.206 F 
ATOM     79  C   UNL A   1      42.691  21.843  25.419  1.00  0.00     0.059 A 
ATOM     80  C   UNL A   1      42.768  21.394  27.805  1.00  0.00     0.059 A 
ATOM     81  F   UNL A   1      43.434  23.089  29.285  1.00  0.00    -0.206 F 
ATOM     82  C   UNL A   1      42.513  20.977  26.499  1.00  0.00     0.060 A 
BRANCH  82  83
ATOM     83  S   UNL A   1      41.991  19.279  26.170  1.00  0.00     0.124 S 
ATOM     84  O   UNL A   1      42.377  18.609  27.407  1.00  0.00    -0.237 OA
ATOM     85  O   UNL A   1      40.556  19.435  25.950  1.00  0.00    -0.237 OA
ATOM     86  O   UNL A   1      42.763  18.915  24.986  1.00  0.00    -0.744 OA
ENDBRANCH  82  83
ENDBRANCH  50  75
BRANCH  62  87
ATOM     87  C   UNL A   1      49.551  26.759  26.172  1.00  0.00     0.058 A 
ATOM     88  C   UNL A   1      50.014  26.892  24.855  1.00  0.00     0.135 A 
ATOM     89  C   UNL A   1      50.413  26.186  27.120  1.00  0.00     0.135 A 
ATOM     90  F   UNL A   1      49.225  27.428  23.911  1.00  0.00    -0.206 F 
ATOM     91  C   UNL A   1      51.282  26.455  24.486  1.00  0.00     0.059 A 
ATOM     92  C   UNL A   1      51.694  25.763  26.778  1.00  0.00     0.059 A 
ATOM     93  F   UNL A   1      50.019  26.047  28.396  1.00  0.00    -0.206 F 
ATOM     94  C   UNL A   1      52.115  25.891  25.455  1.00  0.00     0.060 A 
BRANCH  94  95
ATOM     95  S   UNL A   1      53.771  25.359  24.975  1.00  0.00     0.124 S 
ATOM     96  O   UNL A   1      54.557  25.762  26.136  1.00  0.00    -0.237 OA
ATOM     97  O   UNL A   1      53.600  23.922  24.792  1.00  0.00    -0.237 OA
ATOM     98  O   UNL A   1      54.028  26.113  23.750  1.00  0.00    -0.744 OA
ENDBRANCH  94  95
ENDBRANCH  62  87
ENDBRANCH  36  37
ENDBRANCH  28  31
ENDBRANCH  26  27
ENDBRANCH   1  26
TORSDOF 15
ENDMDL
