MODEL 1
REMARK VINA RESULT:     -11.5      0.000      0.000
REMARK SMILES C[C@@H](CC(=O)NCCCNC(=O)c1ccc(-c2c3nc(c(-c4c(F)cc(S(=O)(=O)[O-])cc4F)c4ccc([nH]4)c(-c4c(F)cc(S(=O)(=O)[O-])cc4F)c4nc(c(-c5c(F)cc(S(=O)(=O)[O-])cc5F)c5ccc2[nH]5)C=C4)C=C3)cc1)NC(=O)/C=C/c1cccnc1
REMARK SMILES IDX 7 1 6 2 4 3 5 4 3 6 2 7 1 8 79 9 80 10 81 12 82 13 83 14
REMARK SMILES IDX 84 15 85 16 89 17 86 18 88 19 87 20 8 21 9 22 10 23 11 24
REMARK SMILES IDX 12 26 13 27 14 28 78 29 15 30 77 31 16 32 17 33 18 34 71 35
REMARK SMILES IDX 19 36 76 37 70 38 72 39 20 40 75 41 69 42 68 43 21 45 55 46
REMARK SMILES IDX 34 47 54 48 35 49 38 50 53 51 73 52 36 53 37 54 52 56 74 57
REMARK SMILES IDX 39 58 22 59 23 60 32 61 24 62 25 63 31 64 33 65 26 66 27 67
REMARK SMILES IDX 28 68 29 69 30 70 56 71 57 72 66 73 58 74 59 75 65 76 67 77
REMARK SMILES IDX 60 78 61 79 62 80 63 81 64 82 40 83 41 84 50 85 42 86 43 87
REMARK SMILES IDX 49 88 51 89 44 90 45 91 46 92 47 93 48 94
REMARK H PARENT 6 5 79 11 10 25 72 44 38 55
REMARK Flexibility Score: inf
ROOT
ATOM      1  C   UNL A   1      34.347  29.229  27.287  1.00  0.00     0.117 C 
ENDROOT
BRANCH   1   2
ATOM      2  N   UNL A   1      33.156  28.629  27.865  1.00  0.00    -0.356 N 
ATOM      3  C   UNL A   1      31.992  28.221  27.291  1.00  0.00     0.222 C 
ATOM      4  O   UNL A   1      31.064  27.892  28.031  1.00  0.00    -0.275 OA
ATOM      5  H   UNL A   1      33.199  28.495  28.840  1.00  0.00     0.163 HD
BRANCH   3   6
ATOM      6  C   UNL A   1      31.857  28.123  25.789  1.00  0.00     0.124 C 
BRANCH   6   7
ATOM      7  C   UNL A   1      31.587  26.729  25.209  1.00  0.00     0.088 C 
ATOM      8  C   UNL A   1      30.610  26.738  24.041  1.00  0.00     0.031 C 
BRANCH   7   9
ATOM      9  N   UNL A   1      31.122  25.751  26.187  1.00  0.00    -0.350 N 
ATOM     10  C   UNL A   1      31.698  24.598  26.636  1.00  0.00     0.244 C 
ATOM     11  H   UNL A   1      30.249  25.957  26.591  1.00  0.00     0.164 HD
ATOM     12  O   UNL A   1      31.052  23.837  27.353  1.00  0.00    -0.270 OA
BRANCH  10  13
ATOM     13  C   UNL A   1      33.137  24.301  26.393  1.00  0.00     0.072 C 
ATOM     14  C   UNL A   1      33.655  23.111  26.066  1.00  0.00     0.015 C 
BRANCH  14  15
ATOM     15  C   UNL A   1      35.042  22.858  25.706  1.00  0.00    -0.007 A 
ATOM     16  C   UNL A   1      36.020  23.838  25.826  1.00  0.00     0.011 A 
ATOM     17  C   UNL A   1      35.445  21.564  25.380  1.00  0.00     0.119 A 
ATOM     18  C   UNL A   1      37.355  23.486  25.642  1.00  0.00     0.021 A 
ATOM     19  N   UNL A   1      36.732  21.195  25.186  1.00  0.00    -0.264 NA
ATOM     20  C   UNL A   1      37.658  22.167  25.335  1.00  0.00     0.111 A 
ENDBRANCH  14  15
ENDBRANCH  10  13
ENDBRANCH   7   9
ENDBRANCH   6   7
ENDBRANCH   3   6
ENDBRANCH   1   2
BRANCH   1  21
ATOM     21  C   UNL A   1      34.345  30.746  27.465  1.00  0.00     0.042 C 
BRANCH  21  22
ATOM     22  C   UNL A   1      35.587  31.281  28.157  1.00  0.00     0.118 C 
BRANCH  22  23
ATOM     23  N   UNL A   1      35.471  31.209  29.600  1.00  0.00    -0.352 N 
ATOM     24  C   UNL A   1      36.325  30.622  30.502  1.00  0.00     0.251 C 
ATOM     25  H   UNL A   1      34.673  31.638  29.985  1.00  0.00     0.163 HD
ATOM     26  O   UNL A   1      35.950  30.437  31.656  1.00  0.00    -0.269 OA
BRANCH  24  27
ATOM     27  C   UNL A   1      37.680  30.196  30.076  1.00  0.00     0.039 A 
ATOM     28  C   UNL A   1      38.608  29.815  31.049  1.00  0.00     0.014 A 
ATOM     29  C   UNL A   1      38.044  30.184  28.727  1.00  0.00     0.014 A 
ATOM     30  C   UNL A   1      39.881  29.385  30.663  1.00  0.00     0.010 A 
ATOM     31  C   UNL A   1      39.272  29.660  28.339  1.00  0.00     0.010 A 
ATOM     32  C   UNL A   1      40.216  29.277  29.303  1.00  0.00    -0.014 A 
BRANCH  32  33
ATOM     33  C   UNL A   1      41.565  28.834  28.863  1.00  0.00     0.031 A 
ATOM     34  C   UNL A   1      42.681  29.845  28.767  1.00  0.00     0.074 A 
ATOM     35  C   UNL A   1      41.780  27.551  28.508  1.00  0.00     0.049 A 
ATOM     36  N   UNL A   1      43.893  29.697  28.297  1.00  0.00    -0.248 NA
ATOM     37  C   UNL A   1      42.385  31.212  29.232  1.00  0.00     0.031 C 
ATOM     38  C   UNL A   1      40.776  26.485  28.529  1.00  0.00     0.029 A 
ATOM     39  N   UNL A   1      42.913  26.926  28.048  1.00  0.00    -0.354 N 
ATOM     40  C   UNL A   1      44.496  30.946  28.406  1.00  0.00     0.074 A 
ATOM     41  C   UNL A   1      43.498  31.857  28.918  1.00  0.00     0.031 C 
ATOM     42  C   UNL A   1      41.342  25.337  28.120  1.00  0.00     0.029 A 
ATOM     43  C   UNL A   1      42.734  25.592  27.765  1.00  0.00     0.049 A 
ATOM     44  H   UNL A   1      43.773  27.390  27.932  1.00  0.00     0.167 HD
ATOM     45  C   UNL A   1      45.776  31.297  28.139  1.00  0.00     0.037 A 
ATOM     46  C   UNL A   1      43.592  24.683  27.262  1.00  0.00     0.037 A 
ATOM     47  C   UNL A   1      46.776  30.380  27.661  1.00  0.00     0.049 A 
ATOM     48  C   UNL A   1      45.004  25.107  26.945  1.00  0.00     0.074 A 
ATOM     49  C   UNL A   1      48.107  30.632  27.376  1.00  0.00     0.029 A 
ATOM     50  N   UNL A   1      46.561  29.033  27.414  1.00  0.00    -0.354 N 
ATOM     51  N   UNL A   1      45.563  26.286  27.084  1.00  0.00    -0.248 NA
ATOM     52  C   UNL A   1      45.907  24.077  26.409  1.00  0.00     0.031 C 
ATOM     53  C   UNL A   1      48.688  29.443  26.926  1.00  0.00     0.029 A 
ATOM     54  C   UNL A   1      47.733  28.441  26.978  1.00  0.00     0.049 A 
ATOM     55  H   UNL A   1      45.701  28.567  27.530  1.00  0.00     0.167 HD
ATOM     56  C   UNL A   1      46.890  26.127  26.696  1.00  0.00     0.074 A 
ATOM     57  C   UNL A   1      47.052  24.738  26.323  1.00  0.00     0.031 C 
ATOM     58  C   UNL A   1      47.884  27.046  26.651  1.00  0.00     0.037 A 
BRANCH  45  59
ATOM     59  C   UNL A   1      46.182  32.723  28.391  1.00  0.00     0.058 A 
ATOM     60  C   UNL A   1      46.009  33.713  27.411  1.00  0.00     0.135 A 
ATOM     61  C   UNL A   1      46.684  33.119  29.641  1.00  0.00     0.135 A 
ATOM     62  F   UNL A   1      45.553  33.386  26.192  1.00  0.00    -0.206 F 
ATOM     63  C   UNL A   1      46.330  35.043  27.656  1.00  0.00     0.059 A 
ATOM     64  C   UNL A   1      46.985  34.450  29.918  1.00  0.00     0.059 A 
ATOM     65  F   UNL A   1      46.874  32.212  30.612  1.00  0.00    -0.206 F 
ATOM     66  C   UNL A   1      46.810  35.404  28.916  1.00  0.00     0.060 A 
BRANCH  66  67
ATOM     67  S   UNL A   1      47.180  37.143  29.226  1.00  0.00     0.124 S 
ATOM     68  O   UNL A   1      48.275  37.380  28.290  1.00  0.00    -0.237 OA
ATOM     69  O   UNL A   1      45.915  37.793  28.898  1.00  0.00    -0.237 OA
ATOM     70  O   UNL A   1      47.547  37.166  30.639  1.00  0.00    -0.744 OA
ENDBRANCH  66  67
ENDBRANCH  45  59
BRANCH  46  71
ATOM     71  C   UNL A   1      43.159  23.277  27.022  1.00  0.00     0.058 A 
ATOM     72  C   UNL A   1      42.986  22.380  28.087  1.00  0.00     0.135 A 
ATOM     73  C   UNL A   1      42.957  22.789  25.721  1.00  0.00     0.135 A 
ATOM     74  F   UNL A   1      43.169  22.797  29.350  1.00  0.00    -0.206 F 
ATOM     75  C   UNL A   1      42.679  21.040  27.872  1.00  0.00     0.059 A 
ATOM     76  C   UNL A   1      42.617  21.461  25.482  1.00  0.00     0.059 A 
ATOM     77  F   UNL A   1      43.085  23.608  24.666  1.00  0.00    -0.206 F 
ATOM     78  C   UNL A   1      42.505  20.588  26.564  1.00  0.00     0.060 A 
BRANCH  78  79
ATOM     79  S   UNL A   1      42.120  18.845  26.292  1.00  0.00     0.124 S 
ATOM     80  O   UNL A   1      40.735  18.918  25.840  1.00  0.00    -0.237 OA
ATOM     81  O   UNL A   1      43.102  18.466  25.281  1.00  0.00    -0.237 OA
ATOM     82  O   UNL A   1      42.325  18.248  27.608  1.00  0.00    -0.744 OA
ENDBRANCH  78  79
ENDBRANCH  46  71
BRANCH  58  83
ATOM     83  C   UNL A   1      49.256  26.574  26.257  1.00  0.00     0.058 A 
ATOM     84  C   UNL A   1      49.750  26.732  24.953  1.00  0.00     0.135 A 
ATOM     85  C   UNL A   1      50.112  26.017  27.221  1.00  0.00     0.135 A 
ATOM     86  F   UNL A   1      48.968  27.253  23.994  1.00  0.00    -0.206 F 
ATOM     87  C   UNL A   1      51.039  26.338  24.614  1.00  0.00     0.059 A 
ATOM     88  C   UNL A   1      51.417  25.644  26.911  1.00  0.00     0.059 A 
ATOM     89  F   UNL A   1      49.692  25.854  28.486  1.00  0.00    -0.206 F 
ATOM     90  C   UNL A   1      51.867  25.800  25.602  1.00  0.00     0.060 A 
BRANCH  90  91
ATOM     91  S   UNL A   1      53.555  25.340  25.158  1.00  0.00     0.124 S 
ATOM     92  O   UNL A   1      53.541  23.901  25.398  1.00  0.00    -0.237 OA
ATOM     93  O   UNL A   1      53.633  25.750  23.760  1.00  0.00    -0.237 OA
ATOM     94  O   UNL A   1      54.374  26.121  26.080  1.00  0.00    -0.744 OA
ENDBRANCH  90  91
ENDBRANCH  58  83
ENDBRANCH  32  33
ENDBRANCH  24  27
ENDBRANCH  22  23
ENDBRANCH  21  22
ENDBRANCH   1  21
TORSDOF 17
ENDMDL
MODEL 2
REMARK VINA RESULT:     -11.5      6.429     12.100
REMARK SMILES C[C@@H](CC(=O)NCCCNC(=O)c1ccc(-c2c3nc(c(-c4c(F)cc(S(=O)(=O)[O-])cc4F)c4ccc([nH]4)c(-c4c(F)cc(S(=O)(=O)[O-])cc4F)c4nc(c(-c5c(F)cc(S(=O)(=O)[O-])cc5F)c5ccc2[nH]5)C=C4)C=C3)cc1)NC(=O)/C=C/c1cccnc1
REMARK SMILES IDX 7 1 6 2 4 3 5 4 3 6 2 7 1 8 79 9 80 10 81 12 82 13 83 14
REMARK SMILES IDX 84 15 85 16 89 17 86 18 88 19 87 20 8 21 9 22 10 23 11 24
REMARK SMILES IDX 12 26 13 27 14 28 78 29 15 30 77 31 16 32 17 33 18 34 71 35
REMARK SMILES IDX 19 36 76 37 70 38 72 39 20 40 75 41 69 42 68 43 21 45 55 46
REMARK SMILES IDX 34 47 54 48 35 49 38 50 53 51 73 52 36 53 37 54 52 56 74 57
REMARK SMILES IDX 39 58 22 59 23 60 32 61 24 62 25 63 31 64 33 65 26 66 27 67
REMARK SMILES IDX 28 68 29 69 30 70 56 71 57 72 66 73 58 74 59 75 65 76 67 77
REMARK SMILES IDX 60 78 61 79 62 80 63 81 64 82 40 83 41 84 50 85 42 86 43 87
REMARK SMILES IDX 49 88 51 89 44 90 45 91 46 92 47 93 48 94
REMARK H PARENT 6 5 79 11 10 25 72 44 38 55
REMARK Flexibility Score: inf
ROOT
ATOM      1  C   UNL A   1      37.917  23.605  25.962  1.00  0.00     0.117 C 
ENDROOT
BRANCH   1   2
ATOM      2  N   UNL A   1      37.591  23.510  24.548  1.00  0.00    -0.356 N 
ATOM      3  C   UNL A   1      36.464  23.083  23.918  1.00  0.00     0.222 C 
ATOM      4  O   UNL A   1      36.499  22.946  22.694  1.00  0.00    -0.275 OA
ATOM      5  H   UNL A   1      38.309  23.806  23.943  1.00  0.00     0.163 HD
BRANCH   3   6
ATOM      6  C   UNL A   1      35.187  22.834  24.687  1.00  0.00     0.124 C 
BRANCH   6   7
ATOM      7  C   UNL A   1      33.871  23.131  23.959  1.00  0.00     0.088 C 
ATOM      8  C   UNL A   1      33.149  21.879  23.478  1.00  0.00     0.031 C 
BRANCH   7   9
ATOM      9  N   UNL A   1      34.003  24.045  22.829  1.00  0.00    -0.350 N 
ATOM     10  C   UNL A   1      33.687  25.367  22.712  1.00  0.00     0.244 C 
ATOM     11  H   UNL A   1      34.384  23.642  22.016  1.00  0.00     0.164 HD
ATOM     12  O   UNL A   1      33.734  25.907  21.608  1.00  0.00    -0.270 OA
BRANCH  10  13
ATOM     13  C   UNL A   1      33.417  26.211  23.908  1.00  0.00     0.072 C 
ATOM     14  C   UNL A   1      33.847  27.463  24.107  1.00  0.00     0.015 C 
BRANCH  14  15
ATOM     15  C   UNL A   1      33.473  28.324  25.220  1.00  0.00    -0.007 A 
ATOM     16  C   UNL A   1      34.043  28.182  26.479  1.00  0.00     0.011 A 
ATOM     17  C   UNL A   1      32.641  29.419  24.995  1.00  0.00     0.119 A 
ATOM     18  C   UNL A   1      33.783  29.145  27.450  1.00  0.00     0.021 A 
ATOM     19  N   UNL A   1      32.363  30.364  25.922  1.00  0.00    -0.264 NA
ATOM     20  C   UNL A   1      32.953  30.209  27.126  1.00  0.00     0.111 A 
ENDBRANCH  14  15
ENDBRANCH  10  13
ENDBRANCH   7   9
ENDBRANCH   6   7
ENDBRANCH   3   6
ENDBRANCH   1   2
BRANCH   1  21
ATOM     21  C   UNL A   1      38.843  22.470  26.393  1.00  0.00     0.042 C 
BRANCH  21  22
ATOM     22  C   UNL A   1      40.080  22.941  27.138  1.00  0.00     0.118 C 
BRANCH  22  23
ATOM     23  N   UNL A   1      41.110  23.405  26.231  1.00  0.00    -0.352 N 
ATOM     24  C   UNL A   1      41.715  24.638  26.176  1.00  0.00     0.251 C 
ATOM     25  H   UNL A   1      41.417  22.749  25.564  1.00  0.00     0.163 HD
ATOM     26  O   UNL A   1      42.382  24.939  25.191  1.00  0.00    -0.269 OA
BRANCH  24  27
ATOM     27  C   UNL A   1      41.541  25.603  27.288  1.00  0.00     0.039 A 
ATOM     28  C   UNL A   1      42.496  26.606  27.471  1.00  0.00     0.014 A 
ATOM     29  C   UNL A   1      40.452  25.514  28.159  1.00  0.00     0.014 A 
ATOM     30  C   UNL A   1      42.333  27.541  28.497  1.00  0.00     0.010 A 
ATOM     31  C   UNL A   1      40.238  26.503  29.113  1.00  0.00     0.010 A 
ATOM     32  C   UNL A   1      41.189  27.514  29.312  1.00  0.00    -0.014 A 
BRANCH  32  33
ATOM     33  C   UNL A   1      40.995  28.487  30.419  1.00  0.00     0.031 A 
ATOM     34  C   UNL A   1      41.852  28.382  31.656  1.00  0.00     0.074 A 
ATOM     35  C   UNL A   1      40.031  29.427  30.340  1.00  0.00     0.049 A 
ATOM     36  N   UNL A   1      41.771  29.048  32.779  1.00  0.00    -0.248 NA
ATOM     37  C   UNL A   1      42.925  27.370  31.640  1.00  0.00     0.031 C 
ATOM     38  C   UNL A   1      39.117  29.614  29.211  1.00  0.00     0.029 A 
ATOM     39  N   UNL A   1      39.650  30.397  31.234  1.00  0.00    -0.354 N 
ATOM     40  C   UNL A   1      42.771  28.535  33.597  1.00  0.00     0.074 A 
ATOM     41  C   UNL A   1      43.400  27.454  32.873  1.00  0.00     0.031 C 
ATOM     42  C   UNL A   1      38.297  30.645  29.472  1.00  0.00     0.029 A 
ATOM     43  C   UNL A   1      38.593  31.165  30.803  1.00  0.00     0.049 A 
ATOM     44  H   UNL A   1      40.092  30.531  32.103  1.00  0.00     0.167 HD
ATOM     45  C   UNL A   1      43.158  28.948  34.827  1.00  0.00     0.037 A 
ATOM     46  C   UNL A   1      37.930  32.164  31.418  1.00  0.00     0.037 A 
ATOM     47  C   UNL A   1      42.551  30.045  35.532  1.00  0.00     0.049 A 
ATOM     48  C   UNL A   1      38.362  32.585  32.801  1.00  0.00     0.074 A 
ATOM     49  C   UNL A   1      42.880  30.555  36.776  1.00  0.00     0.029 A 
ATOM     50  N   UNL A   1      41.502  30.813  35.048  1.00  0.00    -0.354 N 
ATOM     51  N   UNL A   1      39.330  32.107  33.544  1.00  0.00    -0.248 NA
ATOM     52  C   UNL A   1      37.615  33.687  33.427  1.00  0.00     0.031 C 
ATOM     53  C   UNL A   1      42.009  31.611  37.058  1.00  0.00     0.029 A 
ATOM     54  C   UNL A   1      41.171  31.791  35.970  1.00  0.00     0.049 A 
ATOM     55  H   UNL A   1      41.059  30.681  34.179  1.00  0.00     0.167 HD
ATOM     56  C   UNL A   1      39.337  32.877  34.703  1.00  0.00     0.074 A 
ATOM     57  C   UNL A   1      38.281  33.857  34.560  1.00  0.00     0.031 C 
ATOM     58  C   UNL A   1      40.143  32.784  35.789  1.00  0.00     0.037 A 
BRANCH  45  59
ATOM     59  C   UNL A   1      44.312  28.238  35.478  1.00  0.00     0.058 A 
ATOM     60  C   UNL A   1      44.115  27.078  36.244  1.00  0.00     0.135 A 
ATOM     61  C   UNL A   1      45.632  28.676  35.281  1.00  0.00     0.135 A 
ATOM     62  F   UNL A   1      42.874  26.627  36.482  1.00  0.00    -0.206 F 
ATOM     63  C   UNL A   1      45.183  26.385  36.802  1.00  0.00     0.059 A 
ATOM     64  C   UNL A   1      46.718  27.982  35.806  1.00  0.00     0.059 A 
ATOM     65  F   UNL A   1      45.876  29.782  34.560  1.00  0.00    -0.206 F 
ATOM     66  C   UNL A   1      46.482  26.840  36.571  1.00  0.00     0.060 A 
BRANCH  66  67
ATOM     67  S   UNL A   1      47.856  25.900  37.269  1.00  0.00     0.124 S 
ATOM     68  O   UNL A   1      48.464  26.887  38.156  1.00  0.00    -0.237 OA
ATOM     69  O   UNL A   1      47.171  24.793  37.929  1.00  0.00    -0.237 OA
ATOM     70  O   UNL A   1      48.649  25.536  36.099  1.00  0.00    -0.744 OA
ENDBRANCH  66  67
ENDBRANCH  45  59
BRANCH  46  71
ATOM     71  C   UNL A   1      36.788  32.847  30.747  1.00  0.00     0.058 A 
ATOM     72  C   UNL A   1      37.004  33.877  29.819  1.00  0.00     0.135 A 
ATOM     73  C   UNL A   1      35.459  32.519  31.057  1.00  0.00     0.135 A 
ATOM     74  F   UNL A   1      38.256  34.230  29.490  1.00  0.00    -0.206 F 
ATOM     75  C   UNL A   1      35.949  34.590  29.260  1.00  0.00     0.059 A 
ATOM     76  C   UNL A   1      34.385  33.196  30.486  1.00  0.00     0.059 A 
ATOM     77  F   UNL A   1      35.193  31.526  31.920  1.00  0.00    -0.206 F 
ATOM     78  C   UNL A   1      34.641  34.247  29.607  1.00  0.00     0.060 A 
BRANCH  78  79
ATOM     79  S   UNL A   1      33.277  35.186  28.889  1.00  0.00     0.124 S 
ATOM     80  O   UNL A   1      32.609  34.166  28.088  1.00  0.00    -0.237 OA
ATOM     81  O   UNL A   1      32.557  35.642  30.074  1.00  0.00    -0.237 OA
ATOM     82  O   UNL A   1      33.955  36.237  28.135  1.00  0.00    -0.744 OA
ENDBRANCH  78  79
ENDBRANCH  46  71
BRANCH  58  83
ATOM     83  C   UNL A   1      39.972  33.807  36.876  1.00  0.00     0.058 A 
ATOM     84  C   UNL A   1      40.600  35.060  36.823  1.00  0.00     0.135 A 
ATOM     85  C   UNL A   1      39.107  33.551  37.954  1.00  0.00     0.135 A 
ATOM     86  F   UNL A   1      41.441  35.351  35.818  1.00  0.00    -0.206 F 
ATOM     87  C   UNL A   1      40.393  36.017  37.810  1.00  0.00     0.059 A 
ATOM     88  C   UNL A   1      38.861  34.505  38.936  1.00  0.00     0.059 A 
ATOM     89  F   UNL A   1      38.472  32.372  38.046  1.00  0.00    -0.206 F 
ATOM     90  C   UNL A   1      39.516  35.732  38.859  1.00  0.00     0.060 A 
BRANCH  90  91
ATOM     91  S   UNL A   1      39.218  37.004  40.106  1.00  0.00     0.124 S 
ATOM     92  O   UNL A   1      40.577  37.326  40.529  1.00  0.00    -0.237 OA
ATOM     93  O   UNL A   1      38.530  38.037  39.338  1.00  0.00    -0.237 OA
ATOM     94  O   UNL A   1      38.397  36.320  41.100  1.00  0.00    -0.744 OA
ENDBRANCH  90  91
ENDBRANCH  58  83
ENDBRANCH  32  33
ENDBRANCH  24  27
ENDBRANCH  22  23
ENDBRANCH  21  22
ENDBRANCH   1  21
TORSDOF 17
ENDMDL
MODEL 3
REMARK VINA RESULT:     -11.4      0.667      8.447
REMARK SMILES C[C@@H](CC(=O)NCCCNC(=O)c1ccc(-c2c3nc(c(-c4c(F)cc(S(=O)(=O)[O-])cc4F)c4ccc([nH]4)c(-c4c(F)cc(S(=O)(=O)[O-])cc4F)c4nc(c(-c5c(F)cc(S(=O)(=O)[O-])cc5F)c5ccc2[nH]5)C=C4)C=C3)cc1)NC(=O)/C=C/c1cccnc1
REMARK SMILES IDX 7 1 6 2 4 3 5 4 3 6 2 7 1 8 79 9 80 10 81 12 82 13 83 14
REMARK SMILES IDX 84 15 85 16 89 17 86 18 88 19 87 20 8 21 9 22 10 23 11 24
REMARK SMILES IDX 12 26 13 27 14 28 78 29 15 30 77 31 16 32 17 33 18 34 71 35
REMARK SMILES IDX 19 36 76 37 70 38 72 39 20 40 75 41 69 42 68 43 21 45 55 46
REMARK SMILES IDX 34 47 54 48 35 49 38 50 53 51 73 52 36 53 37 54 52 56 74 57
REMARK SMILES IDX 39 58 22 59 23 60 32 61 24 62 25 63 31 64 33 65 26 66 27 67
REMARK SMILES IDX 28 68 29 69 30 70 56 71 57 72 66 73 58 74 59 75 65 76 67 77
REMARK SMILES IDX 60 78 61 79 62 80 63 81 64 82 40 83 41 84 50 85 42 86 43 87
REMARK SMILES IDX 49 88 51 89 44 90 45 91 46 92 47 93 48 94
REMARK H PARENT 6 5 79 11 10 25 72 44 38 55
REMARK Flexibility Score: inf
ROOT
ATOM      1  C   UNL A   1      33.682  30.328  26.905  1.00  0.00     0.117 C 
ENDROOT
BRANCH   1   2
ATOM      2  N   UNL A   1      32.725  29.505  27.627  1.00  0.00    -0.356 N 
ATOM      3  C   UNL A   1      32.225  28.270  27.354  1.00  0.00     0.222 C 
ATOM      4  O   UNL A   1      31.293  27.854  28.045  1.00  0.00    -0.275 OA
ATOM      5  H   UNL A   1      32.380  29.911  28.454  1.00  0.00     0.163 HD
BRANCH   3   6
ATOM      6  C   UNL A   1      32.828  27.406  26.270  1.00  0.00     0.124 C 
BRANCH   6   7
ATOM      7  C   UNL A   1      31.919  26.338  25.650  1.00  0.00     0.088 C 
ATOM      8  C   UNL A   1      30.738  26.919  24.884  1.00  0.00     0.031 C 
BRANCH   7   9
ATOM      9  N   UNL A   1      31.409  25.357  26.603  1.00  0.00    -0.350 N 
ATOM     10  C   UNL A   1      31.705  24.035  26.763  1.00  0.00     0.244 C 
ATOM     11  H   UNL A   1      30.740  25.707  27.235  1.00  0.00     0.164 HD
ATOM     12  O   UNL A   1      31.033  23.352  27.534  1.00  0.00    -0.270 OA
BRANCH  10  13
ATOM     13  C   UNL A   1      32.908  23.425  26.133  1.00  0.00     0.072 C 
ATOM     14  C   UNL A   1      34.183  23.738  26.394  1.00  0.00     0.015 C 
BRANCH  14  15
ATOM     15  C   UNL A   1      35.352  23.049  25.868  1.00  0.00    -0.007 A 
ATOM     16  C   UNL A   1      36.629  23.587  25.976  1.00  0.00     0.011 A 
ATOM     17  C   UNL A   1      35.226  21.749  25.380  1.00  0.00     0.119 A 
ATOM     18  C   UNL A   1      37.724  22.803  25.620  1.00  0.00     0.021 A 
ATOM     19  N   UNL A   1      36.270  20.969  25.018  1.00  0.00    -0.264 NA
ATOM     20  C   UNL A   1      37.497  21.514  25.159  1.00  0.00     0.111 A 
ENDBRANCH  14  15
ENDBRANCH  10  13
ENDBRANCH   7   9
ENDBRANCH   6   7
ENDBRANCH   3   6
ENDBRANCH   1   2
BRANCH   1  21
ATOM     21  C   UNL A   1      34.280  31.403  27.810  1.00  0.00     0.042 C 
BRANCH  21  22
ATOM     22  C   UNL A   1      35.637  31.035  28.381  1.00  0.00     0.118 C 
BRANCH  22  23
ATOM     23  N   UNL A   1      35.575  30.810  29.811  1.00  0.00    -0.352 N 
ATOM     24  C   UNL A   1      36.485  30.173  30.621  1.00  0.00     0.251 C 
ATOM     25  H   UNL A   1      34.774  31.160  30.264  1.00  0.00     0.163 HD
ATOM     26  O   UNL A   1      36.159  29.853  31.760  1.00  0.00    -0.269 OA
BRANCH  24  27
ATOM     27  C   UNL A   1      37.842  29.855  30.112  1.00  0.00     0.039 A 
ATOM     28  C   UNL A   1      38.073  29.886  28.735  1.00  0.00     0.014 A 
ATOM     29  C   UNL A   1      38.879  29.513  30.984  1.00  0.00     0.014 A 
ATOM     30  C   UNL A   1      39.352  29.616  28.240  1.00  0.00     0.010 A 
ATOM     31  C   UNL A   1      40.171  29.346  30.498  1.00  0.00     0.010 A 
ATOM     32  C   UNL A   1      40.420  29.370  29.119  1.00  0.00    -0.014 A 
BRANCH  32  33
ATOM     33  C   UNL A   1      41.788  29.068  28.621  1.00  0.00     0.031 A 
ATOM     34  C   UNL A   1      42.133  27.657  28.214  1.00  0.00     0.074 A 
ATOM     35  C   UNL A   1      42.727  30.035  28.577  1.00  0.00     0.049 A 
ATOM     36  N   UNL A   1      43.290  27.155  27.866  1.00  0.00    -0.248 NA
ATOM     37  C   UNL A   1      41.036  26.671  28.230  1.00  0.00     0.031 C 
ATOM     38  C   UNL A   1      42.527  31.432  28.970  1.00  0.00     0.029 A 
ATOM     39  N   UNL A   1      44.043  29.988  28.191  1.00  0.00    -0.354 N 
ATOM     40  C   UNL A   1      43.060  25.804  27.630  1.00  0.00     0.074 A 
ATOM     41  C   UNL A   1      41.673  25.547  27.942  1.00  0.00     0.031 C 
ATOM     42  C   UNL A   1      43.671  32.110  28.788  1.00  0.00     0.029 A 
ATOM     43  C   UNL A   1      44.699  31.192  28.308  1.00  0.00     0.049 A 
ATOM     44  H   UNL A   1      44.478  29.169  27.860  1.00  0.00     0.167 HD
ATOM     45  C   UNL A   1      43.917  24.867  27.160  1.00  0.00     0.037 A 
ATOM     46  C   UNL A   1      45.986  31.513  28.070  1.00  0.00     0.037 A 
ATOM     47  C   UNL A   1      45.289  25.133  26.819  1.00  0.00     0.049 A 
ATOM     48  C   UNL A   1      46.927  30.443  27.576  1.00  0.00     0.074 A 
ATOM     49  C   UNL A   1      46.236  24.257  26.318  1.00  0.00     0.029 A 
ATOM     50  N   UNL A   1      45.905  26.371  26.926  1.00  0.00    -0.354 N 
ATOM     51  N   UNL A   1      46.682  29.179  27.330  1.00  0.00    -0.248 NA
ATOM     52  C   UNL A   1      48.319  30.845  27.320  1.00  0.00     0.031 C 
ATOM     53  C   UNL A   1      47.434  24.958  26.154  1.00  0.00     0.029 A 
ATOM     54  C   UNL A   1      47.219  26.280  26.504  1.00  0.00     0.049 A 
ATOM     55  H   UNL A   1      45.471  27.191  27.256  1.00  0.00     0.167 HD
ATOM     56  C   UNL A   1      47.875  28.646  26.849  1.00  0.00     0.074 A 
ATOM     57  C   UNL A   1      48.838  29.727  26.832  1.00  0.00     0.031 C 
ATOM     58  C   UNL A   1      48.150  27.379  26.456  1.00  0.00     0.037 A 
BRANCH  45  59
ATOM     59  C   UNL A   1      43.391  23.473  26.951  1.00  0.00     0.058 A 
ATOM     60  C   UNL A   1      43.104  22.989  25.665  1.00  0.00     0.135 A 
ATOM     61  C   UNL A   1      43.236  22.592  28.033  1.00  0.00     0.135 A 
ATOM     62  F   UNL A   1      43.216  23.795  24.598  1.00  0.00    -0.206 F 
ATOM     63  C   UNL A   1      42.671  21.684  25.459  1.00  0.00     0.059 A 
ATOM     64  C   UNL A   1      42.831  21.273  27.847  1.00  0.00     0.059 A 
ATOM     65  F   UNL A   1      43.491  23.005  29.284  1.00  0.00    -0.206 F 
ATOM     66  C   UNL A   1      42.545  20.830  26.556  1.00  0.00     0.060 A 
BRANCH  66  67
ATOM     67  S   UNL A   1      42.022  19.128  26.261  1.00  0.00     0.124 S 
ATOM     68  O   UNL A   1      42.231  18.527  27.575  1.00  0.00    -0.237 OA
ATOM     69  O   UNL A   1      40.630  19.297  25.856  1.00  0.00    -0.237 OA
ATOM     70  O   UNL A   1      42.928  18.671  25.211  1.00  0.00    -0.744 OA
ENDBRANCH  66  67
ENDBRANCH  45  59
BRANCH  46  71
ATOM     71  C   UNL A   1      46.477  32.903  28.289  1.00  0.00     0.058 A 
ATOM     72  C   UNL A   1      46.313  33.893  27.308  1.00  0.00     0.135 A 
ATOM     73  C   UNL A   1      47.164  33.257  29.461  1.00  0.00     0.135 A 
ATOM     74  F   UNL A   1      45.665  33.605  26.168  1.00  0.00    -0.206 F 
ATOM     75  C   UNL A   1      46.853  35.166  27.456  1.00  0.00     0.059 A 
ATOM     76  C   UNL A   1      47.686  34.534  29.647  1.00  0.00     0.059 A 
ATOM     77  F   UNL A   1      47.330  32.358  30.443  1.00  0.00    -0.206 F 
ATOM     78  C   UNL A   1      47.546  35.474  28.627  1.00  0.00     0.060 A 
BRANCH  78  79
ATOM     79  S   UNL A   1      48.257  37.125  28.807  1.00  0.00     0.124 S 
ATOM     80  O   UNL A   1      47.690  37.550  30.081  1.00  0.00    -0.237 OA
ATOM     81  O   UNL A   1      49.689  36.846  28.805  1.00  0.00    -0.237 OA
ATOM     82  O   UNL A   1      47.763  37.831  27.628  1.00  0.00    -0.744 OA
ENDBRANCH  78  79
ENDBRANCH  46  71
BRANCH  58  83
ATOM     83  C   UNL A   1      49.520  27.100  25.905  1.00  0.00     0.058 A 
ATOM     84  C   UNL A   1      50.562  26.619  26.712  1.00  0.00     0.135 A 
ATOM     85  C   UNL A   1      49.769  27.250  24.530  1.00  0.00     0.135 A 
ATOM     86  F   UNL A   1      50.377  26.465  28.032  1.00  0.00    -0.206 F 
ATOM     87  C   UNL A   1      51.810  26.316  26.180  1.00  0.00     0.059 A 
ATOM     88  C   UNL A   1      51.001  26.923  23.971  1.00  0.00     0.059 A 
ATOM     89  F   UNL A   1      48.803  27.696  23.712  1.00  0.00    -0.206 F 
ATOM     90  C   UNL A   1      52.018  26.465  24.806  1.00  0.00     0.060 A 
BRANCH  90  91
ATOM     91  S   UNL A   1      53.628  26.019  24.122  1.00  0.00     0.124 S 
ATOM     92  O   UNL A   1      54.463  27.118  24.593  1.00  0.00    -0.237 OA
ATOM     93  O   UNL A   1      53.879  24.720  24.738  1.00  0.00    -0.237 OA
ATOM     94  O   UNL A   1      53.388  25.987  22.682  1.00  0.00    -0.744 OA
ENDBRANCH  90  91
ENDBRANCH  58  83
ENDBRANCH  32  33
ENDBRANCH  24  27
ENDBRANCH  22  23
ENDBRANCH  21  22
ENDBRANCH   1  21
TORSDOF 17
ENDMDL
