MODEL 1
REMARK VINA RESULT:     -13.6      0.000      0.000
REMARK SMILES Cc1cccc(-c2cccnc2C(=O)NCCCNC(=O)c2ccc(-c3c4nc(c(-c5c(F)cc(S(=O)(=O)[O-])cc5F)c5ccc([nH]5)c(-c5c(F)cc(S(=O)(=O)[O-])cc5F)c5nc(c(-c6c(F)cc(S(=O)(=O)[O-])cc6F)c6ccc3[nH]6)C=C5)C=C4)cc2)c1
REMARK SMILES IDX 18 1 17 2 16 3 15 4 13 5 14 6 12 8 7 9 8 10 9 11 11 12 10 13
REMARK SMILES IDX 6 14 1 15 2 16 3 17 88 18 4 19 5 20 19 21 20 22 21 24 22 25
REMARK SMILES IDX 23 26 87 27 24 28 86 29 25 30 26 31 27 32 80 33 28 34 85 35
REMARK SMILES IDX 79 36 81 37 29 38 84 39 78 40 77 41 30 43 64 44 43 45 63 46
REMARK SMILES IDX 44 47 47 48 62 49 82 50 45 51 46 52 61 54 83 55 48 56 31 57
REMARK SMILES IDX 32 58 41 59 33 60 34 61 40 62 42 63 35 64 36 65 37 66 38 67
REMARK SMILES IDX 39 68 65 69 66 70 75 71 67 72 68 73 74 74 76 75 69 76 70 77
REMARK SMILES IDX 71 78 72 79 73 80 49 81 50 82 59 83 51 84 52 85 58 86 60 87
REMARK SMILES IDX 53 88 54 89 55 90 56 91 57 92
REMARK H PARENT 15 7 19 23 81 42 47 53
REMARK Flexibility Score: inf
ROOT
ATOM      1  C   UNL A   1      33.216  31.005  27.673  1.00  0.00     0.118 C 
ENDROOT
BRANCH   1   2
ATOM      2  C   UNL A   1      32.677  30.673  26.284  1.00  0.00     0.042 C 
BRANCH   2   3
ATOM      3  C   UNL A   1      33.363  29.450  25.709  1.00  0.00     0.118 C 
BRANCH   3   4
ATOM      4  N   UNL A   1      33.210  29.302  24.277  1.00  0.00    -0.351 N 
ATOM      5  C   UNL A   1      32.271  28.928  23.358  1.00  0.00     0.270 C 
ATOM      6  O   UNL A   1      32.632  29.155  22.191  1.00  0.00    -0.267 OA
ATOM      7  H   UNL A   1      34.046  29.550  23.821  1.00  0.00     0.163 HD
BRANCH   5   8
ATOM      8  C   UNL A   1      30.929  28.249  23.540  1.00  0.00     0.135 A 
ATOM      9  C   UNL A   1      29.628  28.712  23.319  1.00  0.00     0.013 A 
ATOM     10  C   UNL A   1      28.579  27.764  23.465  1.00  0.00     0.013 A 
ATOM     11  C   UNL A   1      28.816  26.445  23.825  1.00  0.00     0.021 A 
ATOM     12  N   UNL A   1      31.146  26.939  23.918  1.00  0.00    -0.250 NA
ATOM     13  C   UNL A   1      30.118  26.083  24.049  1.00  0.00     0.112 A 
BRANCH   9  14
ATOM     14  C   UNL A   1      29.190  30.062  22.969  1.00  0.00    -0.016 A 
ATOM     15  C   UNL A   1      27.846  31.806  19.844  1.00  0.00     0.044 C 
ATOM     16  C   UNL A   1      28.367  31.593  21.237  1.00  0.00    -0.051 A 
ATOM     17  C   UNL A   1      28.366  32.627  22.177  1.00  0.00     0.003 A 
ATOM     18  C   UNL A   1      28.765  30.316  21.648  1.00  0.00     0.012 A 
ATOM     19  C   UNL A   1      28.821  32.403  23.480  1.00  0.00     0.001 A 
ATOM     20  C   UNL A   1      29.259  31.132  23.870  1.00  0.00     0.009 A 
ENDBRANCH   9  14
ENDBRANCH   5   8
ENDBRANCH   3   4
ENDBRANCH   2   3
ENDBRANCH   1   2
BRANCH   1  21
ATOM     21  N   UNL A   1      34.223  32.058  27.725  1.00  0.00    -0.352 N 
ATOM     22  C   UNL A   1      35.553  31.974  28.128  1.00  0.00     0.251 C 
ATOM     23  H   UNL A   1      33.922  32.950  27.435  1.00  0.00     0.163 HD
ATOM     24  O   UNL A   1      36.259  32.954  28.244  1.00  0.00    -0.269 OA
BRANCH  22  25
ATOM     25  C   UNL A   1      36.085  30.610  28.349  1.00  0.00     0.039 A 
ATOM     26  C   UNL A   1      36.169  30.171  29.674  1.00  0.00     0.014 A 
ATOM     27  C   UNL A   1      36.886  30.068  27.352  1.00  0.00     0.014 A 
ATOM     28  C   UNL A   1      37.252  29.385  30.055  1.00  0.00     0.010 A 
ATOM     29  C   UNL A   1      38.020  29.392  27.755  1.00  0.00     0.010 A 
ATOM     30  C   UNL A   1      38.245  29.112  29.118  1.00  0.00    -0.014 A 
BRANCH  30  31
ATOM     31  C   UNL A   1      39.618  28.731  29.463  1.00  0.00     0.031 A 
ATOM     32  C   UNL A   1      40.109  27.365  29.143  1.00  0.00     0.074 A 
ATOM     33  C   UNL A   1      40.505  29.677  29.860  1.00  0.00     0.049 A 
ATOM     34  N   UNL A   1      41.296  26.936  29.407  1.00  0.00    -0.248 NA
ATOM     35  C   UNL A   1      39.263  26.331  28.546  1.00  0.00     0.031 C 
ATOM     36  C   UNL A   1      41.961  29.631  29.723  1.00  0.00     0.029 A 
ATOM     37  N   UNL A   1      40.279  30.793  30.675  1.00  0.00    -0.354 N 
ATOM     38  C   UNL A   1      41.469  25.740  28.753  1.00  0.00     0.074 A 
ATOM     39  C   UNL A   1      40.149  25.353  28.335  1.00  0.00     0.031 C 
ATOM     40  C   UNL A   1      42.517  30.489  30.588  1.00  0.00     0.029 A 
ATOM     41  C   UNL A   1      41.454  31.001  31.430  1.00  0.00     0.049 A 
ATOM     42  H   UNL A   1      39.456  31.330  30.715  1.00  0.00     0.167 HD
ATOM     43  C   UNL A   1      42.738  25.299  28.533  1.00  0.00     0.037 A 
ATOM     44  C   UNL A   1      41.455  30.917  32.794  1.00  0.00     0.037 A 
ATOM     45  C   UNL A   1      43.669  25.957  29.454  1.00  0.00     0.049 A 
ATOM     46  C   UNL A   1      42.328  29.819  33.362  1.00  0.00     0.074 A 
ATOM     47  C   UNL A   1      44.658  26.915  29.320  1.00  0.00     0.029 A 
ATOM     48  N   UNL A   1      43.454  25.810  30.825  1.00  0.00    -0.354 N 
ATOM     49  N   UNL A   1      42.888  28.882  32.648  1.00  0.00    -0.248 NA
ATOM     50  C   UNL A   1      42.616  29.670  34.787  1.00  0.00     0.031 C 
ATOM     51  C   UNL A   1      44.953  27.421  30.618  1.00  0.00     0.029 A 
ATOM     52  C   UNL A   1      44.177  26.741  31.542  1.00  0.00     0.049 A 
ATOM     53  H   UNL A   1      42.866  25.130  31.226  1.00  0.00     0.167 HD
ATOM     54  C   UNL A   1      43.503  27.974  33.473  1.00  0.00     0.074 A 
ATOM     55  C   UNL A   1      43.353  28.545  34.798  1.00  0.00     0.031 C 
ATOM     56  C   UNL A   1      44.044  26.811  32.995  1.00  0.00     0.037 A 
BRANCH  43  57
ATOM     57  C   UNL A   1      43.166  24.411  27.373  1.00  0.00     0.058 A 
ATOM     58  C   UNL A   1      42.949  23.015  27.424  1.00  0.00     0.135 A 
ATOM     59  C   UNL A   1      43.924  24.836  26.256  1.00  0.00     0.135 A 
ATOM     60  F   UNL A   1      42.266  22.455  28.432  1.00  0.00    -0.206 F 
ATOM     61  C   UNL A   1      43.457  22.124  26.467  1.00  0.00     0.059 A 
ATOM     62  C   UNL A   1      44.402  23.972  25.268  1.00  0.00     0.059 A 
ATOM     63  F   UNL A   1      44.309  26.104  26.084  1.00  0.00    -0.206 F 
ATOM     64  C   UNL A   1      44.187  22.612  25.391  1.00  0.00     0.060 A 
BRANCH  64  65
ATOM     65  S   UNL A   1      44.883  21.471  24.183  1.00  0.00     0.124 S 
ATOM     66  O   UNL A   1      46.309  21.552  24.479  1.00  0.00    -0.237 OA
ATOM     67  O   UNL A   1      44.229  20.213  24.528  1.00  0.00    -0.237 OA
ATOM     68  O   UNL A   1      44.481  22.046  22.901  1.00  0.00    -0.744 OA
ENDBRANCH  64  65
ENDBRANCH  43  57
BRANCH  44  69
ATOM     69  C   UNL A   1      40.211  31.448  33.410  1.00  0.00     0.058 A 
ATOM     70  C   UNL A   1      39.238  30.505  33.790  1.00  0.00     0.135 A 
ATOM     71  C   UNL A   1      40.203  32.692  34.056  1.00  0.00     0.135 A 
ATOM     72  F   UNL A   1      39.187  29.311  33.177  1.00  0.00    -0.206 F 
ATOM     73  C   UNL A   1      38.429  30.704  34.901  1.00  0.00     0.059 A 
ATOM     74  C   UNL A   1      39.391  32.918  35.169  1.00  0.00     0.059 A 
ATOM     75  F   UNL A   1      41.105  33.629  33.729  1.00  0.00    -0.206 F 
ATOM     76  C   UNL A   1      38.575  31.883  35.630  1.00  0.00     0.060 A 
BRANCH  76  77
ATOM     77  S   UNL A   1      37.892  31.917  37.305  1.00  0.00     0.124 S 
ATOM     78  O   UNL A   1      39.029  32.382  38.091  1.00  0.00    -0.237 OA
ATOM     79  O   UNL A   1      36.796  32.870  37.147  1.00  0.00    -0.237 OA
ATOM     80  O   UNL A   1      37.488  30.534  37.532  1.00  0.00    -0.744 OA
ENDBRANCH  76  77
ENDBRANCH  44  69
BRANCH  56  81
ATOM     81  C   UNL A   1      44.532  25.648  33.837  1.00  0.00     0.058 A 
ATOM     82  C   UNL A   1      43.712  24.861  34.665  1.00  0.00     0.135 A 
ATOM     83  C   UNL A   1      45.873  25.201  33.721  1.00  0.00     0.135 A 
ATOM     84  F   UNL A   1      42.396  25.092  34.768  1.00  0.00    -0.206 F 
ATOM     85  C   UNL A   1      44.198  23.765  35.386  1.00  0.00     0.059 A 
ATOM     86  C   UNL A   1      46.363  24.077  34.383  1.00  0.00     0.059 A 
ATOM     87  F   UNL A   1      46.756  25.842  32.939  1.00  0.00    -0.206 F 
ATOM     88  C   UNL A   1      45.525  23.380  35.241  1.00  0.00     0.060 A 
BRANCH  88  89
ATOM     89  S   UNL A   1      46.151  21.935  36.118  1.00  0.00     0.124 S 
ATOM     90  O   UNL A   1      45.422  20.855  35.460  1.00  0.00    -0.237 OA
ATOM     91  O   UNL A   1      47.585  21.981  35.846  1.00  0.00    -0.237 OA
ATOM     92  O   UNL A   1      45.776  22.201  37.503  1.00  0.00    -0.744 OA
ENDBRANCH  88  89
ENDBRANCH  56  81
ENDBRANCH  30  31
ENDBRANCH  22  25
ENDBRANCH   1  21
TORSDOF 14
ENDMDL
MODEL 2
REMARK VINA RESULT:     -13.6      1.938      2.709
REMARK SMILES Cc1cccc(-c2cccnc2C(=O)NCCCNC(=O)c2ccc(-c3c4nc(c(-c5c(F)cc(S(=O)(=O)[O-])cc5F)c5ccc([nH]5)c(-c5c(F)cc(S(=O)(=O)[O-])cc5F)c5nc(c(-c6c(F)cc(S(=O)(=O)[O-])cc6F)c6ccc3[nH]6)C=C5)C=C4)cc2)c1
REMARK SMILES IDX 18 1 17 2 16 3 15 4 13 5 14 6 12 8 7 9 8 10 9 11 11 12 10 13
REMARK SMILES IDX 6 14 1 15 2 16 3 17 88 18 4 19 5 20 19 21 20 22 21 24 22 25
REMARK SMILES IDX 23 26 87 27 24 28 86 29 25 30 26 31 27 32 80 33 28 34 85 35
REMARK SMILES IDX 79 36 81 37 29 38 84 39 78 40 77 41 30 43 64 44 43 45 63 46
REMARK SMILES IDX 44 47 47 48 62 49 82 50 45 51 46 52 61 54 83 55 48 56 31 57
REMARK SMILES IDX 32 58 41 59 33 60 34 61 40 62 42 63 35 64 36 65 37 66 38 67
REMARK SMILES IDX 39 68 65 69 66 70 75 71 67 72 68 73 74 74 76 75 69 76 70 77
REMARK SMILES IDX 71 78 72 79 73 80 49 81 50 82 59 83 51 84 52 85 58 86 60 87
REMARK SMILES IDX 53 88 54 89 55 90 56 91 57 92
REMARK H PARENT 15 7 19 23 81 42 47 53
REMARK Flexibility Score: inf
ROOT
ATOM      1  C   UNL A   1      32.990  30.438  26.439  1.00  0.00     0.118 C 
ENDROOT
BRANCH   1   2
ATOM      2  C   UNL A   1      31.873  29.779  27.247  1.00  0.00     0.042 C 
BRANCH   2   3
ATOM      3  C   UNL A   1      32.211  28.337  27.568  1.00  0.00     0.118 C 
BRANCH   3   4
ATOM      4  N   UNL A   1      31.210  27.383  27.134  1.00  0.00    -0.351 N 
ATOM      5  C   UNL A   1      30.877  26.643  26.036  1.00  0.00     0.270 C 
ATOM      6  O   UNL A   1      29.972  25.825  26.272  1.00  0.00    -0.267 OA
ATOM      7  H   UNL A   1      30.568  27.215  27.861  1.00  0.00     0.163 HD
BRANCH   5   8
ATOM      8  C   UNL A   1      31.386  26.709  24.610  1.00  0.00     0.135 A 
ATOM      9  C   UNL A   1      30.945  27.452  23.511  1.00  0.00     0.013 A 
ATOM     10  C   UNL A   1      31.736  27.380  22.333  1.00  0.00     0.013 A 
ATOM     11  C   UNL A   1      32.882  26.602  22.255  1.00  0.00     0.021 A 
ATOM     12  N   UNL A   1      32.517  25.923  24.511  1.00  0.00    -0.250 NA
ATOM     13  C   UNL A   1      33.227  25.885  23.370  1.00  0.00     0.112 A 
BRANCH   9  14
ATOM     14  C   UNL A   1      29.754  28.292  23.400  1.00  0.00    -0.016 A 
ATOM     15  C   UNL A   1      28.993  32.036  23.555  1.00  0.00     0.044 C 
ATOM     16  C   UNL A   1      28.792  30.549  23.480  1.00  0.00    -0.051 A 
ATOM     17  C   UNL A   1      27.529  29.999  23.245  1.00  0.00     0.003 A 
ATOM     18  C   UNL A   1      29.894  29.689  23.540  1.00  0.00     0.012 A 
ATOM     19  C   UNL A   1      27.365  28.614  23.142  1.00  0.00     0.001 A 
ATOM     20  C   UNL A   1      28.468  27.760  23.248  1.00  0.00     0.009 A 
ENDBRANCH   9  14
ENDBRANCH   5   8
ENDBRANCH   3   4
ENDBRANCH   2   3
ENDBRANCH   1   2
BRANCH   1  21
ATOM     21  N   UNL A   1      33.603  31.610  27.052  1.00  0.00    -0.352 N 
ATOM     22  C   UNL A   1      34.682  31.672  27.931  1.00  0.00     0.251 C 
ATOM     23  H   UNL A   1      33.201  32.476  26.811  1.00  0.00     0.163 HD
ATOM     24  O   UNL A   1      35.021  32.705  28.470  1.00  0.00    -0.269 OA
BRANCH  22  25
ATOM     25  C   UNL A   1      35.440  30.415  28.126  1.00  0.00     0.039 A 
ATOM     26  C   UNL A   1      35.504  29.912  29.429  1.00  0.00     0.014 A 
ATOM     27  C   UNL A   1      36.399  30.093  27.175  1.00  0.00     0.014 A 
ATOM     28  C   UNL A   1      36.683  29.310  29.861  1.00  0.00     0.010 A 
ATOM     29  C   UNL A   1      37.606  29.609  27.638  1.00  0.00     0.010 A 
ATOM     30  C   UNL A   1      37.777  29.284  28.999  1.00  0.00    -0.014 A 
BRANCH  30  31
ATOM     31  C   UNL A   1      39.166  29.135  29.440  1.00  0.00     0.031 A 
ATOM     32  C   UNL A   1      39.913  27.889  29.126  1.00  0.00     0.074 A 
ATOM     33  C   UNL A   1      39.841  30.206  29.928  1.00  0.00     0.049 A 
ATOM     34  N   UNL A   1      41.134  27.664  29.471  1.00  0.00    -0.248 NA
ATOM     35  C   UNL A   1      39.307  26.746  28.440  1.00  0.00     0.031 C 
ATOM     36  C   UNL A   1      41.289  30.419  29.903  1.00  0.00     0.029 A 
ATOM     37  N   UNL A   1      39.364  31.233  30.750  1.00  0.00    -0.354 N 
ATOM     38  C   UNL A   1      41.562  26.541  28.803  1.00  0.00     0.074 A 
ATOM     39  C   UNL A   1      40.365  25.946  28.275  1.00  0.00     0.031 C 
ATOM     40  C   UNL A   1      41.620  31.328  30.829  1.00  0.00     0.029 A 
ATOM     41  C   UNL A   1      40.426  31.614  31.599  1.00  0.00     0.049 A 
ATOM     42  H   UNL A   1      38.458  31.617  30.739  1.00  0.00     0.167 HD
ATOM     43  C   UNL A   1      42.902  26.336  28.672  1.00  0.00     0.037 A 
ATOM     44  C   UNL A   1      40.344  31.480  32.956  1.00  0.00     0.037 A 
ATOM     45  C   UNL A   1      43.633  27.112  29.678  1.00  0.00     0.049 A 
ATOM     46  C   UNL A   1      41.354  30.530  33.564  1.00  0.00     0.074 A 
ATOM     47  C   UNL A   1      44.445  28.231  29.644  1.00  0.00     0.029 A 
ATOM     48  N   UNL A   1      43.350  26.877  31.024  1.00  0.00    -0.354 N 
ATOM     49  N   UNL A   1      42.120  29.733  32.872  1.00  0.00    -0.248 NA
ATOM     50  C   UNL A   1      41.560  30.380  35.003  1.00  0.00     0.031 C 
ATOM     51  C   UNL A   1      44.552  28.732  30.973  1.00  0.00     0.029 A 
ATOM     52  C   UNL A   1      43.843  27.893  31.818  1.00  0.00     0.049 A 
ATOM     53  H   UNL A   1      42.863  26.091  31.362  1.00  0.00     0.167 HD
ATOM     54  C   UNL A   1      42.824  28.915  33.720  1.00  0.00     0.074 A 
ATOM     55  C   UNL A   1      42.481  29.401  35.043  1.00  0.00     0.031 C 
ATOM     56  C   UNL A   1      43.595  27.884  33.257  1.00  0.00     0.037 A 
BRANCH  43  57
ATOM     57  C   UNL A   1      43.562  25.582  27.527  1.00  0.00     0.058 A 
ATOM     58  C   UNL A   1      43.532  24.168  27.491  1.00  0.00     0.135 A 
ATOM     59  C   UNL A   1      44.366  26.165  26.519  1.00  0.00     0.135 A 
ATOM     60  F   UNL A   1      42.832  23.466  28.394  1.00  0.00    -0.206 F 
ATOM     61  C   UNL A   1      44.251  23.408  26.557  1.00  0.00     0.059 A 
ATOM     62  C   UNL A   1      45.055  25.430  25.551  1.00  0.00     0.059 A 
ATOM     63  F   UNL A   1      44.592  27.481  26.447  1.00  0.00    -0.206 F 
ATOM     64  C   UNL A   1      45.014  24.049  25.590  1.00  0.00     0.060 A 
BRANCH  64  65
ATOM     65  S   UNL A   1      45.978  23.080  24.415  1.00  0.00     0.124 S 
ATOM     66  O   UNL A   1      46.997  24.039  24.000  1.00  0.00    -0.237 OA
ATOM     67  O   UNL A   1      46.445  21.968  25.236  1.00  0.00    -0.237 OA
ATOM     68  O   UNL A   1      45.004  22.726  23.386  1.00  0.00    -0.744 OA
ENDBRANCH  64  65
ENDBRANCH  43  57
BRANCH  44  69
ATOM     69  C   UNL A   1      38.984  31.763  33.487  1.00  0.00     0.058 A 
ATOM     70  C   UNL A   1      38.652  33.115  33.695  1.00  0.00     0.135 A 
ATOM     71  C   UNL A   1      37.934  30.854  33.295  1.00  0.00     0.135 A 
ATOM     72  F   UNL A   1      39.623  34.017  33.913  1.00  0.00    -0.206 F 
ATOM     73  C   UNL A   1      37.357  33.580  33.513  1.00  0.00     0.059 A 
ATOM     74  C   UNL A   1      36.623  31.299  33.120  1.00  0.00     0.059 A 
ATOM     75  F   UNL A   1      38.194  29.553  33.098  1.00  0.00    -0.206 F 
ATOM     76  C   UNL A   1      36.367  32.671  33.144  1.00  0.00     0.060 A 
BRANCH  76  77
ATOM     77  S   UNL A   1      34.838  33.341  32.447  1.00  0.00     0.124 S 
ATOM     78  O   UNL A   1      34.042  33.597  33.642  1.00  0.00    -0.237 OA
ATOM     79  O   UNL A   1      35.336  34.524  31.750  1.00  0.00    -0.237 OA
ATOM     80  O   UNL A   1      34.360  32.266  31.586  1.00  0.00    -0.744 OA
ENDBRANCH  76  77
ENDBRANCH  44  69
BRANCH  56  81
ATOM     81  C   UNL A   1      44.219  26.792  34.106  1.00  0.00     0.058 A 
ATOM     82  C   UNL A   1      45.598  26.657  34.345  1.00  0.00     0.135 A 
ATOM     83  C   UNL A   1      43.393  25.900  34.835  1.00  0.00     0.135 A 
ATOM     84  F   UNL A   1      46.487  27.513  33.822  1.00  0.00    -0.206 F 
ATOM     85  C   UNL A   1      46.125  25.663  35.177  1.00  0.00     0.059 A 
ATOM     86  C   UNL A   1      43.893  24.943  35.715  1.00  0.00     0.059 A 
ATOM     87  F   UNL A   1      42.056  25.941  34.725  1.00  0.00    -0.206 F 
ATOM     88  C   UNL A   1      45.266  24.809  35.858  1.00  0.00     0.060 A 
BRANCH  88  89
ATOM     89  S   UNL A   1      45.928  23.562  36.979  1.00  0.00     0.124 S 
ATOM     90  O   UNL A   1      45.249  23.900  38.226  1.00  0.00    -0.237 OA
ATOM     91  O   UNL A   1      45.512  22.308  36.358  1.00  0.00    -0.237 OA
ATOM     92  O   UNL A   1      47.364  23.820  36.949  1.00  0.00    -0.744 OA
ENDBRANCH  88  89
ENDBRANCH  56  81
ENDBRANCH  30  31
ENDBRANCH  22  25
ENDBRANCH   1  21
TORSDOF 14
ENDMDL
MODEL 3
REMARK VINA RESULT:     -13.5      5.415     11.685
REMARK SMILES Cc1cccc(-c2cccnc2C(=O)NCCCNC(=O)c2ccc(-c3c4nc(c(-c5c(F)cc(S(=O)(=O)[O-])cc5F)c5ccc([nH]5)c(-c5c(F)cc(S(=O)(=O)[O-])cc5F)c5nc(c(-c6c(F)cc(S(=O)(=O)[O-])cc6F)c6ccc3[nH]6)C=C5)C=C4)cc2)c1
REMARK SMILES IDX 18 1 17 2 16 3 15 4 13 5 14 6 12 8 7 9 8 10 9 11 11 12 10 13
REMARK SMILES IDX 6 14 1 15 2 16 3 17 88 18 4 19 5 20 19 21 20 22 21 24 22 25
REMARK SMILES IDX 23 26 87 27 24 28 86 29 25 30 26 31 27 32 80 33 28 34 85 35
REMARK SMILES IDX 79 36 81 37 29 38 84 39 78 40 77 41 30 43 64 44 43 45 63 46
REMARK SMILES IDX 44 47 47 48 62 49 82 50 45 51 46 52 61 54 83 55 48 56 31 57
REMARK SMILES IDX 32 58 41 59 33 60 34 61 40 62 42 63 35 64 36 65 37 66 38 67
REMARK SMILES IDX 39 68 65 69 66 70 75 71 67 72 68 73 74 74 76 75 69 76 70 77
REMARK SMILES IDX 71 78 72 79 73 80 49 81 50 82 59 83 51 84 52 85 58 86 60 87
REMARK SMILES IDX 53 88 54 89 55 90 56 91 57 92
REMARK H PARENT 15 7 19 23 81 42 47 53
REMARK Flexibility Score: inf
ROOT
ATOM      1  C   UNL A   1      38.518  22.846  26.320  1.00  0.00     0.118 C 
ENDROOT
BRANCH   1   2
ATOM      2  C   UNL A   1      38.305  21.569  25.510  1.00  0.00     0.042 C 
BRANCH   2   3
ATOM      3  C   UNL A   1      36.828  21.288  25.313  1.00  0.00     0.118 C 
BRANCH   3   4
ATOM      4  N   UNL A   1      36.235  21.994  24.196  1.00  0.00    -0.351 N 
ATOM      5  C   UNL A   1      35.049  22.562  23.828  1.00  0.00     0.270 C 
ATOM      6  O   UNL A   1      35.140  23.210  22.772  1.00  0.00    -0.267 OA
ATOM      7  H   UNL A   1      36.896  22.098  23.474  1.00  0.00     0.163 HD
BRANCH   5   8
ATOM      8  C   UNL A   1      33.674  22.474  24.460  1.00  0.00     0.135 A 
ATOM      9  C   UNL A   1      32.795  21.395  24.600  1.00  0.00     0.013 A 
ATOM     10  C   UNL A   1      31.623  21.623  25.371  1.00  0.00     0.013 A 
ATOM     11  C   UNL A   1      31.342  22.853  25.948  1.00  0.00     0.021 A 
ATOM     12  N   UNL A   1      33.370  23.697  25.023  1.00  0.00    -0.250 NA
ATOM     13  C   UNL A   1      32.244  23.862  25.739  1.00  0.00     0.112 A 
BRANCH   9  14
ATOM     14  C   UNL A   1      32.909  20.050  24.040  1.00  0.00    -0.016 A 
ATOM     15  C   UNL A   1      34.948  16.906  24.801  1.00  0.00     0.044 C 
ATOM     16  C   UNL A   1      34.016  17.861  24.109  1.00  0.00    -0.051 A 
ATOM     17  C   UNL A   1      33.240  17.455  23.020  1.00  0.00     0.003 A 
ATOM     18  C   UNL A   1      33.830  19.151  24.618  1.00  0.00     0.012 A 
ATOM     19  C   UNL A   1      32.351  18.345  22.410  1.00  0.00     0.001 A 
ATOM     20  C   UNL A   1      32.205  19.648  22.899  1.00  0.00     0.009 A 
ENDBRANCH   9  14
ENDBRANCH   5   8
ENDBRANCH   3   4
ENDBRANCH   2   3
ENDBRANCH   1   2
BRANCH   1  21
ATOM     21  N   UNL A   1      39.715  22.873  27.153  1.00  0.00    -0.352 N 
ATOM     22  C   UNL A   1      40.275  23.946  27.841  1.00  0.00     0.251 C 
ATOM     23  H   UNL A   1      40.191  22.015  27.241  1.00  0.00     0.163 HD
ATOM     24  O   UNL A   1      41.349  23.867  28.402  1.00  0.00    -0.269 OA
BRANCH  22  25
ATOM     25  C   UNL A   1      39.458  25.179  27.908  1.00  0.00     0.039 A 
ATOM     26  C   UNL A   1      39.689  26.144  26.922  1.00  0.00     0.014 A 
ATOM     27  C   UNL A   1      38.908  25.514  29.137  1.00  0.00     0.014 A 
ATOM     28  C   UNL A   1      39.628  27.490  27.271  1.00  0.00     0.010 A 
ATOM     29  C   UNL A   1      38.966  26.841  29.512  1.00  0.00     0.010 A 
ATOM     30  C   UNL A   1      39.397  27.828  28.602  1.00  0.00    -0.014 A 
BRANCH  30  31
ATOM     31  C   UNL A   1      39.766  29.115  29.199  1.00  0.00     0.031 A 
ATOM     32  C   UNL A   1      38.846  30.276  29.080  1.00  0.00     0.074 A 
ATOM     33  C   UNL A   1      40.823  29.192  30.045  1.00  0.00     0.049 A 
ATOM     34  N   UNL A   1      39.080  31.446  29.568  1.00  0.00    -0.248 NA
ATOM     35  C   UNL A   1      37.590  30.227  28.329  1.00  0.00     0.031 C 
ATOM     36  C   UNL A   1      41.022  30.169  31.117  1.00  0.00     0.029 A 
ATOM     37  N   UNL A   1      42.051  28.525  29.965  1.00  0.00    -0.354 N 
ATOM     38  C   UNL A   1      37.920  32.179  29.485  1.00  0.00     0.074 A 
ATOM     39  C   UNL A   1      37.067  31.425  28.608  1.00  0.00     0.031 C 
ATOM     40  C   UNL A   1      42.322  30.218  31.437  1.00  0.00     0.029 A 
ATOM     41  C   UNL A   1      43.034  29.401  30.475  1.00  0.00     0.049 A 
ATOM     42  H   UNL A   1      42.201  27.617  29.618  1.00  0.00     0.167 HD
ATOM     43  C   UNL A   1      37.786  33.271  30.288  1.00  0.00     0.037 A 
ATOM     44  C   UNL A   1      44.061  29.859  29.698  1.00  0.00     0.037 A 
ATOM     45  C   UNL A   1      39.101  33.726  30.747  1.00  0.00     0.049 A 
ATOM     46  C   UNL A   1      44.081  31.358  29.490  1.00  0.00     0.074 A 
ATOM     47  C   UNL A   1      39.769  33.709  31.958  1.00  0.00     0.029 A 
ATOM     48  N   UNL A   1      40.047  34.083  29.786  1.00  0.00    -0.354 N 
ATOM     49  N   UNL A   1      43.110  32.160  29.833  1.00  0.00    -0.248 NA
ATOM     50  C   UNL A   1      45.184  32.072  28.851  1.00  0.00     0.031 C 
ATOM     51  C   UNL A   1      41.149  33.948  31.697  1.00  0.00     0.029 A 
ATOM     52  C   UNL A   1      41.310  34.153  30.337  1.00  0.00     0.049 A 
ATOM     53  H   UNL A   1      39.840  34.262  28.840  1.00  0.00     0.167 HD
ATOM     54  C   UNL A   1      43.382  33.431  29.394  1.00  0.00     0.074 A 
ATOM     55  C   UNL A   1      44.718  33.333  28.837  1.00  0.00     0.031 C 
ATOM     56  C   UNL A   1      42.465  34.442  29.490  1.00  0.00     0.037 A 
BRANCH  43  57
ATOM     57  C   UNL A   1      36.463  33.819  30.802  1.00  0.00     0.058 A 
ATOM     58  C   UNL A   1      35.507  34.341  29.901  1.00  0.00     0.135 A 
ATOM     59  C   UNL A   1      36.129  34.003  32.165  1.00  0.00     0.135 A 
ATOM     60  F   UNL A   1      35.689  34.265  28.574  1.00  0.00    -0.206 F 
ATOM     61  C   UNL A   1      34.342  35.003  30.315  1.00  0.00     0.059 A 
ATOM     62  C   UNL A   1      34.953  34.619  32.601  1.00  0.00     0.059 A 
ATOM     63  F   UNL A   1      36.950  33.660  33.162  1.00  0.00    -0.206 F 
ATOM     64  C   UNL A   1      34.073  35.141  31.670  1.00  0.00     0.060 A 
BRANCH  64  65
ATOM     65  S   UNL A   1      32.603  36.030  32.213  1.00  0.00     0.124 S 
ATOM     66  O   UNL A   1      32.236  36.768  31.009  1.00  0.00    -0.237 OA
ATOM     67  O   UNL A   1      31.705  34.945  32.595  1.00  0.00    -0.237 OA
ATOM     68  O   UNL A   1      33.090  36.850  33.320  1.00  0.00    -0.744 OA
ENDBRANCH  64  65
ENDBRANCH  43  57
BRANCH  44  69
ATOM     69  C   UNL A   1      44.565  28.839  28.741  1.00  0.00     0.058 A 
ATOM     70  C   UNL A   1      43.993  28.838  27.455  1.00  0.00     0.135 A 
ATOM     71  C   UNL A   1      45.844  28.285  28.888  1.00  0.00     0.135 A 
ATOM     72  F   UNL A   1      42.756  29.330  27.271  1.00  0.00    -0.206 F 
ATOM     73  C   UNL A   1      44.734  28.497  26.332  1.00  0.00     0.059 A 
ATOM     74  C   UNL A   1      46.603  27.926  27.774  1.00  0.00     0.059 A 
ATOM     75  F   UNL A   1      46.433  28.256  30.093  1.00  0.00    -0.206 F 
ATOM     76  C   UNL A   1      46.066  28.121  26.500  1.00  0.00     0.060 A 
BRANCH  76  77
ATOM     77  S   UNL A   1      47.132  28.157  25.039  1.00  0.00     0.124 S 
ATOM     78  O   UNL A   1      46.887  26.847  24.448  1.00  0.00    -0.237 OA
ATOM     79  O   UNL A   1      46.581  29.297  24.311  1.00  0.00    -0.237 OA
ATOM     80  O   UNL A   1      48.464  28.361  25.599  1.00  0.00    -0.744 OA
ENDBRANCH  76  77
ENDBRANCH  44  69
BRANCH  56  81
ATOM     81  C   UNL A   1      42.575  35.806  28.834  1.00  0.00     0.058 A 
ATOM     82  C   UNL A   1      41.920  36.176  27.645  1.00  0.00     0.135 A 
ATOM     83  C   UNL A   1      43.269  36.854  29.489  1.00  0.00     0.135 A 
ATOM     84  F   UNL A   1      41.125  35.320  26.989  1.00  0.00    -0.206 F 
ATOM     85  C   UNL A   1      42.012  37.462  27.103  1.00  0.00     0.059 A 
ATOM     86  C   UNL A   1      43.322  38.157  28.998  1.00  0.00     0.059 A 
ATOM     87  F   UNL A   1      43.912  36.647  30.649  1.00  0.00    -0.206 F 
ATOM     88  C   UNL A   1      42.716  38.447  27.785  1.00  0.00     0.060 A 
BRANCH  88  89
ATOM     89  S   UNL A   1      42.794  40.125  27.129  1.00  0.00     0.124 S 
ATOM     90  O   UNL A   1      43.107  40.894  28.329  1.00  0.00    -0.237 OA
ATOM     91  O   UNL A   1      43.864  40.042  26.139  1.00  0.00    -0.237 OA
ATOM     92  O   UNL A   1      41.457  40.326  26.578  1.00  0.00    -0.744 OA
ENDBRANCH  88  89
ENDBRANCH  56  81
ENDBRANCH  30  31
ENDBRANCH  22  25
ENDBRANCH   1  21
TORSDOF 14
ENDMDL
