MODEL 1
REMARK VINA RESULT:     -11.8      0.000      0.000
REMARK SMILES NC(=O)[C@H]1CC(C(=O)NCCCNC(=O)c2ccc(-c3c4nc(c(-c5c(F)cc(S(=O)(=O)[O-])cc5F)c5ccc([nH]5)c(-c5c(F)cc(S(=O)(=O)[O-])cc5F)c5nc(c(-c6c(F)cc(S(=O)(=O)[O-])cc6F)c6ccc3[nH]6)C=C5)C=C4)cc2)=NN1c1ccc(F)cc1
REMARK SMILES IDX 12 1 11 2 10 3 9 4 7 5 8 6 6 8 4 9 5 10 83 11 82 12 2 13
REMARK SMILES IDX 1 14 3 17 84 18 85 19 90 20 86 21 89 22 87 23 88 24 13 25
REMARK SMILES IDX 14 26 15 28 16 29 17 30 81 31 18 32 80 33 19 34 20 35 21 36
REMARK SMILES IDX 74 37 22 38 79 39 73 40 75 41 23 42 78 43 72 44 71 45 24 47
REMARK SMILES IDX 58 48 37 49 57 50 38 51 41 52 56 53 76 54 39 55 40 56 55 58
REMARK SMILES IDX 77 59 42 60 25 61 26 62 35 63 27 64 28 65 34 66 36 67 29 68
REMARK SMILES IDX 30 69 31 70 32 71 33 72 59 73 60 74 69 75 61 76 62 77 68 78
REMARK SMILES IDX 70 79 63 80 64 81 65 82 66 83 67 84 43 85 44 86 53 87 45 88
REMARK SMILES IDX 46 89 52 90 54 91 47 92 48 93 49 94 50 95 51 96
REMARK H PARENT 9 7 1 15 1 16 13 27 75 46 41 57
REMARK Flexibility Score: inf
ROOT
ATOM      1  C   UNL A   1      33.583  28.042  26.888  1.00  0.00     0.118 C 
ENDROOT
BRANCH   1   2
ATOM      2  C   UNL A   1      32.212  27.366  26.891  1.00  0.00     0.042 C 
BRANCH   2   3
ATOM      3  C   UNL A   1      32.211  26.007  26.199  1.00  0.00     0.118 C 
BRANCH   3   4
ATOM      4  N   UNL A   1      31.218  25.111  26.763  1.00  0.00    -0.351 N 
ATOM      5  C   UNL A   1      31.069  23.749  26.793  1.00  0.00     0.267 C 
ATOM      6  O   UNL A   1      30.061  23.297  27.331  1.00  0.00    -0.268 OA
ATOM      7  H   UNL A   1      30.491  25.587  27.227  1.00  0.00     0.163 HD
BRANCH   5   8
ATOM      8  C   UNL A   1      32.089  22.769  26.230  1.00  0.00     0.128 C 
ATOM      9  C   UNL A   1      33.163  21.213  24.880  1.00  0.00     0.203 C 
ATOM     10  C   UNL A   1      31.781  21.790  25.148  1.00  0.00     0.101 C 
ATOM     11  N   UNL A   1      34.009  21.904  25.847  1.00  0.00    -0.252 N 
ATOM     12  N   UNL A   1      33.326  22.783  26.634  1.00  0.00    -0.171 NA
BRANCH   9  13
ATOM     13  C   UNL A   1      33.210  19.701  25.112  1.00  0.00     0.242 C 
ATOM     14  N   UNL A   1      33.050  19.268  26.400  1.00  0.00    -0.368 N 
ATOM     15  H   UNL A   1      33.072  18.305  26.602  1.00  0.00     0.159 HD
ATOM     16  H   UNL A   1      32.911  19.921  27.125  1.00  0.00     0.159 HD
ATOM     17  O   UNL A   1      33.342  18.894  24.194  1.00  0.00    -0.273 OA
ENDBRANCH   9  13
BRANCH  11  18
ATOM     18  C   UNL A   1      35.397  21.984  25.757  1.00  0.00     0.061 A 
ATOM     19  C   UNL A   1      36.142  20.880  25.314  1.00  0.00     0.031 A 
ATOM     20  C   UNL A   1      36.104  23.146  26.114  1.00  0.00     0.031 A 
ATOM     21  C   UNL A   1      37.534  20.942  25.196  1.00  0.00     0.041 A 
ATOM     22  C   UNL A   1      37.498  23.203  26.029  1.00  0.00     0.041 A 
ATOM     23  C   UNL A   1      38.200  22.103  25.559  1.00  0.00     0.123 A 
ATOM     24  F   UNL A   1      39.533  22.166  25.462  1.00  0.00    -0.207 F 
ENDBRANCH  11  18
ENDBRANCH   5   8
ENDBRANCH   3   4
ENDBRANCH   2   3
ENDBRANCH   1   2
BRANCH   1  25
ATOM     25  N   UNL A   1      33.486  29.468  27.174  1.00  0.00    -0.352 N 
ATOM     26  C   UNL A   1      34.351  30.312  27.818  1.00  0.00     0.251 C 
ATOM     27  H   UNL A   1      32.661  29.896  26.850  1.00  0.00     0.163 HD
ATOM     28  O   UNL A   1      33.941  31.416  28.175  1.00  0.00    -0.269 OA
BRANCH  26  29
ATOM     29  C   UNL A   1      35.754  29.925  28.081  1.00  0.00     0.039 A 
ATOM     30  C   UNL A   1      36.096  29.465  29.358  1.00  0.00     0.014 A 
ATOM     31  C   UNL A   1      36.749  30.089  27.113  1.00  0.00     0.014 A 
ATOM     32  C   UNL A   1      37.424  29.141  29.649  1.00  0.00     0.010 A 
ATOM     33  C   UNL A   1      38.057  29.692  27.381  1.00  0.00     0.010 A 
ATOM     34  C   UNL A   1      38.412  29.235  28.657  1.00  0.00    -0.014 A 
BRANCH  34  35
ATOM     35  C   UNL A   1      39.827  28.895  28.950  1.00  0.00     0.031 A 
ATOM     36  C   UNL A   1      40.737  29.920  29.576  1.00  0.00     0.074 A 
ATOM     37  C   UNL A   1      40.305  27.682  28.609  1.00  0.00     0.049 A 
ATOM     38  N   UNL A   1      42.012  29.832  29.857  1.00  0.00    -0.248 NA
ATOM     39  C   UNL A   1      40.142  31.227  29.900  1.00  0.00     0.031 C 
ATOM     40  C   UNL A   1      39.535  26.623  27.952  1.00  0.00     0.029 A 
ATOM     41  N   UNL A   1      41.553  27.136  28.764  1.00  0.00    -0.354 N 
ATOM     42  C   UNL A   1      42.374  31.072  30.372  1.00  0.00     0.074 A 
ATOM     43  C   UNL A   1      41.197  31.911  30.315  1.00  0.00     0.031 C 
ATOM     44  C   UNL A   1      40.321  25.549  27.783  1.00  0.00     0.029 A 
ATOM     45  C   UNL A   1      41.655  25.849  28.292  1.00  0.00     0.049 A 
ATOM     46  H   UNL A   1      42.305  27.621  29.175  1.00  0.00     0.167 HD
ATOM     47  C   UNL A   1      43.570  31.467  30.871  1.00  0.00     0.037 A 
ATOM     48  C   UNL A   1      42.706  25.007  28.275  1.00  0.00     0.037 A 
ATOM     49  C   UNL A   1      44.727  30.615  30.958  1.00  0.00     0.049 A 
ATOM     50  C   UNL A   1      44.012  25.455  28.870  1.00  0.00     0.074 A 
ATOM     51  C   UNL A   1      45.973  30.902  31.488  1.00  0.00     0.029 A 
ATOM     52  N   UNL A   1      44.777  29.302  30.511  1.00  0.00    -0.354 N 
ATOM     53  N   UNL A   1      44.324  26.615  29.395  1.00  0.00    -0.248 NA
ATOM     54  C   UNL A   1      45.105  24.474  28.884  1.00  0.00     0.031 C 
ATOM     55  C   UNL A   1      46.783  29.771  31.338  1.00  0.00     0.029 A 
ATOM     56  C   UNL A   1      46.031  28.767  30.750  1.00  0.00     0.049 A 
ATOM     57  H   UNL A   1      44.030  28.822  30.085  1.00  0.00     0.167 HD
ATOM     58  C   UNL A   1      45.638  26.495  29.831  1.00  0.00     0.074 A 
ATOM     59  C   UNL A   1      46.059  25.144  29.516  1.00  0.00     0.031 C 
ATOM     60  C   UNL A   1      46.426  27.417  30.438  1.00  0.00     0.037 A 
BRANCH  47  61
ATOM     61  C   UNL A   1      43.681  32.882  31.368  1.00  0.00     0.058 A 
ATOM     62  C   UNL A   1      44.084  33.930  30.523  1.00  0.00     0.135 A 
ATOM     63  C   UNL A   1      43.362  33.203  32.697  1.00  0.00     0.135 A 
ATOM     64  F   UNL A   1      44.418  33.679  29.247  1.00  0.00    -0.206 F 
ATOM     65  C   UNL A   1      44.199  35.236  30.986  1.00  0.00     0.059 A 
ATOM     66  C   UNL A   1      43.443  34.508  33.176  1.00  0.00     0.059 A 
ATOM     67  F   UNL A   1      42.971  32.241  33.549  1.00  0.00    -0.206 F 
ATOM     68  C   UNL A   1      43.879  35.515  32.316  1.00  0.00     0.060 A 
BRANCH  68  69
ATOM     69  S   UNL A   1      44.037  37.215  32.905  1.00  0.00     0.124 S 
ATOM     70  O   UNL A   1      45.375  37.195  33.491  1.00  0.00    -0.237 OA
ATOM     71  O   UNL A   1      43.898  37.988  31.673  1.00  0.00    -0.237 OA
ATOM     72  O   UNL A   1      42.937  37.349  33.853  1.00  0.00    -0.744 OA
ENDBRANCH  68  69
ENDBRANCH  47  61
BRANCH  48  73
ATOM     73  C   UNL A   1      42.550  23.640  27.714  1.00  0.00     0.058 A 
ATOM     74  C   UNL A   1      42.673  23.410  26.336  1.00  0.00     0.135 A 
ATOM     75  C   UNL A   1      42.298  22.535  28.541  1.00  0.00     0.135 A 
ATOM     76  F   UNL A   1      42.912  24.436  25.504  1.00  0.00    -0.206 F 
ATOM     77  C   UNL A   1      42.530  22.137  25.793  1.00  0.00     0.059 A 
ATOM     78  C   UNL A   1      42.175  21.249  28.025  1.00  0.00     0.059 A 
ATOM     79  F   UNL A   1      42.194  22.699  29.869  1.00  0.00    -0.206 F 
ATOM     80  C   UNL A   1      42.283  21.062  26.647  1.00  0.00     0.060 A 
BRANCH  80  81
ATOM     81  S   UNL A   1      42.151  19.406  25.940  1.00  0.00     0.124 S 
ATOM     82  O   UNL A   1      42.671  18.582  27.024  1.00  0.00    -0.237 OA
ATOM     83  O   UNL A   1      40.719  19.294  25.681  1.00  0.00    -0.237 OA
ATOM     84  O   UNL A   1      42.990  19.485  24.747  1.00  0.00    -0.744 OA
ENDBRANCH  80  81
ENDBRANCH  48  73
BRANCH  60  85
ATOM     85  C   UNL A   1      47.806  26.978  30.841  1.00  0.00     0.058 A 
ATOM     86  C   UNL A   1      48.041  26.273  32.031  1.00  0.00     0.135 A 
ATOM     87  C   UNL A   1      48.905  27.250  30.010  1.00  0.00     0.135 A 
ATOM     88  F   UNL A   1      47.024  25.994  32.862  1.00  0.00    -0.206 F 
ATOM     89  C   UNL A   1      49.323  25.882  32.402  1.00  0.00     0.059 A 
ATOM     90  C   UNL A   1      50.192  26.846  30.348  1.00  0.00     0.059 A 
ATOM     91  F   UNL A   1      48.732  27.911  28.854  1.00  0.00    -0.206 F 
ATOM     92  C   UNL A   1      50.393  26.178  31.555  1.00  0.00     0.060 A 
BRANCH  92  93
ATOM     93  S   UNL A   1      52.053  25.661  32.041  1.00  0.00     0.124 S 
ATOM     94  O   UNL A   1      52.790  25.831  30.793  1.00  0.00    -0.237 OA
ATOM     95  O   UNL A   1      52.379  26.608  33.104  1.00  0.00    -0.237 OA
ATOM     96  O   UNL A   1      51.863  24.281  32.477  1.00  0.00    -0.744 OA
ENDBRANCH  92  93
ENDBRANCH  60  85
ENDBRANCH  34  35
ENDBRANCH  26  29
ENDBRANCH   1  25
TORSDOF 15
ENDMDL
MODEL 2
REMARK VINA RESULT:     -11.7      1.468      2.344
REMARK SMILES NC(=O)[C@H]1CC(C(=O)NCCCNC(=O)c2ccc(-c3c4nc(c(-c5c(F)cc(S(=O)(=O)[O-])cc5F)c5ccc([nH]5)c(-c5c(F)cc(S(=O)(=O)[O-])cc5F)c5nc(c(-c6c(F)cc(S(=O)(=O)[O-])cc6F)c6ccc3[nH]6)C=C5)C=C4)cc2)=NN1c1ccc(F)cc1
REMARK SMILES IDX 12 1 11 2 10 3 9 4 7 5 8 6 6 8 4 9 5 10 83 11 82 12 2 13
REMARK SMILES IDX 1 14 3 17 84 18 85 19 90 20 86 21 89 22 87 23 88 24 13 25
REMARK SMILES IDX 14 26 15 28 16 29 17 30 81 31 18 32 80 33 19 34 20 35 21 36
REMARK SMILES IDX 74 37 22 38 79 39 73 40 75 41 23 42 78 43 72 44 71 45 24 47
REMARK SMILES IDX 58 48 37 49 57 50 38 51 41 52 56 53 76 54 39 55 40 56 55 58
REMARK SMILES IDX 77 59 42 60 25 61 26 62 35 63 27 64 28 65 34 66 36 67 29 68
REMARK SMILES IDX 30 69 31 70 32 71 33 72 59 73 60 74 69 75 61 76 62 77 68 78
REMARK SMILES IDX 70 79 63 80 64 81 65 82 66 83 67 84 43 85 44 86 53 87 45 88
REMARK SMILES IDX 46 89 52 90 54 91 47 92 48 93 49 94 50 95 51 96
REMARK H PARENT 9 7 1 15 1 16 13 27 75 46 41 57
REMARK Flexibility Score: inf
ROOT
ATOM      1  C   UNL A   1      33.619  28.103  27.043  1.00  0.00     0.118 C 
ENDROOT
BRANCH   1   2
ATOM      2  C   UNL A   1      34.079  27.872  25.604  1.00  0.00     0.042 C 
BRANCH   2   3
ATOM      3  C   UNL A   1      33.018  28.231  24.569  1.00  0.00     0.118 C 
BRANCH   3   4
ATOM      4  N   UNL A   1      33.303  27.644  23.273  1.00  0.00    -0.351 N 
ATOM      5  C   UNL A   1      33.234  26.373  22.765  1.00  0.00     0.267 C 
ATOM      6  O   UNL A   1      33.601  26.202  21.604  1.00  0.00    -0.268 OA
ATOM      7  H   UNL A   1      33.615  28.305  22.613  1.00  0.00     0.163 HD
BRANCH   5   8
ATOM      8  C   UNL A   1      32.703  25.175  23.539  1.00  0.00     0.128 C 
ATOM      9  C   UNL A   1      31.287  23.619  24.523  1.00  0.00     0.203 C 
ATOM     10  C   UNL A   1      31.278  25.030  23.954  1.00  0.00     0.101 C 
ATOM     11  N   UNL A   1      32.680  23.209  24.383  1.00  0.00    -0.252 N 
ATOM     12  N   UNL A   1      33.474  24.168  23.828  1.00  0.00    -0.171 NA
BRANCH   9  13
ATOM     13  C   UNL A   1      30.867  23.588  25.995  1.00  0.00     0.242 C 
ATOM     14  N   UNL A   1      30.124  22.515  26.404  1.00  0.00    -0.368 N 
ATOM     15  H   UNL A   1      29.830  22.448  27.341  1.00  0.00     0.159 HD
ATOM     16  H   UNL A   1      29.886  21.808  25.761  1.00  0.00     0.159 HD
ATOM     17  O   UNL A   1      31.206  24.455  26.798  1.00  0.00    -0.273 OA
ENDBRANCH   9  13
BRANCH  11  18
ATOM     18  C   UNL A   1      33.116  21.886  24.428  1.00  0.00     0.061 A 
ATOM     19  C   UNL A   1      34.410  21.583  24.877  1.00  0.00     0.031 A 
ATOM     20  C   UNL A   1      32.301  20.816  24.018  1.00  0.00     0.031 A 
ATOM     21  C   UNL A   1      34.864  20.261  24.950  1.00  0.00     0.041 A 
ATOM     22  C   UNL A   1      32.760  19.496  24.058  1.00  0.00     0.041 A 
ATOM     23  C   UNL A   1      34.035  19.230  24.536  1.00  0.00     0.123 A 
ATOM     24  F   UNL A   1      34.467  17.964  24.590  1.00  0.00    -0.207 F 
ENDBRANCH  11  18
ENDBRANCH   5   8
ENDBRANCH   3   4
ENDBRANCH   2   3
ENDBRANCH   1   2
BRANCH   1  25
ATOM     25  N   UNL A   1      33.515  29.523  27.360  1.00  0.00    -0.352 N 
ATOM     26  C   UNL A   1      34.383  30.360  28.007  1.00  0.00     0.251 C 
ATOM     27  H   UNL A   1      32.680  29.950  27.057  1.00  0.00     0.163 HD
ATOM     28  O   UNL A   1      33.968  31.454  28.393  1.00  0.00    -0.269 OA
BRANCH  26  29
ATOM     29  C   UNL A   1      35.792  29.980  28.241  1.00  0.00     0.039 A 
ATOM     30  C   UNL A   1      36.169  29.546  29.517  1.00  0.00     0.014 A 
ATOM     31  C   UNL A   1      36.761  30.126  27.243  1.00  0.00     0.014 A 
ATOM     32  C   UNL A   1      37.504  29.231  29.779  1.00  0.00     0.010 A 
ATOM     33  C   UNL A   1      38.076  29.736  27.483  1.00  0.00     0.010 A 
ATOM     34  C   UNL A   1      38.466  29.305  28.759  1.00  0.00    -0.014 A 
BRANCH  34  35
ATOM     35  C   UNL A   1      39.889  28.973  29.021  1.00  0.00     0.031 A 
ATOM     36  C   UNL A   1      40.806  30.001  29.629  1.00  0.00     0.074 A 
ATOM     37  C   UNL A   1      40.366  27.763  28.667  1.00  0.00     0.049 A 
ATOM     38  N   UNL A   1      42.087  29.920  29.883  1.00  0.00    -0.248 NA
ATOM     39  C   UNL A   1      40.211  31.305  29.970  1.00  0.00     0.031 C 
ATOM     40  C   UNL A   1      39.588  26.701  28.024  1.00  0.00     0.029 A 
ATOM     41  N   UNL A   1      41.621  27.224  28.794  1.00  0.00    -0.354 N 
ATOM     42  C   UNL A   1      42.453  31.161  30.393  1.00  0.00     0.074 A 
ATOM     43  C   UNL A   1      41.271  31.994  30.363  1.00  0.00     0.031 C 
ATOM     44  C   UNL A   1      40.377  25.632  27.836  1.00  0.00     0.029 A 
ATOM     45  C   UNL A   1      41.720  25.939  28.317  1.00  0.00     0.049 A 
ATOM     46  H   UNL A   1      42.379  27.712  29.190  1.00  0.00     0.167 HD
ATOM     47  C   UNL A   1      43.657  31.562  30.867  1.00  0.00     0.037 A 
ATOM     48  C   UNL A   1      42.774  25.102  28.276  1.00  0.00     0.037 A 
ATOM     49  C   UNL A   1      44.821  30.716  30.927  1.00  0.00     0.049 A 
ATOM     50  C   UNL A   1      44.091  25.557  28.843  1.00  0.00     0.074 A 
ATOM     51  C   UNL A   1      46.076  31.009  31.432  1.00  0.00     0.029 A 
ATOM     52  N   UNL A   1      44.869  29.405  30.476  1.00  0.00    -0.354 N 
ATOM     53  N   UNL A   1      44.407  26.718  29.365  1.00  0.00    -0.248 NA
ATOM     54  C   UNL A   1      45.190  24.582  28.833  1.00  0.00     0.031 C 
ATOM     55  C   UNL A   1      46.889  29.883  31.261  1.00  0.00     0.029 A 
ATOM     56  C   UNL A   1      46.131  28.877  30.688  1.00  0.00     0.049 A 
ATOM     57  H   UNL A   1      44.115  28.922  30.066  1.00  0.00     0.167 HD
ATOM     58  C   UNL A   1      45.731  26.604  29.772  1.00  0.00     0.074 A 
ATOM     59  C   UNL A   1      46.153  25.257  29.445  1.00  0.00     0.031 C 
ATOM     60  C   UNL A   1      46.526  27.529  30.364  1.00  0.00     0.037 A 
BRANCH  47  61
ATOM     61  C   UNL A   1      43.771  32.977  31.365  1.00  0.00     0.058 A 
ATOM     62  C   UNL A   1      44.012  34.048  30.489  1.00  0.00     0.135 A 
ATOM     63  C   UNL A   1      43.616  33.272  32.729  1.00  0.00     0.135 A 
ATOM     64  F   UNL A   1      44.185  33.823  29.177  1.00  0.00    -0.206 F 
ATOM     65  C   UNL A   1      44.130  35.355  30.951  1.00  0.00     0.059 A 
ATOM     66  C   UNL A   1      43.702  34.576  33.211  1.00  0.00     0.059 A 
ATOM     67  F   UNL A   1      43.384  32.287  33.611  1.00  0.00    -0.206 F 
ATOM     68  C   UNL A   1      43.976  35.609  32.315  1.00  0.00     0.060 A 
BRANCH  68  69
ATOM     69  S   UNL A   1      44.136  37.309  32.902  1.00  0.00     0.124 S 
ATOM     70  O   UNL A   1      45.382  37.237  33.660  1.00  0.00    -0.237 OA
ATOM     71  O   UNL A   1      44.198  38.066  31.654  1.00  0.00    -0.237 OA
ATOM     72  O   UNL A   1      42.929  37.509  33.694  1.00  0.00    -0.744 OA
ENDBRANCH  68  69
ENDBRANCH  47  61
BRANCH  48  73
ATOM     73  C   UNL A   1      42.615  23.736  27.715  1.00  0.00     0.058 A 
ATOM     74  C   UNL A   1      42.415  22.632  28.556  1.00  0.00     0.135 A 
ATOM     75  C   UNL A   1      42.638  23.507  26.331  1.00  0.00     0.135 A 
ATOM     76  F   UNL A   1      42.388  22.800  29.888  1.00  0.00    -0.206 F 
ATOM     77  C   UNL A   1      42.265  21.346  28.049  1.00  0.00     0.059 A 
ATOM     78  C   UNL A   1      42.466  22.234  25.797  1.00  0.00     0.059 A 
ATOM     79  F   UNL A   1      42.805  24.534  25.482  1.00  0.00    -0.206 F 
ATOM     80  C   UNL A   1      42.290  21.157  26.667  1.00  0.00     0.060 A 
BRANCH  80  81
ATOM     81  S   UNL A   1      42.042  19.492  26.014  1.00  0.00     0.124 S 
ATOM     82  O   UNL A   1      42.542  18.670  27.109  1.00  0.00    -0.237 OA
ATOM     83  O   UNL A   1      40.599  19.458  25.796  1.00  0.00    -0.237 OA
ATOM     84  O   UNL A   1      42.851  19.487  24.799  1.00  0.00    -0.744 OA
ENDBRANCH  80  81
ENDBRANCH  48  73
BRANCH  60  85
ATOM     85  C   UNL A   1      47.918  27.098  30.737  1.00  0.00     0.058 A 
ATOM     86  C   UNL A   1      48.190  26.442  31.947  1.00  0.00     0.135 A 
ATOM     87  C   UNL A   1      48.987  27.326  29.857  1.00  0.00     0.135 A 
ATOM     88  F   UNL A   1      47.201  26.205  32.823  1.00  0.00    -0.206 F 
ATOM     89  C   UNL A   1      49.482  26.058  32.289  1.00  0.00     0.059 A 
ATOM     90  C   UNL A   1      50.283  26.927  30.166  1.00  0.00     0.059 A 
ATOM     91  F   UNL A   1      48.777  27.939  28.680  1.00  0.00    -0.206 F 
ATOM     92  C   UNL A   1      50.523  26.309  31.392  1.00  0.00     0.060 A 
BRANCH  92  93
ATOM     93  S   UNL A   1      52.196  25.801  31.841  1.00  0.00     0.124 S 
ATOM     94  O   UNL A   1      52.490  26.705  32.948  1.00  0.00    -0.237 OA
ATOM     95  O   UNL A   1      52.013  24.397  32.200  1.00  0.00    -0.237 OA
ATOM     96  O   UNL A   1      52.959  26.033  30.618  1.00  0.00    -0.744 OA
ENDBRANCH  92  93
ENDBRANCH  60  85
ENDBRANCH  34  35
ENDBRANCH  26  29
ENDBRANCH   1  25
TORSDOF 15
ENDMDL
MODEL 3
REMARK VINA RESULT:     -11.6      1.370      2.282
REMARK SMILES NC(=O)[C@H]1CC(C(=O)NCCCNC(=O)c2ccc(-c3c4nc(c(-c5c(F)cc(S(=O)(=O)[O-])cc5F)c5ccc([nH]5)c(-c5c(F)cc(S(=O)(=O)[O-])cc5F)c5nc(c(-c6c(F)cc(S(=O)(=O)[O-])cc6F)c6ccc3[nH]6)C=C5)C=C4)cc2)=NN1c1ccc(F)cc1
REMARK SMILES IDX 12 1 11 2 10 3 9 4 7 5 8 6 6 8 4 9 5 10 83 11 82 12 2 13
REMARK SMILES IDX 1 14 3 17 84 18 85 19 90 20 86 21 89 22 87 23 88 24 13 25
REMARK SMILES IDX 14 26 15 28 16 29 17 30 81 31 18 32 80 33 19 34 20 35 21 36
REMARK SMILES IDX 74 37 22 38 79 39 73 40 75 41 23 42 78 43 72 44 71 45 24 47
REMARK SMILES IDX 58 48 37 49 57 50 38 51 41 52 56 53 76 54 39 55 40 56 55 58
REMARK SMILES IDX 77 59 42 60 25 61 26 62 35 63 27 64 28 65 34 66 36 67 29 68
REMARK SMILES IDX 30 69 31 70 32 71 33 72 59 73 60 74 69 75 61 76 62 77 68 78
REMARK SMILES IDX 70 79 63 80 64 81 65 82 66 83 67 84 43 85 44 86 53 87 45 88
REMARK SMILES IDX 46 89 52 90 54 91 47 92 48 93 49 94 50 95 51 96
REMARK H PARENT 9 7 1 15 1 16 13 27 75 46 41 57
REMARK Flexibility Score: inf
ROOT
ATOM      1  C   UNL A   1      33.793  27.974  26.815  1.00  0.00     0.118 C 
ENDROOT
BRANCH   1   2
ATOM      2  C   UNL A   1      33.675  27.691  25.318  1.00  0.00     0.042 C 
BRANCH   2   3
ATOM      3  C   UNL A   1      32.382  26.976  24.942  1.00  0.00     0.118 C 
BRANCH   3   4
ATOM      4  N   UNL A   1      31.895  26.132  26.018  1.00  0.00    -0.351 N 
ATOM      5  C   UNL A   1      32.069  24.813  26.349  1.00  0.00     0.267 C 
ATOM      6  O   UNL A   1      31.463  24.386  27.329  1.00  0.00    -0.268 OA
ATOM      7  H   UNL A   1      31.312  26.613  26.649  1.00  0.00     0.163 HD
BRANCH   5   8
ATOM      8  C   UNL A   1      32.989  23.861  25.597  1.00  0.00     0.128 C 
ATOM      9  C   UNL A   1      34.872  22.742  24.823  1.00  0.00     0.203 C 
ATOM     10  C   UNL A   1      34.471  24.024  25.537  1.00  0.00     0.101 C 
ATOM     11  N   UNL A   1      33.593  22.089  24.562  1.00  0.00    -0.252 N 
ATOM     12  N   UNL A   1      32.520  22.800  25.008  1.00  0.00    -0.171 NA
BRANCH   9  13
ATOM     13  C   UNL A   1      35.608  23.020  23.509  1.00  0.00     0.242 C 
ATOM     14  N   UNL A   1      36.960  22.813  23.502  1.00  0.00    -0.368 N 
ATOM     15  H   UNL A   1      37.479  22.977  22.682  1.00  0.00     0.159 HD
ATOM     16  H   UNL A   1      37.413  22.498  24.318  1.00  0.00     0.159 HD
ATOM     17  O   UNL A   1      35.025  23.373  22.486  1.00  0.00    -0.273 OA
ENDBRANCH   9  13
BRANCH  11  18
ATOM     18  C   UNL A   1      33.453  20.737  24.255  1.00  0.00     0.061 A 
ATOM     19  C   UNL A   1      34.366  19.798  24.761  1.00  0.00     0.031 A 
ATOM     20  C   UNL A   1      32.421  20.261  23.426  1.00  0.00     0.031 A 
ATOM     21  C   UNL A   1      34.235  18.433  24.484  1.00  0.00     0.041 A 
ATOM     22  C   UNL A   1      32.305  18.902  23.119  1.00  0.00     0.041 A 
ATOM     23  C   UNL A   1      33.207  17.999  23.661  1.00  0.00     0.123 A 
ATOM     24  F   UNL A   1      33.083  16.696  23.380  1.00  0.00    -0.207 F 
ENDBRANCH  11  18
ENDBRANCH   5   8
ENDBRANCH   3   4
ENDBRANCH   2   3
ENDBRANCH   1   2
BRANCH   1  25
ATOM     25  N   UNL A   1      33.596  29.387  27.118  1.00  0.00    -0.352 N 
ATOM     26  C   UNL A   1      34.379  30.270  27.813  1.00  0.00     0.251 C 
ATOM     27  H   UNL A   1      32.761  29.769  26.764  1.00  0.00     0.163 HD
ATOM     28  O   UNL A   1      33.885  31.341  28.168  1.00  0.00    -0.269 OA
BRANCH  26  29
ATOM     29  C   UNL A   1      35.790  29.965  28.132  1.00  0.00     0.039 A 
ATOM     30  C   UNL A   1      36.749  30.088  27.121  1.00  0.00     0.014 A 
ATOM     31  C   UNL A   1      36.164  29.478  29.388  1.00  0.00     0.014 A 
ATOM     32  C   UNL A   1      38.082  29.756  27.380  1.00  0.00     0.010 A 
ATOM     33  C   UNL A   1      37.504  29.222  29.668  1.00  0.00     0.010 A 
ATOM     34  C   UNL A   1      38.473  29.338  28.662  1.00  0.00    -0.014 A 
BRANCH  34  35
ATOM     35  C   UNL A   1      39.884  28.982  28.954  1.00  0.00     0.031 A 
ATOM     36  C   UNL A   1      40.807  29.998  29.574  1.00  0.00     0.074 A 
ATOM     37  C   UNL A   1      40.346  27.761  28.620  1.00  0.00     0.049 A 
ATOM     38  N   UNL A   1      42.082  29.895  29.854  1.00  0.00    -0.248 NA
ATOM     39  C   UNL A   1      40.230  31.314  29.892  1.00  0.00     0.031 C 
ATOM     40  C   UNL A   1      39.561  26.709  27.969  1.00  0.00     0.029 A 
ATOM     41  N   UNL A   1      41.588  27.200  28.776  1.00  0.00    -0.354 N 
ATOM     42  C   UNL A   1      42.460  31.133  30.362  1.00  0.00     0.074 A 
ATOM     43  C   UNL A   1      41.295  31.987  30.302  1.00  0.00     0.031 C 
ATOM     44  C   UNL A   1      40.334  25.623  27.804  1.00  0.00     0.029 A 
ATOM     45  C   UNL A   1      41.672  25.909  28.309  1.00  0.00     0.049 A 
ATOM     46  H   UNL A   1      42.346  27.677  29.183  1.00  0.00     0.167 HD
ATOM     47  C   UNL A   1      43.662  31.516  30.857  1.00  0.00     0.037 A 
ATOM     48  C   UNL A   1      42.712  25.053  28.296  1.00  0.00     0.037 A 
ATOM     49  C   UNL A   1      44.808  30.649  30.947  1.00  0.00     0.049 A 
ATOM     50  C   UNL A   1      44.025  25.488  28.886  1.00  0.00     0.074 A 
ATOM     51  C   UNL A   1      46.058  30.923  31.474  1.00  0.00     0.029 A 
ATOM     52  N   UNL A   1      44.841  29.333  30.506  1.00  0.00    -0.354 N 
ATOM     53  N   UNL A   1      44.352  26.647  29.405  1.00  0.00    -0.248 NA
ATOM     54  C   UNL A   1      45.105  24.493  28.905  1.00  0.00     0.031 C 
ATOM     55  C   UNL A   1      46.854  29.781  31.328  1.00  0.00     0.029 A 
ATOM     56  C   UNL A   1      46.088  28.784  30.747  1.00  0.00     0.049 A 
ATOM     57  H   UNL A   1      44.087  28.861  30.084  1.00  0.00     0.167 HD
ATOM     58  C   UNL A   1      45.665  26.512  29.840  1.00  0.00     0.074 A 
ATOM     59  C   UNL A   1      46.069  25.155  29.531  1.00  0.00     0.031 C 
ATOM     60  C   UNL A   1      46.465  27.427  30.441  1.00  0.00     0.037 A 
BRANCH  47  61
ATOM     61  C   UNL A   1      43.792  32.932  31.347  1.00  0.00     0.058 A 
ATOM     62  C   UNL A   1      43.444  33.290  32.660  1.00  0.00     0.135 A 
ATOM     63  C   UNL A   1      44.289  33.940  30.506  1.00  0.00     0.135 A 
ATOM     64  F   UNL A   1      42.946  32.371  33.503  1.00  0.00    -0.206 F 
ATOM     65  C   UNL A   1      43.551  34.602  33.110  1.00  0.00     0.059 A 
ATOM     66  C   UNL A   1      44.432  35.255  30.943  1.00  0.00     0.059 A 
ATOM     67  F   UNL A   1      44.638  33.654  29.241  1.00  0.00    -0.206 F 
ATOM     68  C   UNL A   1      44.044  35.578  32.243  1.00  0.00     0.060 A 
BRANCH  68  69
ATOM     69  S   UNL A   1      44.174  37.278  32.839  1.00  0.00     0.124 S 
ATOM     70  O   UNL A   1      43.899  38.034  31.620  1.00  0.00    -0.237 OA
ATOM     71  O   UNL A   1      43.134  37.331  33.863  1.00  0.00    -0.237 OA
ATOM     72  O   UNL A   1      45.543  37.359  33.334  1.00  0.00    -0.744 OA
ENDBRANCH  68  69
ENDBRANCH  47  61
BRANCH  48  73
ATOM     73  C   UNL A   1      42.538  23.686  27.742  1.00  0.00     0.058 A 
ATOM     74  C   UNL A   1      42.594  23.458  26.359  1.00  0.00     0.135 A 
ATOM     75  C   UNL A   1      42.335  22.579  28.579  1.00  0.00     0.135 A 
ATOM     76  F   UNL A   1      42.785  24.485  25.517  1.00  0.00    -0.206 F 
ATOM     77  C   UNL A   1      42.434  22.184  25.823  1.00  0.00     0.059 A 
ATOM     78  C   UNL A   1      42.195  21.292  28.069  1.00  0.00     0.059 A 
ATOM     79  F   UNL A   1      42.295  22.742  29.911  1.00  0.00    -0.206 F 
ATOM     80  C   UNL A   1      42.236  21.107  26.688  1.00  0.00     0.060 A 
BRANCH  80  81
ATOM     81  S   UNL A   1      42.081  19.450  25.986  1.00  0.00     0.124 S 
ATOM     82  O   UNL A   1      42.610  18.624  27.065  1.00  0.00    -0.237 OA
ATOM     83  O   UNL A   1      40.644  19.349  25.750  1.00  0.00    -0.237 OA
ATOM     84  O   UNL A   1      42.902  19.520  24.782  1.00  0.00    -0.744 OA
ENDBRANCH  80  81
ENDBRANCH  48  73
BRANCH  60  85
ATOM     85  C   UNL A   1      47.841  26.973  30.845  1.00  0.00     0.058 A 
ATOM     86  C   UNL A   1      48.113  26.494  32.135  1.00  0.00     0.135 A 
ATOM     87  C   UNL A   1      48.894  26.998  29.917  1.00  0.00     0.135 A 
ATOM     88  F   UNL A   1      47.141  26.455  33.060  1.00  0.00    -0.206 F 
ATOM     89  C   UNL A   1      49.391  26.088  32.503  1.00  0.00     0.059 A 
ATOM     90  C   UNL A   1      50.174  26.573  30.255  1.00  0.00     0.059 A 
ATOM     91  F   UNL A   1      48.683  27.436  28.665  1.00  0.00    -0.206 F 
ATOM     92  C   UNL A   1      50.416  26.135  31.556  1.00  0.00     0.060 A 
BRANCH  92  93
ATOM     93  S   UNL A   1      52.071  25.600  32.040  1.00  0.00     0.124 S 
ATOM     94  O   UNL A   1      52.867  26.039  30.899  1.00  0.00    -0.237 OA
ATOM     95  O   UNL A   1      52.288  26.334  33.284  1.00  0.00    -0.237 OA
ATOM     96  O   UNL A   1      51.928  24.155  32.191  1.00  0.00    -0.744 OA
ENDBRANCH  92  93
ENDBRANCH  60  85
ENDBRANCH  34  35
ENDBRANCH  26  29
ENDBRANCH   1  25
TORSDOF 15
ENDMDL
