MODEL 1
REMARK VINA RESULT:     -14.2      0.000      0.000
REMARK SMILES C[N@@H+]1CCN(C(=O)c2ccc3[nH]c4c(c3c2)CSCC4)C[C@H]1C(=O)NCCCNC(=O)c1ccc(-c2c3nc(c(-c4c(F)cc(S(=O)(=O)[O-])cc4F)c4ccc([nH]4)c(-c4c(F)cc(S(=O)(=O)[O-])cc4F)c4nc(c(-c5c(F)cc(S(=O)(=O)[O-])cc5F)c5ccc2[nH]5)C=C4)C=C3)cc1
REMARK SMILES IDX 27 1 26 2 25 3 23 4 24 5 22 7 1 8 2 9 3 10 4 12 21 13 5 14
REMARK SMILES IDX 6 15 7 16 8 17 9 18 16 19 10 20 15 21 11 22 14 23 12 24
REMARK SMILES IDX 13 25 17 26 20 28 18 29 19 30 28 31 29 32 30 33 31 35 32 36
REMARK SMILES IDX 33 37 97 38 34 39 96 40 35 41 36 42 37 43 90 44 38 45 95 46
REMARK SMILES IDX 89 47 91 48 39 49 94 50 88 51 87 52 40 54 74 55 53 56 73 57
REMARK SMILES IDX 54 58 57 59 72 60 92 61 55 62 56 63 71 65 93 66 58 67 41 68
REMARK SMILES IDX 42 69 51 70 43 71 44 72 50 73 52 74 45 75 46 76 47 77 48 78
REMARK SMILES IDX 49 79 75 80 76 81 85 82 77 83 78 84 84 85 86 86 79 87 80 88
REMARK SMILES IDX 81 89 82 90 83 91 59 92 60 93 69 94 61 95 62 96 68 97 70 98
REMARK SMILES IDX 63 99 64 100 65 101 66 102 67 103
REMARK H PARENT 25 6 2 11 12 27 29 34 91 53 57 64
REMARK Flexibility Score: inf
ROOT
ATOM      1  C   UNL A   1      31.948  30.099  27.034  1.00  0.00     0.042 C 
ENDROOT
BRANCH   1   2
ATOM      2  C   UNL A   1      31.470  30.369  25.610  1.00  0.00     0.118 C 
BRANCH   2   3
ATOM      3  N   UNL A   1      32.380  29.863  24.593  1.00  0.00    -0.351 N 
ATOM      4  C   UNL A   1      32.435  28.637  23.999  1.00  0.00     0.280 C 
ATOM      5  O   UNL A   1      33.301  28.458  23.134  1.00  0.00    -0.268 OA
ATOM      6  H   UNL A   1      33.061  30.505  24.288  1.00  0.00     0.163 HD
BRANCH   4   7
ATOM      7  C   UNL A   1      31.445  27.516  24.350  1.00  0.00     0.293 C 
ATOM      8  C   UNL A   1      29.689  28.359  22.873  1.00  0.00     0.333 C 
ATOM      9  N   UNL A   1      30.520  27.204  23.220  1.00  0.00    -0.324 N 
ATOM     10  C   UNL A   1      29.652  26.061  23.596  1.00  0.00     0.284 C 
ATOM     11  H   UNL A   1      31.083  26.964  22.404  1.00  0.00     0.348 HD
ATOM     12  C   UNL A   1      30.438  24.826  24.071  1.00  0.00     0.181 C 
ATOM     13  C   UNL A   1      32.240  26.299  24.870  1.00  0.00     0.195 C 
ATOM     14  N   UNL A   1      31.370  25.151  25.154  1.00  0.00    -0.326 N 
BRANCH  14  15
ATOM     15  C   UNL A   1      31.563  24.229  26.173  1.00  0.00     0.254 C 
ATOM     16  O   UNL A   1      30.866  24.171  27.192  1.00  0.00    -0.269 OA
BRANCH  15  17
ATOM     17  C   UNL A   1      32.652  23.241  26.048  1.00  0.00     0.040 A 
ATOM     18  C   UNL A   1      33.900  23.491  26.627  1.00  0.00     0.016 A 
ATOM     19  C   UNL A   1      32.391  22.044  25.366  1.00  0.00     0.024 A 
ATOM     20  C   UNL A   1      34.948  22.584  26.471  1.00  0.00     0.027 A 
ATOM     21  C   UNL A   1      33.430  21.104  25.224  1.00  0.00     0.004 A 
ATOM     22  C   UNL A   1      34.684  21.403  25.766  1.00  0.00     0.046 A 
ATOM     23  C   UNL A   1      33.520  19.805  24.631  1.00  0.00    -0.009 A 
ATOM     24  N   UNL A   1      35.515  20.348  25.476  1.00  0.00    -0.358 N 
ATOM     25  C   UNL A   1      34.816  19.363  24.836  1.00  0.00     0.021 A 
ATOM     26  C   UNL A   1      32.420  19.033  23.972  1.00  0.00     0.107 C 
ATOM     27  H   UNL A   1      36.474  20.305  25.695  1.00  0.00     0.166 HD
ATOM     28  C   UNL A   1      35.395  18.048  24.450  1.00  0.00     0.065 C 
ATOM     29  S   UNL A   1      32.982  17.476  23.179  1.00  0.00    -0.157 SA
ATOM     30  C   UNL A   1      34.292  16.988  24.360  1.00  0.00     0.076 C 
ENDBRANCH  15  17
ENDBRANCH  14  15
ENDBRANCH   4   7
ENDBRANCH   2   3
ENDBRANCH   1   2
BRANCH   1  31
ATOM     31  C   UNL A   1      33.458  30.199  27.237  1.00  0.00     0.118 C 
BRANCH  31  32
ATOM     32  N   UNL A   1      33.948  31.541  27.481  1.00  0.00    -0.352 N 
ATOM     33  C   UNL A   1      35.160  32.091  27.796  1.00  0.00     0.251 C 
ATOM     34  H   UNL A   1      33.239  32.220  27.402  1.00  0.00     0.163 HD
ATOM     35  O   UNL A   1      35.218  33.322  27.707  1.00  0.00    -0.269 OA
BRANCH  33  36
ATOM     36  C   UNL A   1      36.356  31.351  28.283  1.00  0.00     0.039 A 
ATOM     37  C   UNL A   1      37.433  31.905  28.971  1.00  0.00     0.014 A 
ATOM     38  C   UNL A   1      36.424  29.990  27.918  1.00  0.00     0.014 A 
ATOM     39  C   UNL A   1      38.584  31.149  29.195  1.00  0.00     0.010 A 
ATOM     40  C   UNL A   1      37.566  29.228  28.151  1.00  0.00     0.010 A 
ATOM     41  C   UNL A   1      38.670  29.824  28.744  1.00  0.00    -0.014 A 
BRANCH  41  42
ATOM     42  C   UNL A   1      39.908  29.087  28.997  1.00  0.00     0.031 A 
ATOM     43  C   UNL A   1      40.222  28.881  30.440  1.00  0.00     0.074 A 
ATOM     44  C   UNL A   1      40.712  28.565  28.046  1.00  0.00     0.049 A 
ATOM     45  N   UNL A   1      41.147  29.458  31.133  1.00  0.00    -0.248 NA
ATOM     46  C   UNL A   1      39.314  28.045  31.236  1.00  0.00     0.031 C 
ATOM     47  C   UNL A   1      40.471  28.436  26.609  1.00  0.00     0.029 A 
ATOM     48  N   UNL A   1      41.932  27.972  28.201  1.00  0.00    -0.354 N 
ATOM     49  C   UNL A   1      41.076  28.909  32.412  1.00  0.00     0.074 A 
ATOM     50  C   UNL A   1      39.843  28.167  32.456  1.00  0.00     0.031 C 
ATOM     51  C   UNL A   1      41.407  27.620  26.066  1.00  0.00     0.029 A 
ATOM     52  C   UNL A   1      42.397  27.293  27.080  1.00  0.00     0.049 A 
ATOM     53  H   UNL A   1      42.443  28.019  29.043  1.00  0.00     0.167 HD
ATOM     54  C   UNL A   1      42.140  28.958  33.265  1.00  0.00     0.037 A 
ATOM     55  C   UNL A   1      43.500  26.504  26.999  1.00  0.00     0.037 A 
ATOM     56  C   UNL A   1      43.110  29.931  32.827  1.00  0.00     0.049 A 
ATOM     57  C   UNL A   1      44.414  26.921  28.094  1.00  0.00     0.074 A 
ATOM     58  C   UNL A   1      43.091  31.296  32.612  1.00  0.00     0.029 A 
ATOM     59  N   UNL A   1      44.243  29.472  32.200  1.00  0.00    -0.354 N 
ATOM     60  N   UNL A   1      45.012  28.080  28.135  1.00  0.00    -0.248 NA
ATOM     61  C   UNL A   1      44.303  26.229  29.370  1.00  0.00     0.031 C 
ATOM     62  C   UNL A   1      43.916  31.497  31.467  1.00  0.00     0.029 A 
ATOM     63  C   UNL A   1      44.434  30.256  31.093  1.00  0.00     0.049 A 
ATOM     64  H   UNL A   1      44.810  28.721  32.491  1.00  0.00     0.167 HD
ATOM     65  C   UNL A   1      44.966  28.454  29.470  1.00  0.00     0.074 A 
ATOM     66  C   UNL A   1      44.590  27.240  30.193  1.00  0.00     0.031 C 
ATOM     67  C   UNL A   1      44.969  29.768  29.843  1.00  0.00     0.037 A 
BRANCH  54  68
ATOM     68  C   UNL A   1      42.499  27.890  34.276  1.00  0.00     0.058 A 
ATOM     69  C   UNL A   1      42.395  28.193  35.653  1.00  0.00     0.135 A 
ATOM     70  C   UNL A   1      43.237  26.729  33.967  1.00  0.00     0.135 A 
ATOM     71  F   UNL A   1      41.690  29.257  36.071  1.00  0.00    -0.206 F 
ATOM     72  C   UNL A   1      43.086  27.480  36.631  1.00  0.00     0.059 A 
ATOM     73  C   UNL A   1      43.892  25.972  34.933  1.00  0.00     0.059 A 
ATOM     74  F   UNL A   1      43.443  26.321  32.710  1.00  0.00    -0.206 F 
ATOM     75  C   UNL A   1      43.859  26.387  36.254  1.00  0.00     0.060 A 
BRANCH  75  76
ATOM     76  S   UNL A   1      44.881  25.566  37.487  1.00  0.00     0.124 S 
ATOM     77  O   UNL A   1      44.251  26.008  38.725  1.00  0.00    -0.237 OA
ATOM     78  O   UNL A   1      44.699  24.160  37.141  1.00  0.00    -0.237 OA
ATOM     79  O   UNL A   1      46.214  26.104  37.229  1.00  0.00    -0.744 OA
ENDBRANCH  75  76
ENDBRANCH  54  68
BRANCH  55  80
ATOM     80  C   UNL A   1      43.663  25.219  26.260  1.00  0.00     0.058 A 
ATOM     81  C   UNL A   1      44.722  25.014  25.352  1.00  0.00     0.135 A 
ATOM     82  C   UNL A   1      42.952  24.064  26.644  1.00  0.00     0.135 A 
ATOM     83  F   UNL A   1      45.474  26.050  24.948  1.00  0.00    -0.206 F 
ATOM     84  C   UNL A   1      45.077  23.739  24.889  1.00  0.00     0.059 A 
ATOM     85  C   UNL A   1      43.282  22.787  26.191  1.00  0.00     0.059 A 
ATOM     86  F   UNL A   1      41.964  24.133  27.549  1.00  0.00    -0.206 F 
ATOM     87  C   UNL A   1      44.362  22.627  25.332  1.00  0.00     0.060 A 
BRANCH  87  88
ATOM     88  S   UNL A   1      44.909  20.966  24.864  1.00  0.00     0.124 S 
ATOM     89  O   UNL A   1      46.314  20.986  25.257  1.00  0.00    -0.237 OA
ATOM     90  O   UNL A   1      44.035  20.116  25.665  1.00  0.00    -0.237 OA
ATOM     91  O   UNL A   1      44.667  20.921  23.424  1.00  0.00    -0.744 OA
ENDBRANCH  87  88
ENDBRANCH  55  80
BRANCH  67  92
ATOM     92  C   UNL A   1      45.311  30.817  28.819  1.00  0.00     0.058 A 
ATOM     93  C   UNL A   1      44.388  31.368  27.914  1.00  0.00     0.135 A 
ATOM     94  C   UNL A   1      46.566  31.437  28.917  1.00  0.00     0.135 A 
ATOM     95  F   UNL A   1      43.138  30.892  27.826  1.00  0.00    -0.206 F 
ATOM     96  C   UNL A   1      44.704  32.483  27.135  1.00  0.00     0.059 A 
ATOM     97  C   UNL A   1      46.892  32.566  28.172  1.00  0.00     0.059 A 
ATOM     98  F   UNL A   1      47.470  30.991  29.806  1.00  0.00    -0.206 F 
ATOM     99  C   UNL A   1      45.955  33.085  27.282  1.00  0.00     0.060 A 
BRANCH  99 100
ATOM    100  S   UNL A   1      46.310  34.607  26.377  1.00  0.00     0.124 S 
ATOM    101  O   UNL A   1      47.388  34.191  25.486  1.00  0.00    -0.237 OA
ATOM    102  O   UNL A   1      45.030  34.895  25.734  1.00  0.00    -0.237 OA
ATOM    103  O   UNL A   1      46.695  35.548  27.426  1.00  0.00    -0.744 OA
ENDBRANCH  99 100
ENDBRANCH  67  92
ENDBRANCH  41  42
ENDBRANCH  33  36
ENDBRANCH  31  32
ENDBRANCH   1  31
TORSDOF 15
ENDMDL
MODEL 2
REMARK VINA RESULT:     -13.4      1.610      2.069
REMARK SMILES C[N@@H+]1CCN(C(=O)c2ccc3[nH]c4c(c3c2)CSCC4)C[C@H]1C(=O)NCCCNC(=O)c1ccc(-c2c3nc(c(-c4c(F)cc(S(=O)(=O)[O-])cc4F)c4ccc([nH]4)c(-c4c(F)cc(S(=O)(=O)[O-])cc4F)c4nc(c(-c5c(F)cc(S(=O)(=O)[O-])cc5F)c5ccc2[nH]5)C=C4)C=C3)cc1
REMARK SMILES IDX 27 1 26 2 25 3 23 4 24 5 22 7 1 8 2 9 3 10 4 12 21 13 5 14
REMARK SMILES IDX 6 15 7 16 8 17 9 18 16 19 10 20 15 21 11 22 14 23 12 24
REMARK SMILES IDX 13 25 17 26 20 28 18 29 19 30 28 31 29 32 30 33 31 35 32 36
REMARK SMILES IDX 33 37 97 38 34 39 96 40 35 41 36 42 37 43 90 44 38 45 95 46
REMARK SMILES IDX 89 47 91 48 39 49 94 50 88 51 87 52 40 54 74 55 53 56 73 57
REMARK SMILES IDX 54 58 57 59 72 60 92 61 55 62 56 63 71 65 93 66 58 67 41 68
REMARK SMILES IDX 42 69 51 70 43 71 44 72 50 73 52 74 45 75 46 76 47 77 48 78
REMARK SMILES IDX 49 79 75 80 76 81 85 82 77 83 78 84 84 85 86 86 79 87 80 88
REMARK SMILES IDX 81 89 82 90 83 91 59 92 60 93 69 94 61 95 62 96 68 97 70 98
REMARK SMILES IDX 63 99 64 100 65 101 66 102 67 103
REMARK H PARENT 25 6 2 11 12 27 29 34 91 53 57 64
REMARK Flexibility Score: inf
ROOT
ATOM      1  C   UNL A   1      34.154  30.005  27.227  1.00  0.00     0.042 C 
ENDROOT
BRANCH   1   2
ATOM      2  C   UNL A   1      32.942  29.971  26.300  1.00  0.00     0.118 C 
BRANCH   2   3
ATOM      3  N   UNL A   1      33.293  29.764  24.903  1.00  0.00    -0.351 N 
ATOM      4  C   UNL A   1      32.715  28.961  23.964  1.00  0.00     0.280 C 
ATOM      5  O   UNL A   1      33.192  28.978  22.824  1.00  0.00    -0.268 OA
ATOM      6  H   UNL A   1      34.068  30.283  24.587  1.00  0.00     0.163 HD
BRANCH   4   7
ATOM      7  C   UNL A   1      31.491  28.087  24.282  1.00  0.00     0.293 C 
ATOM      8  C   UNL A   1      29.951  29.446  22.955  1.00  0.00     0.333 C 
ATOM      9  N   UNL A   1      30.485  28.100  23.178  1.00  0.00    -0.324 N 
ATOM     10  C   UNL A   1      29.376  27.174  23.513  1.00  0.00     0.284 C 
ATOM     11  H   UNL A   1      30.948  27.798  22.321  1.00  0.00     0.348 HD
ATOM     12  C   UNL A   1      29.851  25.751  23.861  1.00  0.00     0.181 C 
ATOM     13  C   UNL A   1      31.980  26.677  24.675  1.00  0.00     0.195 C 
ATOM     14  N   UNL A   1      30.865  25.753  24.918  1.00  0.00    -0.326 N 
BRANCH  14  15
ATOM     15  C   UNL A   1      30.857  24.733  25.858  1.00  0.00     0.254 C 
ATOM     16  O   UNL A   1      30.156  24.738  26.875  1.00  0.00    -0.269 OA
BRANCH  15  17
ATOM     17  C   UNL A   1      31.721  23.556  25.644  1.00  0.00     0.040 A 
ATOM     18  C   UNL A   1      31.161  22.327  25.283  1.00  0.00     0.016 A 
ATOM     19  C   UNL A   1      33.108  23.713  25.782  1.00  0.00     0.024 A 
ATOM     20  C   UNL A   1      31.966  21.199  25.127  1.00  0.00     0.027 A 
ATOM     21  C   UNL A   1      33.939  22.590  25.599  1.00  0.00     0.004 A 
ATOM     22  C   UNL A   1      33.347  21.361  25.291  1.00  0.00     0.046 A 
ATOM     23  C   UNL A   1      35.354  22.386  25.635  1.00  0.00    -0.009 A 
ATOM     24  N   UNL A   1      34.360  20.437  25.188  1.00  0.00    -0.358 N 
ATOM     25  C   UNL A   1      35.571  21.050  25.345  1.00  0.00     0.021 A 
ATOM     26  C   UNL A   1      36.412  23.419  25.871  1.00  0.00     0.107 C 
ATOM     27  H   UNL A   1      34.233  19.475  25.024  1.00  0.00     0.166 HD
ATOM     28  C   UNL A   1      36.879  20.353  25.213  1.00  0.00     0.065 C 
ATOM     29  S   UNL A   1      38.104  22.724  26.014  1.00  0.00    -0.157 SA
ATOM     30  C   UNL A   1      37.973  21.349  24.814  1.00  0.00     0.076 C 
ENDBRANCH  15  17
ENDBRANCH  14  15
ENDBRANCH   4   7
ENDBRANCH   2   3
ENDBRANCH   1   2
BRANCH   1  31
ATOM     31  C   UNL A   1      34.635  31.402  27.610  1.00  0.00     0.118 C 
BRANCH  31  32
ATOM     32  N   UNL A   1      34.425  31.754  29.000  1.00  0.00    -0.352 N 
ATOM     33  C   UNL A   1      35.204  31.787  30.123  1.00  0.00     0.251 C 
ATOM     34  H   UNL A   1      33.499  32.037  29.180  1.00  0.00     0.163 HD
ATOM     35  O   UNL A   1      34.704  32.362  31.095  1.00  0.00    -0.269 OA
BRANCH  33  36
ATOM     36  C   UNL A   1      36.540  31.148  30.279  1.00  0.00     0.039 A 
ATOM     37  C   UNL A   1      37.765  31.811  30.290  1.00  0.00     0.014 A 
ATOM     38  C   UNL A   1      36.543  29.738  30.323  1.00  0.00     0.014 A 
ATOM     39  C   UNL A   1      38.955  31.084  30.239  1.00  0.00     0.010 A 
ATOM     40  C   UNL A   1      37.728  29.009  30.287  1.00  0.00     0.010 A 
ATOM     41  C   UNL A   1      38.937  29.683  30.191  1.00  0.00    -0.014 A 
BRANCH  41  42
ATOM     42  C   UNL A   1      40.217  28.979  30.126  1.00  0.00     0.031 A 
ATOM     43  C   UNL A   1      40.930  28.868  31.430  1.00  0.00     0.074 A 
ATOM     44  C   UNL A   1      40.736  28.406  29.018  1.00  0.00     0.049 A 
ATOM     45  N   UNL A   1      41.996  29.498  31.800  1.00  0.00    -0.248 NA
ATOM     46  C   UNL A   1      40.308  28.073  32.498  1.00  0.00     0.031 C 
ATOM     47  C   UNL A   1      40.104  28.184  27.718  1.00  0.00     0.029 A 
ATOM     48  N   UNL A   1      41.967  27.838  28.856  1.00  0.00    -0.354 N 
ATOM     49  C   UNL A   1      42.304  29.031  33.076  1.00  0.00     0.074 A 
ATOM     50  C   UNL A   1      41.154  28.279  33.509  1.00  0.00     0.031 C 
ATOM     51  C   UNL A   1      40.873  27.346  26.981  1.00  0.00     0.029 A 
ATOM     52  C   UNL A   1      42.117  27.095  27.691  1.00  0.00     0.049 A 
ATOM     53  H   UNL A   1      42.692  27.945  29.515  1.00  0.00     0.167 HD
ATOM     54  C   UNL A   1      43.562  29.146  33.589  1.00  0.00     0.037 A 
ATOM     55  C   UNL A   1      43.174  26.315  27.346  1.00  0.00     0.037 A 
ATOM     56  C   UNL A   1      44.342  30.101  32.840  1.00  0.00     0.049 A 
ATOM     57  C   UNL A   1      44.347  26.811  28.113  1.00  0.00     0.074 A 
ATOM     58  C   UNL A   1      44.224  31.449  32.560  1.00  0.00     0.029 A 
ATOM     59  N   UNL A   1      45.265  29.616  31.945  1.00  0.00    -0.354 N 
ATOM     60  N   UNL A   1      44.900  27.978  27.916  1.00  0.00    -0.248 NA
ATOM     61  C   UNL A   1      44.620  26.201  29.405  1.00  0.00     0.031 C 
ATOM     62  C   UNL A   1      44.686  31.586  31.219  1.00  0.00     0.029 A 
ATOM     63  C   UNL A   1      45.114  30.330  30.787  1.00  0.00     0.049 A 
ATOM     64  H   UNL A   1      45.913  28.891  32.107  1.00  0.00     0.167 HD
ATOM     65  C   UNL A   1      45.220  28.435  29.186  1.00  0.00     0.074 A 
ATOM     66  C   UNL A   1      45.098  27.265  30.054  1.00  0.00     0.031 C 
ATOM     67  C   UNL A   1      45.289  29.769  29.466  1.00  0.00     0.037 A 
BRANCH  54  68
ATOM     68  C   UNL A   1      44.222  28.149  34.517  1.00  0.00     0.058 A 
ATOM     69  C   UNL A   1      44.881  28.627  35.673  1.00  0.00     0.135 A 
ATOM     70  C   UNL A   1      44.516  26.816  34.162  1.00  0.00     0.135 A 
ATOM     71  F   UNL A   1      44.656  29.870  36.128  1.00  0.00    -0.206 F 
ATOM     72  C   UNL A   1      45.859  27.888  36.337  1.00  0.00     0.059 A 
ATOM     73  C   UNL A   1      45.450  26.042  34.842  1.00  0.00     0.059 A 
ATOM     74  F   UNL A   1      43.989  26.228  33.083  1.00  0.00    -0.206 F 
ATOM     75  C   UNL A   1      46.158  26.605  35.892  1.00  0.00     0.060 A 
BRANCH  75  76
ATOM     76  S   UNL A   1      47.529  25.712  36.642  1.00  0.00     0.124 S 
ATOM     77  O   UNL A   1      48.103  25.039  35.483  1.00  0.00    -0.237 OA
ATOM     78  O   UNL A   1      48.320  26.797  37.211  1.00  0.00    -0.237 OA
ATOM     79  O   UNL A   1      46.870  24.844  37.615  1.00  0.00    -0.744 OA
ENDBRANCH  75  76
ENDBRANCH  54  68
BRANCH  55  80
ATOM     80  C   UNL A   1      43.161  24.988  26.667  1.00  0.00     0.058 A 
ATOM     81  C   UNL A   1      43.627  24.824  25.347  1.00  0.00     0.135 A 
ATOM     82  C   UNL A   1      42.958  23.800  27.398  1.00  0.00     0.135 A 
ATOM     83  F   UNL A   1      43.875  25.899  24.582  1.00  0.00    -0.206 F 
ATOM     84  C   UNL A   1      43.913  23.564  24.803  1.00  0.00     0.059 A 
ATOM     85  C   UNL A   1      43.229  22.535  26.875  1.00  0.00     0.059 A 
ATOM     86  F   UNL A   1      42.573  23.838  28.682  1.00  0.00    -0.206 F 
ATOM     87  C   UNL A   1      43.730  22.424  25.584  1.00  0.00     0.060 A 
BRANCH  87  88
ATOM     88  S   UNL A   1      44.243  20.809  24.946  1.00  0.00     0.124 S 
ATOM     89  O   UNL A   1      45.427  20.526  25.750  1.00  0.00    -0.237 OA
ATOM     90  O   UNL A   1      43.073  19.982  25.223  1.00  0.00    -0.237 OA
ATOM     91  O   UNL A   1      44.498  21.067  23.532  1.00  0.00    -0.744 OA
ENDBRANCH  87  88
ENDBRANCH  55  80
BRANCH  67  92
ATOM     92  C   UNL A   1      45.299  30.755  28.329  1.00  0.00     0.058 A 
ATOM     93  C   UNL A   1      44.142  31.288  27.735  1.00  0.00     0.135 A 
ATOM     94  C   UNL A   1      46.527  31.341  27.986  1.00  0.00     0.135 A 
ATOM     95  F   UNL A   1      42.924  30.846  28.078  1.00  0.00    -0.206 F 
ATOM     96  C   UNL A   1      44.206  32.353  26.834  1.00  0.00     0.059 A 
ATOM     97  C   UNL A   1      46.612  32.422  27.113  1.00  0.00     0.059 A 
ATOM     98  F   UNL A   1      47.663  30.913  28.564  1.00  0.00    -0.206 F 
ATOM     99  C   UNL A   1      45.446  32.923  26.540  1.00  0.00     0.060 A 
BRANCH  99 100
ATOM    100  S   UNL A   1      45.512  34.387  25.484  1.00  0.00     0.124 S 
ATOM    101  O   UNL A   1      44.900  35.405  26.331  1.00  0.00    -0.237 OA
ATOM    102  O   UNL A   1      46.945  34.537  25.244  1.00  0.00    -0.237 OA
ATOM    103  O   UNL A   1      44.731  33.999  24.311  1.00  0.00    -0.744 OA
ENDBRANCH  99 100
ENDBRANCH  67  92
ENDBRANCH  41  42
ENDBRANCH  33  36
ENDBRANCH  31  32
ENDBRANCH   1  31
TORSDOF 15
ENDMDL
MODEL 3
REMARK VINA RESULT:     -13.2      1.671      2.108
REMARK SMILES C[N@@H+]1CCN(C(=O)c2ccc3[nH]c4c(c3c2)CSCC4)C[C@H]1C(=O)NCCCNC(=O)c1ccc(-c2c3nc(c(-c4c(F)cc(S(=O)(=O)[O-])cc4F)c4ccc([nH]4)c(-c4c(F)cc(S(=O)(=O)[O-])cc4F)c4nc(c(-c5c(F)cc(S(=O)(=O)[O-])cc5F)c5ccc2[nH]5)C=C4)C=C3)cc1
REMARK SMILES IDX 27 1 26 2 25 3 23 4 24 5 22 7 1 8 2 9 3 10 4 12 21 13 5 14
REMARK SMILES IDX 6 15 7 16 8 17 9 18 16 19 10 20 15 21 11 22 14 23 12 24
REMARK SMILES IDX 13 25 17 26 20 28 18 29 19 30 28 31 29 32 30 33 31 35 32 36
REMARK SMILES IDX 33 37 97 38 34 39 96 40 35 41 36 42 37 43 90 44 38 45 95 46
REMARK SMILES IDX 89 47 91 48 39 49 94 50 88 51 87 52 40 54 74 55 53 56 73 57
REMARK SMILES IDX 54 58 57 59 72 60 92 61 55 62 56 63 71 65 93 66 58 67 41 68
REMARK SMILES IDX 42 69 51 70 43 71 44 72 50 73 52 74 45 75 46 76 47 77 48 78
REMARK SMILES IDX 49 79 75 80 76 81 85 82 77 83 78 84 84 85 86 86 79 87 80 88
REMARK SMILES IDX 81 89 82 90 83 91 59 92 60 93 69 94 61 95 62 96 68 97 70 98
REMARK SMILES IDX 63 99 64 100 65 101 66 102 67 103
REMARK H PARENT 25 6 2 11 12 27 29 34 91 53 57 64
REMARK Flexibility Score: inf
ROOT
ATOM      1  C   UNL A   1      33.017  31.184  27.010  1.00  0.00     0.042 C 
ENDROOT
BRANCH   1   2
ATOM      2  C   UNL A   1      32.372  29.819  26.785  1.00  0.00     0.118 C 
BRANCH   2   3
ATOM      3  N   UNL A   1      31.412  29.810  25.692  1.00  0.00    -0.351 N 
ATOM      4  C   UNL A   1      31.194  28.872  24.725  1.00  0.00     0.280 C 
ATOM      5  O   UNL A   1      30.292  29.090  23.909  1.00  0.00    -0.268 OA
ATOM      6  H   UNL A   1      30.831  30.603  25.641  1.00  0.00     0.163 HD
BRANCH   4   7
ATOM      7  C   UNL A   1      32.005  27.568  24.657  1.00  0.00     0.293 C 
ATOM      8  C   UNL A   1      33.952  28.623  23.618  1.00  0.00     0.333 C 
ATOM      9  N   UNL A   1      33.477  27.813  24.743  1.00  0.00    -0.324 N 
ATOM     10  C   UNL A   1      34.191  26.512  24.757  1.00  0.00     0.284 C 
ATOM     11  H   UNL A   1      33.665  28.327  25.603  1.00  0.00     0.348 HD
ATOM     12  C   UNL A   1      33.689  25.551  25.850  1.00  0.00     0.181 C 
ATOM     13  C   UNL A   1      31.464  26.594  25.725  1.00  0.00     0.195 C 
ATOM     14  N   UNL A   1      32.240  25.348  25.781  1.00  0.00    -0.326 N 
BRANCH  14  15
ATOM     15  C   UNL A   1      31.723  24.092  26.061  1.00  0.00     0.254 C 
ATOM     16  O   UNL A   1      31.145  23.803  27.115  1.00  0.00    -0.269 OA
BRANCH  15  17
ATOM     17  C   UNL A   1      31.847  23.024  25.050  1.00  0.00     0.040 A 
ATOM     18  C   UNL A   1      31.719  23.323  23.691  1.00  0.00     0.016 A 
ATOM     19  C   UNL A   1      32.126  21.721  25.488  1.00  0.00     0.024 A 
ATOM     20  C   UNL A   1      31.788  22.311  22.733  1.00  0.00     0.027 A 
ATOM     21  C   UNL A   1      32.227  20.692  24.532  1.00  0.00     0.004 A 
ATOM     22  C   UNL A   1      32.041  21.009  23.183  1.00  0.00     0.046 A 
ATOM     23  C   UNL A   1      32.515  19.292  24.606  1.00  0.00    -0.009 A 
ATOM     24  N   UNL A   1      32.167  19.841  22.469  1.00  0.00    -0.358 N 
ATOM     25  C   UNL A   1      32.498  18.813  23.308  1.00  0.00     0.021 A 
ATOM     26  C   UNL A   1      32.840  18.499  25.833  1.00  0.00     0.107 C 
ATOM     27  H   UNL A   1      32.039  19.755  21.497  1.00  0.00     0.166 HD
ATOM     28  C   UNL A   1      32.788  17.428  22.850  1.00  0.00     0.065 C 
ATOM     29  S   UNL A   1      32.976  16.694  25.532  1.00  0.00    -0.157 SA
ATOM     30  C   UNL A   1      33.704  16.718  23.853  1.00  0.00     0.076 C 
ENDBRANCH  15  17
ENDBRANCH  14  15
ENDBRANCH   4   7
ENDBRANCH   2   3
ENDBRANCH   1   2
BRANCH   1  31
ATOM     31  C   UNL A   1      34.330  31.157  27.789  1.00  0.00     0.118 C 
BRANCH  31  32
ATOM     32  N   UNL A   1      34.290  31.844  29.065  1.00  0.00    -0.352 N 
ATOM     33  C   UNL A   1      35.164  32.020  30.101  1.00  0.00     0.251 C 
ATOM     34  H   UNL A   1      33.427  32.290  29.224  1.00  0.00     0.163 HD
ATOM     35  O   UNL A   1      34.829  32.868  30.934  1.00  0.00    -0.269 OA
BRANCH  33  36
ATOM     36  C   UNL A   1      36.417  31.248  30.330  1.00  0.00     0.039 A 
ATOM     37  C   UNL A   1      37.711  31.757  30.262  1.00  0.00     0.014 A 
ATOM     38  C   UNL A   1      36.253  29.862  30.537  1.00  0.00     0.014 A 
ATOM     39  C   UNL A   1      38.806  30.892  30.295  1.00  0.00     0.010 A 
ATOM     40  C   UNL A   1      37.342  28.997  30.585  1.00  0.00     0.010 A 
ATOM     41  C   UNL A   1      38.621  29.507  30.410  1.00  0.00    -0.014 A 
BRANCH  41  42
ATOM     42  C   UNL A   1      39.808  28.651  30.427  1.00  0.00     0.031 A 
ATOM     43  C   UNL A   1      40.425  28.474  31.772  1.00  0.00     0.074 A 
ATOM     44  C   UNL A   1      40.316  28.004  29.356  1.00  0.00     0.049 A 
ATOM     45  N   UNL A   1      41.536  28.976  32.199  1.00  0.00    -0.248 NA
ATOM     46  C   UNL A   1      39.650  27.777  32.806  1.00  0.00     0.031 C 
ATOM     47  C   UNL A   1      39.738  27.841  28.022  1.00  0.00     0.029 A 
ATOM     48  N   UNL A   1      41.476  27.289  29.271  1.00  0.00    -0.354 N 
ATOM     49  C   UNL A   1      41.710  28.494  33.495  1.00  0.00     0.074 A 
ATOM     50  C   UNL A   1      40.455  27.893  33.864  1.00  0.00     0.031 C 
ATOM     51  C   UNL A   1      40.440  26.905  27.338  1.00  0.00     0.029 A 
ATOM     52  C   UNL A   1      41.601  26.516  28.122  1.00  0.00     0.049 A 
ATOM     53  H   UNL A   1      42.170  27.317  29.971  1.00  0.00     0.167 HD
ATOM     54  C   UNL A   1      42.942  28.463  34.081  1.00  0.00     0.037 A 
ATOM     55  C   UNL A   1      42.574  25.608  27.847  1.00  0.00     0.037 A 
ATOM     56  C   UNL A   1      43.874  29.305  33.372  1.00  0.00     0.049 A 
ATOM     57  C   UNL A   1      43.753  25.970  28.679  1.00  0.00     0.074 A 
ATOM     58  C   UNL A   1      43.937  30.653  33.075  1.00  0.00     0.029 A 
ATOM     59  N   UNL A   1      44.782  28.699  32.537  1.00  0.00    -0.354 N 
ATOM     60  N   UNL A   1      44.453  27.058  28.506  1.00  0.00    -0.248 NA
ATOM     61  C   UNL A   1      43.874  25.350  29.989  1.00  0.00     0.031 C 
ATOM     62  C   UNL A   1      44.490  30.714  31.763  1.00  0.00     0.029 A 
ATOM     63  C   UNL A   1      44.786  29.409  31.366  1.00  0.00     0.049 A 
ATOM     64  H   UNL A   1      45.325  27.903  32.743  1.00  0.00     0.167 HD
ATOM     65  C   UNL A   1      44.753  27.492  29.789  1.00  0.00     0.074 A 
ATOM     66  C   UNL A   1      44.439  26.358  30.657  1.00  0.00     0.031 C 
ATOM     67  C   UNL A   1      44.968  28.812  30.063  1.00  0.00     0.037 A 
BRANCH  54  68
ATOM     68  C   UNL A   1      43.421  27.407  35.054  1.00  0.00     0.058 A 
ATOM     69  C   UNL A   1      43.930  27.817  36.308  1.00  0.00     0.135 A 
ATOM     70  C   UNL A   1      43.703  26.073  34.693  1.00  0.00     0.135 A 
ATOM     71  F   UNL A   1      43.696  29.055  36.773  1.00  0.00    -0.206 F 
ATOM     72  C   UNL A   1      44.771  27.011  37.074  1.00  0.00     0.059 A 
ATOM     73  C   UNL A   1      44.498  25.235  35.468  1.00  0.00     0.059 A 
ATOM     74  F   UNL A   1      43.309  25.545  33.530  1.00  0.00    -0.206 F 
ATOM     75  C   UNL A   1      45.074  25.730  36.626  1.00  0.00     0.060 A 
BRANCH  75  76
ATOM     76  S   UNL A   1      46.286  24.749  37.526  1.00  0.00     0.124 S 
ATOM     77  O   UNL A   1      45.436  24.036  38.471  1.00  0.00    -0.237 OA
ATOM     78  O   UNL A   1      46.874  23.946  36.460  1.00  0.00    -0.237 OA
ATOM     79  O   UNL A   1      47.169  25.759  38.105  1.00  0.00    -0.744 OA
ENDBRANCH  75  76
ENDBRANCH  54  68
BRANCH  55  80
ATOM     80  C   UNL A   1      42.439  24.283  27.178  1.00  0.00     0.058 A 
ATOM     81  C   UNL A   1      43.496  23.709  26.445  1.00  0.00     0.135 A 
ATOM     82  C   UNL A   1      41.366  23.421  27.485  1.00  0.00     0.135 A 
ATOM     83  F   UNL A   1      44.573  24.445  26.128  1.00  0.00    -0.206 F 
ATOM     84  C   UNL A   1      43.507  22.356  26.076  1.00  0.00     0.059 A 
ATOM     85  C   UNL A   1      41.352  22.074  27.123  1.00  0.00     0.059 A 
ATOM     86  F   UNL A   1      40.334  23.843  28.230  1.00  0.00    -0.206 F 
ATOM     87  C   UNL A   1      42.437  21.540  26.439  1.00  0.00     0.060 A 
BRANCH  87  88
ATOM     88  S   UNL A   1      42.513  19.762  26.105  1.00  0.00     0.124 S 
ATOM     89  O   UNL A   1      41.308  19.549  25.313  1.00  0.00    -0.237 OA
ATOM     90  O   UNL A   1      43.778  19.637  25.389  1.00  0.00    -0.237 OA
ATOM     91  O   UNL A   1      42.495  19.165  27.438  1.00  0.00    -0.744 OA
ENDBRANCH  87  88
ENDBRANCH  55  80
BRANCH  67  92
ATOM     92  C   UNL A   1      45.163  29.773  28.921  1.00  0.00     0.058 A 
ATOM     93  C   UNL A   1      44.116  30.312  28.153  1.00  0.00     0.135 A 
ATOM     94  C   UNL A   1      46.440  30.330  28.751  1.00  0.00     0.135 A 
ATOM     95  F   UNL A   1      42.853  29.898  28.322  1.00  0.00    -0.206 F 
ATOM     96  C   UNL A   1      44.333  31.355  27.251  1.00  0.00     0.059 A 
ATOM     97  C   UNL A   1      46.673  31.390  27.879  1.00  0.00     0.059 A 
ATOM     98  F   UNL A   1      47.470  29.896  29.497  1.00  0.00    -0.206 F 
ATOM     99  C   UNL A   1      45.614  31.898  27.132  1.00  0.00     0.060 A 
BRANCH  99 100
ATOM    100  S   UNL A   1      45.862  33.337  26.069  1.00  0.00     0.124 S 
ATOM    101  O   UNL A   1      47.302  33.301  25.834  1.00  0.00    -0.237 OA
ATOM    102  O   UNL A   1      45.022  33.024  24.916  1.00  0.00    -0.237 OA
ATOM    103  O   UNL A   1      45.391  34.453  26.886  1.00  0.00    -0.744 OA
ENDBRANCH  99 100
ENDBRANCH  67  92
ENDBRANCH  41  42
ENDBRANCH  33  36
ENDBRANCH  31  32
ENDBRANCH   1  31
TORSDOF 15
ENDMDL
