MODEL 1
REMARK VINA RESULT:     -10.5      0.000      0.000
REMARK SMILES CC[C@@H](C)SCc1cc(F)cc(/C=C/C(=O)NCCCNC(=O)c2ccc(-c3c4nc(c(-c5c(F)cc(S(=O)(=O)[O-])cc5F)c5ccc([nH]5)c(-c5c(F)cc(S(=O)(=O)[O-])cc5F)c5nc(c(-c6c(F)cc(S(=O)(=O)[O-])cc6F)c6ccc3[nH]6)C=C5)C=C4)cc2)c1
REMARK SMILES IDX 18 1 17 2 15 3 16 4 14 6 13 7 12 8 7 9 8 10 90 11 9 12 10 13
REMARK SMILES IDX 11 14 6 15 5 16 3 17 4 18 2 19 1 20 19 21 20 22 21 23 22 24
REMARK SMILES IDX 23 26 24 27 25 28 89 29 26 30 88 31 27 32 28 33 29 34 82 35
REMARK SMILES IDX 30 36 87 37 81 38 83 39 31 40 86 41 80 42 79 43 32 45 66 46
REMARK SMILES IDX 45 47 65 48 46 49 49 50 64 51 84 52 47 53 48 54 63 56 85 57
REMARK SMILES IDX 50 58 33 59 34 60 43 61 35 62 36 63 42 64 44 65 37 66 38 67
REMARK SMILES IDX 39 68 40 69 41 70 67 71 68 72 77 73 69 74 70 75 76 76 78 77
REMARK SMILES IDX 71 78 72 79 73 80 74 81 75 82 51 83 52 84 61 85 53 86 54 87
REMARK SMILES IDX 60 88 62 89 55 90 56 91 57 92 58 93 59 94
REMARK H PARENT 17 5 21 25 83 44 49 55
REMARK Flexibility Score: inf
ROOT
ATOM      1  C   UNL A   1      35.091  34.397  32.253  1.00  0.00     0.118 C 
ENDROOT
BRANCH   1   2
ATOM      2  N   UNL A   1      34.452  35.166  31.199  1.00  0.00    -0.352 N 
ATOM      3  C   UNL A   1      33.999  34.794  29.974  1.00  0.00     0.244 C 
ATOM      4  O   UNL A   1      33.377  35.602  29.288  1.00  0.00    -0.270 OA
ATOM      5  H   UNL A   1      34.327  36.120  31.408  1.00  0.00     0.163 HD
BRANCH   3   6
ATOM      6  C   UNL A   1      34.148  33.405  29.487  1.00  0.00     0.072 C 
ATOM      7  C   UNL A   1      33.954  33.001  28.224  1.00  0.00     0.014 C 
BRANCH   7   8
ATOM      8  C   UNL A   1      34.098  31.601  27.801  1.00  0.00    -0.022 A 
ATOM      9  C   UNL A   1      33.089  29.612  26.787  1.00  0.00    -0.035 A 
ATOM     10  C   UNL A   1      34.285  28.916  27.013  1.00  0.00     0.043 A 
ATOM     11  C   UNL A   1      32.997  30.948  27.222  1.00  0.00     0.013 A 
ATOM     12  C   UNL A   1      35.369  29.563  27.591  1.00  0.00     0.124 A 
ATOM     13  F   UNL A   1      36.519  28.896  27.763  1.00  0.00    -0.207 F 
ATOM     14  C   UNL A   1      35.290  30.895  27.983  1.00  0.00     0.047 A 
BRANCH   9  15
ATOM     15  C   UNL A   1      31.915  28.954  26.106  1.00  0.00     0.105 C 
BRANCH  15  16
ATOM     16  S   UNL A   1      31.912  29.093  24.283  1.00  0.00    -0.154 SA
BRANCH  16  17
ATOM     17  C   UNL A   1      30.184  28.650  23.811  1.00  0.00     0.043 C 
ATOM     18  C   UNL A   1      30.063  27.237  23.247  1.00  0.00     0.019 C 
BRANCH  17  19
ATOM     19  C   UNL A   1      29.532  29.723  22.927  1.00  0.00     0.011 C 
ATOM     20  C   UNL A   1      29.157  30.980  23.704  1.00  0.00     0.005 C 
ENDBRANCH  17  19
ENDBRANCH  16  17
ENDBRANCH  15  16
ENDBRANCH   9  15
ENDBRANCH   7   8
ENDBRANCH   3   6
ENDBRANCH   1   2
BRANCH   1  21
ATOM     21  C   UNL A   1      36.607  34.570  32.234  1.00  0.00     0.042 C 
BRANCH  21  22
ATOM     22  C   UNL A   1      37.357  33.349  31.704  1.00  0.00     0.118 C 
BRANCH  22  23
ATOM     23  N   UNL A   1      36.570  32.129  31.820  1.00  0.00    -0.352 N 
ATOM     24  C   UNL A   1      36.822  30.865  31.348  1.00  0.00     0.251 C 
ATOM     25  H   UNL A   1      35.725  32.226  32.314  1.00  0.00     0.163 HD
ATOM     26  O   UNL A   1      35.920  30.032  31.354  1.00  0.00    -0.269 OA
BRANCH  24  27
ATOM     27  C   UNL A   1      38.160  30.504  30.826  1.00  0.00     0.039 A 
ATOM     28  C   UNL A   1      39.089  29.928  31.698  1.00  0.00     0.014 A 
ATOM     29  C   UNL A   1      38.519  30.774  29.502  1.00  0.00     0.014 A 
ATOM     30  C   UNL A   1      40.354  29.569  31.226  1.00  0.00     0.010 A 
ATOM     31  C   UNL A   1      39.755  30.353  29.017  1.00  0.00     0.010 A 
ATOM     32  C   UNL A   1      40.687  29.747  29.874  1.00  0.00    -0.014 A 
BRANCH  32  33
ATOM     33  C   UNL A   1      41.995  29.298  29.334  1.00  0.00     0.031 A 
ATOM     34  C   UNL A   1      43.148  30.260  29.236  1.00  0.00     0.074 A 
ATOM     35  C   UNL A   1      42.124  28.038  28.874  1.00  0.00     0.049 A 
ATOM     36  N   UNL A   1      44.335  30.073  28.719  1.00  0.00    -0.248 NA
ATOM     37  C   UNL A   1      42.930  31.616  29.764  1.00  0.00     0.031 C 
ATOM     38  C   UNL A   1      41.067  27.025  28.882  1.00  0.00     0.029 A 
ATOM     39  N   UNL A   1      43.194  27.395  28.302  1.00  0.00    -0.354 N 
ATOM     40  C   UNL A   1      45.001  31.286  28.850  1.00  0.00     0.074 A 
ATOM     41  C   UNL A   1      44.069  32.217  29.449  1.00  0.00     0.031 C 
ATOM     42  C   UNL A   1      41.548  25.882  28.366  1.00  0.00     0.029 A 
ATOM     43  C   UNL A   1      42.931  26.092  27.951  1.00  0.00     0.049 A 
ATOM     44  H   UNL A   1      44.067  27.826  28.158  1.00  0.00     0.167 HD
ATOM     45  C   UNL A   1      46.279  31.589  28.521  1.00  0.00     0.037 A 
ATOM     46  C   UNL A   1      43.712  25.170  27.353  1.00  0.00     0.037 A 
ATOM     47  C   UNL A   1      47.208  30.649  27.948  1.00  0.00     0.049 A 
ATOM     48  C   UNL A   1      45.124  25.531  26.985  1.00  0.00     0.074 A 
ATOM     49  C   UNL A   1      48.541  30.844  27.630  1.00  0.00     0.029 A 
ATOM     50  N   UNL A   1      46.903  29.339  27.608  1.00  0.00    -0.354 N 
ATOM     51  N   UNL A   1      45.750  26.670  27.157  1.00  0.00    -0.248 NA
ATOM     52  C   UNL A   1      45.933  24.488  26.341  1.00  0.00     0.031 C 
ATOM     53  C   UNL A   1      49.030  29.666  27.057  1.00  0.00     0.029 A 
ATOM     54  C   UNL A   1      48.016  28.721  27.062  1.00  0.00     0.049 A 
ATOM     55  H   UNL A   1      46.026  28.911  27.735  1.00  0.00     0.167 HD
ATOM     56  C   UNL A   1      47.034  26.477  26.659  1.00  0.00     0.074 A 
ATOM     57  C   UNL A   1      47.097  25.107  26.190  1.00  0.00     0.031 C 
ATOM     58  C   UNL A   1      48.064  27.356  26.597  1.00  0.00     0.037 A 
BRANCH  45  59
ATOM     59  C   UNL A   1      46.758  32.992  28.782  1.00  0.00     0.058 A 
ATOM     60  C   UNL A   1      46.669  33.976  27.784  1.00  0.00     0.135 A 
ATOM     61  C   UNL A   1      47.353  33.351  30.003  1.00  0.00     0.135 A 
ATOM     62  F   UNL A   1      46.106  33.691  26.600  1.00  0.00    -0.206 F 
ATOM     63  C   UNL A   1      47.159  35.262  27.986  1.00  0.00     0.059 A 
ATOM     64  C   UNL A   1      47.826  34.638  30.235  1.00  0.00     0.059 A 
ATOM     65  F   UNL A   1      47.445  32.453  30.998  1.00  0.00    -0.206 F 
ATOM     66  C   UNL A   1      47.735  35.585  29.215  1.00  0.00     0.060 A 
BRANCH  66  67
ATOM     67  S   UNL A   1      48.326  37.271  29.477  1.00  0.00     0.124 S 
ATOM     68  O   UNL A   1      49.434  37.062  30.400  1.00  0.00    -0.237 OA
ATOM     69  O   UNL A   1      48.691  37.681  28.124  1.00  0.00    -0.237 OA
ATOM     70  O   UNL A   1      47.161  37.954  30.034  1.00  0.00    -0.744 OA
ENDBRANCH  66  67
ENDBRANCH  45  59
BRANCH  46  71
ATOM     71  C   UNL A   1      43.170  23.808  27.103  1.00  0.00     0.058 A 
ATOM     72  C   UNL A   1      43.181  22.822  28.101  1.00  0.00     0.135 A 
ATOM     73  C   UNL A   1      42.692  23.450  25.833  1.00  0.00     0.135 A 
ATOM     74  F   UNL A   1      43.638  23.112  29.329  1.00  0.00    -0.206 F 
ATOM     75  C   UNL A   1      42.772  21.519  27.841  1.00  0.00     0.059 A 
ATOM     76  C   UNL A   1      42.255  22.157  25.555  1.00  0.00     0.059 A 
ATOM     77  F   UNL A   1      42.652  24.362  24.851  1.00  0.00    -0.206 F 
ATOM     78  C   UNL A   1      42.321  21.194  26.561  1.00  0.00     0.060 A 
BRANCH  78  79
ATOM     79  S   UNL A   1      41.842  19.484  26.231  1.00  0.00     0.124 S 
ATOM     80  O   UNL A   1      42.819  19.100  25.218  1.00  0.00    -0.237 OA
ATOM     81  O   UNL A   1      42.006  18.862  27.541  1.00  0.00    -0.237 OA
ATOM     82  O   UNL A   1      40.465  19.603  25.762  1.00  0.00    -0.744 OA
ENDBRANCH  78  79
ENDBRANCH  46  71
BRANCH  58  83
ATOM     83  C   UNL A   1      49.360  26.873  26.009  1.00  0.00     0.058 A 
ATOM     84  C   UNL A   1      50.306  26.216  26.814  1.00  0.00     0.135 A 
ATOM     85  C   UNL A   1      49.705  27.140  24.675  1.00  0.00     0.135 A 
ATOM     86  F   UNL A   1      50.028  25.940  28.096  1.00  0.00    -0.206 F 
ATOM     87  C   UNL A   1      51.559  25.865  26.323  1.00  0.00     0.059 A 
ATOM     88  C   UNL A   1      50.943  26.774  24.155  1.00  0.00     0.059 A 
ATOM     89  F   UNL A   1      48.830  27.753  23.862  1.00  0.00    -0.206 F 
ATOM     90  C   UNL A   1      51.870  26.155  24.993  1.00  0.00     0.060 A 
BRANCH  90  91
ATOM     91  S   UNL A   1      53.504  25.698  24.373  1.00  0.00     0.124 S 
ATOM     92  O   UNL A   1      53.606  24.306  24.799  1.00  0.00    -0.237 OA
ATOM     93  O   UNL A   1      53.359  25.914  22.937  1.00  0.00    -0.237 OA
ATOM     94  O   UNL A   1      54.398  26.630  25.053  1.00  0.00    -0.744 OA
ENDBRANCH  90  91
ENDBRANCH  58  83
ENDBRANCH  32  33
ENDBRANCH  24  27
ENDBRANCH  22  23
ENDBRANCH  21  22
ENDBRANCH   1  21
TORSDOF 18
ENDMDL
MODEL 2
REMARK VINA RESULT:     -10.5      3.504      5.609
REMARK SMILES CC[C@@H](C)SCc1cc(F)cc(/C=C/C(=O)NCCCNC(=O)c2ccc(-c3c4nc(c(-c5c(F)cc(S(=O)(=O)[O-])cc5F)c5ccc([nH]5)c(-c5c(F)cc(S(=O)(=O)[O-])cc5F)c5nc(c(-c6c(F)cc(S(=O)(=O)[O-])cc6F)c6ccc3[nH]6)C=C5)C=C4)cc2)c1
REMARK SMILES IDX 18 1 17 2 15 3 16 4 14 6 13 7 12 8 7 9 8 10 90 11 9 12 10 13
REMARK SMILES IDX 11 14 6 15 5 16 3 17 4 18 2 19 1 20 19 21 20 22 21 23 22 24
REMARK SMILES IDX 23 26 24 27 25 28 89 29 26 30 88 31 27 32 28 33 29 34 82 35
REMARK SMILES IDX 30 36 87 37 81 38 83 39 31 40 86 41 80 42 79 43 32 45 66 46
REMARK SMILES IDX 45 47 65 48 46 49 49 50 64 51 84 52 47 53 48 54 63 56 85 57
REMARK SMILES IDX 50 58 33 59 34 60 43 61 35 62 36 63 42 64 44 65 37 66 38 67
REMARK SMILES IDX 39 68 40 69 41 70 67 71 68 72 77 73 69 74 70 75 76 76 78 77
REMARK SMILES IDX 71 78 72 79 73 80 74 81 75 82 51 83 52 84 61 85 53 86 54 87
REMARK SMILES IDX 60 88 62 89 55 90 56 91 57 92 58 93 59 94
REMARK H PARENT 17 5 21 25 83 44 49 55
REMARK Flexibility Score: inf
ROOT
ATOM      1  C   UNL A   1      33.903  35.037  28.766  1.00  0.00     0.118 C 
ENDROOT
BRANCH   1   2
ATOM      2  N   UNL A   1      33.211  35.131  30.039  1.00  0.00    -0.352 N 
ATOM      3  C   UNL A   1      33.616  34.823  31.298  1.00  0.00     0.244 C 
ATOM      4  O   UNL A   1      32.892  35.100  32.252  1.00  0.00    -0.270 OA
ATOM      5  H   UNL A   1      32.292  35.478  29.980  1.00  0.00     0.163 HD
BRANCH   3   6
ATOM      6  C   UNL A   1      34.955  34.251  31.557  1.00  0.00     0.072 C 
ATOM      7  C   UNL A   1      35.718  34.518  32.627  1.00  0.00     0.014 C 
BRANCH   7   8
ATOM      8  C   UNL A   1      37.053  33.934  32.823  1.00  0.00    -0.022 A 
ATOM      9  C   UNL A   1      38.421  32.092  33.681  1.00  0.00    -0.035 A 
ATOM     10  C   UNL A   1      39.570  32.783  33.273  1.00  0.00     0.043 A 
ATOM     11  C   UNL A   1      37.166  32.699  33.483  1.00  0.00     0.013 A 
ATOM     12  C   UNL A   1      39.455  34.006  32.626  1.00  0.00     0.124 A 
ATOM     13  F   UNL A   1      40.560  34.635  32.204  1.00  0.00    -0.207 F 
ATOM     14  C   UNL A   1      38.212  34.585  32.394  1.00  0.00     0.047 A 
BRANCH   9  15
ATOM     15  C   UNL A   1      38.511  30.734  34.331  1.00  0.00     0.105 C 
BRANCH  15  16
ATOM     16  S   UNL A   1      39.796  30.587  35.624  1.00  0.00    -0.154 SA
BRANCH  16  17
ATOM     17  C   UNL A   1      41.034  29.438  34.885  1.00  0.00     0.043 C 
ATOM     18  C   UNL A   1      42.437  29.623  35.458  1.00  0.00     0.019 C 
BRANCH  17  19
ATOM     19  C   UNL A   1      40.992  29.449  33.349  1.00  0.00     0.011 C 
ATOM     20  C   UNL A   1      40.333  28.202  32.768  1.00  0.00     0.005 C 
ENDBRANCH  17  19
ENDBRANCH  16  17
ENDBRANCH  15  16
ENDBRANCH   9  15
ENDBRANCH   7   8
ENDBRANCH   3   6
ENDBRANCH   1   2
BRANCH   1  21
ATOM     21  C   UNL A   1      33.545  33.751  28.025  1.00  0.00     0.042 C 
BRANCH  21  22
ATOM     22  C   UNL A   1      34.467  32.577  28.353  1.00  0.00     0.118 C 
BRANCH  22  23
ATOM     23  N   UNL A   1      33.807  31.292  28.166  1.00  0.00    -0.352 N 
ATOM     24  C   UNL A   1      34.342  30.038  28.000  1.00  0.00     0.251 C 
ATOM     25  H   UNL A   1      32.824  31.328  28.155  1.00  0.00     0.163 HD
ATOM     26  O   UNL A   1      33.616  29.122  27.626  1.00  0.00    -0.269 OA
BRANCH  24  27
ATOM     27  C   UNL A   1      35.778  29.788  28.260  1.00  0.00     0.039 A 
ATOM     28  C   UNL A   1      36.174  29.421  29.549  1.00  0.00     0.014 A 
ATOM     29  C   UNL A   1      36.737  29.959  27.258  1.00  0.00     0.014 A 
ATOM     30  C   UNL A   1      37.523  29.168  29.816  1.00  0.00     0.010 A 
ATOM     31  C   UNL A   1      38.070  29.641  27.508  1.00  0.00     0.010 A 
ATOM     32  C   UNL A   1      38.478  29.243  28.790  1.00  0.00    -0.014 A 
BRANCH  32  33
ATOM     33  C   UNL A   1      39.902  28.900  29.033  1.00  0.00     0.031 A 
ATOM     34  C   UNL A   1      40.846  29.926  29.597  1.00  0.00     0.074 A 
ATOM     35  C   UNL A   1      40.357  27.680  28.684  1.00  0.00     0.049 A 
ATOM     36  N   UNL A   1      42.135  29.836  29.800  1.00  0.00    -0.248 NA
ATOM     37  C   UNL A   1      40.272  31.232  29.957  1.00  0.00     0.031 C 
ATOM     38  C   UNL A   1      39.546  26.614  28.095  1.00  0.00     0.029 A 
ATOM     39  N   UNL A   1      41.614  27.133  28.767  1.00  0.00    -0.354 N 
ATOM     40  C   UNL A   1      42.527  31.072  30.300  1.00  0.00     0.074 A 
ATOM     41  C   UNL A   1      41.350  31.912  30.322  1.00  0.00     0.031 C 
ATOM     42  C   UNL A   1      40.317  25.533  27.893  1.00  0.00     0.029 A 
ATOM     43  C   UNL A   1      41.685  25.842  28.297  1.00  0.00     0.049 A 
ATOM     44  H   UNL A   1      42.390  27.618  29.128  1.00  0.00     0.167 HD
ATOM     45  C   UNL A   1      43.754  31.463  30.722  1.00  0.00     0.037 A 
ATOM     46  C   UNL A   1      42.735  25.003  28.194  1.00  0.00     0.037 A 
ATOM     47  C   UNL A   1      44.916  30.612  30.719  1.00  0.00     0.049 A 
ATOM     48  C   UNL A   1      44.090  25.462  28.656  1.00  0.00     0.074 A 
ATOM     49  C   UNL A   1      46.190  30.898  31.177  1.00  0.00     0.029 A 
ATOM     50  N   UNL A   1      44.946  29.312  30.236  1.00  0.00    -0.354 N 
ATOM     51  N   UNL A   1      44.433  26.620  29.168  1.00  0.00    -0.248 NA
ATOM     52  C   UNL A   1      45.198  24.507  28.527  1.00  0.00     0.031 C 
ATOM     53  C   UNL A   1      47.002  29.787  30.931  1.00  0.00     0.029 A 
ATOM     54  C   UNL A   1      46.224  28.790  30.364  1.00  0.00     0.049 A 
ATOM     55  H   UNL A   1      44.176  28.831  29.858  1.00  0.00     0.167 HD
ATOM     56  C   UNL A   1      45.794  26.528  29.439  1.00  0.00     0.074 A 
ATOM     57  C   UNL A   1      46.207  25.196  29.045  1.00  0.00     0.031 C 
ATOM     58  C   UNL A   1      46.622  27.462  29.965  1.00  0.00     0.037 A 
BRANCH  45  59
ATOM     59  C   UNL A   1      43.903  32.870  31.235  1.00  0.00     0.058 A 
ATOM     60  C   UNL A   1      44.393  33.888  30.400  1.00  0.00     0.135 A 
ATOM     61  C   UNL A   1      43.612  33.202  32.568  1.00  0.00     0.135 A 
ATOM     62  F   UNL A   1      44.684  33.629  29.116  1.00  0.00    -0.206 F 
ATOM     63  C   UNL A   1      44.595  35.181  30.872  1.00  0.00     0.059 A 
ATOM     64  C   UNL A   1      43.781  34.495  33.054  1.00  0.00     0.059 A 
ATOM     65  F   UNL A   1      43.123  32.271  33.404  1.00  0.00    -0.206 F 
ATOM     66  C   UNL A   1      44.285  35.476  32.200  1.00  0.00     0.060 A 
BRANCH  66  67
ATOM     67  S   UNL A   1      44.510  37.169  32.785  1.00  0.00     0.124 S 
ATOM     68  O   UNL A   1      44.281  37.027  34.218  1.00  0.00    -0.237 OA
ATOM     69  O   UNL A   1      45.884  37.452  32.383  1.00  0.00    -0.237 OA
ATOM     70  O   UNL A   1      43.489  37.916  32.055  1.00  0.00    -0.744 OA
ENDBRANCH  66  67
ENDBRANCH  45  59
BRANCH  46  71
ATOM     71  C   UNL A   1      42.523  23.633  27.657  1.00  0.00     0.058 A 
ATOM     72  C   UNL A   1      42.388  22.527  28.510  1.00  0.00     0.135 A 
ATOM     73  C   UNL A   1      42.519  23.398  26.274  1.00  0.00     0.135 A 
ATOM     74  F   UNL A   1      42.396  22.697  29.840  1.00  0.00    -0.206 F 
ATOM     75  C   UNL A   1      42.294  21.232  28.012  1.00  0.00     0.059 A 
ATOM     76  C   UNL A   1      42.402  22.113  25.751  1.00  0.00     0.059 A 
ATOM     77  F   UNL A   1      42.633  24.427  25.421  1.00  0.00    -0.206 F 
ATOM     78  C   UNL A   1      42.313  21.035  26.630  1.00  0.00     0.060 A 
BRANCH  78  79
ATOM     79  S   UNL A   1      42.240  19.342  26.006  1.00  0.00     0.124 S 
ATOM     80  O   UNL A   1      42.663  18.582  27.177  1.00  0.00    -0.237 OA
ATOM     81  O   UNL A   1      40.834  19.212  25.637  1.00  0.00    -0.237 OA
ATOM     82  O   UNL A   1      43.181  19.352  24.890  1.00  0.00    -0.744 OA
ENDBRANCH  78  79
ENDBRANCH  46  71
BRANCH  58  83
ATOM     83  C   UNL A   1      48.065  27.087  30.160  1.00  0.00     0.058 A 
ATOM     84  C   UNL A   1      48.482  26.454  31.343  1.00  0.00     0.135 A 
ATOM     85  C   UNL A   1      49.046  27.436  29.220  1.00  0.00     0.135 A 
ATOM     86  F   UNL A   1      47.585  26.103  32.275  1.00  0.00    -0.206 F 
ATOM     87  C   UNL A   1      49.826  26.204  31.597  1.00  0.00     0.059 A 
ATOM     88  C   UNL A   1      50.394  27.172  29.442  1.00  0.00     0.059 A 
ATOM     89  F   UNL A   1      48.695  28.030  28.069  1.00  0.00    -0.206 F 
ATOM     90  C   UNL A   1      50.775  26.573  30.642  1.00  0.00     0.060 A 
BRANCH  90  91
ATOM     91  S   UNL A   1      52.517  26.246  30.991  1.00  0.00     0.124 S 
ATOM     92  O   UNL A   1      53.079  26.158  29.648  1.00  0.00    -0.237 OA
ATOM     93  O   UNL A   1      52.902  27.423  31.765  1.00  0.00    -0.237 OA
ATOM     94  O   UNL A   1      52.483  24.995  31.742  1.00  0.00    -0.744 OA
ENDBRANCH  90  91
ENDBRANCH  58  83
ENDBRANCH  32  33
ENDBRANCH  24  27
ENDBRANCH  22  23
ENDBRANCH  21  22
ENDBRANCH   1  21
TORSDOF 18
ENDMDL
MODEL 3
REMARK VINA RESULT:     -10.5      3.350      4.580
REMARK SMILES CC[C@@H](C)SCc1cc(F)cc(/C=C/C(=O)NCCCNC(=O)c2ccc(-c3c4nc(c(-c5c(F)cc(S(=O)(=O)[O-])cc5F)c5ccc([nH]5)c(-c5c(F)cc(S(=O)(=O)[O-])cc5F)c5nc(c(-c6c(F)cc(S(=O)(=O)[O-])cc6F)c6ccc3[nH]6)C=C5)C=C4)cc2)c1
REMARK SMILES IDX 18 1 17 2 15 3 16 4 14 6 13 7 12 8 7 9 8 10 90 11 9 12 10 13
REMARK SMILES IDX 11 14 6 15 5 16 3 17 4 18 2 19 1 20 19 21 20 22 21 23 22 24
REMARK SMILES IDX 23 26 24 27 25 28 89 29 26 30 88 31 27 32 28 33 29 34 82 35
REMARK SMILES IDX 30 36 87 37 81 38 83 39 31 40 86 41 80 42 79 43 32 45 66 46
REMARK SMILES IDX 45 47 65 48 46 49 49 50 64 51 84 52 47 53 48 54 63 56 85 57
REMARK SMILES IDX 50 58 33 59 34 60 43 61 35 62 36 63 42 64 44 65 37 66 38 67
REMARK SMILES IDX 39 68 40 69 41 70 67 71 68 72 77 73 69 74 70 75 76 76 78 77
REMARK SMILES IDX 71 78 72 79 73 80 74 81 75 82 51 83 52 84 61 85 53 86 54 87
REMARK SMILES IDX 60 88 62 89 55 90 56 91 57 92 58 93 59 94
REMARK H PARENT 17 5 21 25 83 44 49 55
REMARK Flexibility Score: inf
ROOT
ATOM      1  C   UNL A   1      32.816  28.462  27.252  1.00  0.00     0.118 C 
ENDROOT
BRANCH   1   2
ATOM      2  N   UNL A   1      31.836  28.307  26.192  1.00  0.00    -0.352 N 
ATOM      3  C   UNL A   1      31.549  27.248  25.392  1.00  0.00     0.244 C 
ATOM      4  O   UNL A   1      30.584  27.306  24.632  1.00  0.00    -0.270 OA
ATOM      5  H   UNL A   1      31.286  29.106  26.023  1.00  0.00     0.163 HD
BRANCH   3   6
ATOM      6  C   UNL A   1      32.311  25.983  25.486  1.00  0.00     0.072 C 
ATOM      7  C   UNL A   1      33.474  25.731  24.868  1.00  0.00     0.014 C 
BRANCH   7   8
ATOM      8  C   UNL A   1      34.177  24.446  24.982  1.00  0.00    -0.022 A 
ATOM      9  C   UNL A   1      34.141  22.013  24.701  1.00  0.00    -0.035 A 
ATOM     10  C   UNL A   1      35.442  21.954  25.220  1.00  0.00     0.043 A 
ATOM     11  C   UNL A   1      33.505  23.266  24.624  1.00  0.00     0.013 A 
ATOM     12  C   UNL A   1      36.102  23.122  25.579  1.00  0.00     0.124 A 
ATOM     13  F   UNL A   1      37.360  23.053  26.034  1.00  0.00    -0.207 F 
ATOM     14  C   UNL A   1      35.487  24.363  25.463  1.00  0.00     0.047 A 
BRANCH   9  15
ATOM     15  C   UNL A   1      33.421  20.768  24.245  1.00  0.00     0.105 C 
BRANCH  15  16
ATOM     16  S   UNL A   1      32.856  19.672  25.595  1.00  0.00    -0.154 SA
BRANCH  16  17
ATOM     17  C   UNL A   1      32.590  18.049  24.762  1.00  0.00     0.043 C 
ATOM     18  C   UNL A   1      32.928  16.858  25.655  1.00  0.00     0.019 C 
BRANCH  17  19
ATOM     19  C   UNL A   1      33.258  17.990  23.380  1.00  0.00     0.011 C 
ATOM     20  C   UNL A   1      34.100  16.734  23.185  1.00  0.00     0.005 C 
ENDBRANCH  17  19
ENDBRANCH  16  17
ENDBRANCH  15  16
ENDBRANCH   9  15
ENDBRANCH   7   8
ENDBRANCH   3   6
ENDBRANCH   1   2
BRANCH   1  21
ATOM     21  C   UNL A   1      33.928  29.430  26.853  1.00  0.00     0.042 C 
BRANCH  21  22
ATOM     22  C   UNL A   1      35.212  29.256  27.663  1.00  0.00     0.118 C 
BRANCH  22  23
ATOM     23  N   UNL A   1      35.189  30.026  28.899  1.00  0.00    -0.352 N 
ATOM     24  C   UNL A   1      36.188  30.273  29.807  1.00  0.00     0.251 C 
ATOM     25  H   UNL A   1      34.320  30.434  29.118  1.00  0.00     0.163 HD
ATOM     26  O   UNL A   1      35.901  30.753  30.899  1.00  0.00    -0.269 OA
BRANCH  24  27
ATOM     27  C   UNL A   1      37.599  29.958  29.484  1.00  0.00     0.039 A 
ATOM     28  C   UNL A   1      38.469  29.625  30.526  1.00  0.00     0.014 A 
ATOM     29  C   UNL A   1      38.077  30.037  28.173  1.00  0.00     0.014 A 
ATOM     30  C   UNL A   1      39.802  29.312  30.244  1.00  0.00     0.010 A 
ATOM     31  C   UNL A   1      39.387  29.659  27.886  1.00  0.00     0.010 A 
ATOM     32  C   UNL A   1      40.264  29.295  28.918  1.00  0.00    -0.014 A 
BRANCH  32  33
ATOM     33  C   UNL A   1      41.654  28.887  28.590  1.00  0.00     0.031 A 
ATOM     34  C   UNL A   1      42.765  29.901  28.594  1.00  0.00     0.074 A 
ATOM     35  C   UNL A   1      41.902  27.613  28.227  1.00  0.00     0.049 A 
ATOM     36  N   UNL A   1      44.020  29.750  28.256  1.00  0.00    -0.248 NA
ATOM     37  C   UNL A   1      42.415  31.270  29.007  1.00  0.00     0.031 C 
ATOM     38  C   UNL A   1      40.900  26.549  28.149  1.00  0.00     0.029 A 
ATOM     39  N   UNL A   1      43.069  26.998  27.845  1.00  0.00    -0.354 N 
ATOM     40  C   UNL A   1      44.606  31.002  28.406  1.00  0.00     0.074 A 
ATOM     41  C   UNL A   1      43.559  31.912  28.816  1.00  0.00     0.031 C 
ATOM     42  C   UNL A   1      41.499  25.407  27.772  1.00  0.00     0.029 A 
ATOM     43  C   UNL A   1      42.916  25.667  27.538  1.00  0.00     0.049 A 
ATOM     44  H   UNL A   1      43.933  27.467  27.796  1.00  0.00     0.167 HD
ATOM     45  C   UNL A   1      45.903  31.354  28.237  1.00  0.00     0.037 A 
ATOM     46  C   UNL A   1      43.813  24.757  27.108  1.00  0.00     0.037 A 
ATOM     47  C   UNL A   1      46.944  30.435  27.853  1.00  0.00     0.049 A 
ATOM     48  C   UNL A   1      45.244  25.173  26.915  1.00  0.00     0.074 A 
ATOM     49  C   UNL A   1      48.298  30.683  27.709  1.00  0.00     0.029 A 
ATOM     50  N   UNL A   1      46.748  29.095  27.551  1.00  0.00    -0.354 N 
ATOM     51  N   UNL A   1      45.789  26.350  27.104  1.00  0.00    -0.248 NA
ATOM     52  C   UNL A   1      46.181  24.141  26.451  1.00  0.00     0.031 C 
ATOM     53  C   UNL A   1      48.914  29.504  27.278  1.00  0.00     0.029 A 
ATOM     54  C   UNL A   1      47.953  28.508  27.200  1.00  0.00     0.049 A 
ATOM     55  H   UNL A   1      45.881  28.629  27.582  1.00  0.00     0.167 HD
ATOM     56  C   UNL A   1      47.137  26.199  26.799  1.00  0.00     0.074 A 
ATOM     57  C   UNL A   1      47.326  24.812  26.424  1.00  0.00     0.031 C 
ATOM     58  C   UNL A   1      48.126  27.126  26.827  1.00  0.00     0.037 A 
BRANCH  45  59
ATOM     59  C   UNL A   1      46.277  32.791  28.479  1.00  0.00     0.058 A 
ATOM     60  C   UNL A   1      46.319  33.708  27.416  1.00  0.00     0.135 A 
ATOM     61  C   UNL A   1      46.646  33.251  29.754  1.00  0.00     0.135 A 
ATOM     62  F   UNL A   1      45.973  33.326  26.178  1.00  0.00    -0.206 F 
ATOM     63  C   UNL A   1      46.719  35.027  27.609  1.00  0.00     0.059 A 
ATOM     64  C   UNL A   1      47.024  34.572  29.974  1.00  0.00     0.059 A 
ATOM     65  F   UNL A   1      46.605  32.420  30.809  1.00  0.00    -0.206 F 
ATOM     66  C   UNL A   1      47.069  35.450  28.892  1.00  0.00     0.060 A 
BRANCH  66  67
ATOM     67  S   UNL A   1      47.543  37.175  29.133  1.00  0.00     0.124 S 
ATOM     68  O   UNL A   1      48.278  37.461  27.906  1.00  0.00    -0.237 OA
ATOM     69  O   UNL A   1      46.247  37.833  29.269  1.00  0.00    -0.237 OA
ATOM     70  O   UNL A   1      48.345  37.137  30.353  1.00  0.00    -0.744 OA
ENDBRANCH  66  67
ENDBRANCH  45  59
BRANCH  46  71
ATOM     71  C   UNL A   1      43.373  23.358  26.866  1.00  0.00     0.058 A 
ATOM     72  C   UNL A   1      43.123  22.476  27.928  1.00  0.00     0.135 A 
ATOM     73  C   UNL A   1      43.259  22.858  25.560  1.00  0.00     0.135 A 
ATOM     74  F   UNL A   1      43.227  22.902  29.196  1.00  0.00    -0.206 F 
ATOM     75  C   UNL A   1      42.812  21.139  27.707  1.00  0.00     0.059 A 
ATOM     76  C   UNL A   1      42.927  21.529  25.312  1.00  0.00     0.059 A 
ATOM     77  F   UNL A   1      43.477  23.668  24.513  1.00  0.00    -0.206 F 
ATOM     78  C   UNL A   1      42.727  20.673  26.394  1.00  0.00     0.060 A 
BRANCH  78  79
ATOM     79  S   UNL A   1      42.372  18.922  26.129  1.00  0.00     0.124 S 
ATOM     80  O   UNL A   1      40.955  18.962  25.788  1.00  0.00    -0.237 OA
ATOM     81  O   UNL A   1      43.280  18.589  25.036  1.00  0.00    -0.237 OA
ATOM     82  O   UNL A   1      42.692  18.313  27.416  1.00  0.00    -0.744 OA
ENDBRANCH  78  79
ENDBRANCH  46  71
BRANCH  58  83
ATOM     83  C   UNL A   1      49.512  26.681  26.451  1.00  0.00     0.058 A 
ATOM     84  C   UNL A   1      49.987  26.863  25.141  1.00  0.00     0.135 A 
ATOM     85  C   UNL A   1      50.332  25.993  27.357  1.00  0.00     0.135 A 
ATOM     86  F   UNL A   1      49.240  27.511  24.234  1.00  0.00    -0.206 F 
ATOM     87  C   UNL A   1      51.217  26.356  24.738  1.00  0.00     0.059 A 
ATOM     88  C   UNL A   1      51.578  25.500  26.983  1.00  0.00     0.059 A 
ATOM     89  F   UNL A   1      49.928  25.806  28.624  1.00  0.00    -0.206 F 
ATOM     90  C   UNL A   1      52.003  25.670  25.665  1.00  0.00     0.060 A 
BRANCH  90  91
ATOM     91  S   UNL A   1      53.595  25.013  25.123  1.00  0.00     0.124 S 
ATOM     92  O   UNL A   1      53.375  23.574  25.225  1.00  0.00    -0.237 OA
ATOM     93  O   UNL A   1      53.703  25.545  23.768  1.00  0.00    -0.237 OA
ATOM     94  O   UNL A   1      54.539  25.574  26.085  1.00  0.00    -0.744 OA
ENDBRANCH  90  91
ENDBRANCH  58  83
ENDBRANCH  32  33
ENDBRANCH  24  27
ENDBRANCH  22  23
ENDBRANCH  21  22
ENDBRANCH   1  21
TORSDOF 18
ENDMDL
