MODEL 1
REMARK VINA RESULT:     -12.1      0.000      0.000
REMARK SMILES CCCN1CCC[C@@]2(CCN(c3ccc(C(=O)NCCCNC(=O)c4ccc(-c5c6nc(c(-c7c(F)cc(S(=O)(=O)[O-])cc7F)c7ccc([nH]7)c(-c7c(F)cc(S(=O)(=O)[O-])cc7F)c7nc(c(-c8c(F)cc(S(=O)(=O)[O-])cc8F)c8ccc5[nH]8)C=C7)C=C6)cc4)cn3)C2)C1=O
REMARK SMILES IDX 20 1 19 2 18 3 16 4 17 5 15 7 12 8 13 9 92 10 14 11 91 12
REMARK SMILES IDX 11 13 4 14 5 15 94 16 6 17 8 18 95 19 7 20 9 21 93 22 10 23
REMARK SMILES IDX 3 24 2 25 1 26 21 27 22 28 23 29 24 31 25 32 26 33 90 34
REMARK SMILES IDX 27 35 89 36 28 37 29 38 30 39 83 40 31 41 88 42 82 43 84 44
REMARK SMILES IDX 32 45 87 46 81 47 80 48 33 50 67 51 46 52 66 53 47 54 50 55
REMARK SMILES IDX 65 56 85 57 48 58 49 59 64 61 86 62 51 63 34 64 35 65 44 66
REMARK SMILES IDX 36 67 37 68 43 69 45 70 38 71 39 72 40 73 41 74 42 75 68 76
REMARK SMILES IDX 69 77 78 78 70 79 71 80 77 81 79 82 72 83 73 84 74 85 75 86
REMARK SMILES IDX 76 87 52 88 53 89 62 90 54 91 55 92 61 93 63 94 56 95 57 96
REMARK SMILES IDX 58 97 59 98 60 99
REMARK H PARENT 18 6 22 30 84 49 50 60
REMARK Flexibility Score: inf
ROOT
ATOM      1  C   UNL A   1      38.283  19.970  24.919  1.00  0.00     0.042 C 
ENDROOT
BRANCH   1   2
ATOM      2  C   UNL A   1      36.931  20.648  25.153  1.00  0.00     0.118 C 
BRANCH   2   3
ATOM      3  N   UNL A   1      35.826  19.721  24.970  1.00  0.00    -0.352 N 
ATOM      4  C   UNL A   1      34.467  19.900  24.875  1.00  0.00     0.252 C 
ATOM      5  O   UNL A   1      33.786  18.907  24.620  1.00  0.00    -0.269 OA
ATOM      6  H   UNL A   1      36.106  18.780  24.902  1.00  0.00     0.163 HD
BRANCH   4   7
ATOM      7  C   UNL A   1      33.792  21.212  25.027  1.00  0.00     0.058 A 
ATOM      8  C   UNL A   1      32.444  23.592  25.562  1.00  0.00     0.128 A 
ATOM      9  C   UNL A   1      32.953  23.341  24.294  1.00  0.00     0.048 A 
ATOM     10  N   UNL A   1      32.629  22.714  26.566  1.00  0.00    -0.239 NA
ATOM     11  C   UNL A   1      33.663  22.173  24.037  1.00  0.00     0.019 A 
ATOM     12  C   UNL A   1      33.274  21.548  26.276  1.00  0.00     0.127 A 
BRANCH   8  13
ATOM     13  N   UNL A   1      31.777  24.764  25.779  1.00  0.00    -0.356 N 
ATOM     14  N   UNL A   1      32.191  28.673  24.216  1.00  0.00    -0.342 N 
ATOM     15  C   UNL A   1      32.650  29.630  25.212  1.00  0.00     0.119 C 
ATOM     16  C   UNL A   1      31.196  27.753  24.533  1.00  0.00     0.230 C 
ATOM     17  C   UNL A   1      32.918  28.979  26.557  1.00  0.00     0.023 C 
ATOM     18  C   UNL A   1      31.358  27.101  25.914  1.00  0.00     0.069 C 
ATOM     19  O   UNL A   1      30.358  27.384  23.714  1.00  0.00    -0.274 OA
ATOM     20  C   UNL A   1      31.708  28.148  26.981  1.00  0.00     0.021 C 
ATOM     21  C   UNL A   1      30.119  26.268  26.300  1.00  0.00     0.040 C 
ATOM     22  C   UNL A   1      32.477  26.036  25.791  1.00  0.00     0.135 C 
ATOM     23  C   UNL A   1      30.352  24.916  25.615  1.00  0.00     0.119 C 
BRANCH  14  24
ATOM     24  C   UNL A   1      32.616  28.804  22.827  1.00  0.00     0.119 C 
BRANCH  24  25
ATOM     25  C   UNL A   1      33.813  27.960  22.401  1.00  0.00     0.018 C 
ATOM     26  C   UNL A   1      33.457  26.525  22.051  1.00  0.00     0.006 C 
ENDBRANCH  24  25
ENDBRANCH  14  24
ENDBRANCH   8  13
ENDBRANCH   4   7
ENDBRANCH   2   3
ENDBRANCH   1   2
BRANCH   1  27
ATOM     27  C   UNL A   1      39.325  20.317  25.981  1.00  0.00     0.118 C 
BRANCH  27  28
ATOM     28  N   UNL A   1      40.351  19.289  26.086  1.00  0.00    -0.352 N 
ATOM     29  C   UNL A   1      41.716  19.404  26.178  1.00  0.00     0.251 C 
ATOM     30  H   UNL A   1      40.012  18.365  26.092  1.00  0.00     0.163 HD
ATOM     31  O   UNL A   1      42.414  18.411  25.994  1.00  0.00    -0.269 OA
BRANCH  29  32
ATOM     32  C   UNL A   1      42.347  20.705  26.491  1.00  0.00     0.039 A 
ATOM     33  C   UNL A   1      42.847  21.482  25.442  1.00  0.00     0.014 A 
ATOM     34  C   UNL A   1      42.493  21.136  27.812  1.00  0.00     0.014 A 
ATOM     35  C   UNL A   1      43.440  22.718  25.713  1.00  0.00     0.010 A 
ATOM     36  C   UNL A   1      43.024  22.397  28.076  1.00  0.00     0.010 A 
ATOM     37  C   UNL A   1      43.502  23.199  27.030  1.00  0.00    -0.014 A 
BRANCH  37  38
ATOM     38  C   UNL A   1      44.035  24.552  27.336  1.00  0.00     0.031 A 
ATOM     39  C   UNL A   1      43.110  25.653  27.773  1.00  0.00     0.074 A 
ATOM     40  C   UNL A   1      45.339  24.809  27.121  1.00  0.00     0.049 A 
ATOM     41  N   UNL A   1      43.370  26.917  27.977  1.00  0.00    -0.248 NA
ATOM     42  C   UNL A   1      41.699  25.288  27.976  1.00  0.00     0.031 C 
ATOM     43  C   UNL A   1      46.322  23.835  26.644  1.00  0.00     0.029 A 
ATOM     44  N   UNL A   1      46.056  25.972  27.246  1.00  0.00    -0.354 N 
ATOM     45  C   UNL A   1      42.156  27.506  28.311  1.00  0.00     0.074 A 
ATOM     46  C   UNL A   1      41.151  26.465  28.239  1.00  0.00     0.031 C 
ATOM     47  C   UNL A   1      47.512  24.440  26.514  1.00  0.00     0.029 A 
ATOM     48  C   UNL A   1      47.370  25.851  26.858  1.00  0.00     0.049 A 
ATOM     49  H   UNL A   1      45.668  26.812  27.581  1.00  0.00     0.167 HD
ATOM     50  C   UNL A   1      41.905  28.792  28.657  1.00  0.00     0.037 A 
ATOM     51  C   UNL A   1      48.345  26.775  26.765  1.00  0.00     0.037 A 
ATOM     52  C   UNL A   1      42.917  29.814  28.740  1.00  0.00     0.049 A 
ATOM     53  C   UNL A   1      48.050  28.196  27.152  1.00  0.00     0.074 A 
ATOM     54  C   UNL A   1      42.787  31.121  29.175  1.00  0.00     0.029 A 
ATOM     55  N   UNL A   1      44.243  29.649  28.362  1.00  0.00    -0.354 N 
ATOM     56  N   UNL A   1      46.917  28.717  27.560  1.00  0.00    -0.248 NA
ATOM     57  C   UNL A   1      49.160  29.154  27.068  1.00  0.00     0.031 C 
ATOM     58  C   UNL A   1      44.021  31.761  29.009  1.00  0.00     0.029 A 
ATOM     59  C   UNL A   1      44.932  30.840  28.514  1.00  0.00     0.049 A 
ATOM     60  H   UNL A   1      44.635  28.807  28.034  1.00  0.00     0.167 HD
ATOM     61  C   UNL A   1      47.175  30.064  27.782  1.00  0.00     0.074 A 
ATOM     62  C   UNL A   1      48.579  30.272  27.485  1.00  0.00     0.031 C 
ATOM     63  C   UNL A   1      46.326  31.039  28.192  1.00  0.00     0.037 A 
BRANCH  50  64
ATOM     64  C   UNL A   1      40.476  29.162  28.951  1.00  0.00     0.058 A 
ATOM     65  C   UNL A   1      39.548  29.412  27.926  1.00  0.00     0.135 A 
ATOM     66  C   UNL A   1      40.029  29.277  30.277  1.00  0.00     0.135 A 
ATOM     67  F   UNL A   1      39.922  29.326  26.639  1.00  0.00    -0.206 F 
ATOM     68  C   UNL A   1      38.247  29.816  28.204  1.00  0.00     0.059 A 
ATOM     69  C   UNL A   1      38.723  29.650  30.579  1.00  0.00     0.059 A 
ATOM     70  F   UNL A   1      40.870  29.043  31.297  1.00  0.00    -0.206 F 
ATOM     71  C   UNL A   1      37.846  29.943  29.535  1.00  0.00     0.060 A 
BRANCH  71  72
ATOM     72  S   UNL A   1      36.168  30.513  29.882  1.00  0.00     0.124 S 
ATOM     73  O   UNL A   1      35.896  29.854  31.155  1.00  0.00    -0.237 OA
ATOM     74  O   UNL A   1      36.335  31.962  29.941  1.00  0.00    -0.237 OA
ATOM     75  O   UNL A   1      35.400  30.020  28.743  1.00  0.00    -0.744 OA
ENDBRANCH  71  72
ENDBRANCH  50  64
BRANCH  51  76
ATOM     76  C   UNL A   1      49.687  26.361  26.280  1.00  0.00     0.058 A 
ATOM     77  C   UNL A   1      50.077  26.589  24.953  1.00  0.00     0.135 A 
ATOM     78  C   UNL A   1      50.636  25.813  27.157  1.00  0.00     0.135 A 
ATOM     79  F   UNL A   1      49.200  27.104  24.076  1.00  0.00    -0.206 F 
ATOM     80  C   UNL A   1      51.366  26.305  24.515  1.00  0.00     0.059 A 
ATOM     81  C   UNL A   1      51.938  25.540  26.748  1.00  0.00     0.059 A 
ATOM     82  F   UNL A   1      50.316  25.593  28.441  1.00  0.00    -0.206 F 
ATOM     83  C   UNL A   1      52.293  25.794  25.424  1.00  0.00     0.060 A 
BRANCH  83  84
ATOM     84  S   UNL A   1      53.996  25.542  24.875  1.00  0.00     0.124 S 
ATOM     85  O   UNL A   1      54.156  24.104  25.059  1.00  0.00    -0.237 OA
ATOM     86  O   UNL A   1      53.943  26.007  23.492  1.00  0.00    -0.237 OA
ATOM     87  O   UNL A   1      54.770  26.386  25.780  1.00  0.00    -0.744 OA
ENDBRANCH  83  84
ENDBRANCH  51  76
BRANCH  63  88
ATOM     88  C   UNL A   1      46.883  32.429  28.329  1.00  0.00     0.058 A 
ATOM     89  C   UNL A   1      46.751  33.373  27.299  1.00  0.00     0.135 A 
ATOM     90  C   UNL A   1      47.492  32.842  29.524  1.00  0.00     0.135 A 
ATOM     91  F   UNL A   1      46.187  33.025  26.132  1.00  0.00    -0.206 F 
ATOM     92  C   UNL A   1      47.212  34.676  27.446  1.00  0.00     0.059 A 
ATOM     93  C   UNL A   1      47.939  34.149  29.702  1.00  0.00     0.059 A 
ATOM     94  F   UNL A   1      47.638  31.980  30.544  1.00  0.00    -0.206 F 
ATOM     95  C   UNL A   1      47.799  35.057  28.654  1.00  0.00     0.060 A 
BRANCH  95  96
ATOM     96  S   UNL A   1      48.344  36.768  28.849  1.00  0.00     0.124 S 
ATOM     97  O   UNL A   1      48.195  36.962  30.288  1.00  0.00    -0.237 OA
ATOM     98  O   UNL A   1      49.716  36.716  28.354  1.00  0.00    -0.237 OA
ATOM     99  O   UNL A   1      47.411  37.518  28.015  1.00  0.00    -0.744 OA
ENDBRANCH  95  96
ENDBRANCH  63  88
ENDBRANCH  37  38
ENDBRANCH  29  32
ENDBRANCH  27  28
ENDBRANCH   1  27
TORSDOF 16
ENDMDL
MODEL 2
REMARK VINA RESULT:     -12.1      6.264      8.668
REMARK SMILES CCCN1CCC[C@@]2(CCN(c3ccc(C(=O)NCCCNC(=O)c4ccc(-c5c6nc(c(-c7c(F)cc(S(=O)(=O)[O-])cc7F)c7ccc([nH]7)c(-c7c(F)cc(S(=O)(=O)[O-])cc7F)c7nc(c(-c8c(F)cc(S(=O)(=O)[O-])cc8F)c8ccc5[nH]8)C=C7)C=C6)cc4)cn3)C2)C1=O
REMARK SMILES IDX 20 1 19 2 18 3 16 4 17 5 15 7 12 8 13 9 92 10 14 11 91 12
REMARK SMILES IDX 11 13 4 14 5 15 94 16 6 17 8 18 95 19 7 20 9 21 93 22 10 23
REMARK SMILES IDX 3 24 2 25 1 26 21 27 22 28 23 29 24 31 25 32 26 33 90 34
REMARK SMILES IDX 27 35 89 36 28 37 29 38 30 39 83 40 31 41 88 42 82 43 84 44
REMARK SMILES IDX 32 45 87 46 81 47 80 48 33 50 67 51 46 52 66 53 47 54 50 55
REMARK SMILES IDX 65 56 85 57 48 58 49 59 64 61 86 62 51 63 34 64 35 65 44 66
REMARK SMILES IDX 36 67 37 68 43 69 45 70 38 71 39 72 40 73 41 74 42 75 68 76
REMARK SMILES IDX 69 77 78 78 70 79 71 80 77 81 79 82 72 83 73 84 74 85 75 86
REMARK SMILES IDX 76 87 52 88 53 89 62 90 54 91 55 92 61 93 63 94 56 95 57 96
REMARK SMILES IDX 58 97 59 98 60 99
REMARK H PARENT 18 6 22 30 84 49 50 60
REMARK Flexibility Score: inf
ROOT
ATOM      1  C   UNL A   1      40.568  22.396  27.570  1.00  0.00     0.042 C 
ENDROOT
BRANCH   1   2
ATOM      2  C   UNL A   1      39.525  22.703  26.493  1.00  0.00     0.118 C 
BRANCH   2   3
ATOM      3  N   UNL A   1      39.000  21.488  25.892  1.00  0.00    -0.352 N 
ATOM      4  C   UNL A   1      37.865  21.226  25.162  1.00  0.00     0.252 C 
ATOM      5  O   UNL A   1      37.744  20.092  24.698  1.00  0.00    -0.269 OA
ATOM      6  H   UNL A   1      39.568  20.698  26.036  1.00  0.00     0.163 HD
BRANCH   4   7
ATOM      7  C   UNL A   1      36.813  22.232  24.878  1.00  0.00     0.058 A 
ATOM      8  C   UNL A   1      34.767  24.106  24.612  1.00  0.00     0.128 A 
ATOM      9  C   UNL A   1      35.418  23.611  23.490  1.00  0.00     0.048 A 
ATOM     10  N   UNL A   1      35.138  23.725  25.849  1.00  0.00    -0.239 NA
ATOM     11  C   UNL A   1      36.467  22.707  23.623  1.00  0.00     0.019 A 
ATOM     12  C   UNL A   1      36.128  22.793  25.954  1.00  0.00     0.127 A 
BRANCH   8  13
ATOM     13  N   UNL A   1      33.760  25.012  24.438  1.00  0.00    -0.356 N 
ATOM     14  N   UNL A   1      33.052  28.895  25.959  1.00  0.00    -0.342 N 
ATOM     15  C   UNL A   1      31.914  28.944  26.865  1.00  0.00     0.119 C 
ATOM     16  C   UNL A   1      32.967  28.189  24.763  1.00  0.00     0.230 C 
ATOM     17  C   UNL A   1      31.291  27.577  27.083  1.00  0.00     0.023 C 
ATOM     18  C   UNL A   1      32.282  26.821  24.888  1.00  0.00     0.069 C 
ATOM     19  O   UNL A   1      33.532  28.562  23.738  1.00  0.00    -0.274 OA
ATOM     20  C   UNL A   1      31.005  26.917  25.735  1.00  0.00     0.021 C 
ATOM     21  C   UNL A   1      32.017  26.186  23.507  1.00  0.00     0.040 C 
ATOM     22  C   UNL A   1      33.305  25.851  25.532  1.00  0.00     0.135 C 
ATOM     23  C   UNL A   1      33.345  25.509  23.148  1.00  0.00     0.119 C 
BRANCH  14  24
ATOM     24  C   UNL A   1      34.210  29.751  26.193  1.00  0.00     0.119 C 
BRANCH  24  25
ATOM     25  C   UNL A   1      35.012  29.475  27.461  1.00  0.00     0.018 C 
ATOM     26  C   UNL A   1      35.253  30.709  28.314  1.00  0.00     0.006 C 
ENDBRANCH  24  25
ENDBRANCH  14  24
ENDBRANCH   8  13
ENDBRANCH   4   7
ENDBRANCH   2   3
ENDBRANCH   1   2
BRANCH   1  27
ATOM     27  C   UNL A   1      41.845  23.223  27.429  1.00  0.00     0.118 C 
BRANCH  27  28
ATOM     28  N   UNL A   1      41.765  24.152  26.310  1.00  0.00    -0.352 N 
ATOM     29  C   UNL A   1      41.355  25.461  26.271  1.00  0.00     0.251 C 
ATOM     30  H   UNL A   1      42.049  23.782  25.443  1.00  0.00     0.163 HD
ATOM     31  O   UNL A   1      41.116  25.982  25.186  1.00  0.00    -0.269 OA
BRANCH  29  32
ATOM     32  C   UNL A   1      41.197  26.242  27.518  1.00  0.00     0.039 A 
ATOM     33  C   UNL A   1      42.165  27.199  27.842  1.00  0.00     0.014 A 
ATOM     34  C   UNL A   1      40.133  26.002  28.391  1.00  0.00     0.014 A 
ATOM     35  C   UNL A   1      42.034  27.954  29.010  1.00  0.00     0.010 A 
ATOM     36  C   UNL A   1      39.968  26.800  29.521  1.00  0.00     0.010 A 
ATOM     37  C   UNL A   1      40.915  27.783  29.841  1.00  0.00    -0.014 A 
BRANCH  37  38
ATOM     38  C   UNL A   1      40.699  28.641  31.034  1.00  0.00     0.031 A 
ATOM     39  C   UNL A   1      39.635  29.703  31.024  1.00  0.00     0.074 A 
ATOM     40  C   UNL A   1      41.531  28.526  32.086  1.00  0.00     0.049 A 
ATOM     41  N   UNL A   1      39.371  30.615  31.922  1.00  0.00    -0.248 NA
ATOM     42  C   UNL A   1      38.775  29.765  29.832  1.00  0.00     0.031 C 
ATOM     43  C   UNL A   1      42.635  27.571  32.186  1.00  0.00     0.029 A 
ATOM     44  N   UNL A   1      41.597  29.236  33.258  1.00  0.00    -0.354 N 
ATOM     45  C   UNL A   1      38.332  31.375  31.398  1.00  0.00     0.074 A 
ATOM     46  C   UNL A   1      38.043  30.840  30.083  1.00  0.00     0.031 C 
ATOM     47  C   UNL A   1      43.270  27.755  33.353  1.00  0.00     0.029 A 
ATOM     48  C   UNL A   1      42.647  28.866  34.065  1.00  0.00     0.049 A 
ATOM     49  H   UNL A   1      40.955  29.943  33.499  1.00  0.00     0.167 HD
ATOM     50  C   UNL A   1      37.672  32.414  31.966  1.00  0.00     0.037 A 
ATOM     51  C   UNL A   1      43.077  29.378  35.235  1.00  0.00     0.037 A 
ATOM     52  C   UNL A   1      37.959  32.925  33.282  1.00  0.00     0.049 A 
ATOM     53  C   UNL A   1      42.335  30.529  35.850  1.00  0.00     0.074 A 
ATOM     54  C   UNL A   1      37.287  33.906  33.989  1.00  0.00     0.029 A 
ATOM     55  N   UNL A   1      39.015  32.509  34.081  1.00  0.00    -0.354 N 
ATOM     56  N   UNL A   1      41.291  31.174  35.386  1.00  0.00    -0.248 NA
ATOM     57  C   UNL A   1      42.823  31.022  37.144  1.00  0.00     0.031 C 
ATOM     58  C   UNL A   1      37.970  34.121  35.193  1.00  0.00     0.029 A 
ATOM     59  C   UNL A   1      39.039  33.241  35.256  1.00  0.00     0.049 A 
ATOM     60  H   UNL A   1      39.653  31.797  33.845  1.00  0.00     0.167 HD
ATOM     61  C   UNL A   1      40.996  32.151  36.329  1.00  0.00     0.074 A 
ATOM     62  C   UNL A   1      41.958  31.995  37.402  1.00  0.00     0.031 C 
ATOM     63  C   UNL A   1      40.019  33.091  36.307  1.00  0.00     0.037 A 
BRANCH  50  64
ATOM     64  C   UNL A   1      36.590  33.072  31.153  1.00  0.00     0.058 A 
ATOM     65  C   UNL A   1      36.886  33.905  30.061  1.00  0.00     0.135 A 
ATOM     66  C   UNL A   1      35.237  32.874  31.474  1.00  0.00     0.135 A 
ATOM     67  F   UNL A   1      38.161  34.137  29.713  1.00  0.00    -0.206 F 
ATOM     68  C   UNL A   1      35.884  34.562  29.353  1.00  0.00     0.059 A 
ATOM     69  C   UNL A   1      34.217  33.497  30.761  1.00  0.00     0.059 A 
ATOM     70  F   UNL A   1      34.895  32.082  32.503  1.00  0.00    -0.206 F 
ATOM     71  C   UNL A   1      34.552  34.360  29.718  1.00  0.00     0.060 A 
BRANCH  71  72
ATOM     72  S   UNL A   1      33.265  35.254  28.822  1.00  0.00     0.124 S 
ATOM     73  O   UNL A   1      32.461  35.780  29.920  1.00  0.00    -0.237 OA
ATOM     74  O   UNL A   1      34.035  36.242  28.071  1.00  0.00    -0.237 OA
ATOM     75  O   UNL A   1      32.628  34.217  28.017  1.00  0.00    -0.744 OA
ENDBRANCH  71  72
ENDBRANCH  50  64
BRANCH  51  76
ATOM     76  C   UNL A   1      44.277  28.788  35.883  1.00  0.00     0.058 A 
ATOM     77  C   UNL A   1      45.554  29.323  35.661  1.00  0.00     0.135 A 
ATOM     78  C   UNL A   1      44.158  27.735  36.805  1.00  0.00     0.135 A 
ATOM     79  F   UNL A   1      45.717  30.324  34.783  1.00  0.00    -0.206 F 
ATOM     80  C   UNL A   1      46.669  28.849  36.344  1.00  0.00     0.059 A 
ATOM     81  C   UNL A   1      45.255  27.258  37.514  1.00  0.00     0.059 A 
ATOM     82  F   UNL A   1      42.955  27.201  37.063  1.00  0.00    -0.206 F 
ATOM     83  C   UNL A   1      46.507  27.826  37.280  1.00  0.00     0.060 A 
BRANCH  83  84
ATOM     84  S   UNL A   1      47.940  27.300  38.246  1.00  0.00     0.124 S 
ATOM     85  O   UNL A   1      48.864  28.408  38.030  1.00  0.00    -0.237 OA
ATOM     86  O   UNL A   1      47.377  27.190  39.590  1.00  0.00    -0.237 OA
ATOM     87  O   UNL A   1      48.316  26.032  37.629  1.00  0.00    -0.744 OA
ENDBRANCH  83  84
ENDBRANCH  51  76
BRANCH  63  88
ATOM     88  C   UNL A   1      39.947  34.042  37.469  1.00  0.00     0.058 A 
ATOM     89  C   UNL A   1      40.507  35.326  37.397  1.00  0.00     0.135 A 
ATOM     90  C   UNL A   1      39.254  33.692  38.639  1.00  0.00     0.135 A 
ATOM     91  F   UNL A   1      41.189  35.705  36.305  1.00  0.00    -0.206 F 
ATOM     92  C   UNL A   1      40.389  36.230  38.448  1.00  0.00     0.059 A 
ATOM     93  C   UNL A   1      39.103  34.589  39.693  1.00  0.00     0.059 A 
ATOM     94  F   UNL A   1      38.694  32.477  38.757  1.00  0.00    -0.206 F 
ATOM     95  C   UNL A   1      39.680  35.853  39.590  1.00  0.00     0.060 A 
BRANCH  95  96
ATOM     96  S   UNL A   1      39.491  37.056  40.925  1.00  0.00     0.124 S 
ATOM     97  O   UNL A   1      40.881  37.365  41.241  1.00  0.00    -0.237 OA
ATOM     98  O   UNL A   1      38.734  38.123  40.278  1.00  0.00    -0.237 OA
ATOM     99  O   UNL A   1      38.765  36.313  41.950  1.00  0.00    -0.744 OA
ENDBRANCH  95  96
ENDBRANCH  63  88
ENDBRANCH  37  38
ENDBRANCH  29  32
ENDBRANCH  27  28
ENDBRANCH   1  27
TORSDOF 16
ENDMDL
MODEL 3
REMARK VINA RESULT:     -12.0      4.533     10.536
REMARK SMILES CCCN1CCC[C@@]2(CCN(c3ccc(C(=O)NCCCNC(=O)c4ccc(-c5c6nc(c(-c7c(F)cc(S(=O)(=O)[O-])cc7F)c7ccc([nH]7)c(-c7c(F)cc(S(=O)(=O)[O-])cc7F)c7nc(c(-c8c(F)cc(S(=O)(=O)[O-])cc8F)c8ccc5[nH]8)C=C7)C=C6)cc4)cn3)C2)C1=O
REMARK SMILES IDX 20 1 19 2 18 3 16 4 17 5 15 7 12 8 13 9 92 10 14 11 91 12
REMARK SMILES IDX 11 13 4 14 5 15 94 16 6 17 8 18 95 19 7 20 9 21 93 22 10 23
REMARK SMILES IDX 3 24 2 25 1 26 21 27 22 28 23 29 24 31 25 32 26 33 90 34
REMARK SMILES IDX 27 35 89 36 28 37 29 38 30 39 83 40 31 41 88 42 82 43 84 44
REMARK SMILES IDX 32 45 87 46 81 47 80 48 33 50 67 51 46 52 66 53 47 54 50 55
REMARK SMILES IDX 65 56 85 57 48 58 49 59 64 61 86 62 51 63 34 64 35 65 44 66
REMARK SMILES IDX 36 67 37 68 43 69 45 70 38 71 39 72 40 73 41 74 42 75 68 76
REMARK SMILES IDX 69 77 78 78 70 79 71 80 77 81 79 82 72 83 73 84 74 85 75 86
REMARK SMILES IDX 76 87 52 88 53 89 62 90 54 91 55 92 61 93 63 94 56 95 57 96
REMARK SMILES IDX 58 97 59 98 60 99
REMARK H PARENT 18 6 22 30 84 49 50 60
REMARK Flexibility Score: inf
ROOT
ATOM      1  C   UNL A   1      33.627  33.769  28.037  1.00  0.00     0.042 C 
ENDROOT
BRANCH   1   2
ATOM      2  C   UNL A   1      33.991  35.095  28.708  1.00  0.00     0.118 C 
BRANCH   2   3
ATOM      3  N   UNL A   1      33.169  35.348  29.880  1.00  0.00    -0.352 N 
ATOM      4  C   UNL A   1      33.311  35.018  31.207  1.00  0.00     0.252 C 
ATOM      5  O   UNL A   1      32.477  35.469  31.991  1.00  0.00    -0.269 OA
ATOM      6  H   UNL A   1      32.349  35.856  29.686  1.00  0.00     0.163 HD
BRANCH   4   7
ATOM      7  C   UNL A   1      34.420  34.188  31.739  1.00  0.00     0.058 A 
ATOM      8  C   UNL A   1      36.651  32.862  32.753  1.00  0.00     0.128 A 
ATOM      9  C   UNL A   1      35.557  32.144  32.288  1.00  0.00     0.048 A 
ATOM     10  N   UNL A   1      36.639  34.208  32.764  1.00  0.00    -0.239 NA
ATOM     11  C   UNL A   1      34.426  32.805  31.821  1.00  0.00     0.019 A 
ATOM     12  C   UNL A   1      35.545  34.835  32.245  1.00  0.00     0.127 A 
BRANCH   8  13
ATOM     13  N   UNL A   1      37.730  32.174  33.229  1.00  0.00    -0.356 N 
ATOM     14  N   UNL A   1      39.902  32.324  36.856  1.00  0.00    -0.342 N 
ATOM     15  C   UNL A   1      41.256  32.827  36.679  1.00  0.00     0.119 C 
ATOM     16  C   UNL A   1      39.378  31.390  35.967  1.00  0.00     0.230 C 
ATOM     17  C   UNL A   1      41.541  33.223  35.241  1.00  0.00     0.023 C 
ATOM     18  C   UNL A   1      39.686  31.684  34.492  1.00  0.00     0.069 C 
ATOM     19  O   UNL A   1      38.607  30.504  36.325  1.00  0.00    -0.274 OA
ATOM     20  C   UNL A   1      41.157  32.080  34.303  1.00  0.00     0.021 C 
ATOM     21  C   UNL A   1      39.277  30.510  33.579  1.00  0.00     0.040 C 
ATOM     22  C   UNL A   1      38.740  32.827  34.044  1.00  0.00     0.135 C 
ATOM     23  C   UNL A   1      37.781  30.735  33.330  1.00  0.00     0.119 C 
BRANCH  14  24
ATOM     24  C   UNL A   1      39.162  32.633  38.074  1.00  0.00     0.119 C 
BRANCH  24  25
ATOM     25  C   UNL A   1      37.801  33.297  37.892  1.00  0.00     0.018 C 
ATOM     26  C   UNL A   1      36.731  32.768  38.832  1.00  0.00     0.006 C 
ENDBRANCH  24  25
ENDBRANCH  14  24
ENDBRANCH   8  13
ENDBRANCH   4   7
ENDBRANCH   2   3
ENDBRANCH   1   2
BRANCH   1  27
ATOM     27  C   UNL A   1      34.574  32.627  28.400  1.00  0.00     0.118 C 
BRANCH  27  28
ATOM     28  N   UNL A   1      33.935  31.327  28.249  1.00  0.00    -0.352 N 
ATOM     29  C   UNL A   1      34.486  30.080  28.095  1.00  0.00     0.251 C 
ATOM     30  H   UNL A   1      32.950  31.346  28.259  1.00  0.00     0.163 HD
ATOM     31  O   UNL A   1      33.774  29.152  27.724  1.00  0.00    -0.269 OA
BRANCH  29  32
ATOM     32  C   UNL A   1      35.922  29.848  28.368  1.00  0.00     0.039 A 
ATOM     33  C   UNL A   1      36.316  29.519  29.669  1.00  0.00     0.014 A 
ATOM     34  C   UNL A   1      36.882  30.002  27.365  1.00  0.00     0.014 A 
ATOM     35  C   UNL A   1      37.665  29.287  29.949  1.00  0.00     0.010 A 
ATOM     36  C   UNL A   1      38.217  29.706  27.630  1.00  0.00     0.010 A 
ATOM     37  C   UNL A   1      38.621  29.346  28.924  1.00  0.00    -0.014 A 
BRANCH  37  38
ATOM     38  C   UNL A   1      40.045  29.006  29.172  1.00  0.00     0.031 A 
ATOM     39  C   UNL A   1      41.001  30.053  29.672  1.00  0.00     0.074 A 
ATOM     40  C   UNL A   1      40.495  27.779  28.849  1.00  0.00     0.049 A 
ATOM     41  N   UNL A   1      42.295  29.976  29.842  1.00  0.00    -0.248 NA
ATOM     42  C   UNL A   1      40.429  31.370  29.992  1.00  0.00     0.031 C 
ATOM     43  C   UNL A   1      39.672  26.697  28.304  1.00  0.00     0.029 A 
ATOM     44  N   UNL A   1      41.756  27.242  28.905  1.00  0.00    -0.354 N 
ATOM     45  C   UNL A   1      42.698  31.236  30.267  1.00  0.00     0.074 A 
ATOM     46  C   UNL A   1      41.515  32.071  30.288  1.00  0.00     0.031 C 
ATOM     47  C   UNL A   1      40.450  25.629  28.072  1.00  0.00     0.029 A 
ATOM     48  C   UNL A   1      41.830  25.960  28.413  1.00  0.00     0.049 A 
ATOM     49  H   UNL A   1      42.535  27.728  29.262  1.00  0.00     0.167 HD
ATOM     50  C   UNL A   1      43.938  31.655  30.619  1.00  0.00     0.037 A 
ATOM     51  C   UNL A   1      42.890  25.150  28.231  1.00  0.00     0.037 A 
ATOM     52  C   UNL A   1      45.105  30.810  30.610  1.00  0.00     0.049 A 
ATOM     53  C   UNL A   1      44.258  25.629  28.627  1.00  0.00     0.074 A 
ATOM     54  C   UNL A   1      46.385  31.106  31.041  1.00  0.00     0.029 A 
ATOM     55  N   UNL A   1      45.136  29.509  30.127  1.00  0.00    -0.354 N 
ATOM     56  N   UNL A   1      44.607  26.793  29.120  1.00  0.00    -0.248 NA
ATOM     57  C   UNL A   1      45.372  24.691  28.443  1.00  0.00     0.031 C 
ATOM     58  C   UNL A   1      47.203  30.002  30.769  1.00  0.00     0.029 A 
ATOM     59  C   UNL A   1      46.422  29.001  30.211  1.00  0.00     0.049 A 
ATOM     60  H   UNL A   1      44.357  29.018  29.777  1.00  0.00     0.167 HD
ATOM     61  C   UNL A   1      45.983  26.730  29.307  1.00  0.00     0.074 A 
ATOM     62  C   UNL A   1      46.397  25.403  28.895  1.00  0.00     0.031 C 
ATOM     63  C   UNL A   1      46.825  27.685  29.775  1.00  0.00     0.037 A 
BRANCH  50  64
ATOM     64  C   UNL A   1      44.091  33.096  31.025  1.00  0.00     0.058 A 
ATOM     65  C   UNL A   1      44.169  33.484  32.373  1.00  0.00     0.135 A 
ATOM     66  C   UNL A   1      44.154  34.107  30.051  1.00  0.00     0.135 A 
ATOM     67  F   UNL A   1      44.106  32.561  33.346  1.00  0.00    -0.206 F 
ATOM     68  C   UNL A   1      44.246  34.823  32.743  1.00  0.00     0.059 A 
ATOM     69  C   UNL A   1      44.261  35.451  30.398  1.00  0.00     0.059 A 
ATOM     70  F   UNL A   1      44.091  33.795  28.747  1.00  0.00    -0.206 F 
ATOM     71  C   UNL A   1      44.281  35.801  31.747  1.00  0.00     0.060 A 
BRANCH  71  72
ATOM     72  S   UNL A   1      44.334  37.536  32.242  1.00  0.00     0.124 S 
ATOM     73  O   UNL A   1      43.464  37.528  33.414  1.00  0.00    -0.237 OA
ATOM     74  O   UNL A   1      45.753  37.743  32.509  1.00  0.00    -0.237 OA
ATOM     75  O   UNL A   1      43.810  38.238  31.076  1.00  0.00    -0.744 OA
ENDBRANCH  71  72
ENDBRANCH  50  64
BRANCH  51  76
ATOM     76  C   UNL A   1      42.676  23.802  27.643  1.00  0.00     0.058 A 
ATOM     77  C   UNL A   1      42.744  23.601  26.257  1.00  0.00     0.135 A 
ATOM     78  C   UNL A   1      42.489  22.677  28.461  1.00  0.00     0.135 A 
ATOM     79  F   UNL A   1      42.913  24.648  25.435  1.00  0.00    -0.206 F 
ATOM     80  C   UNL A   1      42.653  22.328  25.703  1.00  0.00     0.059 A 
ATOM     81  C   UNL A   1      42.416  21.392  27.931  1.00  0.00     0.059 A 
ATOM     82  F   UNL A   1      42.434  22.817  29.794  1.00  0.00    -0.206 F 
ATOM     83  C   UNL A   1      42.503  21.229  26.550  1.00  0.00     0.060 A 
BRANCH  83  84
ATOM     84  S   UNL A   1      42.506  19.573  25.828  1.00  0.00     0.124 S 
ATOM     85  O   UNL A   1      43.486  19.719  24.758  1.00  0.00    -0.237 OA
ATOM     86  O   UNL A   1      42.915  18.747  26.961  1.00  0.00    -0.237 OA
ATOM     87  O   UNL A   1      41.123  19.390  25.400  1.00  0.00    -0.744 OA
ENDBRANCH  83  84
ENDBRANCH  51  76
BRANCH  63  88
ATOM     88  C   UNL A   1      48.287  27.340  29.853  1.00  0.00     0.058 A 
ATOM     89  C   UNL A   1      49.172  27.681  28.819  1.00  0.00     0.135 A 
ATOM     90  C   UNL A   1      48.818  26.726  30.997  1.00  0.00     0.135 A 
ATOM     91  F   UNL A   1      48.713  28.260  27.699  1.00  0.00    -0.206 F 
ATOM     92  C   UNL A   1      50.535  27.418  28.914  1.00  0.00     0.059 A 
ATOM     93  C   UNL A   1      50.182  26.475  31.124  1.00  0.00     0.059 A 
ATOM     94  F   UNL A   1      48.014  26.384  32.018  1.00  0.00    -0.206 F 
ATOM     95  C   UNL A   1      51.031  26.820  30.074  1.00  0.00     0.060 A 
BRANCH  95  96
ATOM     96  S   UNL A   1      52.809  26.533  30.205  1.00  0.00     0.124 S 
ATOM     97  O   UNL A   1      53.293  27.854  30.590  1.00  0.00    -0.237 OA
ATOM     98  O   UNL A   1      52.884  25.504  31.238  1.00  0.00    -0.237 OA
ATOM     99  O   UNL A   1      53.182  26.094  28.864  1.00  0.00    -0.744 OA
ENDBRANCH  95  96
ENDBRANCH  63  88
ENDBRANCH  37  38
ENDBRANCH  29  32
ENDBRANCH  27  28
ENDBRANCH   1  27
TORSDOF 16
ENDMDL
