MODEL 1
REMARK VINA RESULT:     -12.8      0.000      0.000
REMARK SMILES Cc1nn(CC(=O)NCCCNC(=O)c2ccc(-c3c4nc(c(-c5c(F)cc(S(=O)(=O)[O-])cc5F)c5ccc([nH]5)c(-c5c(F)cc(S(=O)(=O)[O-])cc5F)c5nc(c(-c6c(F)cc(S(=O)(=O)[O-])cc6F)c6ccc3[nH]6)C=C5)C=C4)cc2)c(C)c1NS(=O)(=O)c1cccc2cccnc12
REMARK SMILES IDX 9 1 8 2 6 3 7 4 5 6 4 7 1 8 2 9 3 10 83 11 81 12 82 13 84 14
REMARK SMILES IDX 85 16 86 17 87 18 88 19 89 20 97 21 90 22 92 23 96 24 91 25
REMARK SMILES IDX 93 26 95 27 94 28 10 29 11 30 12 31 13 32 14 34 15 35 16 36
REMARK SMILES IDX 80 37 17 38 79 39 18 40 19 41 20 42 73 43 21 44 78 45 72 46
REMARK SMILES IDX 74 47 22 48 77 49 71 50 70 51 23 53 57 54 36 55 56 56 37 57
REMARK SMILES IDX 40 58 55 59 75 60 38 61 39 62 54 64 76 65 41 66 24 67 25 68
REMARK SMILES IDX 34 69 26 70 27 71 33 72 35 73 28 74 29 75 30 76 31 77 32 78
REMARK SMILES IDX 58 79 59 80 68 81 60 82 61 83 67 84 69 85 62 86 63 87 64 88
REMARK SMILES IDX 65 89 66 90 42 91 43 92 52 93 44 94 45 95 51 96 53 97 46 98
REMARK SMILES IDX 47 99 48 100 49 101 50 102
REMARK H PARENT 8 5 84 15 12 33 74 52 40 63
REMARK Flexibility Score: inf
ROOT
ATOM      1  C   UNL A   1      40.196  20.651  25.989  1.00  0.00     0.117 C 
ENDROOT
BRANCH   1   2
ATOM      2  N   UNL A   1      39.333  21.800  26.237  1.00  0.00    -0.354 N 
ATOM      3  C   UNL A   1      38.110  22.164  25.750  1.00  0.00     0.241 C 
ATOM      4  O   UNL A   1      37.478  22.927  26.500  1.00  0.00    -0.273 OA
ATOM      5  H   UNL A   1      39.705  22.440  26.885  1.00  0.00     0.163 HD
BRANCH   3   6
ATOM      6  C   UNL A   1      37.384  21.657  24.500  1.00  0.00     0.244 C 
BRANCH   6   7
ATOM      7  N   UNL A   1      35.944  21.584  24.543  1.00  0.00    -0.258 N 
ATOM      8  C   UNL A   1      33.185  19.801  25.752  1.00  0.00     0.071 C 
ATOM      9  C   UNL A   1      34.171  20.824  25.336  1.00  0.00     0.084 A 
ATOM     10  N   UNL A   1      35.347  20.419  24.843  1.00  0.00    -0.175 NA
ATOM     11  C   UNL A   1      34.114  22.253  25.347  1.00  0.00     0.093 A 
ATOM     12  C   UNL A   1      35.012  22.583  24.362  1.00  0.00     0.060 A 
ATOM     13  C   UNL A   1      35.110  23.726  23.432  1.00  0.00     0.069 C 
BRANCH  11  14
ATOM     14  N   UNL A   1      33.374  23.061  26.187  1.00  0.00    -0.276 N 
ATOM     15  H   UNL A   1      33.694  23.068  27.118  1.00  0.00     0.180 HD
BRANCH  14  16
ATOM     16  S   UNL A   1      32.049  24.022  25.925  1.00  0.00     0.264 S 
ATOM     17  O   UNL A   1      31.267  23.400  24.872  1.00  0.00    -0.201 OA
ATOM     18  O   UNL A   1      31.483  24.070  27.268  1.00  0.00    -0.201 OA
BRANCH  16  19
ATOM     19  C   UNL A   1      32.166  25.761  25.501  1.00  0.00     0.114 A 
ATOM     20  C   UNL A   1      31.648  26.540  26.565  1.00  0.00     0.024 A 
ATOM     21  C   UNL A   1      32.658  26.435  24.360  1.00  0.00     0.091 A 
ATOM     22  C   UNL A   1      31.757  27.920  26.589  1.00  0.00     0.002 A 
ATOM     23  C   UNL A   1      32.986  27.808  24.534  1.00  0.00     0.002 A 
ATOM     24  N   UNL A   1      32.731  25.979  23.086  1.00  0.00    -0.255 NA
ATOM     25  C   UNL A   1      32.528  28.536  25.628  1.00  0.00     0.010 A 
ATOM     26  C   UNL A   1      33.673  28.526  23.547  1.00  0.00     0.012 A 
ATOM     27  C   UNL A   1      33.164  26.801  22.083  1.00  0.00     0.112 A 
ATOM     28  C   UNL A   1      33.744  28.024  22.272  1.00  0.00     0.021 A 
ENDBRANCH  16  19
ENDBRANCH  14  16
ENDBRANCH  11  14
ENDBRANCH   6   7
ENDBRANCH   3   6
ENDBRANCH   1   2
BRANCH   1  29
ATOM     29  C   UNL A   1      40.783  19.945  27.208  1.00  0.00     0.042 C 
BRANCH  29  30
ATOM     30  C   UNL A   1      42.262  20.200  27.392  1.00  0.00     0.118 C 
BRANCH  30  31
ATOM     31  N   UNL A   1      43.139  19.703  26.316  1.00  0.00    -0.352 N 
ATOM     32  C   UNL A   1      43.756  20.473  25.315  1.00  0.00     0.251 C 
ATOM     33  H   UNL A   1      43.310  18.734  26.297  1.00  0.00     0.163 HD
ATOM     34  O   UNL A   1      44.234  19.980  24.321  1.00  0.00    -0.269 OA
BRANCH  32  35
ATOM     35  C   UNL A   1      43.821  21.932  25.560  1.00  0.00     0.039 A 
ATOM     36  C   UNL A   1      43.013  22.877  24.920  1.00  0.00     0.014 A 
ATOM     37  C   UNL A   1      44.620  22.288  26.630  1.00  0.00     0.014 A 
ATOM     38  C   UNL A   1      42.949  24.166  25.461  1.00  0.00     0.010 A 
ATOM     39  C   UNL A   1      44.278  23.400  27.330  1.00  0.00     0.010 A 
ATOM     40  C   UNL A   1      43.572  24.407  26.693  1.00  0.00    -0.014 A 
BRANCH  40  41
ATOM     41  C   UNL A   1      43.490  25.662  27.430  1.00  0.00     0.031 A 
ATOM     42  C   UNL A   1      44.511  26.678  27.058  1.00  0.00     0.074 A 
ATOM     43  C   UNL A   1      42.372  25.969  28.134  1.00  0.00     0.049 A 
ATOM     44  N   UNL A   1      45.498  27.108  27.770  1.00  0.00    -0.248 NA
ATOM     45  C   UNL A   1      44.541  27.155  25.664  1.00  0.00     0.031 C 
ATOM     46  C   UNL A   1      41.132  25.183  28.283  1.00  0.00     0.029 A 
ATOM     47  N   UNL A   1      42.042  27.129  28.758  1.00  0.00    -0.354 N 
ATOM     48  C   UNL A   1      46.105  28.109  27.012  1.00  0.00     0.074 A 
ATOM     49  C   UNL A   1      45.643  27.911  25.665  1.00  0.00     0.031 C 
ATOM     50  C   UNL A   1      40.128  25.979  28.707  1.00  0.00     0.029 A 
ATOM     51  C   UNL A   1      40.687  27.264  29.063  1.00  0.00     0.049 A 
ATOM     52  H   UNL A   1      42.707  27.819  28.979  1.00  0.00     0.167 HD
ATOM     53  C   UNL A   1      46.704  29.180  27.609  1.00  0.00     0.037 A 
ATOM     54  C   UNL A   1      40.076  28.370  29.559  1.00  0.00     0.037 A 
ATOM     55  C   UNL A   1      46.881  28.937  29.023  1.00  0.00     0.049 A 
ATOM     56  C   UNL A   1      41.150  29.209  30.154  1.00  0.00     0.074 A 
ATOM     57  C   UNL A   1      47.532  27.975  29.773  1.00  0.00     0.029 A 
ATOM     58  N   UNL A   1      45.990  29.536  29.883  1.00  0.00    -0.354 N 
ATOM     59  N   UNL A   1      41.870  28.837  31.181  1.00  0.00    -0.248 NA
ATOM     60  C   UNL A   1      41.762  30.215  29.300  1.00  0.00     0.031 C 
ATOM     61  C   UNL A   1      46.658  27.713  30.871  1.00  0.00     0.029 A 
ATOM     62  C   UNL A   1      45.572  28.585  30.779  1.00  0.00     0.049 A 
ATOM     63  H   UNL A   1      45.703  30.478  29.861  1.00  0.00     0.167 HD
ATOM     64  C   UNL A   1      43.166  29.231  30.875  1.00  0.00     0.074 A 
ATOM     65  C   UNL A   1      43.023  30.138  29.735  1.00  0.00     0.031 C 
ATOM     66  C   UNL A   1      44.250  28.557  31.371  1.00  0.00     0.037 A 
BRANCH  53  67
ATOM     67  C   UNL A   1      46.764  30.585  27.038  1.00  0.00     0.058 A 
ATOM     68  C   UNL A   1      47.999  31.273  27.062  1.00  0.00     0.135 A 
ATOM     69  C   UNL A   1      45.640  31.389  26.746  1.00  0.00     0.135 A 
ATOM     70  F   UNL A   1      49.145  30.613  27.298  1.00  0.00    -0.206 F 
ATOM     71  C   UNL A   1      48.092  32.659  26.936  1.00  0.00     0.059 A 
ATOM     72  C   UNL A   1      45.716  32.766  26.564  1.00  0.00     0.059 A 
ATOM     73  F   UNL A   1      44.393  30.907  26.712  1.00  0.00    -0.206 F 
ATOM     74  C   UNL A   1      46.937  33.399  26.715  1.00  0.00     0.060 A 
BRANCH  74  75
ATOM     75  S   UNL A   1      47.030  35.197  26.691  1.00  0.00     0.124 S 
ATOM     76  O   UNL A   1      46.208  35.512  25.529  1.00  0.00    -0.237 OA
ATOM     77  O   UNL A   1      46.464  35.545  27.990  1.00  0.00    -0.237 OA
ATOM     78  O   UNL A   1      48.459  35.456  26.545  1.00  0.00    -0.744 OA
ENDBRANCH  74  75
ENDBRANCH  53  67
BRANCH  54  79
ATOM     79  C   UNL A   1      38.724  28.892  29.215  1.00  0.00     0.058 A 
ATOM     80  C   UNL A   1      37.746  29.104  30.201  1.00  0.00     0.135 A 
ATOM     81  C   UNL A   1      38.457  29.455  27.949  1.00  0.00     0.135 A 
ATOM     82  F   UNL A   1      37.925  28.621  31.440  1.00  0.00    -0.206 F 
ATOM     83  C   UNL A   1      36.594  29.867  29.963  1.00  0.00     0.059 A 
ATOM     84  C   UNL A   1      37.315  30.213  27.686  1.00  0.00     0.059 A 
ATOM     85  F   UNL A   1      39.347  29.359  26.949  1.00  0.00    -0.206 F 
ATOM     86  C   UNL A   1      36.398  30.435  28.705  1.00  0.00     0.060 A 
BRANCH  86  87
ATOM     87  S   UNL A   1      35.001  31.558  28.440  1.00  0.00     0.124 S 
ATOM     88  O   UNL A   1      34.684  31.973  29.802  1.00  0.00    -0.237 OA
ATOM     89  O   UNL A   1      35.586  32.584  27.583  1.00  0.00    -0.237 OA
ATOM     90  O   UNL A   1      34.000  30.711  27.798  1.00  0.00    -0.744 OA
ENDBRANCH  86  87
ENDBRANCH  54  79
BRANCH  66  91
ATOM     91  C   UNL A   1      44.029  27.548  32.473  1.00  0.00     0.058 A 
ATOM     92  C   UNL A   1      43.941  26.157  32.282  1.00  0.00     0.135 A 
ATOM     93  C   UNL A   1      44.082  28.002  33.799  1.00  0.00     0.135 A 
ATOM     94  F   UNL A   1      43.988  25.625  31.055  1.00  0.00    -0.206 F 
ATOM     95  C   UNL A   1      43.870  25.264  33.355  1.00  0.00     0.059 A 
ATOM     96  C   UNL A   1      44.044  27.129  34.884  1.00  0.00     0.059 A 
ATOM     97  F   UNL A   1      44.234  29.312  34.054  1.00  0.00    -0.206 F 
ATOM     98  C   UNL A   1      43.924  25.762  34.656  1.00  0.00     0.060 A 
BRANCH  98  99
ATOM     99  S   UNL A   1      43.898  24.606  36.044  1.00  0.00     0.124 S 
ATOM    100  O   UNL A   1      43.026  25.288  36.995  1.00  0.00    -0.237 OA
ATOM    101  O   UNL A   1      43.351  23.394  35.439  1.00  0.00    -0.237 OA
ATOM    102  O   UNL A   1      45.301  24.516  36.439  1.00  0.00    -0.744 OA
ENDBRANCH  98  99
ENDBRANCH  66  91
ENDBRANCH  40  41
ENDBRANCH  32  35
ENDBRANCH  30  31
ENDBRANCH  29  30
ENDBRANCH   1  29
TORSDOF 17
ENDMDL
MODEL 2
REMARK VINA RESULT:     -12.7      2.482      9.245
REMARK SMILES Cc1nn(CC(=O)NCCCNC(=O)c2ccc(-c3c4nc(c(-c5c(F)cc(S(=O)(=O)[O-])cc5F)c5ccc([nH]5)c(-c5c(F)cc(S(=O)(=O)[O-])cc5F)c5nc(c(-c6c(F)cc(S(=O)(=O)[O-])cc6F)c6ccc3[nH]6)C=C5)C=C4)cc2)c(C)c1NS(=O)(=O)c1cccc2cccnc12
REMARK SMILES IDX 9 1 8 2 6 3 7 4 5 6 4 7 1 8 2 9 3 10 83 11 81 12 82 13 84 14
REMARK SMILES IDX 85 16 86 17 87 18 88 19 89 20 97 21 90 22 92 23 96 24 91 25
REMARK SMILES IDX 93 26 95 27 94 28 10 29 11 30 12 31 13 32 14 34 15 35 16 36
REMARK SMILES IDX 80 37 17 38 79 39 18 40 19 41 20 42 73 43 21 44 78 45 72 46
REMARK SMILES IDX 74 47 22 48 77 49 71 50 70 51 23 53 57 54 36 55 56 56 37 57
REMARK SMILES IDX 40 58 55 59 75 60 38 61 39 62 54 64 76 65 41 66 24 67 25 68
REMARK SMILES IDX 34 69 26 70 27 71 33 72 35 73 28 74 29 75 30 76 31 77 32 78
REMARK SMILES IDX 58 79 59 80 68 81 60 82 61 83 67 84 69 85 62 86 63 87 64 88
REMARK SMILES IDX 65 89 66 90 42 91 43 92 52 93 44 94 45 95 51 96 53 97 46 98
REMARK SMILES IDX 47 99 48 100 49 101 50 102
REMARK H PARENT 8 5 84 15 12 33 74 52 40 63
REMARK Flexibility Score: inf
ROOT
ATOM      1  C   UNL A   1      32.336  29.328  25.225  1.00  0.00     0.117 C 
ENDROOT
BRANCH   1   2
ATOM      2  N   UNL A   1      31.174  30.027  24.691  1.00  0.00    -0.354 N 
ATOM      3  C   UNL A   1      30.357  29.786  23.623  1.00  0.00     0.241 C 
ATOM      4  O   UNL A   1      29.227  30.291  23.732  1.00  0.00    -0.273 OA
ATOM      5  H   UNL A   1      30.928  30.831  25.201  1.00  0.00     0.163 HD
BRANCH   3   6
ATOM      6  C   UNL A   1      30.603  28.885  22.409  1.00  0.00     0.244 C 
BRANCH   6   7
ATOM      7  N   UNL A   1      30.881  27.491  22.652  1.00  0.00    -0.258 N 
ATOM      8  C   UNL A   1      33.307  24.972  22.522  1.00  0.00     0.071 C 
ATOM      9  C   UNL A   1      32.209  25.900  22.878  1.00  0.00     0.084 A 
ATOM     10  N   UNL A   1      31.924  26.905  22.043  1.00  0.00    -0.175 NA
ATOM     11  C   UNL A   1      31.327  25.936  24.003  1.00  0.00     0.093 A 
ATOM     12  C   UNL A   1      30.242  26.606  23.494  1.00  0.00     0.060 A 
ATOM     13  C   UNL A   1      28.798  26.563  23.802  1.00  0.00     0.069 C 
BRANCH  11  14
ATOM     14  N   UNL A   1      31.565  25.457  25.276  1.00  0.00    -0.276 N 
ATOM     15  H   UNL A   1      31.773  26.160  25.934  1.00  0.00     0.180 HD
BRANCH  14  16
ATOM     16  S   UNL A   1      31.565  23.925  25.906  1.00  0.00     0.264 S 
ATOM     17  O   UNL A   1      31.416  24.050  27.344  1.00  0.00    -0.201 OA
ATOM     18  O   UNL A   1      30.473  23.324  25.149  1.00  0.00    -0.201 OA
BRANCH  16  19
ATOM     19  C   UNL A   1      32.898  22.754  25.641  1.00  0.00     0.114 A 
ATOM     20  C   UNL A   1      32.378  21.436  25.666  1.00  0.00     0.024 A 
ATOM     21  C   UNL A   1      34.285  22.919  25.424  1.00  0.00     0.091 A 
ATOM     22  C   UNL A   1      33.147  20.334  25.328  1.00  0.00     0.002 A 
ATOM     23  C   UNL A   1      34.965  21.816  24.835  1.00  0.00     0.002 A 
ATOM     24  N   UNL A   1      35.079  23.942  25.827  1.00  0.00    -0.255 NA
ATOM     25  C   UNL A   1      34.402  20.544  24.804  1.00  0.00     0.010 A 
ATOM     26  C   UNL A   1      36.284  21.930  24.381  1.00  0.00     0.012 A 
ATOM     27  C   UNL A   1      36.426  23.900  25.597  1.00  0.00     0.112 A 
ATOM     28  C   UNL A   1      37.053  22.989  24.794  1.00  0.00     0.021 A 
ENDBRANCH  16  19
ENDBRANCH  14  16
ENDBRANCH  11  14
ENDBRANCH   6   7
ENDBRANCH   3   6
ENDBRANCH   1   2
BRANCH   1  29
ATOM     29  C   UNL A   1      32.356  29.059  26.728  1.00  0.00     0.042 C 
BRANCH  29  30
ATOM     30  C   UNL A   1      33.616  29.548  27.407  1.00  0.00     0.118 C 
BRANCH  30  31
ATOM     31  N   UNL A   1      33.981  30.954  27.147  1.00  0.00    -0.352 N 
ATOM     32  C   UNL A   1      35.095  31.639  27.660  1.00  0.00     0.251 C 
ATOM     33  H   UNL A   1      33.384  31.464  26.553  1.00  0.00     0.163 HD
ATOM     34  O   UNL A   1      35.187  32.843  27.627  1.00  0.00    -0.269 OA
BRANCH  32  35
ATOM     35  C   UNL A   1      36.178  30.797  28.220  1.00  0.00     0.039 A 
ATOM     36  C   UNL A   1      36.426  29.474  27.842  1.00  0.00     0.014 A 
ATOM     37  C   UNL A   1      37.067  31.486  29.023  1.00  0.00     0.014 A 
ATOM     38  C   UNL A   1      37.652  28.903  28.203  1.00  0.00     0.010 A 
ATOM     39  C   UNL A   1      38.356  31.055  29.052  1.00  0.00     0.010 A 
ATOM     40  C   UNL A   1      38.626  29.722  28.790  1.00  0.00    -0.014 A 
BRANCH  40  41
ATOM     41  C   UNL A   1      39.982  29.294  29.109  1.00  0.00     0.031 A 
ATOM     42  C   UNL A   1      40.244  29.061  30.554  1.00  0.00     0.074 A 
ATOM     43  C   UNL A   1      40.802  28.834  28.131  1.00  0.00     0.049 A 
ATOM     44  N   UNL A   1      41.000  29.748  31.345  1.00  0.00    -0.248 NA
ATOM     45  C   UNL A   1      39.442  28.040  31.251  1.00  0.00     0.031 C 
ATOM     46  C   UNL A   1      40.521  28.680  26.690  1.00  0.00     0.029 A 
ATOM     47  N   UNL A   1      42.028  28.263  28.237  1.00  0.00    -0.354 N 
ATOM     48  C   UNL A   1      40.979  29.078  32.567  1.00  0.00     0.074 A 
ATOM     49  C   UNL A   1      39.832  28.213  32.517  1.00  0.00     0.031 C 
ATOM     50  C   UNL A   1      41.414  27.836  26.133  1.00  0.00     0.029 A 
ATOM     51  C   UNL A   1      42.445  27.558  27.108  1.00  0.00     0.049 A 
ATOM     52  H   UNL A   1      42.581  28.341  29.047  1.00  0.00     0.167 HD
ATOM     53  C   UNL A   1      42.065  29.084  33.394  1.00  0.00     0.037 A 
ATOM     54  C   UNL A   1      43.557  26.788  26.999  1.00  0.00     0.037 A 
ATOM     55  C   UNL A   1      43.013  30.092  32.974  1.00  0.00     0.049 A 
ATOM     56  C   UNL A   1      44.467  27.211  28.097  1.00  0.00     0.074 A 
ATOM     57  C   UNL A   1      42.965  31.462  32.796  1.00  0.00     0.029 A 
ATOM     58  N   UNL A   1      44.119  29.667  32.275  1.00  0.00    -0.354 N 
ATOM     59  N   UNL A   1      44.994  28.406  28.177  1.00  0.00    -0.248 NA
ATOM     60  C   UNL A   1      44.373  26.489  29.357  1.00  0.00     0.031 C 
ATOM     61  C   UNL A   1      43.725  31.704  31.612  1.00  0.00     0.029 A 
ATOM     62  C   UNL A   1      44.266  30.490  31.187  1.00  0.00     0.049 A 
ATOM     63  H   UNL A   1      44.702  28.909  32.512  1.00  0.00     0.167 HD
ATOM     64  C   UNL A   1      44.906  28.750  29.520  1.00  0.00     0.074 A 
ATOM     65  C   UNL A   1      44.580  27.499  30.207  1.00  0.00     0.031 C 
ATOM     66  C   UNL A   1      44.805  30.057  29.914  1.00  0.00     0.037 A 
BRANCH  53  67
ATOM     67  C   UNL A   1      42.478  27.948  34.312  1.00  0.00     0.058 A 
ATOM     68  C   UNL A   1      42.454  28.166  35.709  1.00  0.00     0.135 A 
ATOM     69  C   UNL A   1      43.164  26.784  33.901  1.00  0.00     0.135 A 
ATOM     70  F   UNL A   1      41.807  29.223  36.226  1.00  0.00    -0.206 F 
ATOM     71  C   UNL A   1      43.160  27.365  36.608  1.00  0.00     0.059 A 
ATOM     72  C   UNL A   1      43.830  25.942  34.786  1.00  0.00     0.059 A 
ATOM     73  F   UNL A   1      43.307  26.442  32.616  1.00  0.00    -0.206 F 
ATOM     74  C   UNL A   1      43.869  26.270  36.129  1.00  0.00     0.060 A 
BRANCH  74  75
ATOM     75  S   UNL A   1      44.894  25.317  37.261  1.00  0.00     0.124 S 
ATOM     76  O   UNL A   1      44.283  25.642  38.544  1.00  0.00    -0.237 OA
ATOM     77  O   UNL A   1      44.691  23.956  36.779  1.00  0.00    -0.237 OA
ATOM     78  O   UNL A   1      46.231  25.862  37.041  1.00  0.00    -0.744 OA
ENDBRANCH  74  75
ENDBRANCH  53  67
BRANCH  54  79
ATOM     79  C   UNL A   1      43.703  25.500  26.265  1.00  0.00     0.058 A 
ATOM     80  C   UNL A   1      44.769  25.278  25.377  1.00  0.00     0.135 A 
ATOM     81  C   UNL A   1      42.955  24.361  26.630  1.00  0.00     0.135 A 
ATOM     82  F   UNL A   1      45.546  26.300  24.989  1.00  0.00    -0.206 F 
ATOM     83  C   UNL A   1      45.103  23.997  24.913  1.00  0.00     0.059 A 
ATOM     84  C   UNL A   1      43.265  23.077  26.178  1.00  0.00     0.059 A 
ATOM     85  F   UNL A   1      41.949  24.450  27.514  1.00  0.00    -0.206 F 
ATOM     86  C   UNL A   1      44.356  22.899  25.337  1.00  0.00     0.060 A 
BRANCH  86  87
ATOM     87  S   UNL A   1      44.885  21.228  24.878  1.00  0.00     0.124 S 
ATOM     88  O   UNL A   1      44.014  20.398  25.704  1.00  0.00    -0.237 OA
ATOM     89  O   UNL A   1      44.616  21.201  23.444  1.00  0.00    -0.237 OA
ATOM     90  O   UNL A   1      46.298  21.206  25.245  1.00  0.00    -0.744 OA
ENDBRANCH  86  87
ENDBRANCH  54  79
BRANCH  66  91
ATOM     91  C   UNL A   1      45.064  31.140  28.893  1.00  0.00     0.058 A 
ATOM     92  C   UNL A   1      44.079  31.727  28.078  1.00  0.00     0.135 A 
ATOM     93  C   UNL A   1      46.339  31.725  28.866  1.00  0.00     0.135 A 
ATOM     94  F   UNL A   1      42.811  31.303  28.115  1.00  0.00    -0.206 F 
ATOM     95  C   UNL A   1      44.357  32.817  27.248  1.00  0.00     0.059 A 
ATOM     96  C   UNL A   1      46.631  32.829  28.070  1.00  0.00     0.059 A 
ATOM     97  F   UNL A   1      47.309  31.256  29.668  1.00  0.00    -0.206 F 
ATOM     98  C   UNL A   1      45.640  33.363  27.252  1.00  0.00     0.060 A 
BRANCH  98  99
ATOM     99  S   UNL A   1      45.985  34.812  26.229  1.00  0.00     0.124 S 
ATOM    100  O   UNL A   1      47.008  34.308  25.319  1.00  0.00    -0.237 OA
ATOM    101  O   UNL A   1      44.684  35.094  25.629  1.00  0.00    -0.237 OA
ATOM    102  O   UNL A   1      46.445  35.808  27.193  1.00  0.00    -0.744 OA
ENDBRANCH  98  99
ENDBRANCH  66  91
ENDBRANCH  40  41
ENDBRANCH  32  35
ENDBRANCH  30  31
ENDBRANCH  29  30
ENDBRANCH   1  29
TORSDOF 17
ENDMDL
MODEL 3
REMARK VINA RESULT:     -12.5      2.544      3.699
REMARK SMILES Cc1nn(CC(=O)NCCCNC(=O)c2ccc(-c3c4nc(c(-c5c(F)cc(S(=O)(=O)[O-])cc5F)c5ccc([nH]5)c(-c5c(F)cc(S(=O)(=O)[O-])cc5F)c5nc(c(-c6c(F)cc(S(=O)(=O)[O-])cc6F)c6ccc3[nH]6)C=C5)C=C4)cc2)c(C)c1NS(=O)(=O)c1cccc2cccnc12
REMARK SMILES IDX 9 1 8 2 6 3 7 4 5 6 4 7 1 8 2 9 3 10 83 11 81 12 82 13 84 14
REMARK SMILES IDX 85 16 86 17 87 18 88 19 89 20 97 21 90 22 92 23 96 24 91 25
REMARK SMILES IDX 93 26 95 27 94 28 10 29 11 30 12 31 13 32 14 34 15 35 16 36
REMARK SMILES IDX 80 37 17 38 79 39 18 40 19 41 20 42 73 43 21 44 78 45 72 46
REMARK SMILES IDX 74 47 22 48 77 49 71 50 70 51 23 53 57 54 36 55 56 56 37 57
REMARK SMILES IDX 40 58 55 59 75 60 38 61 39 62 54 64 76 65 41 66 24 67 25 68
REMARK SMILES IDX 34 69 26 70 27 71 33 72 35 73 28 74 29 75 30 76 31 77 32 78
REMARK SMILES IDX 58 79 59 80 68 81 60 82 61 83 67 84 69 85 62 86 63 87 64 88
REMARK SMILES IDX 65 89 66 90 42 91 43 92 52 93 44 94 45 95 51 96 53 97 46 98
REMARK SMILES IDX 47 99 48 100 49 101 50 102
REMARK H PARENT 8 5 84 15 12 33 74 52 40 63
REMARK Flexibility Score: inf
ROOT
ATOM      1  C   UNL A   1      36.118  21.180  25.252  1.00  0.00     0.117 C 
ENDROOT
BRANCH   1   2
ATOM      2  N   UNL A   1      35.330  21.578  26.411  1.00  0.00    -0.354 N 
ATOM      3  C   UNL A   1      34.010  21.430  26.730  1.00  0.00     0.241 C 
ATOM      4  O   UNL A   1      33.782  21.462  27.952  1.00  0.00    -0.273 OA
ATOM      5  H   UNL A   1      35.852  22.045  27.102  1.00  0.00     0.163 HD
BRANCH   3   6
ATOM      6  C   UNL A   1      32.830  21.102  25.810  1.00  0.00     0.244 C 
BRANCH   6   7
ATOM      7  N   UNL A   1      32.208  22.193  25.101  1.00  0.00    -0.258 N 
ATOM      8  C   UNL A   1      30.704  25.340  25.401  1.00  0.00     0.071 C 
ATOM      9  C   UNL A   1      31.497  24.152  25.011  1.00  0.00     0.084 A 
ATOM     10  N   UNL A   1      31.412  23.049  25.763  1.00  0.00    -0.175 NA
ATOM     11  C   UNL A   1      32.388  23.926  23.915  1.00  0.00     0.093 A 
ATOM     12  C   UNL A   1      32.334  22.561  23.779  1.00  0.00     0.060 A 
ATOM     13  C   UNL A   1      32.497  21.658  22.621  1.00  0.00     0.069 C 
BRANCH  11  14
ATOM     14  N   UNL A   1      33.136  24.863  23.230  1.00  0.00    -0.276 N 
ATOM     15  H   UNL A   1      34.106  24.692  23.251  1.00  0.00     0.180 HD
BRANCH  14  16
ATOM     16  S   UNL A   1      32.711  26.220  22.379  1.00  0.00     0.264 S 
ATOM     17  O   UNL A   1      33.863  26.611  21.588  1.00  0.00    -0.201 OA
ATOM     18  O   UNL A   1      31.526  25.737  21.680  1.00  0.00    -0.201 OA
BRANCH  16  19
ATOM     19  C   UNL A   1      32.106  27.719  23.158  1.00  0.00     0.114 A 
ATOM     20  C   UNL A   1      31.057  28.265  22.377  1.00  0.00     0.024 A 
ATOM     21  C   UNL A   1      32.477  28.396  24.342  1.00  0.00     0.091 A 
ATOM     22  C   UNL A   1      30.291  29.331  22.815  1.00  0.00     0.002 A 
ATOM     23  C   UNL A   1      31.519  29.303  24.874  1.00  0.00     0.002 A 
ATOM     24  N   UNL A   1      33.681  28.394  24.965  1.00  0.00    -0.255 NA
ATOM     25  C   UNL A   1      30.453  29.769  24.111  1.00  0.00     0.010 A 
ATOM     26  C   UNL A   1      31.678  29.872  26.143  1.00  0.00     0.012 A 
ATOM     27  C   UNL A   1      33.889  29.176  26.066  1.00  0.00     0.112 A 
ATOM     28  C   UNL A   1      32.907  29.835  26.752  1.00  0.00     0.021 A 
ENDBRANCH  16  19
ENDBRANCH  14  16
ENDBRANCH  11  14
ENDBRANCH   6   7
ENDBRANCH   3   6
ENDBRANCH   1   2
BRANCH   1  29
ATOM     29  C   UNL A   1      36.949  22.264  24.569  1.00  0.00     0.042 C 
BRANCH  29  30
ATOM     30  C   UNL A   1      37.898  22.972  25.510  1.00  0.00     0.118 C 
BRANCH  30  31
ATOM     31  N   UNL A   1      38.723  22.100  26.367  1.00  0.00    -0.352 N 
ATOM     32  C   UNL A   1      39.861  22.478  27.099  1.00  0.00     0.251 C 
ATOM     33  H   UNL A   1      38.448  21.157  26.434  1.00  0.00     0.163 HD
ATOM     34  O   UNL A   1      40.635  21.671  27.556  1.00  0.00    -0.269 OA
BRANCH  32  35
ATOM     35  C   UNL A   1      40.048  23.932  27.310  1.00  0.00     0.039 A 
ATOM     36  C   UNL A   1      39.016  24.875  27.271  1.00  0.00     0.014 A 
ATOM     37  C   UNL A   1      41.312  24.279  27.748  1.00  0.00     0.014 A 
ATOM     38  C   UNL A   1      39.266  26.149  27.794  1.00  0.00     0.010 A 
ATOM     39  C   UNL A   1      41.424  25.367  28.554  1.00  0.00     0.010 A 
ATOM     40  C   UNL A   1      40.477  26.373  28.462  1.00  0.00    -0.014 A 
BRANCH  40  41
ATOM     41  C   UNL A   1      40.822  27.609  29.155  1.00  0.00     0.031 A 
ATOM     42  C   UNL A   1      41.892  28.415  28.507  1.00  0.00     0.074 A 
ATOM     43  C   UNL A   1      39.996  28.113  30.105  1.00  0.00     0.049 A 
ATOM     44  N   UNL A   1      43.089  28.635  28.937  1.00  0.00    -0.248 NA
ATOM     45  C   UNL A   1      41.663  28.901  27.136  1.00  0.00     0.031 C 
ATOM     46  C   UNL A   1      38.707  27.578  30.583  1.00  0.00     0.029 A 
ATOM     47  N   UNL A   1      40.060  29.304  30.754  1.00  0.00    -0.354 N 
ATOM     48  C   UNL A   1      43.666  29.513  28.020  1.00  0.00     0.074 A 
ATOM     49  C   UNL A   1      42.852  29.430  26.838  1.00  0.00     0.031 C 
ATOM     50  C   UNL A   1      38.012  28.545  31.219  1.00  0.00     0.029 A 
ATOM     51  C   UNL A   1      38.877  29.693  31.382  1.00  0.00     0.049 A 
ATOM     52  H   UNL A   1      40.878  29.850  30.780  1.00  0.00     0.167 HD
ATOM     53  C   UNL A   1      44.589  30.439  28.414  1.00  0.00     0.037 A 
ATOM     54  C   UNL A   1      38.631  30.887  31.978  1.00  0.00     0.037 A 
ATOM     55  C   UNL A   1      45.064  30.142  29.747  1.00  0.00     0.049 A 
ATOM     56  C   UNL A   1      39.960  31.493  32.260  1.00  0.00     0.074 A 
ATOM     57  C   UNL A   1      45.687  29.061  30.341  1.00  0.00     0.029 A 
ATOM     58  N   UNL A   1      44.548  30.888  30.782  1.00  0.00    -0.354 N 
ATOM     59  N   UNL A   1      40.830  30.973  33.087  1.00  0.00    -0.248 NA
ATOM     60  C   UNL A   1      40.518  32.377  31.248  1.00  0.00     0.031 C 
ATOM     61  C   UNL A   1      45.083  28.953  31.630  1.00  0.00     0.029 A 
ATOM     62  C   UNL A   1      44.195  30.020  31.784  1.00  0.00     0.049 A 
ATOM     63  H   UNL A   1      44.450  31.867  30.801  1.00  0.00     0.167 HD
ATOM     64  C   UNL A   1      42.059  31.115  32.455  1.00  0.00     0.074 A 
ATOM     65  C   UNL A   1      41.810  32.052  31.358  1.00  0.00     0.031 C 
ATOM     66  C   UNL A   1      43.083  30.237  32.686  1.00  0.00     0.037 A 
BRANCH  53  67
ATOM     67  C   UNL A   1      44.770  31.816  27.801  1.00  0.00     0.058 A 
ATOM     68  C   UNL A   1      45.953  32.082  27.075  1.00  0.00     0.135 A 
ATOM     69  C   UNL A   1      44.002  32.955  28.129  1.00  0.00     0.135 A 
ATOM     70  F   UNL A   1      46.753  31.078  26.678  1.00  0.00    -0.206 F 
ATOM     71  C   UNL A   1      46.400  33.377  26.811  1.00  0.00     0.059 A 
ATOM     72  C   UNL A   1      44.402  34.254  27.829  1.00  0.00     0.059 A 
ATOM     73  F   UNL A   1      42.870  32.887  28.837  1.00  0.00    -0.206 F 
ATOM     74  C   UNL A   1      45.627  34.458  27.219  1.00  0.00     0.060 A 
BRANCH  74  75
ATOM     75  S   UNL A   1      46.262  36.129  27.008  1.00  0.00     0.124 S 
ATOM     76  O   UNL A   1      45.027  36.895  26.903  1.00  0.00    -0.237 OA
ATOM     77  O   UNL A   1      47.030  36.316  28.234  1.00  0.00    -0.237 OA
ATOM     78  O   UNL A   1      47.055  36.034  25.786  1.00  0.00    -0.744 OA
ENDBRANCH  74  75
ENDBRANCH  53  67
BRANCH  54  79
ATOM     79  C   UNL A   1      37.361  31.665  31.965  1.00  0.00     0.058 A 
ATOM     80  C   UNL A   1      36.727  32.054  33.157  1.00  0.00     0.135 A 
ATOM     81  C   UNL A   1      36.892  32.281  30.786  1.00  0.00     0.135 A 
ATOM     82  F   UNL A   1      37.120  31.535  34.329  1.00  0.00    -0.206 F 
ATOM     83  C   UNL A   1      35.719  33.029  33.185  1.00  0.00     0.059 A 
ATOM     84  C   UNL A   1      35.886  33.249  30.788  1.00  0.00     0.059 A 
ATOM     85  F   UNL A   1      37.462  32.022  29.598  1.00  0.00    -0.206 F 
ATOM     86  C   UNL A   1      35.319  33.636  31.995  1.00  0.00     0.060 A 
BRANCH  86  87
ATOM     87  S   UNL A   1      34.142  35.011  32.045  1.00  0.00     0.124 S 
ATOM     88  O   UNL A   1      34.901  36.034  32.757  1.00  0.00    -0.237 OA
ATOM     89  O   UNL A   1      33.904  35.268  30.628  1.00  0.00    -0.237 OA
ATOM     90  O   UNL A   1      33.004  34.458  32.775  1.00  0.00    -0.744 OA
ENDBRANCH  86  87
ENDBRANCH  54  79
BRANCH  66  91
ATOM     91  C   UNL A   1      42.958  29.271  33.841  1.00  0.00     0.058 A 
ATOM     92  C   UNL A   1      42.425  27.972  33.747  1.00  0.00     0.135 A 
ATOM     93  C   UNL A   1      43.563  29.620  35.057  1.00  0.00     0.135 A 
ATOM     94  F   UNL A   1      41.921  27.516  32.594  1.00  0.00    -0.206 F 
ATOM     95  C   UNL A   1      42.458  27.077  34.820  1.00  0.00     0.059 A 
ATOM     96  C   UNL A   1      43.635  28.735  36.130  1.00  0.00     0.059 A 
ATOM     97  F   UNL A   1      44.150  30.820  35.195  1.00  0.00    -0.206 F 
ATOM     98  C   UNL A   1      43.068  27.469  36.010  1.00  0.00     0.060 A 
BRANCH  98  99
ATOM     99  S   UNL A   1      43.170  26.293  37.378  1.00  0.00     0.124 S 
ATOM    100  O   UNL A   1      44.092  26.961  38.290  1.00  0.00    -0.237 OA
ATOM    101  O   UNL A   1      41.783  26.207  37.828  1.00  0.00    -0.237 OA
ATOM    102  O   UNL A   1      43.687  25.081  36.747  1.00  0.00    -0.744 OA
ENDBRANCH  98  99
ENDBRANCH  66  91
ENDBRANCH  40  41
ENDBRANCH  32  35
ENDBRANCH  30  31
ENDBRANCH  29  30
ENDBRANCH   1  29
TORSDOF 17
ENDMDL
