MODEL 1
REMARK VINA RESULT:     -13.0      0.000      0.000
REMARK SMILES CCn1ccc2cc(S(=O)(=O)N3CCC[C@@H](C(=O)NCCCNC(=O)c4ccc(-c5c6nc(c(-c7c(F)cc(S(=O)(=O)[O-])cc7F)c7ccc([nH]7)c(-c7c(F)cc(S(=O)(=O)[O-])cc7F)c7nc(c(-c8c(F)cc(S(=O)(=O)[O-])cc8F)c8ccc5[nH]8)C=C7)C=C6)cc4)C3)ccc21
REMARK SMILES IDX 21 1 20 2 19 3 17 4 18 5 16 7 12 8 13 9 92 10 14 11 15 12
REMARK SMILES IDX 9 13 10 14 11 15 8 16 3 17 4 18 95 19 5 20 6 21 94 22 7 23
REMARK SMILES IDX 93 24 2 25 1 26 22 27 23 28 24 29 25 31 26 32 27 33 91 34
REMARK SMILES IDX 28 35 90 36 29 37 30 38 31 39 84 40 32 41 89 42 83 43 85 44
REMARK SMILES IDX 33 45 88 46 82 47 81 48 34 50 68 51 47 52 67 53 48 54 51 55
REMARK SMILES IDX 66 56 86 57 49 58 50 59 65 61 87 62 52 63 35 64 36 65 45 66
REMARK SMILES IDX 37 67 38 68 44 69 46 70 39 71 40 72 41 73 42 74 43 75 69 76
REMARK SMILES IDX 70 77 79 78 71 79 72 80 78 81 80 82 73 83 74 84 75 85 76 86
REMARK SMILES IDX 77 87 53 88 54 89 63 90 55 91 56 92 62 93 64 94 57 95 58 96
REMARK SMILES IDX 59 97 60 98 61 99
REMARK H PARENT 19 6 23 30 85 49 51 60
REMARK Flexibility Score: inf
ROOT
ATOM      1  C   UNL A   1      32.241  29.843  26.955  1.00  0.00     0.042 C 
ENDROOT
BRANCH   1   2
ATOM      2  C   UNL A   1      32.437  28.490  27.631  1.00  0.00     0.117 C 
BRANCH   2   3
ATOM      3  N   UNL A   1      31.361  27.556  27.340  1.00  0.00    -0.356 N 
ATOM      4  C   UNL A   1      31.200  26.695  26.300  1.00  0.00     0.224 C 
ATOM      5  O   UNL A   1      30.199  25.975  26.303  1.00  0.00    -0.275 OA
ATOM      6  H   UNL A   1      30.632  27.546  28.002  1.00  0.00     0.163 HD
BRANCH   4   7
ATOM      7  C   UNL A   1      32.257  26.609  25.208  1.00  0.00     0.093 C 
ATOM      8  N   UNL A   1      33.283  24.941  23.633  1.00  0.00    -0.197 NA
ATOM      9  C   UNL A   1      33.017  25.801  22.460  1.00  0.00     0.102 C 
ATOM     10  C   UNL A   1      32.468  25.138  24.858  1.00  0.00     0.116 C 
ATOM     11  C   UNL A   1      32.834  27.256  22.863  1.00  0.00     0.018 C 
ATOM     12  C   UNL A   1      31.803  27.393  23.972  1.00  0.00     0.016 C 
BRANCH   8  13
ATOM     13  S   UNL A   1      33.755  23.332  23.297  1.00  0.00     0.243 S 
ATOM     14  O   UNL A   1      34.104  23.274  21.887  1.00  0.00    -0.207 OA
ATOM     15  O   UNL A   1      32.772  22.451  23.874  1.00  0.00    -0.207 OA
BRANCH  13  16
ATOM     16  C   UNL A   1      35.277  23.020  24.180  1.00  0.00     0.083 A 
ATOM     17  N   UNL A   1      38.775  21.815  26.027  1.00  0.00    -0.348 N 
ATOM     18  C   UNL A   1      38.862  20.502  25.648  1.00  0.00     0.087 A 
ATOM     19  C   UNL A   1      37.643  22.392  25.490  1.00  0.00     0.048 A 
ATOM     20  C   UNL A   1      37.783  20.222  24.841  1.00  0.00     0.028 A 
ATOM     21  C   UNL A   1      37.002  21.406  24.735  1.00  0.00     0.001 A 
ATOM     22  C   UNL A   1      37.132  23.691  25.600  1.00  0.00     0.028 A 
ATOM     23  C   UNL A   1      35.807  21.725  24.063  1.00  0.00     0.032 A 
ATOM     24  C   UNL A   1      35.933  23.984  24.944  1.00  0.00     0.024 A 
BRANCH  17  25
ATOM     25  C   UNL A   1      39.735  22.483  26.891  1.00  0.00     0.119 C 
ATOM     26  C   UNL A   1      40.670  21.502  27.575  1.00  0.00     0.027 C 
ENDBRANCH  17  25
ENDBRANCH  13  16
ENDBRANCH   8  13
ENDBRANCH   4   7
ENDBRANCH   2   3
ENDBRANCH   1   2
BRANCH   1  27
ATOM     27  C   UNL A   1      33.459  30.769  26.992  1.00  0.00     0.118 C 
BRANCH  27  28
ATOM     28  N   UNL A   1      33.647  31.471  28.244  1.00  0.00    -0.352 N 
ATOM     29  C   UNL A   1      34.730  31.747  29.036  1.00  0.00     0.251 C 
ATOM     30  H   UNL A   1      32.808  31.831  28.609  1.00  0.00     0.163 HD
ATOM     31  O   UNL A   1      34.537  32.567  29.938  1.00  0.00    -0.269 OA
BRANCH  29  32
ATOM     32  C   UNL A   1      36.069  31.103  28.921  1.00  0.00     0.039 A 
ATOM     33  C   UNL A   1      36.300  29.737  28.760  1.00  0.00     0.014 A 
ATOM     34  C   UNL A   1      37.182  31.953  29.073  1.00  0.00     0.014 A 
ATOM     35  C   UNL A   1      37.590  29.221  28.853  1.00  0.00     0.010 A 
ATOM     36  C   UNL A   1      38.477  31.444  29.142  1.00  0.00     0.010 A 
ATOM     37  C   UNL A   1      38.674  30.068  29.086  1.00  0.00    -0.014 A 
BRANCH  37  38
ATOM     38  C   UNL A   1      39.990  29.451  29.232  1.00  0.00     0.031 A 
ATOM     39  C   UNL A   1      40.449  29.198  30.630  1.00  0.00     0.074 A 
ATOM     40  C   UNL A   1      40.746  29.046  28.193  1.00  0.00     0.049 A 
ATOM     41  N   UNL A   1      41.471  29.697  31.250  1.00  0.00    -0.248 NA
ATOM     42  C   UNL A   1      39.610  28.327  31.465  1.00  0.00     0.031 C 
ATOM     43  C   UNL A   1      40.368  28.936  26.781  1.00  0.00     0.029 A 
ATOM     44  N   UNL A   1      42.016  28.549  28.212  1.00  0.00    -0.354 N 
ATOM     45  C   UNL A   1      41.515  29.066  32.493  1.00  0.00     0.074 A 
ATOM     46  C   UNL A   1      40.284  28.326  32.615  1.00  0.00     0.031 C 
ATOM     47  C   UNL A   1      41.302  28.211  26.127  1.00  0.00     0.029 A 
ATOM     48  C   UNL A   1      42.403  27.930  27.033  1.00  0.00     0.049 A 
ATOM     49  H   UNL A   1      42.607  28.624  28.996  1.00  0.00     0.167 HD
ATOM     50  C   UNL A   1      42.632  29.052  33.275  1.00  0.00     0.037 A 
ATOM     51  C   UNL A   1      43.516  27.179  26.845  1.00  0.00     0.037 A 
ATOM     52  C   UNL A   1      43.573  30.070  32.893  1.00  0.00     0.049 A 
ATOM     53  C   UNL A   1      44.494  27.556  27.896  1.00  0.00     0.074 A 
ATOM     54  C   UNL A   1      43.550  31.451  32.835  1.00  0.00     0.029 A 
ATOM     55  N   UNL A   1      44.687  29.696  32.182  1.00  0.00    -0.354 N 
ATOM     56  N   UNL A   1      45.086  28.716  27.972  1.00  0.00    -0.248 NA
ATOM     57  C   UNL A   1      44.538  26.756  29.110  1.00  0.00     0.031 C 
ATOM     58  C   UNL A   1      44.344  31.791  31.700  1.00  0.00     0.029 A 
ATOM     59  C   UNL A   1      44.824  30.599  31.157  1.00  0.00     0.049 A 
ATOM     60  H   UNL A   1      45.274  28.928  32.372  1.00  0.00     0.167 HD
ATOM     61  C   UNL A   1      45.208  28.967  29.330  1.00  0.00     0.074 A 
ATOM     62  C   UNL A   1      44.956  27.681  29.975  1.00  0.00     0.031 C 
ATOM     63  C   UNL A   1      45.240  30.242  29.818  1.00  0.00     0.037 A 
BRANCH  50  64
ATOM     64  C   UNL A   1      42.996  27.925  34.210  1.00  0.00     0.058 A 
ATOM     65  C   UNL A   1      43.088  28.154  35.599  1.00  0.00     0.135 A 
ATOM     66  C   UNL A   1      43.517  26.690  33.762  1.00  0.00     0.135 A 
ATOM     67  F   UNL A   1      42.643  29.302  36.132  1.00  0.00    -0.206 F 
ATOM     68  C   UNL A   1      43.699  27.246  36.468  1.00  0.00     0.059 A 
ATOM     69  C   UNL A   1      44.082  25.749  34.616  1.00  0.00     0.059 A 
ATOM     70  F   UNL A   1      43.585  26.384  32.459  1.00  0.00    -0.206 F 
ATOM     71  C   UNL A   1      44.206  26.052  35.962  1.00  0.00     0.060 A 
BRANCH  71  72
ATOM     72  S   UNL A   1      45.097  24.933  37.059  1.00  0.00     0.124 S 
ATOM     73  O   UNL A   1      44.685  23.633  36.545  1.00  0.00    -0.237 OA
ATOM     74  O   UNL A   1      46.486  25.307  36.812  1.00  0.00    -0.237 OA
ATOM     75  O   UNL A   1      44.587  25.282  38.381  1.00  0.00    -0.744 OA
ENDBRANCH  71  72
ENDBRANCH  50  64
BRANCH  51  76
ATOM     76  C   UNL A   1      43.630  25.910  26.077  1.00  0.00     0.058 A 
ATOM     77  C   UNL A   1      44.769  25.646  25.295  1.00  0.00     0.135 A 
ATOM     78  C   UNL A   1      42.786  24.812  26.337  1.00  0.00     0.135 A 
ATOM     79  F   UNL A   1      45.636  26.630  25.009  1.00  0.00    -0.206 F 
ATOM     80  C   UNL A   1      45.093  24.356  24.864  1.00  0.00     0.059 A 
ATOM     81  C   UNL A   1      43.080  23.521  25.904  1.00  0.00     0.059 A 
ATOM     82  F   UNL A   1      41.698  24.939  27.111  1.00  0.00    -0.206 F 
ATOM     83  C   UNL A   1      44.254  23.295  25.198  1.00  0.00     0.060 A 
BRANCH  83  84
ATOM     84  S   UNL A   1      44.774  21.604  24.831  1.00  0.00     0.124 S 
ATOM     85  O   UNL A   1      44.581  21.536  23.386  1.00  0.00    -0.237 OA
ATOM     86  O   UNL A   1      46.159  21.603  25.291  1.00  0.00    -0.237 OA
ATOM     87  O   UNL A   1      43.858  20.787  25.622  1.00  0.00    -0.744 OA
ENDBRANCH  83  84
ENDBRANCH  51  76
BRANCH  63  88
ATOM     88  C   UNL A   1      45.465  31.368  28.841  1.00  0.00     0.058 A 
ATOM     89  C   UNL A   1      46.732  31.872  28.490  1.00  0.00     0.135 A 
ATOM     90  C   UNL A   1      44.360  31.884  28.146  1.00  0.00     0.135 A 
ATOM     91  F   UNL A   1      47.850  31.355  29.019  1.00  0.00    -0.206 F 
ATOM     92  C   UNL A   1      46.884  32.883  27.540  1.00  0.00     0.059 A 
ATOM     93  C   UNL A   1      44.492  32.869  27.169  1.00  0.00     0.059 A 
ATOM     94  F   UNL A   1      43.130  31.399  28.384  1.00  0.00    -0.206 F 
ATOM     95  C   UNL A   1      45.757  33.378  26.885  1.00  0.00     0.060 A 
BRANCH  95  96
ATOM     96  S   UNL A   1      45.966  34.646  25.616  1.00  0.00     0.124 S 
ATOM     97  O   UNL A   1      45.021  34.215  24.591  1.00  0.00    -0.237 OA
ATOM     98  O   UNL A   1      45.615  35.869  26.332  1.00  0.00    -0.237 OA
ATOM     99  O   UNL A   1      47.376  34.534  25.249  1.00  0.00    -0.744 OA
ENDBRANCH  95  96
ENDBRANCH  63  88
ENDBRANCH  37  38
ENDBRANCH  29  32
ENDBRANCH  27  28
ENDBRANCH   1  27
TORSDOF 16
ENDMDL
MODEL 2
REMARK VINA RESULT:     -12.7      1.305      2.302
REMARK SMILES CCn1ccc2cc(S(=O)(=O)N3CCC[C@@H](C(=O)NCCCNC(=O)c4ccc(-c5c6nc(c(-c7c(F)cc(S(=O)(=O)[O-])cc7F)c7ccc([nH]7)c(-c7c(F)cc(S(=O)(=O)[O-])cc7F)c7nc(c(-c8c(F)cc(S(=O)(=O)[O-])cc8F)c8ccc5[nH]8)C=C7)C=C6)cc4)C3)ccc21
REMARK SMILES IDX 21 1 20 2 19 3 17 4 18 5 16 7 12 8 13 9 92 10 14 11 15 12
REMARK SMILES IDX 9 13 10 14 11 15 8 16 3 17 4 18 95 19 5 20 6 21 94 22 7 23
REMARK SMILES IDX 93 24 2 25 1 26 22 27 23 28 24 29 25 31 26 32 27 33 91 34
REMARK SMILES IDX 28 35 90 36 29 37 30 38 31 39 84 40 32 41 89 42 83 43 85 44
REMARK SMILES IDX 33 45 88 46 82 47 81 48 34 50 68 51 47 52 67 53 48 54 51 55
REMARK SMILES IDX 66 56 86 57 49 58 50 59 65 61 87 62 52 63 35 64 36 65 45 66
REMARK SMILES IDX 37 67 38 68 44 69 46 70 39 71 40 72 41 73 42 74 43 75 69 76
REMARK SMILES IDX 70 77 79 78 71 79 72 80 78 81 80 82 73 83 74 84 75 85 76 86
REMARK SMILES IDX 77 87 53 88 54 89 63 90 55 91 56 92 62 93 64 94 57 95 58 96
REMARK SMILES IDX 59 97 60 98 61 99
REMARK H PARENT 19 6 23 30 85 49 51 60
REMARK Flexibility Score: inf
ROOT
ATOM      1  C   UNL A   1      33.483  29.064  27.012  1.00  0.00     0.042 C 
ENDROOT
BRANCH   1   2
ATOM      2  C   UNL A   1      31.997  29.136  27.345  1.00  0.00     0.117 C 
BRANCH   2   3
ATOM      3  N   UNL A   1      31.366  27.827  27.384  1.00  0.00    -0.356 N 
ATOM      4  C   UNL A   1      30.974  27.009  26.371  1.00  0.00     0.224 C 
ATOM      5  O   UNL A   1      30.485  25.918  26.674  1.00  0.00    -0.275 OA
ATOM      6  H   UNL A   1      31.193  27.477  28.288  1.00  0.00     0.163 HD
BRANCH   4   7
ATOM      7  C   UNL A   1      31.186  27.428  24.924  1.00  0.00     0.093 C 
ATOM      8  N   UNL A   1      32.188  26.569  22.784  1.00  0.00    -0.197 NA
ATOM      9  C   UNL A   1      30.938  26.817  22.035  1.00  0.00     0.102 C 
ATOM     10  C   UNL A   1      32.111  26.412  24.259  1.00  0.00     0.116 C 
ATOM     11  C   UNL A   1      30.063  27.849  22.730  1.00  0.00     0.018 C 
ATOM     12  C   UNL A   1      29.842  27.487  24.189  1.00  0.00     0.016 C 
BRANCH   8  13
ATOM     13  S   UNL A   1      33.370  25.623  21.990  1.00  0.00     0.243 S 
ATOM     14  O   UNL A   1      34.667  26.183  22.334  1.00  0.00    -0.207 OA
ATOM     15  O   UNL A   1      32.955  25.449  20.622  1.00  0.00    -0.207 OA
BRANCH  13  16
ATOM     16  C   UNL A   1      33.342  23.995  22.725  1.00  0.00     0.083 A 
ATOM     17  N   UNL A   1      33.770  20.321  24.574  1.00  0.00    -0.348 N 
ATOM     18  C   UNL A   1      35.071  20.365  25.002  1.00  0.00     0.087 A 
ATOM     19  C   UNL A   1      33.444  21.491  23.921  1.00  0.00     0.048 A 
ATOM     20  C   UNL A   1      35.594  21.584  24.639  1.00  0.00     0.028 A 
ATOM     21  C   UNL A   1      34.580  22.305  23.952  1.00  0.00     0.001 A 
ATOM     22  C   UNL A   1      32.252  21.903  23.311  1.00  0.00     0.028 A 
ATOM     23  C   UNL A   1      34.527  23.578  23.354  1.00  0.00     0.032 A 
ATOM     24  C   UNL A   1      32.225  23.161  22.704  1.00  0.00     0.024 A 
BRANCH  17  25
ATOM     25  C   UNL A   1      32.882  19.186  24.768  1.00  0.00     0.119 C 
ATOM     26  C   UNL A   1      32.645  18.417  23.480  1.00  0.00     0.027 C 
ENDBRANCH  17  25
ENDBRANCH  13  16
ENDBRANCH   8  13
ENDBRANCH   4   7
ENDBRANCH   2   3
ENDBRANCH   1   2
BRANCH   1  27
ATOM     27  C   UNL A   1      34.195  30.416  26.923  1.00  0.00     0.118 C 
BRANCH  27  28
ATOM     28  N   UNL A   1      34.023  31.267  28.082  1.00  0.00    -0.352 N 
ATOM     29  C   UNL A   1      34.853  31.716  29.073  1.00  0.00     0.251 C 
ATOM     30  H   UNL A   1      33.102  31.598  28.179  1.00  0.00     0.163 HD
ATOM     31  O   UNL A   1      34.398  32.614  29.786  1.00  0.00    -0.269 OA
BRANCH  29  32
ATOM     32  C   UNL A   1      36.208  31.172  29.376  1.00  0.00     0.039 A 
ATOM     33  C   UNL A   1      37.396  31.902  29.361  1.00  0.00     0.014 A 
ATOM     34  C   UNL A   1      36.281  29.784  29.613  1.00  0.00     0.014 A 
ATOM     35  C   UNL A   1      38.624  31.256  29.473  1.00  0.00     0.010 A 
ATOM     36  C   UNL A   1      37.507  29.138  29.751  1.00  0.00     0.010 A 
ATOM     37  C   UNL A   1      38.683  29.870  29.626  1.00  0.00    -0.014 A 
BRANCH  37  38
ATOM     38  C   UNL A   1      40.008  29.255  29.677  1.00  0.00     0.031 A 
ATOM     39  C   UNL A   1      40.599  29.072  31.036  1.00  0.00     0.074 A 
ATOM     40  C   UNL A   1      40.660  28.792  28.593  1.00  0.00     0.049 A 
ATOM     41  N   UNL A   1      41.675  29.598  31.528  1.00  0.00    -0.248 NA
ATOM     42  C   UNL A   1      39.844  28.251  31.993  1.00  0.00     0.031 C 
ATOM     43  C   UNL A   1      40.148  28.611  27.232  1.00  0.00     0.029 A 
ATOM     44  N   UNL A   1      41.926  28.291  28.516  1.00  0.00    -0.354 N 
ATOM     45  C   UNL A   1      41.839  29.033  32.792  1.00  0.00     0.074 A 
ATOM     46  C   UNL A   1      40.626  28.307  33.071  1.00  0.00     0.031 C 
ATOM     47  C   UNL A   1      41.015  27.848  26.530  1.00  0.00     0.029 A 
ATOM     48  C   UNL A   1      42.198  27.609  27.340  1.00  0.00     0.049 A 
ATOM     49  H   UNL A   1      42.589  28.403  29.235  1.00  0.00     0.167 HD
ATOM     50  C   UNL A   1      43.026  29.055  33.463  1.00  0.00     0.037 A 
ATOM     51  C   UNL A   1      43.287  26.843  27.085  1.00  0.00     0.037 A 
ATOM     52  C   UNL A   1      43.926  30.046  32.939  1.00  0.00     0.049 A 
ATOM     53  C   UNL A   1      44.362  27.270  28.016  1.00  0.00     0.074 A 
ATOM     54  C   UNL A   1      43.898  31.422  32.811  1.00  0.00     0.029 A 
ATOM     55  N   UNL A   1      44.966  29.630  32.146  1.00  0.00    -0.354 N 
ATOM     56  N   UNL A   1      44.958  28.429  27.974  1.00  0.00    -0.248 NA
ATOM     57  C   UNL A   1      44.523  26.534  29.261  1.00  0.00     0.031 C 
ATOM     58  C   UNL A   1      44.579  31.698  31.589  1.00  0.00     0.029 A 
ATOM     59  C   UNL A   1      45.004  30.477  31.066  1.00  0.00     0.049 A 
ATOM     60  H   UNL A   1      45.569  28.871  32.318  1.00  0.00     0.167 HD
ATOM     61  C   UNL A   1      45.210  28.751  29.299  1.00  0.00     0.074 A 
ATOM     62  C   UNL A   1      45.022  27.502  30.032  1.00  0.00     0.031 C 
ATOM     63  C   UNL A   1      45.289  30.049  29.714  1.00  0.00     0.037 A 
BRANCH  50  64
ATOM     64  C   UNL A   1      43.478  27.976  34.417  1.00  0.00     0.058 A 
ATOM     65  C   UNL A   1      43.749  28.287  35.766  1.00  0.00     0.135 A 
ATOM     66  C   UNL A   1      43.910  26.700  33.988  1.00  0.00     0.135 A 
ATOM     67  F   UNL A   1      43.401  29.479  36.275  1.00  0.00    -0.206 F 
ATOM     68  C   UNL A   1      44.443  27.416  36.609  1.00  0.00     0.059 A 
ATOM     69  C   UNL A   1      44.556  25.796  34.825  1.00  0.00     0.059 A 
ATOM     70  F   UNL A   1      43.808  26.314  32.709  1.00  0.00    -0.206 F 
ATOM     71  C   UNL A   1      44.855  26.177  36.123  1.00  0.00     0.060 A 
BRANCH  71  72
ATOM     72  S   UNL A   1      45.851  25.101  37.171  1.00  0.00     0.124 S 
ATOM     73  O   UNL A   1      45.167  25.232  38.453  1.00  0.00    -0.237 OA
ATOM     74  O   UNL A   1      45.712  23.811  36.502  1.00  0.00    -0.237 OA
ATOM     75  O   UNL A   1      47.180  25.698  37.099  1.00  0.00    -0.744 OA
ENDBRANCH  71  72
ENDBRANCH  50  64
BRANCH  51  76
ATOM     76  C   UNL A   1      43.327  25.535  26.377  1.00  0.00     0.058 A 
ATOM     77  C   UNL A   1      44.209  25.330  25.301  1.00  0.00     0.135 A 
ATOM     78  C   UNL A   1      42.741  24.379  26.931  1.00  0.00     0.135 A 
ATOM     79  F   UNL A   1      44.823  26.373  24.722  1.00  0.00    -0.206 F 
ATOM     80  C   UNL A   1      44.549  24.051  24.851  1.00  0.00     0.059 A 
ATOM     81  C   UNL A   1      43.052  23.096  26.489  1.00  0.00     0.059 A 
ATOM     82  F   UNL A   1      41.922  24.453  27.990  1.00  0.00    -0.206 F 
ATOM     83  C   UNL A   1      43.985  22.938  25.472  1.00  0.00     0.060 A 
BRANCH  83  84
ATOM     84  S   UNL A   1      44.579  21.286  25.042  1.00  0.00     0.124 S 
ATOM     85  O   UNL A   1      43.585  20.431  25.682  1.00  0.00    -0.237 OA
ATOM     86  O   UNL A   1      44.549  21.321  23.584  1.00  0.00    -0.237 OA
ATOM     87  O   UNL A   1      45.914  21.242  25.633  1.00  0.00    -0.744 OA
ENDBRANCH  83  84
ENDBRANCH  51  76
BRANCH  63  88
ATOM     88  C   UNL A   1      45.419  31.122  28.662  1.00  0.00     0.058 A 
ATOM     89  C   UNL A   1      44.332  31.710  27.990  1.00  0.00     0.135 A 
ATOM     90  C   UNL A   1      46.692  31.655  28.404  1.00  0.00     0.135 A 
ATOM     91  F   UNL A   1      43.072  31.342  28.263  1.00  0.00    -0.206 F 
ATOM     92  C   UNL A   1      44.509  32.737  27.062  1.00  0.00     0.059 A 
ATOM     93  C   UNL A   1      46.888  32.703  27.507  1.00  0.00     0.059 A 
ATOM     94  F   UNL A   1      47.765  31.185  29.062  1.00  0.00    -0.206 F 
ATOM     95  C   UNL A   1      45.792  33.227  26.823  1.00  0.00     0.060 A 
BRANCH  95  96
ATOM     96  S   UNL A   1      46.009  34.593  25.663  1.00  0.00     0.124 S 
ATOM     97  O   UNL A   1      45.085  34.238  24.592  1.00  0.00    -0.237 OA
ATOM     98  O   UNL A   1      45.635  35.753  26.468  1.00  0.00    -0.237 OA
ATOM     99  O   UNL A   1      47.426  34.523  25.313  1.00  0.00    -0.744 OA
ENDBRANCH  95  96
ENDBRANCH  63  88
ENDBRANCH  37  38
ENDBRANCH  29  32
ENDBRANCH  27  28
ENDBRANCH   1  27
TORSDOF 16
ENDMDL
MODEL 3
REMARK VINA RESULT:     -12.7      0.930      1.716
REMARK SMILES CCn1ccc2cc(S(=O)(=O)N3CCC[C@@H](C(=O)NCCCNC(=O)c4ccc(-c5c6nc(c(-c7c(F)cc(S(=O)(=O)[O-])cc7F)c7ccc([nH]7)c(-c7c(F)cc(S(=O)(=O)[O-])cc7F)c7nc(c(-c8c(F)cc(S(=O)(=O)[O-])cc8F)c8ccc5[nH]8)C=C7)C=C6)cc4)C3)ccc21
REMARK SMILES IDX 21 1 20 2 19 3 17 4 18 5 16 7 12 8 13 9 92 10 14 11 15 12
REMARK SMILES IDX 9 13 10 14 11 15 8 16 3 17 4 18 95 19 5 20 6 21 94 22 7 23
REMARK SMILES IDX 93 24 2 25 1 26 22 27 23 28 24 29 25 31 26 32 27 33 91 34
REMARK SMILES IDX 28 35 90 36 29 37 30 38 31 39 84 40 32 41 89 42 83 43 85 44
REMARK SMILES IDX 33 45 88 46 82 47 81 48 34 50 68 51 47 52 67 53 48 54 51 55
REMARK SMILES IDX 66 56 86 57 49 58 50 59 65 61 87 62 52 63 35 64 36 65 45 66
REMARK SMILES IDX 37 67 38 68 44 69 46 70 39 71 40 72 41 73 42 74 43 75 69 76
REMARK SMILES IDX 70 77 79 78 71 79 72 80 78 81 80 82 73 83 74 84 75 85 76 86
REMARK SMILES IDX 77 87 53 88 54 89 63 90 55 91 56 92 62 93 64 94 57 95 58 96
REMARK SMILES IDX 59 97 60 98 61 99
REMARK H PARENT 19 6 23 30 85 49 51 60
REMARK Flexibility Score: inf
ROOT
ATOM      1  C   UNL A   1      32.064  30.035  26.222  1.00  0.00     0.042 C 
ENDROOT
BRANCH   1   2
ATOM      2  C   UNL A   1      32.101  29.616  24.756  1.00  0.00     0.117 C 
BRANCH   2   3
ATOM      3  N   UNL A   1      30.861  28.999  24.316  1.00  0.00    -0.356 N 
ATOM      4  C   UNL A   1      30.636  27.784  23.749  1.00  0.00     0.224 C 
ATOM      5  O   UNL A   1      29.468  27.478  23.495  1.00  0.00    -0.275 OA
ATOM      6  H   UNL A   1      30.055  29.548  24.449  1.00  0.00     0.163 HD
BRANCH   4   7
ATOM      7  C   UNL A   1      31.796  26.834  23.490  1.00  0.00     0.093 C 
ATOM      8  N   UNL A   1      32.561  24.508  24.062  1.00  0.00    -0.197 NA
ATOM      9  C   UNL A   1      32.758  24.163  22.637  1.00  0.00     0.102 C 
ATOM     10  C   UNL A   1      31.636  25.619  24.401  1.00  0.00     0.116 C 
ATOM     11  C   UNL A   1      32.930  25.407  21.779  1.00  0.00     0.018 C 
ATOM     12  C   UNL A   1      31.806  26.400  22.020  1.00  0.00     0.016 C 
BRANCH   8  13
ATOM     13  S   UNL A   1      32.605  23.205  25.167  1.00  0.00     0.243 S 
ATOM     14  O   UNL A   1      31.949  22.077  24.524  1.00  0.00    -0.207 OA
ATOM     15  O   UNL A   1      32.183  23.698  26.453  1.00  0.00    -0.207 OA
BRANCH  13  16
ATOM     16  C   UNL A   1      34.313  22.719  25.361  1.00  0.00     0.083 A 
ATOM     17  N   UNL A   1      38.357  22.088  25.956  1.00  0.00    -0.348 N 
ATOM     18  C   UNL A   1      38.791  23.335  26.320  1.00  0.00     0.087 A 
ATOM     19  C   UNL A   1      36.999  22.109  25.714  1.00  0.00     0.048 A 
ATOM     20  C   UNL A   1      37.702  24.176  26.331  1.00  0.00     0.028 A 
ATOM     21  C   UNL A   1      36.564  23.416  25.946  1.00  0.00     0.001 A 
ATOM     22  C   UNL A   1      36.120  21.094  25.314  1.00  0.00     0.028 A 
ATOM     23  C   UNL A   1      35.200  23.725  25.777  1.00  0.00     0.032 A 
ATOM     24  C   UNL A   1      34.775  21.424  25.130  1.00  0.00     0.024 A 
BRANCH  17  25
ATOM     25  C   UNL A   1      39.220  20.926  25.826  1.00  0.00     0.119 C 
ATOM     26  C   UNL A   1      40.429  21.005  26.741  1.00  0.00     0.027 C 
ENDBRANCH  17  25
ENDBRANCH  13  16
ENDBRANCH   8  13
ENDBRANCH   4   7
ENDBRANCH   2   3
ENDBRANCH   1   2
BRANCH   1  27
ATOM     27  C   UNL A   1      33.402  29.939  26.959  1.00  0.00     0.118 C 
BRANCH  27  28
ATOM     28  N   UNL A   1      33.644  31.002  27.912  1.00  0.00    -0.352 N 
ATOM     29  C   UNL A   1      34.767  31.559  28.462  1.00  0.00     0.251 C 
ATOM     30  H   UNL A   1      32.814  31.418  28.239  1.00  0.00     0.163 HD
ATOM     31  O   UNL A   1      34.591  32.607  29.089  1.00  0.00    -0.269 OA
BRANCH  29  32
ATOM     32  C   UNL A   1      36.136  30.974  28.405  1.00  0.00     0.039 A 
ATOM     33  C   UNL A   1      36.454  29.699  27.937  1.00  0.00     0.014 A 
ATOM     34  C   UNL A   1      37.171  31.760  28.952  1.00  0.00     0.014 A 
ATOM     35  C   UNL A   1      37.736  29.183  28.103  1.00  0.00     0.010 A 
ATOM     36  C   UNL A   1      38.461  31.256  29.098  1.00  0.00     0.010 A 
ATOM     37  C   UNL A   1      38.729  29.945  28.721  1.00  0.00    -0.014 A 
BRANCH  37  38
ATOM     38  C   UNL A   1      40.035  29.317  28.916  1.00  0.00     0.031 A 
ATOM     39  C   UNL A   1      40.461  29.106  30.330  1.00  0.00     0.074 A 
ATOM     40  C   UNL A   1      40.806  28.867  27.907  1.00  0.00     0.049 A 
ATOM     41  N   UNL A   1      41.476  29.614  30.954  1.00  0.00    -0.248 NA
ATOM     42  C   UNL A   1      39.594  28.275  31.177  1.00  0.00     0.031 C 
ATOM     43  C   UNL A   1      40.456  28.713  26.492  1.00  0.00     0.029 A 
ATOM     44  N   UNL A   1      42.069  28.355  27.970  1.00  0.00    -0.354 N 
ATOM     45  C   UNL A   1      41.487  29.026  32.219  1.00  0.00     0.074 A 
ATOM     46  C   UNL A   1      40.245  28.305  32.341  1.00  0.00     0.031 C 
ATOM     47  C   UNL A   1      41.394  27.954  25.883  1.00  0.00     0.029 A 
ATOM     48  C   UNL A   1      42.472  27.691  26.821  1.00  0.00     0.049 A 
ATOM     49  H   UNL A   1      42.644  28.449  28.763  1.00  0.00     0.167 HD
ATOM     50  C   UNL A   1      42.587  29.026  33.024  1.00  0.00     0.037 A 
ATOM     51  C   UNL A   1      43.579  26.920  26.682  1.00  0.00     0.037 A 
ATOM     52  C   UNL A   1      43.549  30.018  32.627  1.00  0.00     0.049 A 
ATOM     53  C   UNL A   1      44.540  27.322  27.740  1.00  0.00     0.074 A 
ATOM     54  C   UNL A   1      43.545  31.396  32.521  1.00  0.00     0.029 A 
ATOM     55  N   UNL A   1      44.673  29.606  31.953  1.00  0.00    -0.354 N 
ATOM     56  N   UNL A   1      45.145  28.476  27.789  1.00  0.00    -0.248 NA
ATOM     57  C   UNL A   1      44.549  26.563  28.981  1.00  0.00     0.031 C 
ATOM     58  C   UNL A   1      44.367  31.687  31.393  1.00  0.00     0.029 A 
ATOM     59  C   UNL A   1      44.842  30.471  30.901  1.00  0.00     0.049 A 
ATOM     60  H   UNL A   1      45.246  28.838  32.181  1.00  0.00     0.167 HD
ATOM     61  C   UNL A   1      45.242  28.773  29.139  1.00  0.00     0.074 A 
ATOM     62  C   UNL A   1      44.961  27.513  29.822  1.00  0.00     0.031 C 
ATOM     63  C   UNL A   1      45.280  30.063  29.584  1.00  0.00     0.037 A 
BRANCH  50  64
ATOM     64  C   UNL A   1      42.918  27.927  34.005  1.00  0.00     0.058 A 
ATOM     65  C   UNL A   1      42.950  28.194  35.389  1.00  0.00     0.135 A 
ATOM     66  C   UNL A   1      43.463  26.683  33.613  1.00  0.00     0.135 A 
ATOM     67  F   UNL A   1      42.477  29.354  35.871  1.00  0.00    -0.206 F 
ATOM     68  C   UNL A   1      43.528  27.315  36.308  1.00  0.00     0.059 A 
ATOM     69  C   UNL A   1      43.997  25.769  34.517  1.00  0.00     0.059 A 
ATOM     70  F   UNL A   1      43.589  26.342  32.323  1.00  0.00    -0.206 F 
ATOM     71  C   UNL A   1      44.063  26.111  35.857  1.00  0.00     0.060 A 
BRANCH  71  72
ATOM     72  S   UNL A   1      44.913  25.029  37.022  1.00  0.00     0.124 S 
ATOM     73  O   UNL A   1      44.253  25.376  38.275  1.00  0.00    -0.237 OA
ATOM     74  O   UNL A   1      44.609  23.706  36.486  1.00  0.00    -0.237 OA
ATOM     75  O   UNL A   1      46.308  25.440  36.906  1.00  0.00    -0.744 OA
ENDBRANCH  71  72
ENDBRANCH  50  64
BRANCH  51  76
ATOM     76  C   UNL A   1      43.692  25.624  25.961  1.00  0.00     0.058 A 
ATOM     77  C   UNL A   1      44.844  25.319  25.214  1.00  0.00     0.135 A 
ATOM     78  C   UNL A   1      42.827  24.547  26.239  1.00  0.00     0.135 A 
ATOM     79  F   UNL A   1      45.731  26.281  24.914  1.00  0.00    -0.206 F 
ATOM     80  C   UNL A   1      45.159  24.011  24.834  1.00  0.00     0.059 A 
ATOM     81  C   UNL A   1      43.113  23.238  25.857  1.00  0.00     0.059 A 
ATOM     82  F   UNL A   1      41.725  24.714  26.984  1.00  0.00    -0.206 F 
ATOM     83  C   UNL A   1      44.299  22.973  25.186  1.00  0.00     0.060 A 
BRANCH  83  84
ATOM     84  S   UNL A   1      44.804  21.263  24.888  1.00  0.00     0.124 S 
ATOM     85  O   UNL A   1      46.193  21.277  25.331  1.00  0.00    -0.237 OA
ATOM     86  O   UNL A   1      43.872  20.519  25.729  1.00  0.00    -0.237 OA
ATOM     87  O   UNL A   1      44.608  21.097  23.450  1.00  0.00    -0.744 OA
ENDBRANCH  83  84
ENDBRANCH  51  76
BRANCH  63  88
ATOM     88  C   UNL A   1      45.541  31.152  28.574  1.00  0.00     0.058 A 
ATOM     89  C   UNL A   1      44.582  31.635  27.663  1.00  0.00     0.135 A 
ATOM     90  C   UNL A   1      46.779  31.813  28.605  1.00  0.00     0.135 A 
ATOM     91  F   UNL A   1      43.336  31.140  27.647  1.00  0.00    -0.206 F 
ATOM     92  C   UNL A   1      44.864  32.682  26.784  1.00  0.00     0.059 A 
ATOM     93  C   UNL A   1      47.069  32.882  27.761  1.00  0.00     0.059 A 
ATOM     94  F   UNL A   1      47.715  31.447  29.497  1.00  0.00    -0.206 F 
ATOM     95  C   UNL A   1      46.113  33.300  26.838  1.00  0.00     0.060 A 
BRANCH  95  96
ATOM     96  S   UNL A   1      46.452  34.691  25.738  1.00  0.00     0.124 S 
ATOM     97  O   UNL A   1      46.306  35.834  26.632  1.00  0.00    -0.237 OA
ATOM     98  O   UNL A   1      47.810  34.408  25.283  1.00  0.00    -0.237 OA
ATOM     99  O   UNL A   1      45.424  34.571  24.707  1.00  0.00    -0.744 OA
ENDBRANCH  95  96
ENDBRANCH  63  88
ENDBRANCH  37  38
ENDBRANCH  29  32
ENDBRANCH  27  28
ENDBRANCH   1  27
TORSDOF 16
ENDMDL
