MODEL 1
REMARK VINA RESULT:     -12.7      0.000      0.000
REMARK SMILES O=C(NCCCNC(=O)c1cc(-c2ccc(C(F)(F)F)cc2)cc([N+](=O)[O-])c1)c1ccc(-c2c3nc(c(-c4c(F)cc(S(=O)(=O)[O-])cc4F)c4ccc([nH]4)c(-c4c(F)cc(S(=O)(=O)[O-])cc4F)c4nc(c(-c5c(F)cc(S(=O)(=O)[O-])cc5F)c5ccc2[nH]5)C=C4)C=C3)cc1
REMARK SMILES IDX 4 1 3 2 1 3 2 4 29 6 30 7 94 8 31 9 93 10 32 11 33 12 34 13
REMARK SMILES IDX 87 14 35 15 92 16 86 17 88 18 36 19 91 20 85 21 84 22 37 24
REMARK SMILES IDX 71 25 50 26 70 27 51 28 54 29 69 30 89 31 52 32 53 33 68 35
REMARK SMILES IDX 90 36 55 37 38 38 39 39 48 40 40 41 41 42 47 43 49 44 42 45
REMARK SMILES IDX 43 46 44 47 45 48 46 49 72 50 73 51 82 52 74 53 75 54 81 55
REMARK SMILES IDX 83 56 76 57 77 58 78 59 79 60 80 61 56 62 57 63 66 64 58 65
REMARK SMILES IDX 59 66 65 67 67 68 60 69 61 70 62 71 63 72 64 73 5 74 6 75
REMARK SMILES IDX 7 76 8 77 9 79 10 80 11 81 28 82 12 83 24 84 23 85 13 86
REMARK SMILES IDX 14 87 22 88 15 89 21 90 16 91 17 92 18 93 19 94 20 95 25 96
REMARK SMILES IDX 26 97 27 98
REMARK H PARENT 3 5 88 23 54 34 7 78
REMARK Flexibility Score: inf
ROOT
ATOM      1  C   UNL A   1      38.770  24.032  26.626  1.00  0.00     0.118 C 
ENDROOT
BRANCH   1   2
ATOM      2  N   UNL A   1      39.928  24.466  25.855  1.00  0.00    -0.352 N 
ATOM      3  O   UNL A   1      41.517  25.873  25.108  1.00  0.00    -0.269 OA
ATOM      4  C   UNL A   1      40.710  25.589  25.990  1.00  0.00     0.251 C 
ATOM      5  H   UNL A   1      40.191  23.861  25.125  1.00  0.00     0.163 HD
BRANCH   4   6
ATOM      6  C   UNL A   1      40.565  26.456  27.177  1.00  0.00     0.039 A 
ATOM      7  C   UNL A   1      41.249  27.669  27.254  1.00  0.00     0.014 A 
ATOM      8  C   UNL A   1      39.725  26.062  28.222  1.00  0.00     0.014 A 
ATOM      9  C   UNL A   1      41.240  28.395  28.436  1.00  0.00     0.010 A 
ATOM     10  C   UNL A   1      39.619  26.858  29.367  1.00  0.00     0.010 A 
ATOM     11  C   UNL A   1      40.401  28.018  29.496  1.00  0.00    -0.014 A 
BRANCH  11  12
ATOM     12  C   UNL A   1      40.298  28.909  30.678  1.00  0.00     0.031 A 
ATOM     13  C   UNL A   1      41.201  28.740  31.867  1.00  0.00     0.074 A 
ATOM     14  C   UNL A   1      39.387  29.903  30.647  1.00  0.00     0.049 A 
ATOM     15  N   UNL A   1      41.241  29.442  32.971  1.00  0.00    -0.248 NA
ATOM     16  C   UNL A   1      42.180  27.643  31.821  1.00  0.00     0.031 C 
ATOM     17  C   UNL A   1      38.447  30.150  29.547  1.00  0.00     0.029 A 
ATOM     18  N   UNL A   1      39.109  30.900  31.544  1.00  0.00    -0.354 N 
ATOM     19  C   UNL A   1      42.230  28.864  33.758  1.00  0.00     0.074 A 
ATOM     20  C   UNL A   1      42.754  27.739  33.015  1.00  0.00     0.031 C 
ATOM     21  C   UNL A   1      37.735  31.254  29.812  1.00  0.00     0.029 A 
ATOM     22  C   UNL A   1      38.108  31.748  31.130  1.00  0.00     0.049 A 
ATOM     23  H   UNL A   1      39.580  31.001  32.403  1.00  0.00     0.167 HD
ATOM     24  C   UNL A   1      42.661  29.246  34.985  1.00  0.00     0.037 A 
ATOM     25  C   UNL A   1      37.531  32.793  31.753  1.00  0.00     0.037 A 
ATOM     26  C   UNL A   1      42.141  30.382  35.706  1.00  0.00     0.049 A 
ATOM     27  C   UNL A   1      38.015  33.175  33.119  1.00  0.00     0.074 A 
ATOM     28  C   UNL A   1      42.536  30.872  36.938  1.00  0.00     0.029 A 
ATOM     29  N   UNL A   1      41.112  31.201  35.264  1.00  0.00    -0.354 N 
ATOM     30  N   UNL A   1      38.974  32.636  33.833  1.00  0.00    -0.248 NA
ATOM     31  C   UNL A   1      37.339  34.305  33.770  1.00  0.00     0.031 C 
ATOM     32  C   UNL A   1      41.715  31.956  37.264  1.00  0.00     0.029 A 
ATOM     33  C   UNL A   1      40.844  32.177  36.211  1.00  0.00     0.049 A 
ATOM     34  H   UNL A   1      40.641  31.103  34.405  1.00  0.00     0.167 HD
ATOM     35  C   UNL A   1      39.029  33.373  35.009  1.00  0.00     0.074 A 
ATOM     36  C   UNL A   1      38.021  34.407  34.901  1.00  0.00     0.031 C 
ATOM     37  C   UNL A   1      39.840  33.204  36.084  1.00  0.00     0.037 A 
BRANCH  24  38
ATOM     38  C   UNL A   1      43.739  28.428  35.645  1.00  0.00     0.058 A 
ATOM     39  C   UNL A   1      45.101  28.702  35.449  1.00  0.00     0.135 A 
ATOM     40  C   UNL A   1      43.401  27.408  36.550  1.00  0.00     0.135 A 
ATOM     41  F   UNL A   1      45.481  29.656  34.584  1.00  0.00    -0.206 F 
ATOM     42  C   UNL A   1      46.091  27.987  36.118  1.00  0.00     0.059 A 
ATOM     43  C   UNL A   1      44.373  26.696  37.248  1.00  0.00     0.059 A 
ATOM     44  F   UNL A   1      42.113  27.104  36.775  1.00  0.00    -0.206 F 
ATOM     45  C   UNL A   1      45.716  26.988  37.019  1.00  0.00     0.060 A 
BRANCH  45  46
ATOM     46  S   UNL A   1      47.014  26.091  37.898  1.00  0.00     0.124 S 
ATOM     47  O   UNL A   1      48.123  26.185  36.955  1.00  0.00    -0.237 OA
ATOM     48  O   UNL A   1      47.157  26.871  39.123  1.00  0.00    -0.237 OA
ATOM     49  O   UNL A   1      46.449  24.756  38.071  1.00  0.00    -0.744 OA
ENDBRANCH  45  46
ENDBRANCH  24  38
BRANCH  25  50
ATOM     50  C   UNL A   1      36.418  33.526  31.093  1.00  0.00     0.058 A 
ATOM     51  C   UNL A   1      35.118  33.495  31.617  1.00  0.00     0.135 A 
ATOM     52  C   UNL A   1      36.638  34.281  29.931  1.00  0.00     0.135 A 
ATOM     53  F   UNL A   1      34.858  32.788  32.728  1.00  0.00    -0.206 F 
ATOM     54  C   UNL A   1      34.069  34.167  30.998  1.00  0.00     0.059 A 
ATOM     55  C   UNL A   1      35.614  34.987  29.311  1.00  0.00     0.059 A 
ATOM     56  F   UNL A   1      37.870  34.360  29.401  1.00  0.00    -0.206 F 
ATOM     57  C   UNL A   1      34.327  34.910  29.843  1.00  0.00     0.060 A 
BRANCH  57  58
ATOM     58  S   UNL A   1      32.967  35.799  29.060  1.00  0.00     0.124 S 
ATOM     59  O   UNL A   1      32.371  34.753  28.237  1.00  0.00    -0.237 OA
ATOM     60  O   UNL A   1      32.181  36.234  30.210  1.00  0.00    -0.237 OA
ATOM     61  O   UNL A   1      33.641  36.870  28.331  1.00  0.00    -0.744 OA
ENDBRANCH  57  58
ENDBRANCH  25  50
BRANCH  37  62
ATOM     62  C   UNL A   1      39.691  34.185  37.213  1.00  0.00     0.058 A 
ATOM     63  C   UNL A   1      38.893  33.905  38.333  1.00  0.00     0.135 A 
ATOM     64  C   UNL A   1      40.384  35.405  37.187  1.00  0.00     0.135 A 
ATOM     65  F   UNL A   1      38.200  32.757  38.400  1.00  0.00    -0.206 F 
ATOM     66  C   UNL A   1      38.768  34.814  39.378  1.00  0.00     0.059 A 
ATOM     67  C   UNL A   1      40.297  36.315  38.235  1.00  0.00     0.059 A 
ATOM     68  F   UNL A   1      41.167  35.716  36.142  1.00  0.00    -0.206 F 
ATOM     69  C   UNL A   1      39.476  36.016  39.321  1.00  0.00     0.060 A 
BRANCH  69  70
ATOM     70  S   UNL A   1      39.329  37.173  40.698  1.00  0.00     0.124 S 
ATOM     71  O   UNL A   1      38.454  38.195  40.130  1.00  0.00    -0.237 OA
ATOM     72  O   UNL A   1      38.738  36.342  41.743  1.00  0.00    -0.237 OA
ATOM     73  O   UNL A   1      40.706  37.590  40.940  1.00  0.00    -0.744 OA
ENDBRANCH  69  70
ENDBRANCH  37  62
ENDBRANCH  11  12
ENDBRANCH   4   6
ENDBRANCH   1   2
BRANCH   1  74
ATOM     74  C   UNL A   1      38.030  22.880  25.969  1.00  0.00     0.042 C 
BRANCH  74  75
ATOM     75  C   UNL A   1      36.539  23.126  25.826  1.00  0.00     0.118 C 
BRANCH  75  76
ATOM     76  N   UNL A   1      36.124  23.222  24.431  1.00  0.00    -0.352 N 
ATOM     77  C   UNL A   1      34.928  23.622  23.896  1.00  0.00     0.251 C 
ATOM     78  H   UNL A   1      36.808  22.958  23.774  1.00  0.00     0.163 HD
ATOM     79  O   UNL A   1      34.695  23.455  22.700  1.00  0.00    -0.269 OA
BRANCH  77  80
ATOM     80  C   UNL A   1      33.911  24.259  24.755  1.00  0.00     0.047 A 
ATOM     81  C   UNL A   1      34.072  25.601  25.119  1.00  0.00     0.023 A 
ATOM     82  C   UNL A   1      32.838  23.517  25.250  1.00  0.00     0.099 A 
ATOM     83  C   UNL A   1      33.126  26.235  25.939  1.00  0.00    -0.011 A 
ATOM     84  C   UNL A   1      31.847  24.162  25.986  1.00  0.00     0.270 A 
ATOM     85  C   UNL A   1      31.982  25.513  26.326  1.00  0.00     0.094 A 
BRANCH  83  86
ATOM     86  C   UNL A   1      33.365  27.582  26.471  1.00  0.00    -0.018 A 
ATOM     87  C   UNL A   1      32.323  28.439  26.849  1.00  0.00     0.009 A 
ATOM     88  C   UNL A   1      34.684  28.053  26.573  1.00  0.00     0.009 A 
ATOM     89  C   UNL A   1      32.597  29.732  27.315  1.00  0.00     0.014 A 
ATOM     90  C   UNL A   1      34.960  29.341  27.034  1.00  0.00     0.014 A 
ATOM     91  C   UNL A   1      33.918  30.197  27.407  1.00  0.00     0.056 A 
BRANCH  91  92
ATOM     92  C   UNL A   1      34.208  31.597  27.888  1.00  0.00     0.416 C 
ATOM     93  F   UNL A   1      35.400  32.069  27.429  1.00  0.00    -0.166 F 
ATOM     94  F   UNL A   1      33.267  32.495  27.488  1.00  0.00    -0.166 F 
ATOM     95  F   UNL A   1      34.268  31.702  29.246  1.00  0.00    -0.166 F 
ENDBRANCH  91  92
ENDBRANCH  83  86
BRANCH  84  96
ATOM     96  N   UNL A   1      30.661  23.411  26.408  1.00  0.00     0.062 N 
ATOM     97  O   UNL A   1      30.536  22.250  25.995  1.00  0.00    -0.258 OA
ATOM     98  O   UNL A   1      29.855  23.986  27.153  1.00  0.00    -0.258 OA
ENDBRANCH  84  96
ENDBRANCH  77  80
ENDBRANCH  75  76
ENDBRANCH  74  75
ENDBRANCH   1  74
TORSDOF 16
ENDMDL
MODEL 2
REMARK VINA RESULT:     -12.3      5.843     10.281
REMARK SMILES O=C(NCCCNC(=O)c1cc(-c2ccc(C(F)(F)F)cc2)cc([N+](=O)[O-])c1)c1ccc(-c2c3nc(c(-c4c(F)cc(S(=O)(=O)[O-])cc4F)c4ccc([nH]4)c(-c4c(F)cc(S(=O)(=O)[O-])cc4F)c4nc(c(-c5c(F)cc(S(=O)(=O)[O-])cc5F)c5ccc2[nH]5)C=C4)C=C3)cc1
REMARK SMILES IDX 4 1 3 2 1 3 2 4 29 6 30 7 94 8 31 9 93 10 32 11 33 12 34 13
REMARK SMILES IDX 87 14 35 15 92 16 86 17 88 18 36 19 91 20 85 21 84 22 37 24
REMARK SMILES IDX 71 25 50 26 70 27 51 28 54 29 69 30 89 31 52 32 53 33 68 35
REMARK SMILES IDX 90 36 55 37 38 38 39 39 48 40 40 41 41 42 47 43 49 44 42 45
REMARK SMILES IDX 43 46 44 47 45 48 46 49 72 50 73 51 82 52 74 53 75 54 81 55
REMARK SMILES IDX 83 56 76 57 77 58 78 59 79 60 80 61 56 62 57 63 66 64 58 65
REMARK SMILES IDX 59 66 65 67 67 68 60 69 61 70 62 71 63 72 64 73 5 74 6 75
REMARK SMILES IDX 7 76 8 77 9 79 10 80 11 81 28 82 12 83 24 84 23 85 13 86
REMARK SMILES IDX 14 87 22 88 15 89 21 90 16 91 17 92 18 93 19 94 20 95 25 96
REMARK SMILES IDX 26 97 27 98
REMARK H PARENT 3 5 88 23 54 34 7 78
REMARK Flexibility Score: inf
ROOT
ATOM      1  C   UNL A   1      34.055  28.081  26.573  1.00  0.00     0.118 C 
ENDROOT
BRANCH   1   2
ATOM      2  N   UNL A   1      33.758  29.435  27.023  1.00  0.00    -0.352 N 
ATOM      3  O   UNL A   1      33.986  31.319  28.233  1.00  0.00    -0.269 OA
ATOM      4  C   UNL A   1      34.504  30.295  27.795  1.00  0.00     0.251 C 
ATOM      5  H   UNL A   1      32.889  29.790  26.728  1.00  0.00     0.163 HD
BRANCH   4   6
ATOM      6  C   UNL A   1      35.912  29.976  28.110  1.00  0.00     0.039 A 
ATOM      7  C   UNL A   1      36.914  30.197  27.165  1.00  0.00     0.014 A 
ATOM      8  C   UNL A   1      36.241  29.466  29.368  1.00  0.00     0.014 A 
ATOM      9  C   UNL A   1      38.203  29.744  27.404  1.00  0.00     0.010 A 
ATOM     10  C   UNL A   1      37.566  29.122  29.654  1.00  0.00     0.010 A 
ATOM     11  C   UNL A   1      38.554  29.230  28.663  1.00  0.00    -0.014 A 
BRANCH  11  12
ATOM     12  C   UNL A   1      39.977  28.907  28.931  1.00  0.00     0.031 A 
ATOM     13  C   UNL A   1      40.563  27.576  28.553  1.00  0.00     0.074 A 
ATOM     14  C   UNL A   1      40.748  29.857  29.499  1.00  0.00     0.049 A 
ATOM     15  N   UNL A   1      41.789  27.146  28.712  1.00  0.00    -0.248 NA
ATOM     16  C   UNL A   1      39.664  26.597  27.922  1.00  0.00     0.031 C 
ATOM     17  C   UNL A   1      40.278  31.181  29.921  1.00  0.00     0.029 A 
ATOM     18  N   UNL A   1      42.083  29.872  29.805  1.00  0.00    -0.354 N 
ATOM     19  C   UNL A   1      41.806  25.845  28.223  1.00  0.00     0.074 A 
ATOM     20  C   UNL A   1      40.463  25.546  27.779  1.00  0.00     0.031 C 
ATOM     21  C   UNL A   1      41.316  31.894  30.382  1.00  0.00     0.029 A 
ATOM     22  C   UNL A   1      42.506  31.056  30.363  1.00  0.00     0.049 A 
ATOM     23  H   UNL A   1      42.683  29.108  29.641  1.00  0.00     0.167 HD
ATOM     24  C   UNL A   1      42.852  24.987  28.150  1.00  0.00     0.037 A 
ATOM     25  C   UNL A   1      43.712  31.420  30.836  1.00  0.00     0.037 A 
ATOM     26  C   UNL A   1      44.191  25.306  28.581  1.00  0.00     0.049 A 
ATOM     27  C   UNL A   1      44.844  30.439  30.760  1.00  0.00     0.074 A 
ATOM     28  C   UNL A   1      45.327  24.518  28.514  1.00  0.00     0.029 A 
ATOM     29  N   UNL A   1      44.574  26.507  29.162  1.00  0.00    -0.354 N 
ATOM     30  N   UNL A   1      44.848  29.225  30.264  1.00  0.00    -0.248 NA
ATOM     31  C   UNL A   1      46.134  30.871  31.311  1.00  0.00     0.031 C 
ATOM     32  C   UNL A   1      46.385  25.222  29.098  1.00  0.00     0.029 A 
ATOM     33  C   UNL A   1      45.923  26.470  29.480  1.00  0.00     0.049 A 
ATOM     34  H   UNL A   1      43.977  27.272  29.326  1.00  0.00     0.167 HD
ATOM     35  C   UNL A   1      46.145  28.755  30.426  1.00  0.00     0.074 A 
ATOM     36  C   UNL A   1      46.901  29.823  31.047  1.00  0.00     0.031 C 
ATOM     37  C   UNL A   1      46.662  27.546  30.093  1.00  0.00     0.037 A 
BRANCH  24  38
ATOM     38  C   UNL A   1      42.602  23.609  27.597  1.00  0.00     0.058 A 
ATOM     39  C   UNL A   1      42.682  23.337  26.222  1.00  0.00     0.135 A 
ATOM     40  C   UNL A   1      42.361  22.530  28.464  1.00  0.00     0.135 A 
ATOM     41  F   UNL A   1      42.896  24.332  25.347  1.00  0.00    -0.206 F 
ATOM     42  C   UNL A   1      42.518  22.047  25.726  1.00  0.00     0.059 A 
ATOM     43  C   UNL A   1      42.218  21.228  27.992  1.00  0.00     0.059 A 
ATOM     44  F   UNL A   1      42.275  22.734  29.788  1.00  0.00    -0.206 F 
ATOM     45  C   UNL A   1      42.292  20.997  26.620  1.00  0.00     0.060 A 
BRANCH  45  46
ATOM     46  S   UNL A   1      42.111  19.327  25.958  1.00  0.00     0.124 S 
ATOM     47  O   UNL A   1      40.671  19.255  25.737  1.00  0.00    -0.237 OA
ATOM     48  O   UNL A   1      42.935  19.377  24.755  1.00  0.00    -0.237 OA
ATOM     49  O   UNL A   1      42.624  18.479  27.030  1.00  0.00    -0.744 OA
ENDBRANCH  45  46
ENDBRANCH  24  38
BRANCH  25  50
ATOM     50  C   UNL A   1      43.895  32.766  31.442  1.00  0.00     0.058 A 
ATOM     51  C   UNL A   1      44.230  33.877  30.656  1.00  0.00     0.135 A 
ATOM     52  C   UNL A   1      43.725  32.966  32.821  1.00  0.00     0.135 A 
ATOM     53  F   UNL A   1      44.402  33.736  29.333  1.00  0.00    -0.206 F 
ATOM     54  C   UNL A   1      44.417  35.135  31.219  1.00  0.00     0.059 A 
ATOM     55  C   UNL A   1      43.874  34.219  33.403  1.00  0.00     0.059 A 
ATOM     56  F   UNL A   1      43.382  31.938  33.615  1.00  0.00    -0.206 F 
ATOM     57  C   UNL A   1      44.237  35.296  32.595  1.00  0.00     0.060 A 
BRANCH  57  58
ATOM     58  S   UNL A   1      44.456  36.936  33.314  1.00  0.00     0.124 S 
ATOM     59  O   UNL A   1      45.079  37.657  32.210  1.00  0.00    -0.237 OA
ATOM     60  O   UNL A   1      43.083  37.318  33.632  1.00  0.00    -0.237 OA
ATOM     61  O   UNL A   1      45.312  36.685  34.469  1.00  0.00    -0.744 OA
ENDBRANCH  57  58
ENDBRANCH  25  50
BRANCH  37  62
ATOM     62  C   UNL A   1      48.124  27.330  30.363  1.00  0.00     0.058 A 
ATOM     63  C   UNL A   1      48.576  26.762  31.564  1.00  0.00     0.135 A 
ATOM     64  C   UNL A   1      49.080  27.665  29.392  1.00  0.00     0.135 A 
ATOM     65  F   UNL A   1      47.703  26.435  32.529  1.00  0.00    -0.206 F 
ATOM     66  C   UNL A   1      49.931  26.556  31.802  1.00  0.00     0.059 A 
ATOM     67  C   UNL A   1      50.437  27.440  29.597  1.00  0.00     0.059 A 
ATOM     68  F   UNL A   1      48.699  28.203  28.223  1.00  0.00    -0.206 F 
ATOM     69  C   UNL A   1      50.854  26.897  30.812  1.00  0.00     0.060 A 
BRANCH  69  70
ATOM     70  S   UNL A   1      52.606  26.596  31.122  1.00  0.00     0.124 S 
ATOM     71  O   UNL A   1      53.140  26.542  29.764  1.00  0.00    -0.237 OA
ATOM     72  O   UNL A   1      52.990  27.765  31.908  1.00  0.00    -0.237 OA
ATOM     73  O   UNL A   1      52.610  25.331  31.849  1.00  0.00    -0.744 OA
ENDBRANCH  69  70
ENDBRANCH  37  62
ENDBRANCH  11  12
ENDBRANCH   4   6
ENDBRANCH   1   2
BRANCH   1  74
ATOM     74  C   UNL A   1      34.252  27.996  25.070  1.00  0.00     0.042 C 
BRANCH  74  75
ATOM     75  C   UNL A   1      32.992  27.602  24.320  1.00  0.00     0.118 C 
BRANCH  75  76
ATOM     76  N   UNL A   1      33.284  26.952  23.048  1.00  0.00    -0.352 N 
ATOM     77  C   UNL A   1      33.285  25.622  22.721  1.00  0.00     0.251 C 
ATOM     78  H   UNL A   1      33.516  27.563  22.312  1.00  0.00     0.163 HD
ATOM     79  O   UNL A   1      33.745  25.247  21.643  1.00  0.00    -0.269 OA
BRANCH  77  80
ATOM     80  C   UNL A   1      32.731  24.630  23.662  1.00  0.00     0.047 A 
ATOM     81  C   UNL A   1      33.221  23.318  23.633  1.00  0.00     0.023 A 
ATOM     82  C   UNL A   1      31.689  24.976  24.523  1.00  0.00     0.099 A 
ATOM     83  C   UNL A   1      32.712  22.349  24.511  1.00  0.00    -0.011 A 
ATOM     84  C   UNL A   1      31.244  24.046  25.460  1.00  0.00     0.270 A 
ATOM     85  C   UNL A   1      31.753  22.742  25.462  1.00  0.00     0.094 A 
BRANCH  83  86
ATOM     86  C   UNL A   1      33.086  20.936  24.379  1.00  0.00    -0.018 A 
ATOM     87  C   UNL A   1      34.272  20.416  24.916  1.00  0.00     0.009 A 
ATOM     88  C   UNL A   1      32.250  20.070  23.655  1.00  0.00     0.009 A 
ATOM     89  C   UNL A   1      34.609  19.070  24.731  1.00  0.00     0.014 A 
ATOM     90  C   UNL A   1      32.583  18.729  23.467  1.00  0.00     0.014 A 
ATOM     91  C   UNL A   1      33.769  18.213  24.001  1.00  0.00     0.056 A 
BRANCH  91  92
ATOM     92  C   UNL A   1      34.146  16.769  23.785  1.00  0.00     0.416 C 
ATOM     93  F   UNL A   1      33.123  15.915  24.067  1.00  0.00    -0.166 F 
ATOM     94  F   UNL A   1      34.512  16.507  22.501  1.00  0.00    -0.166 F 
ATOM     95  F   UNL A   1      35.191  16.360  24.559  1.00  0.00    -0.166 F 
ENDBRANCH  91  92
ENDBRANCH  83  86
BRANCH  84  96
ATOM     96  N   UNL A   1      30.232  24.443  26.442  1.00  0.00     0.062 N 
ATOM     97  O   UNL A   1      29.822  23.579  27.229  1.00  0.00    -0.258 OA
ATOM     98  O   UNL A   1      29.847  25.621  26.425  1.00  0.00    -0.258 OA
ENDBRANCH  84  96
ENDBRANCH  77  80
ENDBRANCH  75  76
ENDBRANCH  74  75
ENDBRANCH   1  74
TORSDOF 16
ENDMDL
MODEL 3
REMARK VINA RESULT:     -12.3      0.381      8.220
REMARK SMILES O=C(NCCCNC(=O)c1cc(-c2ccc(C(F)(F)F)cc2)cc([N+](=O)[O-])c1)c1ccc(-c2c3nc(c(-c4c(F)cc(S(=O)(=O)[O-])cc4F)c4ccc([nH]4)c(-c4c(F)cc(S(=O)(=O)[O-])cc4F)c4nc(c(-c5c(F)cc(S(=O)(=O)[O-])cc5F)c5ccc2[nH]5)C=C4)C=C3)cc1
REMARK SMILES IDX 4 1 3 2 1 3 2 4 29 6 30 7 94 8 31 9 93 10 32 11 33 12 34 13
REMARK SMILES IDX 87 14 35 15 92 16 86 17 88 18 36 19 91 20 85 21 84 22 37 24
REMARK SMILES IDX 71 25 50 26 70 27 51 28 54 29 69 30 89 31 52 32 53 33 68 35
REMARK SMILES IDX 90 36 55 37 38 38 39 39 48 40 40 41 41 42 47 43 49 44 42 45
REMARK SMILES IDX 43 46 44 47 45 48 46 49 72 50 73 51 82 52 74 53 75 54 81 55
REMARK SMILES IDX 83 56 76 57 77 58 78 59 79 60 80 61 56 62 57 63 66 64 58 65
REMARK SMILES IDX 59 66 65 67 67 68 60 69 61 70 62 71 63 72 64 73 5 74 6 75
REMARK SMILES IDX 7 76 8 77 9 79 10 80 11 81 28 82 12 83 24 84 23 85 13 86
REMARK SMILES IDX 14 87 22 88 15 89 21 90 16 91 17 92 18 93 19 94 20 95 25 96
REMARK SMILES IDX 26 97 27 98
REMARK H PARENT 3 5 88 23 54 34 7 78
REMARK Flexibility Score: inf
ROOT
ATOM      1  C   UNL A   1      38.757  24.165  26.529  1.00  0.00     0.118 C 
ENDROOT
BRANCH   1   2
ATOM      2  N   UNL A   1      39.976  24.531  25.818  1.00  0.00    -0.352 N 
ATOM      3  O   UNL A   1      41.676  25.845  25.151  1.00  0.00    -0.269 OA
ATOM      4  C   UNL A   1      40.810  25.610  25.990  1.00  0.00     0.251 C 
ATOM      5  H   UNL A   1      40.244  23.909  25.103  1.00  0.00     0.163 HD
BRANCH   4   6
ATOM      6  C   UNL A   1      40.652  26.490  27.167  1.00  0.00     0.039 A 
ATOM      7  C   UNL A   1      41.263  27.743  27.200  1.00  0.00     0.014 A 
ATOM      8  C   UNL A   1      39.870  26.067  28.246  1.00  0.00     0.014 A 
ATOM      9  C   UNL A   1      41.249  28.490  28.368  1.00  0.00     0.010 A 
ATOM     10  C   UNL A   1      39.754  26.878  29.379  1.00  0.00     0.010 A 
ATOM     11  C   UNL A   1      40.467  28.084  29.462  1.00  0.00    -0.014 A 
BRANCH  11  12
ATOM     12  C   UNL A   1      40.349  28.991  30.631  1.00  0.00     0.031 A 
ATOM     13  C   UNL A   1      39.301  30.067  30.685  1.00  0.00     0.074 A 
ATOM     14  C   UNL A   1      41.191  28.803  31.668  1.00  0.00     0.049 A 
ATOM     15  N   UNL A   1      39.064  30.931  31.638  1.00  0.00    -0.248 NA
ATOM     16  C   UNL A   1      38.409  30.198  29.523  1.00  0.00     0.031 C 
ATOM     17  C   UNL A   1      42.257  27.797  31.715  1.00  0.00     0.029 A 
ATOM     18  N   UNL A   1      41.279  29.430  32.883  1.00  0.00    -0.354 N 
ATOM     19  C   UNL A   1      38.013  31.721  31.187  1.00  0.00     0.074 A 
ATOM     20  C   UNL A   1      37.669  31.248  29.864  1.00  0.00     0.031 C 
ATOM     21  C   UNL A   1      42.855  27.841  32.914  1.00  0.00     0.029 A 
ATOM     22  C   UNL A   1      42.273  28.926  33.689  1.00  0.00     0.049 A 
ATOM     23  H   UNL A   1      40.687  30.170  33.153  1.00  0.00     0.167 HD
ATOM     24  C   UNL A   1      37.393  32.743  31.826  1.00  0.00     0.037 A 
ATOM     25  C   UNL A   1      42.691  29.313  34.909  1.00  0.00     0.037 A 
ATOM     26  C   UNL A   1      37.736  33.192  33.152  1.00  0.00     0.049 A 
ATOM     27  C   UNL A   1      41.998  30.461  35.579  1.00  0.00     0.074 A 
ATOM     28  C   UNL A   1      37.143  34.195  33.901  1.00  0.00     0.029 A 
ATOM     29  N   UNL A   1      38.763  32.673  33.928  1.00  0.00    -0.354 N 
ATOM     30  N   UNL A   1      40.985  31.174  35.150  1.00  0.00    -0.248 NA
ATOM     31  C   UNL A   1      42.505  30.864  36.897  1.00  0.00     0.031 C 
ATOM     32  C   UNL A   1      37.841  34.315  35.106  1.00  0.00     0.029 A 
ATOM     33  C   UNL A   1      38.835  33.351  35.134  1.00  0.00     0.049 A 
ATOM     34  H   UNL A   1      39.354  31.933  33.660  1.00  0.00     0.167 HD
ATOM     35  C   UNL A   1      40.721  32.098  36.153  1.00  0.00     0.074 A 
ATOM     36  C   UNL A   1      41.668  31.839  37.219  1.00  0.00     0.031 C 
ATOM     37  C   UNL A   1      39.781  33.076  36.187  1.00  0.00     0.037 A 
BRANCH  24  38
ATOM     38  C   UNL A   1      36.287  33.466  31.103  1.00  0.00     0.058 A 
ATOM     39  C   UNL A   1      34.965  33.454  31.573  1.00  0.00     0.135 A 
ATOM     40  C   UNL A   1      36.572  34.247  29.971  1.00  0.00     0.135 A 
ATOM     41  F   UNL A   1      34.633  32.713  32.642  1.00  0.00    -0.206 F 
ATOM     42  C   UNL A   1      33.961  34.181  30.939  1.00  0.00     0.059 A 
ATOM     43  C   UNL A   1      35.589  35.001  29.335  1.00  0.00     0.059 A 
ATOM     44  F   UNL A   1      37.820  34.294  29.478  1.00  0.00    -0.206 F 
ATOM     45  C   UNL A   1      34.284  34.956  29.823  1.00  0.00     0.060 A 
BRANCH  45  46
ATOM     46  S   UNL A   1      32.975  35.915  29.032  1.00  0.00     0.124 S 
ATOM     47  O   UNL A   1      33.745  36.932  28.324  1.00  0.00    -0.237 OA
ATOM     48  O   UNL A   1      32.322  34.916  28.191  1.00  0.00    -0.237 OA
ATOM     49  O   UNL A   1      32.180  36.399  30.156  1.00  0.00    -0.744 OA
ENDBRANCH  45  46
ENDBRANCH  24  38
BRANCH  25  50
ATOM     50  C   UNL A   1      43.837  28.618  35.554  1.00  0.00     0.058 A 
ATOM     51  C   UNL A   1      43.635  27.538  36.423  1.00  0.00     0.135 A 
ATOM     52  C   UNL A   1      45.159  29.018  35.300  1.00  0.00     0.135 A 
ATOM     53  F   UNL A   1      42.390  27.118  36.696  1.00  0.00    -0.206 F 
ATOM     54  C   UNL A   1      44.702  26.893  37.041  1.00  0.00     0.059 A 
ATOM     55  C   UNL A   1      46.243  28.370  35.880  1.00  0.00     0.059 A 
ATOM     56  F   UNL A   1      45.407  30.033  34.457  1.00  0.00    -0.206 F 
ATOM     57  C   UNL A   1      46.004  27.318  36.763  1.00  0.00     0.060 A 
BRANCH  57  58
ATOM     58  S   UNL A   1      47.384  26.460  37.548  1.00  0.00     0.124 S 
ATOM     59  O   UNL A   1      47.135  26.738  38.958  1.00  0.00    -0.237 OA
ATOM     60  O   UNL A   1      47.170  25.080  37.122  1.00  0.00    -0.237 OA
ATOM     61  O   UNL A   1      48.556  27.112  36.971  1.00  0.00    -0.744 OA
ENDBRANCH  57  58
ENDBRANCH  25  50
BRANCH  37  62
ATOM     62  C   UNL A   1      39.710  33.912  37.433  1.00  0.00     0.058 A 
ATOM     63  C   UNL A   1      40.445  35.101  37.567  1.00  0.00     0.135 A 
ATOM     64  C   UNL A   1      38.868  33.537  38.491  1.00  0.00     0.135 A 
ATOM     65  F   UNL A   1      41.273  35.498  36.588  1.00  0.00    -0.206 F 
ATOM     66  C   UNL A   1      40.365  35.875  38.719  1.00  0.00     0.059 A 
ATOM     67  C   UNL A   1      38.751  34.312  39.640  1.00  0.00     0.059 A 
ATOM     68  F   UNL A   1      38.138  32.414  38.409  1.00  0.00    -0.206 F 
ATOM     69  C   UNL A   1      39.515  35.473  39.750  1.00  0.00     0.060 A 
BRANCH  69  70
ATOM     70  S   UNL A   1      39.399  36.503  41.227  1.00  0.00     0.124 S 
ATOM     71  O   UNL A   1      40.772  36.462  41.722  1.00  0.00    -0.237 OA
ATOM     72  O   UNL A   1      38.960  37.784  40.682  1.00  0.00    -0.237 OA
ATOM     73  O   UNL A   1      38.414  35.807  42.050  1.00  0.00    -0.744 OA
ENDBRANCH  69  70
ENDBRANCH  37  62
ENDBRANCH  11  12
ENDBRANCH   4   6
ENDBRANCH   1   2
BRANCH   1  74
ATOM     74  C   UNL A   1      38.145  22.876  26.010  1.00  0.00     0.042 C 
BRANCH  74  75
ATOM     75  C   UNL A   1      36.647  22.969  25.783  1.00  0.00     0.118 C 
BRANCH  75  76
ATOM     76  N   UNL A   1      36.309  23.141  24.375  1.00  0.00    -0.352 N 
ATOM     77  C   UNL A   1      35.165  23.627  23.799  1.00  0.00     0.251 C 
ATOM     78  H   UNL A   1      37.010  22.865  23.742  1.00  0.00     0.163 HD
ATOM     79  O   UNL A   1      34.984  23.518  22.587  1.00  0.00    -0.269 OA
BRANCH  77  80
ATOM     80  C   UNL A   1      34.141  24.285  24.633  1.00  0.00     0.047 A 
ATOM     81  C   UNL A   1      34.305  25.634  24.974  1.00  0.00     0.023 A 
ATOM     82  C   UNL A   1      33.057  23.559  25.127  1.00  0.00     0.099 A 
ATOM     83  C   UNL A   1      33.352  26.288  25.769  1.00  0.00    -0.011 A 
ATOM     84  C   UNL A   1      32.061  24.224  25.839  1.00  0.00     0.270 A 
ATOM     85  C   UNL A   1      32.199  25.581  26.155  1.00  0.00     0.094 A 
BRANCH  83  86
ATOM     86  C   UNL A   1      33.593  27.643  26.279  1.00  0.00    -0.018 A 
ATOM     87  C   UNL A   1      34.874  28.112  26.600  1.00  0.00     0.009 A 
ATOM     88  C   UNL A   1      32.499  28.498  26.494  1.00  0.00     0.009 A 
ATOM     89  C   UNL A   1      35.052  29.400  27.121  1.00  0.00     0.014 A 
ATOM     90  C   UNL A   1      32.673  29.780  27.016  1.00  0.00     0.014 A 
ATOM     91  C   UNL A   1      33.952  30.245  27.339  1.00  0.00     0.056 A 
BRANCH  91  92
ATOM     92  C   UNL A   1      34.146  31.623  27.921  1.00  0.00     0.416 C 
ATOM     93  F   UNL A   1      34.306  31.599  29.274  1.00  0.00    -0.166 F 
ATOM     94  F   UNL A   1      35.242  32.255  27.422  1.00  0.00    -0.166 F 
ATOM     95  F   UNL A   1      33.096  32.461  27.689  1.00  0.00    -0.166 F 
ENDBRANCH  91  92
ENDBRANCH  83  86
BRANCH  84  96
ATOM     96  N   UNL A   1      30.865  23.488  26.259  1.00  0.00     0.062 N 
ATOM     97  O   UNL A   1      30.365  22.691  25.454  1.00  0.00    -0.258 OA
ATOM     98  O   UNL A   1      30.426  23.711  27.397  1.00  0.00    -0.258 OA
ENDBRANCH  84  96
ENDBRANCH  77  80
ENDBRANCH  75  76
ENDBRANCH  74  75
ENDBRANCH   1  74
TORSDOF 16
ENDMDL
