MODEL 1
REMARK VINA RESULT:     -11.9      0.000      0.000
REMARK SMILES O=C(NCCCNC(=O)c1cc2ccccc2cc1OCCO)c1ccc(-c2c3nc(c(-c4c(F)cc(S(=O)(=O)[O-])cc4F)c4ccc([nH]4)c(-c4c(F)cc(S(=O)(=O)[O-])cc4F)c4nc(c(-c5c(F)cc(S(=O)(=O)[O-])cc5F)c5ccc2[nH]5)C=C4)C=C3)cc1
REMARK SMILES IDX 5 1 4 2 3 3 1 4 2 5 24 7 25 8 89 9 26 10 88 11 27 12 28 13
REMARK SMILES IDX 29 14 82 15 30 16 87 17 81 18 83 19 31 20 86 21 80 22 79 23
REMARK SMILES IDX 32 25 66 26 45 27 65 28 46 29 49 30 64 31 84 32 47 33 48 34
REMARK SMILES IDX 63 36 85 37 50 38 33 39 34 40 43 41 35 42 36 43 42 44 44 45
REMARK SMILES IDX 37 46 38 47 39 48 40 49 41 50 67 51 68 52 77 53 69 54 70 55
REMARK SMILES IDX 76 56 78 57 71 58 72 59 73 60 74 61 75 62 51 63 52 64 61 65
REMARK SMILES IDX 53 66 54 67 60 68 62 69 55 70 56 71 57 72 58 73 59 74 6 75
REMARK SMILES IDX 7 76 8 77 9 79 10 80 11 81 19 82 12 83 18 84 13 85 17 86
REMARK SMILES IDX 14 87 16 88 15 89 20 90 21 91 22 92 23 93
REMARK H PARENT 3 6 83 24 49 35 7 78 23 94
REMARK Flexibility Score: inf
ROOT
ATOM      1  C   UNL A   1      34.738  29.737  27.382  1.00  0.00     0.042 C 
ENDROOT
BRANCH   1   2
ATOM      2  C   UNL A   1      35.397  30.996  27.933  1.00  0.00     0.118 C 
BRANCH   2   3
ATOM      3  N   UNL A   1      35.349  31.132  29.380  1.00  0.00    -0.352 N 
ATOM      4  O   UNL A   1      36.026  31.036  31.526  1.00  0.00    -0.269 OA
ATOM      5  C   UNL A   1      36.285  30.831  30.343  1.00  0.00     0.251 C 
ATOM      6  H   UNL A   1      34.505  31.502  29.728  1.00  0.00     0.163 HD
BRANCH   5   7
ATOM      7  C   UNL A   1      37.573  30.201  29.977  1.00  0.00     0.039 A 
ATOM      8  C   UNL A   1      38.399  29.605  30.930  1.00  0.00     0.014 A 
ATOM      9  C   UNL A   1      37.971  30.233  28.638  1.00  0.00     0.014 A 
ATOM     10  C   UNL A   1      39.698  29.244  30.589  1.00  0.00     0.010 A 
ATOM     11  C   UNL A   1      39.236  29.764  28.275  1.00  0.00     0.010 A 
ATOM     12  C   UNL A   1      40.134  29.321  29.257  1.00  0.00    -0.014 A 
BRANCH  12  13
ATOM     13  C   UNL A   1      41.523  28.928  28.900  1.00  0.00     0.031 A 
ATOM     14  C   UNL A   1      42.644  29.931  28.960  1.00  0.00     0.074 A 
ATOM     15  C   UNL A   1      41.774  27.659  28.524  1.00  0.00     0.049 A 
ATOM     16  N   UNL A   1      43.897  29.792  28.606  1.00  0.00    -0.248 NA
ATOM     17  C   UNL A   1      42.314  31.271  29.473  1.00  0.00     0.031 C 
ATOM     18  C   UNL A   1      40.772  26.595  28.430  1.00  0.00     0.029 A 
ATOM     19  N   UNL A   1      42.944  27.049  28.149  1.00  0.00    -0.354 N 
ATOM     20  C   UNL A   1      44.493  31.031  28.812  1.00  0.00     0.074 A 
ATOM     21  C   UNL A   1      43.462  31.914  29.311  1.00  0.00     0.031 C 
ATOM     22  C   UNL A   1      41.373  25.457  28.053  1.00  0.00     0.029 A 
ATOM     23  C   UNL A   1      42.786  25.727  27.808  1.00  0.00     0.049 A 
ATOM     24  H   UNL A   1      43.812  27.512  28.127  1.00  0.00     0.167 HD
ATOM     25  C   UNL A   1      45.781  31.396  28.602  1.00  0.00     0.037 A 
ATOM     26  C   UNL A   1      43.665  24.835  27.316  1.00  0.00     0.037 A 
ATOM     27  C   UNL A   1      46.807  30.500  28.131  1.00  0.00     0.049 A 
ATOM     28  C   UNL A   1      45.086  25.258  27.088  1.00  0.00     0.074 A 
ATOM     29  C   UNL A   1      48.149  30.764  27.916  1.00  0.00     0.029 A 
ATOM     30  N   UNL A   1      46.603  29.167  27.801  1.00  0.00    -0.354 N 
ATOM     31  N   UNL A   1      45.633  26.433  27.292  1.00  0.00    -0.248 NA
ATOM     32  C   UNL A   1      46.007  24.245  26.559  1.00  0.00     0.031 C 
ATOM     33  C   UNL A   1      48.749  29.600  27.423  1.00  0.00     0.029 A 
ATOM     34  C   UNL A   1      47.792  28.599  27.371  1.00  0.00     0.049 A 
ATOM     35  H   UNL A   1      45.742  28.696  27.864  1.00  0.00     0.167 HD
ATOM     36  C   UNL A   1      46.967  26.297  26.930  1.00  0.00     0.074 A 
ATOM     37  C   UNL A   1      47.146  24.924  26.502  1.00  0.00     0.031 C 
ATOM     38  C   UNL A   1      47.953  27.227  26.956  1.00  0.00     0.037 A 
BRANCH  25  39
ATOM     39  C   UNL A   1      46.143  32.836  28.848  1.00  0.00     0.058 A 
ATOM     40  C   UNL A   1      46.063  33.808  27.839  1.00  0.00     0.135 A 
ATOM     41  C   UNL A   1      46.575  33.250  30.120  1.00  0.00     0.135 A 
ATOM     42  F   UNL A   1      45.669  33.467  26.602  1.00  0.00    -0.206 F 
ATOM     43  C   UNL A   1      46.441  35.128  28.068  1.00  0.00     0.059 A 
ATOM     44  C   UNL A   1      46.934  34.570  30.379  1.00  0.00     0.059 A 
ATOM     45  F   UNL A   1      46.664  32.364  31.125  1.00  0.00    -0.206 F 
ATOM     46  C   UNL A   1      46.886  35.497  29.339  1.00  0.00     0.060 A 
BRANCH  46  47
ATOM     47  S   UNL A   1      47.413  37.202  29.613  1.00  0.00     0.124 S 
ATOM     48  O   UNL A   1      46.933  37.852  28.398  1.00  0.00    -0.237 OA
ATOM     49  O   UNL A   1      46.708  37.557  30.841  1.00  0.00    -0.237 OA
ATOM     50  O   UNL A   1      48.864  37.093  29.737  1.00  0.00    -0.744 OA
ENDBRANCH  46  47
ENDBRANCH  25  39
BRANCH  26  51
ATOM     51  C   UNL A   1      43.196  23.461  27.003  1.00  0.00     0.058 A 
ATOM     52  C   UNL A   1      43.026  23.040  25.678  1.00  0.00     0.135 A 
ATOM     53  C   UNL A   1      43.010  22.514  28.024  1.00  0.00     0.135 A 
ATOM     54  F   UNL A   1      43.189  23.911  24.671  1.00  0.00    -0.206 F 
ATOM     55  C   UNL A   1      42.704  21.721  25.372  1.00  0.00     0.059 A 
ATOM     56  C   UNL A   1      42.711  21.186  27.742  1.00  0.00     0.059 A 
ATOM     57  F   UNL A   1      43.181  22.867  29.308  1.00  0.00    -0.206 F 
ATOM     58  C   UNL A   1      42.563  20.799  26.411  1.00  0.00     0.060 A 
BRANCH  58  59
ATOM     59  S   UNL A   1      42.261  19.066  25.998  1.00  0.00     0.124 S 
ATOM     60  O   UNL A   1      40.813  19.054  25.828  1.00  0.00    -0.237 OA
ATOM     61  O   UNL A   1      43.049  18.897  24.782  1.00  0.00    -0.237 OA
ATOM     62  O   UNL A   1      42.767  18.351  27.166  1.00  0.00    -0.744 OA
ENDBRANCH  58  59
ENDBRANCH  26  51
BRANCH  38  63
ATOM     63  C   UNL A   1      49.328  26.790  26.540  1.00  0.00     0.058 A 
ATOM     64  C   UNL A   1      50.192  26.137  27.432  1.00  0.00     0.135 A 
ATOM     65  C   UNL A   1      49.751  26.954  25.212  1.00  0.00     0.135 A 
ATOM     66  F   UNL A   1      49.836  25.966  28.715  1.00  0.00    -0.206 F 
ATOM     67  C   UNL A   1      51.432  25.662  27.020  1.00  0.00     0.059 A 
ATOM     68  C   UNL A   1      50.978  26.469  24.774  1.00  0.00     0.059 A 
ATOM     69  F   UNL A   1      48.956  27.568  24.321  1.00  0.00    -0.206 F 
ATOM     70  C   UNL A   1      51.814  25.826  25.687  1.00  0.00     0.060 A 
BRANCH  70  71
ATOM     71  S   UNL A   1      53.397  25.147  25.146  1.00  0.00     0.124 S 
ATOM     72  O   UNL A   1      53.457  25.606  23.762  1.00  0.00    -0.237 OA
ATOM     73  O   UNL A   1      54.339  25.777  26.065  1.00  0.00    -0.237 OA
ATOM     74  O   UNL A   1      53.226  23.708  25.324  1.00  0.00    -0.744 OA
ENDBRANCH  70  71
ENDBRANCH  38  63
ENDBRANCH  12  13
ENDBRANCH   5   7
ENDBRANCH   2   3
ENDBRANCH   1   2
BRANCH   1  75
ATOM     75  C   UNL A   1      33.447  29.948  26.607  1.00  0.00     0.118 C 
BRANCH  75  76
ATOM     76  N   UNL A   1      32.292  29.296  27.206  1.00  0.00    -0.352 N 
ATOM     77  C   UNL A   1      31.834  28.030  26.964  1.00  0.00     0.255 C 
ATOM     78  H   UNL A   1      31.782  29.826  27.861  1.00  0.00     0.163 HD
ATOM     79  O   UNL A   1      30.932  27.542  27.636  1.00  0.00    -0.269 OA
BRANCH  77  80
ATOM     80  C   UNL A   1      32.388  27.285  25.830  1.00  0.00     0.082 A 
ATOM     81  C   UNL A   1      33.351  26.324  26.182  1.00  0.00     0.026 A 
ATOM     82  C   UNL A   1      31.962  27.419  24.509  1.00  0.00     0.132 A 
ATOM     83  C   UNL A   1      33.877  25.451  25.223  1.00  0.00    -0.017 A 
ATOM     84  C   UNL A   1      32.502  26.551  23.549  1.00  0.00     0.056 A 
ATOM     85  C   UNL A   1      34.798  24.451  25.571  1.00  0.00     0.009 A 
ATOM     86  C   UNL A   1      33.448  25.566  23.884  1.00  0.00    -0.015 A 
ATOM     87  C   UNL A   1      35.287  23.570  24.607  1.00  0.00     0.001 A 
ATOM     88  C   UNL A   1      33.954  24.677  22.924  1.00  0.00     0.009 A 
ATOM     89  C   UNL A   1      34.866  23.683  23.284  1.00  0.00     0.001 A 
BRANCH  82  90
ATOM     90  O   UNL A   1      30.969  28.206  24.010  1.00  0.00    -0.490 OA
BRANCH  90  91
ATOM     91  C   UNL A   1      30.476  28.011  22.680  1.00  0.00     0.257 C 
BRANCH  91  92
ATOM     92  C   UNL A   1      29.771  29.291  22.233  1.00  0.00     0.197 C 
BRANCH  92  93
ATOM     93  O   UNL A   1      30.614  30.051  21.368  1.00  0.00    -0.393 OA
ATOM     94  H   UNL A   1      30.405  29.839  20.444  1.00  0.00     0.210 HD
ENDBRANCH  92  93
ENDBRANCH  91  92
ENDBRANCH  90  91
ENDBRANCH  82  90
ENDBRANCH  77  80
ENDBRANCH  75  76
ENDBRANCH   1  75
TORSDOF 17
ENDMDL
MODEL 2
REMARK VINA RESULT:     -11.9      1.021      1.887
REMARK SMILES O=C(NCCCNC(=O)c1cc2ccccc2cc1OCCO)c1ccc(-c2c3nc(c(-c4c(F)cc(S(=O)(=O)[O-])cc4F)c4ccc([nH]4)c(-c4c(F)cc(S(=O)(=O)[O-])cc4F)c4nc(c(-c5c(F)cc(S(=O)(=O)[O-])cc5F)c5ccc2[nH]5)C=C4)C=C3)cc1
REMARK SMILES IDX 5 1 4 2 3 3 1 4 2 5 24 7 25 8 89 9 26 10 88 11 27 12 28 13
REMARK SMILES IDX 29 14 82 15 30 16 87 17 81 18 83 19 31 20 86 21 80 22 79 23
REMARK SMILES IDX 32 25 66 26 45 27 65 28 46 29 49 30 64 31 84 32 47 33 48 34
REMARK SMILES IDX 63 36 85 37 50 38 33 39 34 40 43 41 35 42 36 43 42 44 44 45
REMARK SMILES IDX 37 46 38 47 39 48 40 49 41 50 67 51 68 52 77 53 69 54 70 55
REMARK SMILES IDX 76 56 78 57 71 58 72 59 73 60 74 61 75 62 51 63 52 64 61 65
REMARK SMILES IDX 53 66 54 67 60 68 62 69 55 70 56 71 57 72 58 73 59 74 6 75
REMARK SMILES IDX 7 76 8 77 9 79 10 80 11 81 19 82 12 83 18 84 13 85 17 86
REMARK SMILES IDX 14 87 16 88 15 89 20 90 21 91 22 92 23 93
REMARK H PARENT 3 6 83 24 49 35 7 78 23 94
REMARK Flexibility Score: inf
ROOT
ATOM      1  C   UNL A   1      33.618  29.089  27.262  1.00  0.00     0.042 C 
ENDROOT
BRANCH   1   2
ATOM      2  C   UNL A   1      35.014  29.640  27.530  1.00  0.00     0.118 C 
BRANCH   2   3
ATOM      3  N   UNL A   1      35.141  30.422  28.750  1.00  0.00    -0.352 N 
ATOM      4  O   UNL A   1      36.106  31.361  30.555  1.00  0.00    -0.269 OA
ATOM      5  C   UNL A   1      36.230  30.652  29.560  1.00  0.00     0.251 C 
ATOM      6  H   UNL A   1      34.310  30.860  29.045  1.00  0.00     0.163 HD
BRANCH   5   7
ATOM      7  C   UNL A   1      37.531  30.003  29.285  1.00  0.00     0.039 A 
ATOM      8  C   UNL A   1      38.329  29.488  30.306  1.00  0.00     0.014 A 
ATOM      9  C   UNL A   1      37.970  29.931  27.960  1.00  0.00     0.014 A 
ATOM     10  C   UNL A   1      39.639  29.108  30.035  1.00  0.00     0.010 A 
ATOM     11  C   UNL A   1      39.247  29.442  27.674  1.00  0.00     0.010 A 
ATOM     12  C   UNL A   1      40.116  29.083  28.715  1.00  0.00    -0.014 A 
BRANCH  12  13
ATOM     13  C   UNL A   1      41.516  28.671  28.433  1.00  0.00     0.031 A 
ATOM     14  C   UNL A   1      42.636  29.675  28.479  1.00  0.00     0.074 A 
ATOM     15  C   UNL A   1      41.778  27.383  28.136  1.00  0.00     0.049 A 
ATOM     16  N   UNL A   1      43.901  29.517  28.181  1.00  0.00    -0.248 NA
ATOM     17  C   UNL A   1      42.290  31.041  28.905  1.00  0.00     0.031 C 
ATOM     18  C   UNL A   1      40.779  26.315  28.065  1.00  0.00     0.029 A 
ATOM     19  N   UNL A   1      42.960  26.753  27.840  1.00  0.00    -0.354 N 
ATOM     20  C   UNL A   1      44.492  30.765  28.340  1.00  0.00     0.074 A 
ATOM     21  C   UNL A   1      43.444  31.675  28.751  1.00  0.00     0.031 C 
ATOM     22  C   UNL A   1      41.390  25.159  27.774  1.00  0.00     0.029 A 
ATOM     23  C   UNL A   1      42.812  25.414  27.567  1.00  0.00     0.049 A 
ATOM     24  H   UNL A   1      43.829  27.214  27.826  1.00  0.00     0.167 HD
ATOM     25  C   UNL A   1      45.788  31.119  28.158  1.00  0.00     0.037 A 
ATOM     26  C   UNL A   1      43.708  24.496  27.158  1.00  0.00     0.037 A 
ATOM     27  C   UNL A   1      46.829  30.198  27.777  1.00  0.00     0.049 A 
ATOM     28  C   UNL A   1      45.137  24.906  26.961  1.00  0.00     0.074 A 
ATOM     29  C   UNL A   1      48.178  30.449  27.599  1.00  0.00     0.029 A 
ATOM     30  N   UNL A   1      46.635  28.849  27.514  1.00  0.00    -0.354 N 
ATOM     31  N   UNL A   1      45.678  26.090  27.120  1.00  0.00    -0.248 NA
ATOM     32  C   UNL A   1      46.075  23.865  26.524  1.00  0.00     0.031 C 
ATOM     33  C   UNL A   1      48.794  29.260  27.194  1.00  0.00     0.029 A 
ATOM     34  C   UNL A   1      47.837  28.258  27.161  1.00  0.00     0.049 A 
ATOM     35  H   UNL A   1      45.770  28.382  27.571  1.00  0.00     0.167 HD
ATOM     36  C   UNL A   1      47.025  25.935  26.817  1.00  0.00     0.074 A 
ATOM     37  C   UNL A   1      47.217  24.540  26.472  1.00  0.00     0.031 C 
ATOM     38  C   UNL A   1      48.011  26.865  26.828  1.00  0.00     0.037 A 
BRANCH  25  39
ATOM     39  C   UNL A   1      46.143  32.570  28.339  1.00  0.00     0.058 A 
ATOM     40  C   UNL A   1      46.562  33.087  29.575  1.00  0.00     0.135 A 
ATOM     41  C   UNL A   1      46.066  33.458  27.252  1.00  0.00     0.135 A 
ATOM     42  F   UNL A   1      46.643  32.286  30.649  1.00  0.00    -0.206 F 
ATOM     43  C   UNL A   1      46.848  34.439  29.740  1.00  0.00     0.059 A 
ATOM     44  C   UNL A   1      46.370  34.810  27.388  1.00  0.00     0.059 A 
ATOM     45  F   UNL A   1      45.677  33.018  26.046  1.00  0.00    -0.206 F 
ATOM     46  C   UNL A   1      46.738  35.295  28.642  1.00  0.00     0.060 A 
BRANCH  46  47
ATOM     47  S   UNL A   1      47.070  37.055  28.877  1.00  0.00     0.124 S 
ATOM     48  O   UNL A   1      48.215  37.014  29.782  1.00  0.00    -0.237 OA
ATOM     49  O   UNL A   1      47.354  37.507  27.518  1.00  0.00    -0.237 OA
ATOM     50  O   UNL A   1      45.829  37.560  29.455  1.00  0.00    -0.744 OA
ENDBRANCH  46  47
ENDBRANCH  25  39
BRANCH  26  51
ATOM     51  C   UNL A   1      43.248  23.107  26.905  1.00  0.00     0.058 A 
ATOM     52  C   UNL A   1      43.168  22.599  25.602  1.00  0.00     0.135 A 
ATOM     53  C   UNL A   1      42.979  22.232  27.970  1.00  0.00     0.135 A 
ATOM     54  F   UNL A   1      43.412  23.400  24.553  1.00  0.00    -0.206 F 
ATOM     55  C   UNL A   1      42.855  21.264  25.362  1.00  0.00     0.059 A 
ATOM     56  C   UNL A   1      42.687  20.889  27.756  1.00  0.00     0.059 A 
ATOM     57  F   UNL A   1      43.062  22.669  29.237  1.00  0.00    -0.206 F 
ATOM     58  C   UNL A   1      42.630  20.415  26.446  1.00  0.00     0.060 A 
BRANCH  58  59
ATOM     59  S   UNL A   1      42.340  18.660  26.129  1.00  0.00     0.124 S 
ATOM     60  O   UNL A   1      40.932  18.660  25.751  1.00  0.00    -0.237 OA
ATOM     61  O   UNL A   1      43.290  18.380  25.057  1.00  0.00    -0.237 OA
ATOM     62  O   UNL A   1      42.653  18.033  27.410  1.00  0.00    -0.744 OA
ENDBRANCH  58  59
ENDBRANCH  26  51
BRANCH  38  63
ATOM     63  C   UNL A   1      49.400  26.405  26.490  1.00  0.00     0.058 A 
ATOM     64  C   UNL A   1      49.915  26.519  25.190  1.00  0.00     0.135 A 
ATOM     65  C   UNL A   1      50.249  25.922  27.497  1.00  0.00     0.135 A 
ATOM     66  F   UNL A   1      49.137  26.966  24.191  1.00  0.00    -0.206 F 
ATOM     67  C   UNL A   1      51.228  26.168  24.900  1.00  0.00     0.059 A 
ATOM     68  C   UNL A   1      51.572  25.584  27.233  1.00  0.00     0.059 A 
ATOM     69  F   UNL A   1      49.803  25.801  28.757  1.00  0.00    -0.206 F 
ATOM     70  C   UNL A   1      52.052  25.707  25.929  1.00  0.00     0.060 A 
BRANCH  70  71
ATOM     71  S   UNL A   1      53.775  25.316  25.555  1.00  0.00     0.124 S 
ATOM     72  O   UNL A   1      53.628  24.202  24.625  1.00  0.00    -0.237 OA
ATOM     73  O   UNL A   1      54.261  26.565  24.978  1.00  0.00    -0.237 OA
ATOM     74  O   UNL A   1      54.335  24.977  26.860  1.00  0.00    -0.744 OA
ENDBRANCH  70  71
ENDBRANCH  38  63
ENDBRANCH  12  13
ENDBRANCH   5   7
ENDBRANCH   2   3
ENDBRANCH   1   2
BRANCH   1  75
ATOM     75  C   UNL A   1      32.908  29.647  26.038  1.00  0.00     0.118 C 
BRANCH  75  76
ATOM     76  N   UNL A   1      33.625  29.418  24.792  1.00  0.00    -0.352 N 
ATOM     77  C   UNL A   1      33.549  28.319  23.980  1.00  0.00     0.255 C 
ATOM     78  H   UNL A   1      34.234  30.135  24.500  1.00  0.00     0.163 HD
ATOM     79  O   UNL A   1      34.097  28.302  22.883  1.00  0.00    -0.269 OA
BRANCH  77  80
ATOM     80  C   UNL A   1      32.865  27.122  24.475  1.00  0.00     0.082 A 
ATOM     81  C   UNL A   1      33.716  26.157  25.037  1.00  0.00     0.026 A 
ATOM     82  C   UNL A   1      31.481  26.950  24.491  1.00  0.00     0.132 A 
ATOM     83  C   UNL A   1      33.197  25.018  25.663  1.00  0.00    -0.017 A 
ATOM     84  C   UNL A   1      30.965  25.801  25.107  1.00  0.00     0.056 A 
ATOM     85  C   UNL A   1      34.034  24.074  26.277  1.00  0.00     0.009 A 
ATOM     86  C   UNL A   1      31.799  24.835  25.698  1.00  0.00    -0.015 A 
ATOM     87  C   UNL A   1      33.495  22.962  26.923  1.00  0.00     0.001 A 
ATOM     88  C   UNL A   1      31.272  23.707  26.346  1.00  0.00     0.009 A 
ATOM     89  C   UNL A   1      32.116  22.778  26.956  1.00  0.00     0.001 A 
BRANCH  82  90
ATOM     90  O   UNL A   1      30.509  27.821  24.100  1.00  0.00    -0.490 OA
BRANCH  90  91
ATOM     91  C   UNL A   1      30.322  28.139  22.717  1.00  0.00     0.257 C 
BRANCH  91  92
ATOM     92  C   UNL A   1      30.115  29.648  22.592  1.00  0.00     0.197 C 
BRANCH  92  93
ATOM     93  O   UNL A   1      30.346  30.076  21.250  1.00  0.00    -0.393 OA
ATOM     94  H   UNL A   1      30.723  29.342  20.738  1.00  0.00     0.210 HD
ENDBRANCH  92  93
ENDBRANCH  91  92
ENDBRANCH  90  91
ENDBRANCH  82  90
ENDBRANCH  77  80
ENDBRANCH  75  76
ENDBRANCH   1  75
TORSDOF 17
ENDMDL
MODEL 3
REMARK VINA RESULT:     -11.8      6.655     12.035
REMARK SMILES O=C(NCCCNC(=O)c1cc2ccccc2cc1OCCO)c1ccc(-c2c3nc(c(-c4c(F)cc(S(=O)(=O)[O-])cc4F)c4ccc([nH]4)c(-c4c(F)cc(S(=O)(=O)[O-])cc4F)c4nc(c(-c5c(F)cc(S(=O)(=O)[O-])cc5F)c5ccc2[nH]5)C=C4)C=C3)cc1
REMARK SMILES IDX 5 1 4 2 3 3 1 4 2 5 24 7 25 8 89 9 26 10 88 11 27 12 28 13
REMARK SMILES IDX 29 14 82 15 30 16 87 17 81 18 83 19 31 20 86 21 80 22 79 23
REMARK SMILES IDX 32 25 66 26 45 27 65 28 46 29 49 30 64 31 84 32 47 33 48 34
REMARK SMILES IDX 63 36 85 37 50 38 33 39 34 40 43 41 35 42 36 43 42 44 44 45
REMARK SMILES IDX 37 46 38 47 39 48 40 49 41 50 67 51 68 52 77 53 69 54 70 55
REMARK SMILES IDX 76 56 78 57 71 58 72 59 73 60 74 61 75 62 51 63 52 64 61 65
REMARK SMILES IDX 53 66 54 67 60 68 62 69 55 70 56 71 57 72 58 73 59 74 6 75
REMARK SMILES IDX 7 76 8 77 9 79 10 80 11 81 19 82 12 83 18 84 13 85 17 86
REMARK SMILES IDX 14 87 16 88 15 89 20 90 21 91 22 92 23 93
REMARK H PARENT 3 6 83 24 49 35 7 78 23 94
REMARK Flexibility Score: inf
ROOT
ATOM      1  C   UNL A   1      37.275  23.983  25.186  1.00  0.00     0.042 C 
ENDROOT
BRANCH   1   2
ATOM      2  C   UNL A   1      38.134  23.881  26.441  1.00  0.00     0.118 C 
BRANCH   2   3
ATOM      3  N   UNL A   1      39.557  23.697  26.198  1.00  0.00    -0.352 N 
ATOM      4  O   UNL A   1      41.778  24.032  26.354  1.00  0.00    -0.269 OA
ATOM      5  C   UNL A   1      40.649  24.367  26.701  1.00  0.00     0.251 C 
ATOM      6  H   UNL A   1      39.774  22.971  25.569  1.00  0.00     0.163 HD
BRANCH   5   7
ATOM      7  C   UNL A   1      40.477  25.528  27.602  1.00  0.00     0.039 A 
ATOM      8  C   UNL A   1      41.258  26.677  27.481  1.00  0.00     0.014 A 
ATOM      9  C   UNL A   1      39.515  25.447  28.613  1.00  0.00     0.014 A 
ATOM     10  C   UNL A   1      41.234  27.637  28.486  1.00  0.00     0.010 A 
ATOM     11  C   UNL A   1      39.412  26.468  29.560  1.00  0.00     0.010 A 
ATOM     12  C   UNL A   1      40.312  27.544  29.541  1.00  0.00    -0.014 A 
BRANCH  12  13
ATOM     13  C   UNL A   1      40.289  28.579  30.609  1.00  0.00     0.031 A 
ATOM     14  C   UNL A   1      41.244  28.504  31.770  1.00  0.00     0.074 A 
ATOM     15  C   UNL A   1      39.405  29.592  30.528  1.00  0.00     0.049 A 
ATOM     16  N   UNL A   1      41.313  29.264  32.833  1.00  0.00    -0.248 NA
ATOM     17  C   UNL A   1      42.246  27.425  31.742  1.00  0.00     0.031 C 
ATOM     18  C   UNL A   1      38.432  29.776  29.449  1.00  0.00     0.029 A 
ATOM     19  N   UNL A   1      39.180  30.655  31.364  1.00  0.00    -0.354 N 
ATOM     20  C   UNL A   1      42.331  28.735  33.618  1.00  0.00     0.074 A 
ATOM     21  C   UNL A   1      42.845  27.580  32.914  1.00  0.00     0.031 C 
ATOM     22  C   UNL A   1      37.734  30.898  29.673  1.00  0.00     0.029 A 
ATOM     23  C   UNL A   1      38.158  31.474  30.945  1.00  0.00     0.049 A 
ATOM     24  H   UNL A   1      39.699  30.817  32.184  1.00  0.00     0.167 HD
ATOM     25  C   UNL A   1      42.792  29.173  34.815  1.00  0.00     0.037 A 
ATOM     26  C   UNL A   1      37.595  32.547  31.531  1.00  0.00     0.037 A 
ATOM     27  C   UNL A   1      42.293  30.342  35.494  1.00  0.00     0.049 A 
ATOM     28  C   UNL A   1      38.117  33.015  32.856  1.00  0.00     0.074 A 
ATOM     29  C   UNL A   1      42.714  30.887  36.694  1.00  0.00     0.029 A 
ATOM     30  N   UNL A   1      41.259  31.144  35.030  1.00  0.00    -0.354 N 
ATOM     31  N   UNL A   1      39.083  32.504  33.582  1.00  0.00    -0.248 NA
ATOM     32  C   UNL A   1      37.475  34.194  33.448  1.00  0.00     0.031 C 
ATOM     33  C   UNL A   1      41.911  31.999  36.974  1.00  0.00     0.029 A 
ATOM     34  C   UNL A   1      41.019  32.172  35.928  1.00  0.00     0.049 A 
ATOM     35  H   UNL A   1      40.769  31.003  34.188  1.00  0.00     0.167 HD
ATOM     36  C   UNL A   1      39.176  33.309  34.710  1.00  0.00     0.074 A 
ATOM     37  C   UNL A   1      38.172  34.345  34.567  1.00  0.00     0.031 C 
ATOM     38  C   UNL A   1      40.020  33.200  35.765  1.00  0.00     0.037 A 
BRANCH  25  39
ATOM     39  C   UNL A   1      43.871  28.362  35.482  1.00  0.00     0.058 A 
ATOM     40  C   UNL A   1      43.578  27.349  36.408  1.00  0.00     0.135 A 
ATOM     41  C   UNL A   1      45.224  28.603  35.184  1.00  0.00     0.135 A 
ATOM     42  F   UNL A   1      42.304  27.084  36.738  1.00  0.00    -0.206 F 
ATOM     43  C   UNL A   1      44.585  26.635  37.049  1.00  0.00     0.059 A 
ATOM     44  C   UNL A   1      46.247  27.884  35.795  1.00  0.00     0.059 A 
ATOM     45  F   UNL A   1      45.562  29.556  34.302  1.00  0.00    -0.206 F 
ATOM     46  C   UNL A   1      45.918  26.917  36.744  1.00  0.00     0.060 A 
BRANCH  46  47
ATOM     47  S   UNL A   1      47.218  26.014  37.613  1.00  0.00     0.124 S 
ATOM     48  O   UNL A   1      46.825  24.630  37.363  1.00  0.00    -0.237 OA
ATOM     49  O   UNL A   1      48.427  26.462  36.927  1.00  0.00    -0.237 OA
ATOM     50  O   UNL A   1      47.081  26.467  38.994  1.00  0.00    -0.744 OA
ENDBRANCH  46  47
ENDBRANCH  25  39
BRANCH  26  51
ATOM     51  C   UNL A   1      36.464  33.226  30.849  1.00  0.00     0.058 A 
ATOM     52  C   UNL A   1      35.159  33.136  31.349  1.00  0.00     0.135 A 
ATOM     53  C   UNL A   1      36.688  34.063  29.743  1.00  0.00     0.135 A 
ATOM     54  F   UNL A   1      34.897  32.345  32.401  1.00  0.00    -0.206 F 
ATOM     55  C   UNL A   1      34.115  33.865  30.789  1.00  0.00     0.059 A 
ATOM     56  C   UNL A   1      35.666  34.819  29.181  1.00  0.00     0.059 A 
ATOM     57  F   UNL A   1      37.926  34.196  29.241  1.00  0.00    -0.206 F 
ATOM     58  C   UNL A   1      34.382  34.714  29.714  1.00  0.00     0.060 A 
BRANCH  58  59
ATOM     59  S   UNL A   1      33.046  35.745  29.068  1.00  0.00     0.124 S 
ATOM     60  O   UNL A   1      33.790  36.826  28.434  1.00  0.00    -0.237 OA
ATOM     61  O   UNL A   1      32.358  34.827  28.166  1.00  0.00    -0.237 OA
ATOM     62  O   UNL A   1      32.296  36.109  30.267  1.00  0.00    -0.744 OA
ENDBRANCH  58  59
ENDBRANCH  26  51
BRANCH  38  63
ATOM     63  C   UNL A   1      39.924  34.244  36.840  1.00  0.00     0.058 A 
ATOM     64  C   UNL A   1      40.591  35.473  36.732  1.00  0.00     0.135 A 
ATOM     65  C   UNL A   1      39.087  34.042  37.949  1.00  0.00     0.135 A 
ATOM     66  F   UNL A   1      41.410  35.709  35.695  1.00  0.00    -0.206 F 
ATOM     67  C   UNL A   1      40.433  36.468  37.690  1.00  0.00     0.059 A 
ATOM     68  C   UNL A   1      38.899  35.030  38.908  1.00  0.00     0.059 A 
ATOM     69  F   UNL A   1      38.423  32.884  38.092  1.00  0.00    -0.206 F 
ATOM     70  C   UNL A   1      39.580  36.240  38.772  1.00  0.00     0.060 A 
BRANCH  70  71
ATOM     71  S   UNL A   1      39.330  37.563  39.976  1.00  0.00     0.124 S 
ATOM     72  O   UNL A   1      40.653  38.176  40.017  1.00  0.00    -0.237 OA
ATOM     73  O   UNL A   1      38.280  38.361  39.351  1.00  0.00    -0.237 OA
ATOM     74  O   UNL A   1      38.929  36.849  41.185  1.00  0.00    -0.744 OA
ENDBRANCH  70  71
ENDBRANCH  38  63
ENDBRANCH  12  13
ENDBRANCH   5   7
ENDBRANCH   2   3
ENDBRANCH   1   2
BRANCH   1  75
ATOM     75  C   UNL A   1      35.897  23.345  25.271  1.00  0.00     0.118 C 
BRANCH  75  76
ATOM     76  N   UNL A   1      35.156  23.386  24.020  1.00  0.00    -0.352 N 
ATOM     77  C   UNL A   1      34.172  24.268  23.666  1.00  0.00     0.255 C 
ATOM     78  H   UNL A   1      35.388  22.702  23.352  1.00  0.00     0.163 HD
ATOM     79  O   UNL A   1      33.718  24.289  22.527  1.00  0.00    -0.269 OA
BRANCH  77  80
ATOM     80  C   UNL A   1      33.607  25.145  24.696  1.00  0.00     0.082 A 
ATOM     81  C   UNL A   1      33.900  26.508  24.522  1.00  0.00     0.026 A 
ATOM     82  C   UNL A   1      32.769  24.720  25.727  1.00  0.00     0.132 A 
ATOM     83  C   UNL A   1      33.326  27.477  25.354  1.00  0.00    -0.017 A 
ATOM     84  C   UNL A   1      32.208  25.693  26.566  1.00  0.00     0.056 A 
ATOM     85  C   UNL A   1      33.566  28.845  25.157  1.00  0.00     0.009 A 
ATOM     86  C   UNL A   1      32.467  27.064  26.394  1.00  0.00    -0.015 A 
ATOM     87  C   UNL A   1      32.961  29.797  25.976  1.00  0.00     0.001 A 
ATOM     88  C   UNL A   1      31.871  28.034  27.214  1.00  0.00     0.009 A 
ATOM     89  C   UNL A   1      32.115  29.392  27.005  1.00  0.00     0.001 A 
BRANCH  82  90
ATOM     90  O   UNL A   1      32.291  23.469  25.974  1.00  0.00    -0.490 OA
BRANCH  90  91
ATOM     91  C   UNL A   1      31.054  23.030  25.402  1.00  0.00     0.257 C 
BRANCH  91  92
ATOM     92  C   UNL A   1      30.164  22.496  26.524  1.00  0.00     0.197 C 
BRANCH  92  93
ATOM     93  O   UNL A   1      29.558  23.572  27.239  1.00  0.00    -0.393 OA
ATOM     94  H   UNL A   1      28.596  23.444  27.259  1.00  0.00     0.210 HD
ENDBRANCH  92  93
ENDBRANCH  91  92
ENDBRANCH  90  91
ENDBRANCH  82  90
ENDBRANCH  77  80
ENDBRANCH  75  76
ENDBRANCH   1  75
TORSDOF 17
ENDMDL
