MODEL 1
REMARK VINA RESULT:     -12.4      0.000      0.000
REMARK SMILES CC(C)n1ncnc1C[C@@H](C(=O)NCCCNC(=O)c1ccc(-c2c3nc(c(-c4c(F)cc(S(=O)(=O)[O-])cc4F)c4ccc([nH]4)c(-c4c(F)cc(S(=O)(=O)[O-])cc4F)c4nc(c(-c5c(F)cc(S(=O)(=O)[O-])cc5F)c5ccc2[nH]5)C=C4)C=C3)cc1)c1cccc(Br)c1
REMARK SMILES IDX 15 1 14 2 13 3 11 4 12 5 10 7 9 8 8 9 4 10 5 11 6 12 7 13
REMARK SMILES IDX 2 14 1 15 3 16 86 17 87 18 92 19 88 20 90 21 89 22 91 23
REMARK SMILES IDX 16 24 17 25 18 26 19 28 20 29 21 30 85 31 22 32 84 33 23 34
REMARK SMILES IDX 24 35 25 36 78 37 26 38 83 39 77 40 79 41 27 42 82 43 76 44
REMARK SMILES IDX 75 45 28 47 62 48 41 49 61 50 42 51 45 52 60 53 80 54 43 55
REMARK SMILES IDX 44 56 59 58 81 59 46 60 29 61 30 62 39 63 31 64 32 65 38 66
REMARK SMILES IDX 40 67 33 68 34 69 35 70 36 71 37 72 63 73 64 74 73 75 65 76
REMARK SMILES IDX 66 77 72 78 74 79 67 80 68 81 69 82 70 83 71 84 47 85 48 86
REMARK SMILES IDX 57 87 49 88 50 89 56 90 58 91 51 92 52 93 53 94 54 95 55 96
REMARK H PARENT 13 6 17 27 79 46 45 57
REMARK Flexibility Score: inf
ROOT
ATOM      1  C   UNL A   1      37.946  21.390  25.303  1.00  0.00     0.042 C 
ENDROOT
BRANCH   1   2
ATOM      2  C   UNL A   1      36.644  22.182  25.430  1.00  0.00     0.117 C 
BRANCH   2   3
ATOM      3  N   UNL A   1      35.736  21.570  26.398  1.00  0.00    -0.355 N 
ATOM      4  C   UNL A   1      34.371  21.506  26.428  1.00  0.00     0.228 C 
ATOM      5  O   UNL A   1      33.850  21.280  27.521  1.00  0.00    -0.274 OA
ATOM      6  H   UNL A   1      36.183  21.128  27.155  1.00  0.00     0.163 HD
BRANCH   4   7
ATOM      7  C   UNL A   1      33.539  21.606  25.135  1.00  0.00     0.116 C 
BRANCH   7   8
ATOM      8  C   UNL A   1      32.144  22.204  25.458  1.00  0.00     0.095 C 
BRANCH   8   9
ATOM      9  C   UNL A   1      32.107  23.668  25.750  1.00  0.00     0.128 A 
ATOM     10  N   UNL A   1      32.638  24.701  24.997  1.00  0.00    -0.248 N 
ATOM     11  N   UNL A   1      32.368  25.888  25.593  1.00  0.00    -0.159 NA
ATOM     12  C   UNL A   1      31.603  25.529  26.621  1.00  0.00     0.246 A 
ATOM     13  N   UNL A   1      31.440  24.190  26.762  1.00  0.00    -0.220 NA
BRANCH  10  14
ATOM     14  C   UNL A   1      33.197  24.714  23.645  1.00  0.00     0.103 C 
ATOM     15  C   UNL A   1      32.230  24.135  22.592  1.00  0.00     0.033 C 
ATOM     16  C   UNL A   1      33.644  26.086  23.141  1.00  0.00     0.033 C 
ENDBRANCH  10  14
ENDBRANCH   8   9
ENDBRANCH   7   8
BRANCH   7  17
ATOM     17  C   UNL A   1      33.372  20.230  24.431  1.00  0.00    -0.034 A 
ATOM     18  C   UNL A   1      32.463  20.082  23.363  1.00  0.00     0.004 A 
ATOM     19  C   UNL A   1      34.088  19.081  24.822  1.00  0.00     0.020 A 
ATOM     20  C   UNL A   1      32.196  18.833  22.792  1.00  0.00     0.001 A 
ATOM     21  C   UNL A   1      33.827  17.835  24.241  1.00  0.00     0.018 A 
ATOM     22  C   UNL A   1      32.867  17.702  23.243  1.00  0.00     0.016 A 
ATOM     23  Br  UNL A   1      34.769  16.304  24.827  1.00  0.00    -0.051 Br
ENDBRANCH   7  17
ENDBRANCH   4   7
ENDBRANCH   2   3
ENDBRANCH   1   2
BRANCH   1  24
ATOM     24  C   UNL A   1      39.045  21.901  26.206  1.00  0.00     0.118 C 
BRANCH  24  25
ATOM     25  N   UNL A   1      40.407  21.813  25.701  1.00  0.00    -0.352 N 
ATOM     26  C   UNL A   1      41.437  22.741  25.795  1.00  0.00     0.251 C 
ATOM     27  H   UNL A   1      40.629  20.981  25.225  1.00  0.00     0.163 HD
ATOM     28  O   UNL A   1      42.496  22.505  25.209  1.00  0.00    -0.269 OA
BRANCH  26  29
ATOM     29  C   UNL A   1      41.284  24.010  26.564  1.00  0.00     0.039 A 
ATOM     30  C   UNL A   1      40.715  25.166  26.007  1.00  0.00     0.014 A 
ATOM     31  C   UNL A   1      41.735  24.082  27.872  1.00  0.00     0.014 A 
ATOM     32  C   UNL A   1      40.704  26.356  26.753  1.00  0.00     0.010 A 
ATOM     33  C   UNL A   1      41.435  25.122  28.690  1.00  0.00     0.010 A 
ATOM     34  C   UNL A   1      41.120  26.317  28.085  1.00  0.00    -0.014 A 
BRANCH  34  35
ATOM     35  C   UNL A   1      41.378  27.462  28.944  1.00  0.00     0.031 A 
ATOM     36  C   UNL A   1      42.394  28.408  28.433  1.00  0.00     0.074 A 
ATOM     37  C   UNL A   1      40.432  27.889  29.816  1.00  0.00     0.049 A 
ATOM     38  N   UNL A   1      43.569  28.647  28.913  1.00  0.00    -0.248 NA
ATOM     39  C   UNL A   1      42.131  29.061  27.138  1.00  0.00     0.031 C 
ATOM     40  C   UNL A   1      39.087  27.332  30.047  1.00  0.00     0.029 A 
ATOM     41  N   UNL A   1      40.412  29.020  30.569  1.00  0.00    -0.354 N 
ATOM     42  C   UNL A   1      44.089  29.651  28.103  1.00  0.00     0.074 A 
ATOM     43  C   UNL A   1      43.305  29.645  26.899  1.00  0.00     0.031 C 
ATOM     44  C   UNL A   1      38.333  28.232  30.717  1.00  0.00     0.029 A 
ATOM     45  C   UNL A   1      39.165  29.365  31.081  1.00  0.00     0.049 A 
ATOM     46  H   UNL A   1      41.220  29.556  30.741  1.00  0.00     0.167 HD
ATOM     47  C   UNL A   1      44.923  30.612  28.590  1.00  0.00     0.037 A 
ATOM     48  C   UNL A   1      38.840  30.526  31.705  1.00  0.00     0.037 A 
ATOM     49  C   UNL A   1      45.369  30.290  29.924  1.00  0.00     0.049 A 
ATOM     50  C   UNL A   1      40.119  31.175  32.108  1.00  0.00     0.074 A 
ATOM     51  C   UNL A   1      46.004  29.206  30.501  1.00  0.00     0.029 A 
ATOM     52  N   UNL A   1      44.808  30.990  30.969  1.00  0.00    -0.354 N 
ATOM     53  N   UNL A   1      40.949  30.691  32.993  1.00  0.00    -0.248 NA
ATOM     54  C   UNL A   1      40.690  32.162  31.204  1.00  0.00     0.031 C 
ATOM     55  C   UNL A   1      45.390  29.050  31.778  1.00  0.00     0.029 A 
ATOM     56  C   UNL A   1      44.458  30.079  31.934  1.00  0.00     0.049 A 
ATOM     57  H   UNL A   1      44.681  31.965  31.014  1.00  0.00     0.167 HD
ATOM     58  C   UNL A   1      42.214  30.990  32.505  1.00  0.00     0.074 A 
ATOM     59  C   UNL A   1      41.988  31.988  31.463  1.00  0.00     0.031 C 
ATOM     60  C   UNL A   1      43.289  30.195  32.785  1.00  0.00     0.037 A 
BRANCH  47  61
ATOM     61  C   UNL A   1      45.052  32.002  28.012  1.00  0.00     0.058 A 
ATOM     62  C   UNL A   1      46.281  32.394  27.445  1.00  0.00     0.135 A 
ATOM     63  C   UNL A   1      44.109  33.040  28.193  1.00  0.00     0.135 A 
ATOM     64  F   UNL A   1      47.257  31.494  27.246  1.00  0.00    -0.206 F 
ATOM     65  C   UNL A   1      46.572  33.723  27.138  1.00  0.00     0.059 A 
ATOM     66  C   UNL A   1      44.352  34.359  27.826  1.00  0.00     0.059 A 
ATOM     67  F   UNL A   1      42.946  32.856  28.828  1.00  0.00    -0.206 F 
ATOM     68  C   UNL A   1      45.603  34.700  27.345  1.00  0.00     0.060 A 
BRANCH  68  69
ATOM     69  S   UNL A   1      46.009  36.430  27.062  1.00  0.00     0.124 S 
ATOM     70  O   UNL A   1      44.692  36.991  26.781  1.00  0.00    -0.237 OA
ATOM     71  O   UNL A   1      46.611  36.815  28.335  1.00  0.00    -0.237 OA
ATOM     72  O   UNL A   1      46.931  36.378  25.932  1.00  0.00    -0.744 OA
ENDBRANCH  68  69
ENDBRANCH  47  61
BRANCH  48  73
ATOM     73  C   UNL A   1      37.538  31.250  31.724  1.00  0.00     0.058 A 
ATOM     74  C   UNL A   1      36.868  31.519  32.933  1.00  0.00     0.135 A 
ATOM     75  C   UNL A   1      37.048  31.924  30.587  1.00  0.00     0.135 A 
ATOM     76  F   UNL A   1      37.275  30.940  34.073  1.00  0.00    -0.206 F 
ATOM     77  C   UNL A   1      35.810  32.434  33.017  1.00  0.00     0.059 A 
ATOM     78  C   UNL A   1      35.986  32.829  30.643  1.00  0.00     0.059 A 
ATOM     79  F   UNL A   1      37.647  31.792  29.395  1.00  0.00    -0.206 F 
ATOM     80  C   UNL A   1      35.387  33.099  31.868  1.00  0.00     0.060 A 
BRANCH  80  81
ATOM     81  S   UNL A   1      34.141  34.404  32.002  1.00  0.00     0.124 S 
ATOM     82  O   UNL A   1      34.940  35.540  32.450  1.00  0.00    -0.237 OA
ATOM     83  O   UNL A   1      33.631  34.485  30.637  1.00  0.00    -0.237 OA
ATOM     84  O   UNL A   1      33.200  33.877  32.985  1.00  0.00    -0.744 OA
ENDBRANCH  80  81
ENDBRANCH  48  73
BRANCH  60  85
ATOM     85  C   UNL A   1      43.163  29.180  33.895  1.00  0.00     0.058 A 
ATOM     86  C   UNL A   1      43.325  29.475  35.261  1.00  0.00     0.135 A 
ATOM     87  C   UNL A   1      42.693  27.898  33.574  1.00  0.00     0.135 A 
ATOM     88  F   UNL A   1      43.668  30.703  35.666  1.00  0.00    -0.206 F 
ATOM     89  C   UNL A   1      43.065  28.531  36.256  1.00  0.00     0.059 A 
ATOM     90  C   UNL A   1      42.395  26.950  34.551  1.00  0.00     0.059 A 
ATOM     91  F   UNL A   1      42.458  27.570  32.292  1.00  0.00    -0.206 F 
ATOM     92  C   UNL A   1      42.594  27.272  35.893  1.00  0.00     0.060 A 
BRANCH  92  93
ATOM     93  S   UNL A   1      42.158  26.091  37.187  1.00  0.00     0.124 S 
ATOM     94  O   UNL A   1      40.741  26.373  37.395  1.00  0.00    -0.237 OA
ATOM     95  O   UNL A   1      42.461  24.805  36.563  1.00  0.00    -0.237 OA
ATOM     96  O   UNL A   1      43.036  26.457  38.294  1.00  0.00    -0.744 OA
ENDBRANCH  92  93
ENDBRANCH  60  85
ENDBRANCH  34  35
ENDBRANCH  26  29
ENDBRANCH  24  25
ENDBRANCH   1  24
TORSDOF 17
ENDMDL
MODEL 2
REMARK VINA RESULT:     -12.4      1.743      2.882
REMARK SMILES CC(C)n1ncnc1C[C@@H](C(=O)NCCCNC(=O)c1ccc(-c2c3nc(c(-c4c(F)cc(S(=O)(=O)[O-])cc4F)c4ccc([nH]4)c(-c4c(F)cc(S(=O)(=O)[O-])cc4F)c4nc(c(-c5c(F)cc(S(=O)(=O)[O-])cc5F)c5ccc2[nH]5)C=C4)C=C3)cc1)c1cccc(Br)c1
REMARK SMILES IDX 15 1 14 2 13 3 11 4 12 5 10 7 9 8 8 9 4 10 5 11 6 12 7 13
REMARK SMILES IDX 2 14 1 15 3 16 86 17 87 18 92 19 88 20 90 21 89 22 91 23
REMARK SMILES IDX 16 24 17 25 18 26 19 28 20 29 21 30 85 31 22 32 84 33 23 34
REMARK SMILES IDX 24 35 25 36 78 37 26 38 83 39 77 40 79 41 27 42 82 43 76 44
REMARK SMILES IDX 75 45 28 47 62 48 41 49 61 50 42 51 45 52 60 53 80 54 43 55
REMARK SMILES IDX 44 56 59 58 81 59 46 60 29 61 30 62 39 63 31 64 32 65 38 66
REMARK SMILES IDX 40 67 33 68 34 69 35 70 36 71 37 72 63 73 64 74 73 75 65 76
REMARK SMILES IDX 66 77 72 78 74 79 67 80 68 81 69 82 70 83 71 84 47 85 48 86
REMARK SMILES IDX 57 87 49 88 50 89 56 90 58 91 51 92 52 93 53 94 54 95 55 96
REMARK H PARENT 13 6 17 27 79 46 45 57
REMARK Flexibility Score: inf
ROOT
ATOM      1  C   UNL A   1      38.315  21.672  25.810  1.00  0.00     0.042 C 
ENDROOT
BRANCH   1   2
ATOM      2  C   UNL A   1      37.718  23.065  25.599  1.00  0.00     0.117 C 
BRANCH   2   3
ATOM      3  N   UNL A   1      37.430  23.315  24.189  1.00  0.00    -0.355 N 
ATOM      4  C   UNL A   1      36.267  23.199  23.478  1.00  0.00     0.228 C 
ATOM      5  O   UNL A   1      36.372  23.097  22.255  1.00  0.00    -0.274 OA
ATOM      6  H   UNL A   1      38.203  23.619  23.661  1.00  0.00     0.163 HD
BRANCH   4   7
ATOM      7  C   UNL A   1      34.896  23.303  24.172  1.00  0.00     0.116 C 
BRANCH   7   8
ATOM      8  C   UNL A   1      33.901  22.315  23.507  1.00  0.00     0.095 C 
BRANCH   8   9
ATOM      9  C   UNL A   1      33.345  21.246  24.389  1.00  0.00     0.128 A 
ATOM     10  N   UNL A   1      32.306  21.347  25.299  1.00  0.00    -0.248 N 
ATOM     11  N   UNL A   1      32.090  20.142  25.882  1.00  0.00    -0.159 NA
ATOM     12  C   UNL A   1      32.935  19.348  25.229  1.00  0.00     0.246 A 
ATOM     13  N   UNL A   1      33.728  19.985  24.331  1.00  0.00    -0.220 NA
BRANCH  10  14
ATOM     14  C   UNL A   1      31.335  22.415  25.533  1.00  0.00     0.103 C 
ATOM     15  C   UNL A   1      31.781  23.401  26.631  1.00  0.00     0.033 C 
ATOM     16  C   UNL A   1      30.975  23.244  24.300  1.00  0.00     0.033 C 
ENDBRANCH  10  14
ENDBRANCH   8   9
ENDBRANCH   7   8
BRANCH   7  17
ATOM     17  C   UNL A   1      34.316  24.744  24.127  1.00  0.00    -0.034 A 
ATOM     18  C   UNL A   1      33.787  25.263  22.927  1.00  0.00     0.004 A 
ATOM     19  C   UNL A   1      34.305  25.597  25.248  1.00  0.00     0.020 A 
ATOM     20  C   UNL A   1      33.375  26.595  22.820  1.00  0.00     0.001 A 
ATOM     21  C   UNL A   1      33.881  26.927  25.140  1.00  0.00     0.018 A 
ATOM     22  C   UNL A   1      33.437  27.436  23.925  1.00  0.00     0.016 A 
ATOM     23  Br  UNL A   1      33.928  28.059  26.655  1.00  0.00    -0.051 Br
ENDBRANCH   7  17
ENDBRANCH   4   7
ENDBRANCH   2   3
ENDBRANCH   1   2
BRANCH   1  24
ATOM     24  C   UNL A   1      39.610  21.691  26.590  1.00  0.00     0.118 C 
BRANCH  24  25
ATOM     25  N   UNL A   1      40.840  21.813  25.822  1.00  0.00    -0.352 N 
ATOM     26  C   UNL A   1      41.708  22.893  25.725  1.00  0.00     0.251 C 
ATOM     27  H   UNL A   1      41.092  21.019  25.298  1.00  0.00     0.163 HD
ATOM     28  O   UNL A   1      42.652  22.819  24.935  1.00  0.00    -0.269 OA
BRANCH  26  29
ATOM     29  C   UNL A   1      41.512  24.134  26.530  1.00  0.00     0.039 A 
ATOM     30  C   UNL A   1      40.830  25.256  26.033  1.00  0.00     0.014 A 
ATOM     31  C   UNL A   1      42.036  24.214  27.809  1.00  0.00     0.014 A 
ATOM     32  C   UNL A   1      40.780  26.428  26.805  1.00  0.00     0.010 A 
ATOM     33  C   UNL A   1      41.713  25.215  28.667  1.00  0.00     0.010 A 
ATOM     34  C   UNL A   1      41.278  26.395  28.110  1.00  0.00    -0.014 A 
BRANCH  34  35
ATOM     35  C   UNL A   1      41.506  27.539  28.977  1.00  0.00     0.031 A 
ATOM     36  C   UNL A   1      42.511  28.505  28.483  1.00  0.00     0.074 A 
ATOM     37  C   UNL A   1      40.543  27.945  29.840  1.00  0.00     0.049 A 
ATOM     38  N   UNL A   1      43.676  28.763  28.978  1.00  0.00    -0.248 NA
ATOM     39  C   UNL A   1      42.251  29.161  27.189  1.00  0.00     0.031 C 
ATOM     40  C   UNL A   1      39.205  27.363  30.053  1.00  0.00     0.029 A 
ATOM     41  N   UNL A   1      40.494  29.071  30.599  1.00  0.00    -0.354 N 
ATOM     42  C   UNL A   1      44.187  29.780  28.180  1.00  0.00     0.074 A 
ATOM     43  C   UNL A   1      43.417  29.767  26.967  1.00  0.00     0.031 C 
ATOM     44  C   UNL A   1      38.428  28.246  30.719  1.00  0.00     0.029 A 
ATOM     45  C   UNL A   1      39.235  29.391  31.098  1.00  0.00     0.049 A 
ATOM     46  H   UNL A   1      41.291  29.621  30.783  1.00  0.00     0.167 HD
ATOM     47  C   UNL A   1      44.999  30.753  28.681  1.00  0.00     0.037 A 
ATOM     48  C   UNL A   1      38.883  30.544  31.725  1.00  0.00     0.037 A 
ATOM     49  C   UNL A   1      45.435  30.432  30.019  1.00  0.00     0.049 A 
ATOM     50  C   UNL A   1      40.145  31.213  32.146  1.00  0.00     0.074 A 
ATOM     51  C   UNL A   1      46.083  29.356  30.597  1.00  0.00     0.029 A 
ATOM     52  N   UNL A   1      44.849  31.116  31.060  1.00  0.00    -0.354 N 
ATOM     53  N   UNL A   1      40.973  30.738  33.038  1.00  0.00    -0.248 NA
ATOM     54  C   UNL A   1      40.709  32.215  31.254  1.00  0.00     0.031 C 
ATOM     55  C   UNL A   1      45.456  29.182  31.866  1.00  0.00     0.029 A 
ATOM     56  C   UNL A   1      44.504  30.193  32.017  1.00  0.00     0.049 A 
ATOM     57  H   UNL A   1      44.705  32.089  31.109  1.00  0.00     0.167 HD
ATOM     58  C   UNL A   1      42.239  31.062  32.566  1.00  0.00     0.074 A 
ATOM     59  C   UNL A   1      42.007  32.062  31.527  1.00  0.00     0.031 C 
ATOM     60  C   UNL A   1      43.325  30.285  32.854  1.00  0.00     0.037 A 
BRANCH  47  61
ATOM     61  C   UNL A   1      45.110  32.148  28.111  1.00  0.00     0.058 A 
ATOM     62  C   UNL A   1      46.356  32.589  27.625  1.00  0.00     0.135 A 
ATOM     63  C   UNL A   1      44.117  33.148  28.231  1.00  0.00     0.135 A 
ATOM     64  F   UNL A   1      47.378  31.729  27.489  1.00  0.00    -0.206 F 
ATOM     65  C   UNL A   1      46.615  33.929  27.337  1.00  0.00     0.059 A 
ATOM     66  C   UNL A   1      44.331  34.476  27.880  1.00  0.00     0.059 A 
ATOM     67  F   UNL A   1      42.924  32.917  28.790  1.00  0.00    -0.206 F 
ATOM     68  C   UNL A   1      45.596  34.867  27.480  1.00  0.00     0.060 A 
BRANCH  68  69
ATOM     69  S   UNL A   1      45.952  36.612  27.223  1.00  0.00     0.124 S 
ATOM     70  O   UNL A   1      44.614  37.145  26.989  1.00  0.00    -0.237 OA
ATOM     71  O   UNL A   1      46.577  36.986  28.488  1.00  0.00    -0.237 OA
ATOM     72  O   UNL A   1      46.844  36.607  26.068  1.00  0.00    -0.744 OA
ENDBRANCH  68  69
ENDBRANCH  47  61
BRANCH  48  73
ATOM     73  C   UNL A   1      37.568  31.244  31.732  1.00  0.00     0.058 A 
ATOM     74  C   UNL A   1      36.888  31.509  32.936  1.00  0.00     0.135 A 
ATOM     75  C   UNL A   1      37.073  31.903  30.589  1.00  0.00     0.135 A 
ATOM     76  F   UNL A   1      37.299  30.945  34.081  1.00  0.00    -0.206 F 
ATOM     77  C   UNL A   1      35.813  32.405  33.009  1.00  0.00     0.059 A 
ATOM     78  C   UNL A   1      35.995  32.789  30.633  1.00  0.00     0.059 A 
ATOM     79  F   UNL A   1      37.680  31.774  29.401  1.00  0.00    -0.206 F 
ATOM     80  C   UNL A   1      35.384  33.056  31.853  1.00  0.00     0.060 A 
BRANCH  80  81
ATOM     81  S   UNL A   1      34.114  34.339  31.973  1.00  0.00     0.124 S 
ATOM     82  O   UNL A   1      33.627  34.411  30.599  1.00  0.00    -0.237 OA
ATOM     83  O   UNL A   1      33.189  33.768  32.946  1.00  0.00    -0.237 OA
ATOM     84  O   UNL A   1      34.854  35.509  32.434  1.00  0.00    -0.744 OA
ENDBRANCH  80  81
ENDBRANCH  48  73
BRANCH  60  85
ATOM     85  C   UNL A   1      43.204  29.262  33.957  1.00  0.00     0.058 A 
ATOM     86  C   UNL A   1      43.374  29.546  35.324  1.00  0.00     0.135 A 
ATOM     87  C   UNL A   1      42.729  27.982  33.630  1.00  0.00     0.135 A 
ATOM     88  F   UNL A   1      43.721  30.771  35.737  1.00  0.00    -0.206 F 
ATOM     89  C   UNL A   1      43.118  28.595  36.314  1.00  0.00     0.059 A 
ATOM     90  C   UNL A   1      42.437  27.028  34.601  1.00  0.00     0.059 A 
ATOM     91  F   UNL A   1      42.487  27.665  32.347  1.00  0.00    -0.206 F 
ATOM     92  C   UNL A   1      42.643  27.339  35.944  1.00  0.00     0.060 A 
BRANCH  92  93
ATOM     93  S   UNL A   1      42.213  26.149  37.233  1.00  0.00     0.124 S 
ATOM     94  O   UNL A   1      42.580  24.880  36.612  1.00  0.00    -0.237 OA
ATOM     95  O   UNL A   1      43.051  26.572  38.351  1.00  0.00    -0.237 OA
ATOM     96  O   UNL A   1      40.781  26.358  37.426  1.00  0.00    -0.744 OA
ENDBRANCH  92  93
ENDBRANCH  60  85
ENDBRANCH  34  35
ENDBRANCH  26  29
ENDBRANCH  24  25
ENDBRANCH   1  24
TORSDOF 17
ENDMDL
MODEL 3
REMARK VINA RESULT:     -12.0      3.693      9.836
REMARK SMILES CC(C)n1ncnc1C[C@@H](C(=O)NCCCNC(=O)c1ccc(-c2c3nc(c(-c4c(F)cc(S(=O)(=O)[O-])cc4F)c4ccc([nH]4)c(-c4c(F)cc(S(=O)(=O)[O-])cc4F)c4nc(c(-c5c(F)cc(S(=O)(=O)[O-])cc5F)c5ccc2[nH]5)C=C4)C=C3)cc1)c1cccc(Br)c1
REMARK SMILES IDX 15 1 14 2 13 3 11 4 12 5 10 7 9 8 8 9 4 10 5 11 6 12 7 13
REMARK SMILES IDX 2 14 1 15 3 16 86 17 87 18 92 19 88 20 90 21 89 22 91 23
REMARK SMILES IDX 16 24 17 25 18 26 19 28 20 29 21 30 85 31 22 32 84 33 23 34
REMARK SMILES IDX 24 35 25 36 78 37 26 38 83 39 77 40 79 41 27 42 82 43 76 44
REMARK SMILES IDX 75 45 28 47 62 48 41 49 61 50 42 51 45 52 60 53 80 54 43 55
REMARK SMILES IDX 44 56 59 58 81 59 46 60 29 61 30 62 39 63 31 64 32 65 38 66
REMARK SMILES IDX 40 67 33 68 34 69 35 70 36 71 37 72 63 73 64 74 73 75 65 76
REMARK SMILES IDX 66 77 72 78 74 79 67 80 68 81 69 82 70 83 71 84 47 85 48 86
REMARK SMILES IDX 57 87 49 88 50 89 56 90 58 91 51 92 52 93 53 94 54 95 55 96
REMARK H PARENT 13 6 17 27 79 46 45 57
REMARK Flexibility Score: inf
ROOT
ATOM      1  C   UNL A   1      34.211  30.251  27.350  1.00  0.00     0.042 C 
ENDROOT
BRANCH   1   2
ATOM      2  C   UNL A   1      32.989  29.726  26.595  1.00  0.00     0.117 C 
BRANCH   2   3
ATOM      3  N   UNL A   1      33.129  29.916  25.153  1.00  0.00    -0.355 N 
ATOM      4  C   UNL A   1      32.733  29.132  24.105  1.00  0.00     0.228 C 
ATOM      5  O   UNL A   1      33.299  29.320  23.027  1.00  0.00    -0.274 OA
ATOM      6  H   UNL A   1      33.584  30.749  24.892  1.00  0.00     0.163 HD
BRANCH   4   7
ATOM      7  C   UNL A   1      31.562  28.141  24.248  1.00  0.00     0.116 C 
BRANCH   7   8
ATOM      8  C   UNL A   1      31.860  26.861  23.424  1.00  0.00     0.095 C 
BRANCH   8   9
ATOM      9  C   UNL A   1      32.652  25.801  24.118  1.00  0.00     0.128 A 
ATOM     10  N   UNL A   1      32.184  24.789  24.940  1.00  0.00    -0.248 N 
ATOM     11  N   UNL A   1      33.220  24.018  25.350  1.00  0.00    -0.159 NA
ATOM     12  C   UNL A   1      34.249  24.534  24.681  1.00  0.00     0.246 A 
ATOM     13  N   UNL A   1      33.948  25.629  23.940  1.00  0.00    -0.220 NA
BRANCH  10  14
ATOM     14  C   UNL A   1      30.824  24.329  25.216  1.00  0.00     0.103 C 
ATOM     15  C   UNL A   1      30.786  22.950  25.907  1.00  0.00     0.033 C 
ATOM     16  C   UNL A   1      29.976  25.280  26.061  1.00  0.00     0.033 C 
ENDBRANCH  10  14
ENDBRANCH   8   9
ENDBRANCH   7   8
BRANCH   7  17
ATOM     17  C   UNL A   1      30.208  28.756  23.794  1.00  0.00    -0.034 A 
ATOM     18  C   UNL A   1      29.132  27.920  23.432  1.00  0.00     0.004 A 
ATOM     19  C   UNL A   1      29.993  30.145  23.705  1.00  0.00     0.020 A 
ATOM     20  C   UNL A   1      27.946  28.437  22.900  1.00  0.00     0.001 A 
ATOM     21  C   UNL A   1      28.800  30.659  23.183  1.00  0.00     0.018 A 
ATOM     22  C   UNL A   1      27.785  29.810  22.759  1.00  0.00     0.016 A 
ATOM     23  Br  UNL A   1      28.566  32.530  23.029  1.00  0.00    -0.051 Br
ENDBRANCH   7  17
ENDBRANCH   4   7
ENDBRANCH   2   3
ENDBRANCH   1   2
BRANCH   1  24
ATOM     24  C   UNL A   1      34.174  31.744  27.582  1.00  0.00     0.118 C 
BRANCH  24  25
ATOM     25  N   UNL A   1      34.012  32.194  28.956  1.00  0.00    -0.352 N 
ATOM     26  C   UNL A   1      34.841  31.983  30.050  1.00  0.00     0.251 C 
ATOM     27  H   UNL A   1      33.200  32.721  29.136  1.00  0.00     0.163 HD
ATOM     28  O   UNL A   1      34.465  32.375  31.157  1.00  0.00    -0.269 OA
BRANCH  26  29
ATOM     29  C   UNL A   1      36.152  31.282  29.920  1.00  0.00     0.039 A 
ATOM     30  C   UNL A   1      36.285  29.894  30.087  1.00  0.00     0.014 A 
ATOM     31  C   UNL A   1      37.298  32.010  29.646  1.00  0.00     0.014 A 
ATOM     32  C   UNL A   1      37.566  29.318  30.059  1.00  0.00     0.010 A 
ATOM     33  C   UNL A   1      38.471  31.420  29.303  1.00  0.00     0.010 A 
ATOM     34  C   UNL A   1      38.655  30.120  29.712  1.00  0.00    -0.014 A 
BRANCH  34  35
ATOM     35  C   UNL A   1      40.061  29.766  29.831  1.00  0.00     0.031 A 
ATOM     36  C   UNL A   1      40.496  29.394  31.195  1.00  0.00     0.074 A 
ATOM     37  C   UNL A   1      40.745  29.311  28.752  1.00  0.00     0.049 A 
ATOM     38  N   UNL A   1      41.296  30.038  31.977  1.00  0.00    -0.248 NA
ATOM     39  C   UNL A   1      39.844  28.233  31.827  1.00  0.00     0.031 C 
ATOM     40  C   UNL A   1      40.250  29.106  27.379  1.00  0.00     0.029 A 
ATOM     41  N   UNL A   1      41.994  28.777  28.695  1.00  0.00    -0.354 N 
ATOM     42  C   UNL A   1      41.417  29.235  33.106  1.00  0.00     0.074 A 
ATOM     43  C   UNL A   1      40.307  28.324  33.074  1.00  0.00     0.031 C 
ATOM     44  C   UNL A   1      41.115  28.320  26.699  1.00  0.00     0.029 A 
ATOM     45  C   UNL A   1      42.280  28.074  27.529  1.00  0.00     0.049 A 
ATOM     46  H   UNL A   1      42.647  28.880  29.424  1.00  0.00     0.167 HD
ATOM     47  C   UNL A   1      42.573  29.168  33.824  1.00  0.00     0.037 A 
ATOM     48  C   UNL A   1      43.374  27.302  27.298  1.00  0.00     0.037 A 
ATOM     49  C   UNL A   1      43.500  30.197  33.419  1.00  0.00     0.049 A 
ATOM     50  C   UNL A   1      44.388  27.668  28.327  1.00  0.00     0.074 A 
ATOM     51  C   UNL A   1      43.441  31.575  33.320  1.00  0.00     0.029 A 
ATOM     52  N   UNL A   1      44.575  29.816  32.647  1.00  0.00    -0.354 N 
ATOM     53  N   UNL A   1      44.971  28.833  28.410  1.00  0.00    -0.248 NA
ATOM     54  C   UNL A   1      44.440  26.865  29.539  1.00  0.00     0.031 C 
ATOM     55  C   UNL A   1      44.162  31.895  32.133  1.00  0.00     0.029 A 
ATOM     56  C   UNL A   1      44.670  30.705  31.605  1.00  0.00     0.049 A 
ATOM     57  H   UNL A   1      45.167  29.047  32.813  1.00  0.00     0.167 HD
ATOM     58  C   UNL A   1      45.096  29.079  29.771  1.00  0.00     0.074 A 
ATOM     59  C   UNL A   1      44.853  27.789  30.410  1.00  0.00     0.031 C 
ATOM     60  C   UNL A   1      45.096  30.353  30.265  1.00  0.00     0.037 A 
BRANCH  47  61
ATOM     61  C   UNL A   1      43.005  27.969  34.635  1.00  0.00     0.058 A 
ATOM     62  C   UNL A   1      43.237  28.126  36.016  1.00  0.00     0.135 A 
ATOM     63  C   UNL A   1      43.424  26.735  34.087  1.00  0.00     0.135 A 
ATOM     64  F   UNL A   1      42.897  29.266  36.639  1.00  0.00    -0.206 F 
ATOM     65  C   UNL A   1      43.889  27.158  36.779  1.00  0.00     0.059 A 
ATOM     66  C   UNL A   1      44.010  25.727  34.844  1.00  0.00     0.059 A 
ATOM     67  F   UNL A   1      43.387  26.479  32.774  1.00  0.00    -0.206 F 
ATOM     68  C   UNL A   1      44.282  25.966  36.179  1.00  0.00     0.060 A 
BRANCH  68  69
ATOM     69  S   UNL A   1      45.226  24.761  37.126  1.00  0.00     0.124 S 
ATOM     70  O   UNL A   1      44.704  24.983  38.471  1.00  0.00    -0.237 OA
ATOM     71  O   UNL A   1      44.844  23.505  36.490  1.00  0.00    -0.237 OA
ATOM     72  O   UNL A   1      46.609  25.172  36.907  1.00  0.00    -0.744 OA
ENDBRANCH  68  69
ENDBRANCH  47  61
BRANCH  48  73
ATOM     73  C   UNL A   1      43.502  26.085  26.449  1.00  0.00     0.058 A 
ATOM     74  C   UNL A   1      44.569  25.934  25.543  1.00  0.00     0.135 A 
ATOM     75  C   UNL A   1      42.733  24.928  26.691  1.00  0.00     0.135 A 
ATOM     76  F   UNL A   1      45.369  26.974  25.265  1.00  0.00    -0.206 F 
ATOM     77  C   UNL A   1      44.882  24.704  24.950  1.00  0.00     0.059 A 
ATOM     78  C   UNL A   1      43.016  23.695  26.102  1.00  0.00     0.059 A 
ATOM     79  F   UNL A   1      41.731  24.939  27.582  1.00  0.00    -0.206 F 
ATOM     80  C   UNL A   1      44.109  23.583  25.251  1.00  0.00     0.060 A 
BRANCH  80  81
ATOM     81  S   UNL A   1      44.612  21.962  24.625  1.00  0.00     0.124 S 
ATOM     82  O   UNL A   1      46.004  21.889  25.058  1.00  0.00    -0.237 OA
ATOM     83  O   UNL A   1      43.686  21.066  25.310  1.00  0.00    -0.237 OA
ATOM     84  O   UNL A   1      44.413  22.075  23.184  1.00  0.00    -0.744 OA
ENDBRANCH  80  81
ENDBRANCH  48  73
BRANCH  60  85
ATOM     85  C   UNL A   1      45.293  31.498  29.301  1.00  0.00     0.058 A 
ATOM     86  C   UNL A   1      46.548  31.963  28.869  1.00  0.00     0.135 A 
ATOM     87  C   UNL A   1      44.164  32.031  28.660  1.00  0.00     0.135 A 
ATOM     88  F   UNL A   1      47.681  31.436  29.347  1.00  0.00    -0.206 F 
ATOM     89  C   UNL A   1      46.674  32.934  27.874  1.00  0.00     0.059 A 
ATOM     90  C   UNL A   1      44.266  32.977  27.643  1.00  0.00     0.059 A 
ATOM     91  F   UNL A   1      42.937  31.587  28.982  1.00  0.00    -0.206 F 
ATOM     92  C   UNL A   1      45.527  33.432  27.261  1.00  0.00     0.060 A 
BRANCH  92  93
ATOM     93  S   UNL A   1      45.698  34.609  25.902  1.00  0.00     0.124 S 
ATOM     94  O   UNL A   1      45.695  35.889  26.603  1.00  0.00    -0.237 OA
ATOM     95  O   UNL A   1      46.971  34.219  25.301  1.00  0.00    -0.237 OA
ATOM     96  O   UNL A   1      44.524  34.348  25.074  1.00  0.00    -0.744 OA
ENDBRANCH  92  93
ENDBRANCH  60  85
ENDBRANCH  34  35
ENDBRANCH  26  29
ENDBRANCH  24  25
ENDBRANCH   1  24
TORSDOF 17
ENDMDL
