MODEL 1
REMARK VINA RESULT:     -12.6      0.000      0.000
REMARK SMILES O=C1NC(=O)/C(=C/c2ccc(OCc3cn(-c4ccc(C(=O)NCCCNC(=O)c5ccc(-c6c7nc(c(-c8c(F)cc(S(=O)(=O)[O-])cc8F)c8ccc([nH]8)c(-c8c(F)cc(S(=O)(=O)[O-])cc8F)c8nc(c(-c9c(F)cc(S(=O)(=O)[O-])cc9F)c9ccc6[nH]9)C=C8)C=C7)cc5)cc4)nn3)cc2)S1
REMARK SMILES IDX 24 1 23 2 21 3 22 4 20 6 17 7 18 8 97 9 19 10 96 11 16 12
REMARK SMILES IDX 14 13 15 14 99 15 98 16 13 17 12 18 11 19 8 20 9 21 101 22
REMARK SMILES IDX 10 23 100 24 7 25 1 26 2 27 3 28 102 29 4 30 6 32 5 33 25 34
REMARK SMILES IDX 26 35 27 36 28 37 29 39 30 40 31 41 95 42 32 43 94 44 33 45
REMARK SMILES IDX 34 46 35 47 88 48 36 49 93 50 87 51 89 52 37 53 92 54 86 55
REMARK SMILES IDX 85 56 38 58 72 59 51 60 71 61 52 62 55 63 70 64 90 65 53 66
REMARK SMILES IDX 54 67 69 69 91 70 56 71 39 72 40 73 49 74 41 75 42 76 48 77
REMARK SMILES IDX 50 78 43 79 44 80 45 81 46 82 47 83 73 84 74 85 83 86 75 87
REMARK SMILES IDX 76 88 82 89 84 90 77 91 78 92 79 93 80 94 81 95 57 96 58 97
REMARK SMILES IDX 67 98 59 99 60 100 66 101 68 102 61 103 62 104 63 105 64 106
REMARK SMILES IDX 65 107
REMARK H PARENT 23 5 3 31 27 38 89 57 55 68
REMARK Flexibility Score: inf
ROOT
ATOM      1  C   UNL A   1      40.846  21.914  27.980  1.00  0.00     0.118 C 
ENDROOT
BRANCH   1   2
ATOM      2  N   UNL A   1      41.113  20.803  27.079  1.00  0.00    -0.352 N 
ATOM      3  C   UNL A   1      40.379  20.250  26.058  1.00  0.00     0.251 C 
ATOM      4  O   UNL A   1      40.902  19.366  25.384  1.00  0.00    -0.269 OA
ATOM      5  H   UNL A   1      41.982  20.365  27.230  1.00  0.00     0.163 HD
BRANCH   3   6
ATOM      6  C   UNL A   1      39.013  20.725  25.695  1.00  0.00     0.039 A 
ATOM      7  C   UNL A   1      36.413  21.669  25.263  1.00  0.00     0.066 A 
ATOM      8  C   UNL A   1      37.406  22.549  25.712  1.00  0.00     0.029 A 
ATOM      9  C   UNL A   1      36.729  20.352  24.950  1.00  0.00     0.029 A 
ATOM     10  C   UNL A   1      38.694  22.064  25.956  1.00  0.00     0.016 A 
ATOM     11  C   UNL A   1      38.037  19.914  25.111  1.00  0.00     0.016 A 
BRANCH   7  12
ATOM     12  N   UNL A   1      35.090  22.110  25.114  1.00  0.00    -0.220 N 
ATOM     13  C   UNL A   1      33.121  22.662  24.358  1.00  0.00     0.120 A 
ATOM     14  C   UNL A   1      34.311  22.083  23.978  1.00  0.00     0.144 A 
ATOM     15  N   UNL A   1      33.199  22.970  25.692  1.00  0.00    -0.131 NA
ATOM     16  N   UNL A   1      34.381  22.599  26.148  1.00  0.00    -0.062 NA
BRANCH  13  17
ATOM     17  C   UNL A   1      31.846  22.857  23.609  1.00  0.00     0.289 C 
BRANCH  17  18
ATOM     18  O   UNL A   1      31.800  23.996  22.732  1.00  0.00    -0.487 OA
BRANCH  18  19
ATOM     19  C   UNL A   1      31.526  25.224  23.269  1.00  0.00     0.119 A 
ATOM     20  C   UNL A   1      31.384  27.802  24.381  1.00  0.00    -0.024 A 
ATOM     21  C   UNL A   1      32.072  27.590  23.183  1.00  0.00     0.012 A 
ATOM     22  C   UNL A   1      30.690  26.739  24.961  1.00  0.00     0.012 A 
ATOM     23  C   UNL A   1      32.147  26.303  22.637  1.00  0.00     0.047 A 
ATOM     24  C   UNL A   1      30.730  25.468  24.385  1.00  0.00     0.047 A 
BRANCH  20  25
ATOM     25  C   UNL A   1      31.368  29.120  25.018  1.00  0.00     0.029 C 
ATOM     26  O   UNL A   1      35.256  30.271  28.016  1.00  0.00    -0.261 OA
ATOM     27  C   UNL A   1      34.227  30.205  27.348  1.00  0.00     0.290 C 
ATOM     28  N   UNL A   1      33.254  31.141  27.313  1.00  0.00    -0.282 N 
ATOM     29  S   UNL A   1      33.811  28.870  26.297  1.00  0.00    -0.022 SA
ATOM     30  C   UNL A   1      32.172  30.915  26.514  1.00  0.00     0.265 C 
ATOM     31  H   UNL A   1      33.324  31.964  27.850  1.00  0.00     0.174 HD
ATOM     32  C   UNL A   1      32.316  29.599  25.837  1.00  0.00     0.083 C 
ATOM     33  O   UNL A   1      31.224  31.671  26.392  1.00  0.00    -0.268 OA
ENDBRANCH  20  25
ENDBRANCH  18  19
ENDBRANCH  17  18
ENDBRANCH  13  17
ENDBRANCH   7  12
ENDBRANCH   3   6
ENDBRANCH   1   2
BRANCH   1  34
ATOM     34  C   UNL A   1      41.915  23.014  27.875  1.00  0.00     0.042 C 
BRANCH  34  35
ATOM     35  C   UNL A   1      41.857  23.724  26.541  1.00  0.00     0.118 C 
BRANCH  35  36
ATOM     36  N   UNL A   1      43.177  23.820  25.896  1.00  0.00    -0.352 N 
ATOM     37  C   UNL A   1      43.853  24.959  25.477  1.00  0.00     0.251 C 
ATOM     38  H   UNL A   1      43.641  22.966  25.742  1.00  0.00     0.163 HD
ATOM     39  O   UNL A   1      44.763  24.889  24.662  1.00  0.00    -0.269 OA
BRANCH  37  40
ATOM     40  C   UNL A   1      43.441  26.248  26.056  1.00  0.00     0.039 A 
ATOM     41  C   UNL A   1      42.438  27.067  25.533  1.00  0.00     0.014 A 
ATOM     42  C   UNL A   1      44.058  26.570  27.250  1.00  0.00     0.014 A 
ATOM     43  C   UNL A   1      42.056  28.183  26.277  1.00  0.00     0.010 A 
ATOM     44  C   UNL A   1      43.388  27.358  28.121  1.00  0.00     0.010 A 
ATOM     45  C   UNL A   1      42.555  28.314  27.581  1.00  0.00    -0.014 A 
BRANCH  45  46
ATOM     46  C   UNL A   1      42.256  29.413  28.478  1.00  0.00     0.031 A 
ATOM     47  C   UNL A   1      43.225  30.526  28.417  1.00  0.00     0.074 A 
ATOM     48  C   UNL A   1      41.041  29.526  29.067  1.00  0.00     0.049 A 
ATOM     49  N   UNL A   1      44.115  30.838  29.297  1.00  0.00    -0.248 NA
ATOM     50  C   UNL A   1      43.352  31.266  27.150  1.00  0.00     0.031 C 
ATOM     51  C   UNL A   1      39.846  28.672  28.930  1.00  0.00     0.029 A 
ATOM     52  N   UNL A   1      40.577  30.538  29.840  1.00  0.00    -0.354 N 
ATOM     53  C   UNL A   1      44.732  31.983  28.809  1.00  0.00     0.074 A 
ATOM     54  C   UNL A   1      44.403  32.047  27.408  1.00  0.00     0.031 C 
ATOM     55  C   UNL A   1      38.756  29.330  29.383  1.00  0.00     0.029 A 
ATOM     56  C   UNL A   1      39.193  30.562  30.004  1.00  0.00     0.049 A 
ATOM     57  H   UNL A   1      41.172  31.206  30.253  1.00  0.00     0.167 HD
ATOM     58  C   UNL A   1      45.230  32.929  29.653  1.00  0.00     0.037 A 
ATOM     59  C   UNL A   1      38.488  31.575  30.572  1.00  0.00     0.037 A 
ATOM     60  C   UNL A   1      45.288  32.439  31.010  1.00  0.00     0.049 A 
ATOM     61  C   UNL A   1      39.465  32.336  31.408  1.00  0.00     0.074 A 
ATOM     62  C   UNL A   1      45.892  31.352  31.616  1.00  0.00     0.029 A 
ATOM     63  N   UNL A   1      44.298  32.841  31.880  1.00  0.00    -0.354 N 
ATOM     64  N   UNL A   1      40.071  31.820  32.450  1.00  0.00    -0.248 NA
ATOM     65  C   UNL A   1      40.162  33.448  30.774  1.00  0.00     0.031 C 
ATOM     66  C   UNL A   1      44.909  30.847  32.519  1.00  0.00     0.029 A 
ATOM     67  C   UNL A   1      43.809  31.706  32.483  1.00  0.00     0.049 A 
ATOM     68  H   UNL A   1      43.998  33.764  32.040  1.00  0.00     0.167 HD
ATOM     69  C   UNL A   1      41.388  32.256  32.358  1.00  0.00     0.074 A 
ATOM     70  C   UNL A   1      41.369  33.296  31.327  1.00  0.00     0.031 C 
ATOM     71  C   UNL A   1      42.428  31.539  32.887  1.00  0.00     0.037 A 
BRANCH  58  72
ATOM     72  C   UNL A   1      45.307  34.399  29.329  1.00  0.00     0.058 A 
ATOM     73  C   UNL A   1      44.120  35.102  29.048  1.00  0.00     0.135 A 
ATOM     74  C   UNL A   1      46.509  35.079  29.027  1.00  0.00     0.135 A 
ATOM     75  F   UNL A   1      42.923  34.545  29.291  1.00  0.00    -0.206 F 
ATOM     76  C   UNL A   1      44.125  36.360  28.444  1.00  0.00     0.059 A 
ATOM     77  C   UNL A   1      46.537  36.355  28.479  1.00  0.00     0.059 A 
ATOM     78  F   UNL A   1      47.709  34.502  29.150  1.00  0.00    -0.206 F 
ATOM     79  C   UNL A   1      45.341  36.970  28.150  1.00  0.00     0.060 A 
BRANCH  79  80
ATOM     80  S   UNL A   1      45.351  38.540  27.271  1.00  0.00     0.124 S 
ATOM     81  O   UNL A   1      45.612  39.478  28.357  1.00  0.00    -0.237 OA
ATOM     82  O   UNL A   1      46.438  38.345  26.318  1.00  0.00    -0.237 OA
ATOM     83  O   UNL A   1      44.015  38.606  26.686  1.00  0.00    -0.744 OA
ENDBRANCH  79  80
ENDBRANCH  58  72
BRANCH  59  84
ATOM     84  C   UNL A   1      37.192  32.137  30.091  1.00  0.00     0.058 A 
ATOM     85  C   UNL A   1      35.998  31.956  30.812  1.00  0.00     0.135 A 
ATOM     86  C   UNL A   1      37.144  33.094  29.053  1.00  0.00     0.135 A 
ATOM     87  F   UNL A   1      35.953  31.080  31.827  1.00  0.00    -0.206 F 
ATOM     88  C   UNL A   1      34.844  32.710  30.554  1.00  0.00     0.059 A 
ATOM     89  C   UNL A   1      36.005  33.851  28.773  1.00  0.00     0.059 A 
ATOM     90  F   UNL A   1      38.236  33.391  28.335  1.00  0.00    -0.206 F 
ATOM     91  C   UNL A   1      34.864  33.673  29.544  1.00  0.00     0.060 A 
BRANCH  91  92
ATOM     92  S   UNL A   1      33.444  34.773  29.324  1.00  0.00     0.124 S 
ATOM     93  O   UNL A   1      32.954  34.914  30.691  1.00  0.00    -0.237 OA
ATOM     94  O   UNL A   1      34.061  35.961  28.743  1.00  0.00    -0.237 OA
ATOM     95  O   UNL A   1      32.571  34.026  28.423  1.00  0.00    -0.744 OA
ENDBRANCH  91  92
ENDBRANCH  59  84
BRANCH  71  96
ATOM     96  C   UNL A   1      42.125  30.348  33.768  1.00  0.00     0.058 A 
ATOM     97  C   UNL A   1      41.894  29.042  33.295  1.00  0.00     0.135 A 
ATOM     98  C   UNL A   1      42.263  30.497  35.157  1.00  0.00     0.135 A 
ATOM     99  F   UNL A   1      41.858  28.783  31.983  1.00  0.00    -0.206 F 
ATOM    100  C   UNL A   1      41.766  27.948  34.156  1.00  0.00     0.059 A 
ATOM    101  C   UNL A   1      42.168  29.418  36.035  1.00  0.00     0.059 A 
ATOM    102  F   UNL A   1      42.553  31.701  35.676  1.00  0.00    -0.206 F 
ATOM    103  C   UNL A   1      41.906  28.147  35.528  1.00  0.00     0.060 A 
BRANCH 103 104
ATOM    104  S   UNL A   1      41.802  26.726  36.639  1.00  0.00     0.124 S 
ATOM    105  O   UNL A   1      40.546  26.974  37.339  1.00  0.00    -0.237 OA
ATOM    106  O   UNL A   1      41.800  25.598  35.712  1.00  0.00    -0.237 OA
ATOM    107  O   UNL A   1      43.006  26.845  37.459  1.00  0.00    -0.744 OA
ENDBRANCH 103 104
ENDBRANCH  71  96
ENDBRANCH  45  46
ENDBRANCH  37  40
ENDBRANCH  35  36
ENDBRANCH  34  35
ENDBRANCH   1  34
TORSDOF 18
ENDMDL
MODEL 2
REMARK VINA RESULT:     -12.3      4.229      9.409
REMARK SMILES O=C1NC(=O)/C(=C/c2ccc(OCc3cn(-c4ccc(C(=O)NCCCNC(=O)c5ccc(-c6c7nc(c(-c8c(F)cc(S(=O)(=O)[O-])cc8F)c8ccc([nH]8)c(-c8c(F)cc(S(=O)(=O)[O-])cc8F)c8nc(c(-c9c(F)cc(S(=O)(=O)[O-])cc9F)c9ccc6[nH]9)C=C8)C=C7)cc5)cc4)nn3)cc2)S1
REMARK SMILES IDX 24 1 23 2 21 3 22 4 20 6 17 7 18 8 97 9 19 10 96 11 16 12
REMARK SMILES IDX 14 13 15 14 99 15 98 16 13 17 12 18 11 19 8 20 9 21 101 22
REMARK SMILES IDX 10 23 100 24 7 25 1 26 2 27 3 28 102 29 4 30 6 32 5 33 25 34
REMARK SMILES IDX 26 35 27 36 28 37 29 39 30 40 31 41 95 42 32 43 94 44 33 45
REMARK SMILES IDX 34 46 35 47 88 48 36 49 93 50 87 51 89 52 37 53 92 54 86 55
REMARK SMILES IDX 85 56 38 58 72 59 51 60 71 61 52 62 55 63 70 64 90 65 53 66
REMARK SMILES IDX 54 67 69 69 91 70 56 71 39 72 40 73 49 74 41 75 42 76 48 77
REMARK SMILES IDX 50 78 43 79 44 80 45 81 46 82 47 83 73 84 74 85 83 86 75 87
REMARK SMILES IDX 76 88 82 89 84 90 77 91 78 92 79 93 80 94 81 95 57 96 58 97
REMARK SMILES IDX 67 98 59 99 60 100 66 101 68 102 61 103 62 104 63 105 64 106
REMARK SMILES IDX 65 107
REMARK H PARENT 23 5 3 31 27 38 89 57 55 68
REMARK Flexibility Score: inf
ROOT
ATOM      1  C   UNL A   1      45.081  23.122  24.868  1.00  0.00     0.118 C 
ENDROOT
BRANCH   1   2
ATOM      2  N   UNL A   1      45.512  24.488  24.612  1.00  0.00    -0.352 N 
ATOM      3  C   UNL A   1      45.745  25.552  25.450  1.00  0.00     0.251 C 
ATOM      4  O   UNL A   1      46.209  26.579  24.962  1.00  0.00    -0.269 OA
ATOM      5  H   UNL A   1      45.663  24.688  23.659  1.00  0.00     0.163 HD
BRANCH   3   6
ATOM      6  C   UNL A   1      45.527  25.483  26.922  1.00  0.00     0.039 A 
ATOM      7  C   UNL A   1      45.167  25.102  29.673  1.00  0.00     0.066 A 
ATOM      8  C   UNL A   1      46.427  24.889  29.102  1.00  0.00     0.029 A 
ATOM      9  C   UNL A   1      44.116  25.584  28.900  1.00  0.00     0.029 A 
ATOM     10  C   UNL A   1      46.593  25.050  27.723  1.00  0.00     0.016 A 
ATOM     11  C   UNL A   1      44.327  25.826  27.549  1.00  0.00     0.016 A 
BRANCH   7  12
ATOM     12  N   UNL A   1      44.952  24.844  31.035  1.00  0.00    -0.220 N 
ATOM     13  C   UNL A   1      44.952  24.872  33.214  1.00  0.00     0.120 A 
ATOM     14  C   UNL A   1      45.406  25.567  32.116  1.00  0.00     0.144 A 
ATOM     15  N   UNL A   1      44.216  23.803  32.774  1.00  0.00    -0.131 NA
ATOM     16  N   UNL A   1      44.192  23.815  31.454  1.00  0.00    -0.062 NA
BRANCH  13  17
ATOM     17  C   UNL A   1      45.044  25.179  34.671  1.00  0.00     0.289 C 
BRANCH  17  18
ATOM     18  O   UNL A   1      44.753  24.088  35.563  1.00  0.00    -0.487 OA
BRANCH  18  19
ATOM     19  C   UNL A   1      45.727  23.155  35.793  1.00  0.00     0.119 A 
ATOM     20  C   UNL A   1      47.945  21.435  35.956  1.00  0.00    -0.024 A 
ATOM     21  C   UNL A   1      48.116  22.816  36.082  1.00  0.00     0.012 A 
ATOM     22  C   UNL A   1      46.652  20.920  35.847  1.00  0.00     0.012 A 
ATOM     23  C   UNL A   1      47.010  23.670  35.992  1.00  0.00     0.047 A 
ATOM     24  C   UNL A   1      45.549  21.774  35.806  1.00  0.00     0.047 A 
BRANCH  20  25
ATOM     25  C   UNL A   1      49.095  20.530  35.956  1.00  0.00     0.029 C 
ATOM     26  O   UNL A   1      52.408  21.023  32.187  1.00  0.00    -0.261 OA
ATOM     27  C   UNL A   1      51.741  20.725  33.175  1.00  0.00     0.290 C 
ATOM     28  N   UNL A   1      52.000  19.698  34.013  1.00  0.00    -0.282 N 
ATOM     29  S   UNL A   1      50.309  21.580  33.700  1.00  0.00    -0.022 SA
ATOM     30  C   UNL A   1      51.160  19.502  35.069  1.00  0.00     0.265 C 
ATOM     31  H   UNL A   1      52.774  19.106  33.865  1.00  0.00     0.174 HD
ATOM     32  C   UNL A   1      50.077  20.521  35.043  1.00  0.00     0.083 C 
ATOM     33  O   UNL A   1      51.273  18.614  35.896  1.00  0.00    -0.268 OA
ENDBRANCH  20  25
ENDBRANCH  18  19
ENDBRANCH  17  18
ENDBRANCH  13  17
ENDBRANCH   7  12
ENDBRANCH   3   6
ENDBRANCH   1   2
BRANCH   1  34
ATOM     34  C   UNL A   1      43.564  22.951  24.689  1.00  0.00     0.042 C 
BRANCH  34  35
ATOM     35  C   UNL A   1      42.919  22.359  25.921  1.00  0.00     0.118 C 
BRANCH  35  36
ATOM     36  N   UNL A   1      41.473  22.138  25.749  1.00  0.00    -0.352 N 
ATOM     37  C   UNL A   1      40.419  22.882  26.263  1.00  0.00     0.251 C 
ATOM     38  H   UNL A   1      41.222  21.361  25.199  1.00  0.00     0.163 HD
ATOM     39  O   UNL A   1      39.291  22.410  26.337  1.00  0.00    -0.269 OA
BRANCH  37  40
ATOM     40  C   UNL A   1      40.704  24.257  26.703  1.00  0.00     0.039 A 
ATOM     41  C   UNL A   1      40.730  25.369  25.858  1.00  0.00     0.014 A 
ATOM     42  C   UNL A   1      40.850  24.409  28.068  1.00  0.00     0.014 A 
ATOM     43  C   UNL A   1      40.862  26.627  26.446  1.00  0.00     0.010 A 
ATOM     44  C   UNL A   1      40.534  25.606  28.613  1.00  0.00     0.010 A 
ATOM     45  C   UNL A   1      40.768  26.722  27.841  1.00  0.00    -0.014 A 
BRANCH  45  46
ATOM     46  C   UNL A   1      40.886  27.953  28.599  1.00  0.00     0.031 A 
ATOM     47  C   UNL A   1      42.011  28.815  28.183  1.00  0.00     0.074 A 
ATOM     48  C   UNL A   1      39.874  28.391  29.386  1.00  0.00     0.049 A 
ATOM     49  N   UNL A   1      43.116  29.020  28.817  1.00  0.00    -0.248 NA
ATOM     50  C   UNL A   1      41.995  29.364  26.817  1.00  0.00     0.031 C 
ATOM     51  C   UNL A   1      38.539  27.808  29.614  1.00  0.00     0.029 A 
ATOM     52  N   UNL A   1      39.792  29.560  30.069  1.00  0.00    -0.354 N 
ATOM     53  C   UNL A   1      43.816  29.943  28.050  1.00  0.00     0.074 A 
ATOM     54  C   UNL A   1      43.206  29.922  26.746  1.00  0.00     0.031 C 
ATOM     55  C   UNL A   1      37.720  28.734  30.160  1.00  0.00     0.029 A 
ATOM     56  C   UNL A   1      38.508  29.902  30.490  1.00  0.00     0.049 A 
ATOM     57  H   UNL A   1      40.579  30.123  30.253  1.00  0.00     0.167 HD
ATOM     58  C   UNL A   1      44.657  30.846  28.627  1.00  0.00     0.037 A 
ATOM     59  C   UNL A   1      38.150  31.100  31.020  1.00  0.00     0.037 A 
ATOM     60  C   UNL A   1      44.918  30.508  30.007  1.00  0.00     0.049 A 
ATOM     61  C   UNL A   1      39.413  31.718  31.526  1.00  0.00     0.074 A 
ATOM     62  C   UNL A   1      45.423  29.390  30.645  1.00  0.00     0.029 A 
ATOM     63  N   UNL A   1      44.238  31.209  30.979  1.00  0.00    -0.354 N 
ATOM     64  N   UNL A   1      40.124  31.201  32.499  1.00  0.00    -0.248 NA
ATOM     65  C   UNL A   1      40.151  32.574  30.607  1.00  0.00     0.031 C 
ATOM     66  C   UNL A   1      44.585  29.213  31.787  1.00  0.00     0.029 A 
ATOM     67  C   UNL A   1      43.687  30.281  31.831  1.00  0.00     0.049 A 
ATOM     68  H   UNL A   1      44.160  32.187  31.049  1.00  0.00     0.167 HD
ATOM     69  C   UNL A   1      41.447  31.328  32.091  1.00  0.00     0.074 A 
ATOM     70  C   UNL A   1      41.399  32.226  30.935  1.00  0.00     0.031 C 
ATOM     71  C   UNL A   1      42.422  30.464  32.513  1.00  0.00     0.037 A 
BRANCH  58  72
ATOM     72  C   UNL A   1      44.939  32.218  28.074  1.00  0.00     0.058 A 
ATOM     73  C   UNL A   1      46.230  32.512  27.593  1.00  0.00     0.135 A 
ATOM     74  C   UNL A   1      44.080  33.328  28.237  1.00  0.00     0.135 A 
ATOM     75  F   UNL A   1      47.129  31.531  27.408  1.00  0.00    -0.206 F 
ATOM     76  C   UNL A   1      46.659  33.818  27.361  1.00  0.00     0.059 A 
ATOM     77  C   UNL A   1      44.467  34.632  27.957  1.00  0.00     0.059 A 
ATOM     78  F   UNL A   1      42.859  33.217  28.774  1.00  0.00    -0.206 F 
ATOM     79  C   UNL A   1      45.772  34.873  27.560  1.00  0.00     0.060 A 
BRANCH  79  80
ATOM     80  S   UNL A   1      46.355  36.564  27.369  1.00  0.00     0.124 S 
ATOM     81  O   UNL A   1      47.470  36.384  26.446  1.00  0.00    -0.237 OA
ATOM     82  O   UNL A   1      45.175  37.229  26.826  1.00  0.00    -0.237 OA
ATOM     83  O   UNL A   1      46.716  36.952  28.729  1.00  0.00    -0.744 OA
ENDBRANCH  79  80
ENDBRANCH  58  72
BRANCH  59  84
ATOM     84  C   UNL A   1      36.911  31.874  30.716  1.00  0.00     0.058 A 
ATOM     85  C   UNL A   1      36.034  32.288  31.735  1.00  0.00     0.135 A 
ATOM     86  C   UNL A   1      36.699  32.457  29.448  1.00  0.00     0.135 A 
ATOM     87  F   UNL A   1      36.169  31.801  32.977  1.00  0.00    -0.206 F 
ATOM     88  C   UNL A   1      35.041  33.257  31.522  1.00  0.00     0.059 A 
ATOM     89  C   UNL A   1      35.713  33.416  29.210  1.00  0.00     0.059 A 
ATOM     90  F   UNL A   1      37.507  32.180  28.414  1.00  0.00    -0.206 F 
ATOM     91  C   UNL A   1      34.903  33.832  30.259  1.00  0.00     0.060 A 
BRANCH  91  92
ATOM     92  S   UNL A   1      33.750  35.207  30.020  1.00  0.00     0.124 S 
ATOM     93  O   UNL A   1      34.343  35.906  28.884  1.00  0.00    -0.237 OA
ATOM     94  O   UNL A   1      32.493  34.514  29.755  1.00  0.00    -0.237 OA
ATOM     95  O   UNL A   1      33.805  35.923  31.291  1.00  0.00    -0.744 OA
ENDBRANCH  91  92
ENDBRANCH  59  84
BRANCH  71  96
ATOM     96  C   UNL A   1      42.099  29.472  33.609  1.00  0.00     0.058 A 
ATOM     97  C   UNL A   1      41.584  28.180  33.390  1.00  0.00     0.135 A 
ATOM     98  C   UNL A   1      42.508  29.772  34.917  1.00  0.00     0.135 A 
ATOM     99  F   UNL A   1      41.271  27.765  32.158  1.00  0.00    -0.206 F 
ATOM    100  C   UNL A   1      41.443  27.249  34.423  1.00  0.00     0.059 A 
ATOM    101  C   UNL A   1      42.406  28.851  35.959  1.00  0.00     0.059 A 
ATOM    102  F   UNL A   1      43.074  30.960  35.188  1.00  0.00    -0.206 F 
ATOM    103  C   UNL A   1      41.859  27.594  35.708  1.00  0.00     0.060 A 
BRANCH 103 104
ATOM    104  S   UNL A   1      41.735  26.371  37.032  1.00  0.00     0.124 S 
ATOM    105  O   UNL A   1      41.749  25.114  36.292  1.00  0.00    -0.237 OA
ATOM    106  O   UNL A   1      42.924  26.649  37.833  1.00  0.00    -0.237 OA
ATOM    107  O   UNL A   1      40.468  26.698  37.680  1.00  0.00    -0.744 OA
ENDBRANCH 103 104
ENDBRANCH  71  96
ENDBRANCH  45  46
ENDBRANCH  37  40
ENDBRANCH  35  36
ENDBRANCH  34  35
ENDBRANCH   1  34
TORSDOF 18
ENDMDL
MODEL 3
REMARK VINA RESULT:     -11.7      4.208      9.754
REMARK SMILES O=C1NC(=O)/C(=C/c2ccc(OCc3cn(-c4ccc(C(=O)NCCCNC(=O)c5ccc(-c6c7nc(c(-c8c(F)cc(S(=O)(=O)[O-])cc8F)c8ccc([nH]8)c(-c8c(F)cc(S(=O)(=O)[O-])cc8F)c8nc(c(-c9c(F)cc(S(=O)(=O)[O-])cc9F)c9ccc6[nH]9)C=C8)C=C7)cc5)cc4)nn3)cc2)S1
REMARK SMILES IDX 24 1 23 2 21 3 22 4 20 6 17 7 18 8 97 9 19 10 96 11 16 12
REMARK SMILES IDX 14 13 15 14 99 15 98 16 13 17 12 18 11 19 8 20 9 21 101 22
REMARK SMILES IDX 10 23 100 24 7 25 1 26 2 27 3 28 102 29 4 30 6 32 5 33 25 34
REMARK SMILES IDX 26 35 27 36 28 37 29 39 30 40 31 41 95 42 32 43 94 44 33 45
REMARK SMILES IDX 34 46 35 47 88 48 36 49 93 50 87 51 89 52 37 53 92 54 86 55
REMARK SMILES IDX 85 56 38 58 72 59 51 60 71 61 52 62 55 63 70 64 90 65 53 66
REMARK SMILES IDX 54 67 69 69 91 70 56 71 39 72 40 73 49 74 41 75 42 76 48 77
REMARK SMILES IDX 50 78 43 79 44 80 45 81 46 82 47 83 73 84 74 85 83 86 75 87
REMARK SMILES IDX 76 88 82 89 84 90 77 91 78 92 79 93 80 94 81 95 57 96 58 97
REMARK SMILES IDX 67 98 59 99 60 100 66 101 68 102 61 103 62 104 63 105 64 106
REMARK SMILES IDX 65 107
REMARK H PARENT 23 5 3 31 27 38 89 57 55 68
REMARK Flexibility Score: inf
ROOT
ATOM      1  C   UNL A   1      44.694  24.192  24.928  1.00  0.00     0.118 C 
ENDROOT
BRANCH   1   2
ATOM      2  N   UNL A   1      44.472  25.616  24.726  1.00  0.00    -0.352 N 
ATOM      3  C   UNL A   1      44.862  26.719  25.446  1.00  0.00     0.251 C 
ATOM      4  O   UNL A   1      44.617  27.829  24.979  1.00  0.00    -0.269 OA
ATOM      5  H   UNL A   1      43.944  25.829  23.922  1.00  0.00     0.163 HD
BRANCH   3   6
ATOM      6  C   UNL A   1      45.624  26.623  26.724  1.00  0.00     0.039 A 
ATOM      7  C   UNL A   1      47.230  26.303  28.994  1.00  0.00     0.066 A 
ATOM      8  C   UNL A   1      47.712  27.033  27.900  1.00  0.00     0.029 A 
ATOM      9  C   UNL A   1      45.931  25.810  28.994  1.00  0.00     0.029 A 
ATOM     10  C   UNL A   1      46.917  27.162  26.757  1.00  0.00     0.016 A 
ATOM     11  C   UNL A   1      45.124  26.029  27.885  1.00  0.00     0.016 A 
BRANCH   7  12
ATOM     12  N   UNL A   1      48.051  26.071  30.108  1.00  0.00    -0.220 N 
ATOM     13  C   UNL A   1      48.846  25.638  32.090  1.00  0.00     0.120 A 
ATOM     14  C   UNL A   1      47.671  25.688  31.375  1.00  0.00     0.144 A 
ATOM     15  N   UNL A   1      49.880  25.938  31.242  1.00  0.00    -0.131 NA
ATOM     16  N   UNL A   1      49.392  26.163  30.036  1.00  0.00    -0.062 NA
BRANCH  13  17
ATOM     17  C   UNL A   1      49.118  25.214  33.495  1.00  0.00     0.289 C 
BRANCH  17  18
ATOM     18  O   UNL A   1      47.969  25.123  34.356  1.00  0.00    -0.487 OA
BRANCH  18  19
ATOM     19  C   UNL A   1      47.584  23.887  34.803  1.00  0.00     0.119 A 
ATOM     20  C   UNL A   1      46.595  21.561  36.033  1.00  0.00    -0.024 A 
ATOM     21  C   UNL A   1      45.720  22.581  35.651  1.00  0.00     0.012 A 
ATOM     22  C   UNL A   1      47.948  21.673  35.708  1.00  0.00     0.012 A 
ATOM     23  C   UNL A   1      46.217  23.742  35.046  1.00  0.00     0.047 A 
ATOM     24  C   UNL A   1      48.430  22.812  35.061  1.00  0.00     0.047 A 
BRANCH  20  25
ATOM     25  C   UNL A   1      46.110  20.379  36.748  1.00  0.00     0.029 C 
ATOM     26  O   UNL A   1      47.744  19.719  41.472  1.00  0.00    -0.261 OA
ATOM     27  C   UNL A   1      47.232  19.675  40.357  1.00  0.00     0.290 C 
ATOM     28  N   UNL A   1      46.460  18.670  39.889  1.00  0.00    -0.282 N 
ATOM     29  S   UNL A   1      47.400  20.918  39.138  1.00  0.00    -0.022 SA
ATOM     30  C   UNL A   1      45.964  18.776  38.623  1.00  0.00     0.265 C 
ATOM     31  H   UNL A   1      46.261  17.883  40.446  1.00  0.00     0.174 HD
ATOM     32  C   UNL A   1      46.430  20.047  38.007  1.00  0.00     0.083 C 
ATOM     33  O   UNL A   1      45.260  17.945  38.076  1.00  0.00    -0.268 OA
ENDBRANCH  20  25
ENDBRANCH  18  19
ENDBRANCH  17  18
ENDBRANCH  13  17
ENDBRANCH   7  12
ENDBRANCH   3   6
ENDBRANCH   1   2
BRANCH   1  34
ATOM     34  C   UNL A   1      43.403  23.375  24.753  1.00  0.00     0.042 C 
BRANCH  34  35
ATOM     35  C   UNL A   1      43.129  22.499  25.954  1.00  0.00     0.118 C 
BRANCH  35  36
ATOM     36  N   UNL A   1      41.738  22.020  25.996  1.00  0.00    -0.352 N 
ATOM     37  C   UNL A   1      40.656  22.568  26.673  1.00  0.00     0.251 C 
ATOM     38  H   UNL A   1      41.549  21.205  25.477  1.00  0.00     0.163 HD
ATOM     39  O   UNL A   1      39.656  21.904  26.908  1.00  0.00    -0.269 OA
BRANCH  37  40
ATOM     40  C   UNL A   1      40.753  23.977  27.088  1.00  0.00     0.039 A 
ATOM     41  C   UNL A   1      39.939  25.003  26.604  1.00  0.00     0.014 A 
ATOM     42  C   UNL A   1      41.664  24.221  28.098  1.00  0.00     0.014 A 
ATOM     43  C   UNL A   1      40.048  26.257  27.205  1.00  0.00     0.010 A 
ATOM     44  C   UNL A   1      41.436  25.269  28.922  1.00  0.00     0.010 A 
ATOM     45  C   UNL A   1      40.817  26.370  28.372  1.00  0.00    -0.014 A 
BRANCH  45  46
ATOM     46  C   UNL A   1      41.029  27.600  29.110  1.00  0.00     0.031 A 
ATOM     47  C   UNL A   1      42.042  28.496  28.516  1.00  0.00     0.074 A 
ATOM     48  C   UNL A   1      40.155  28.005  30.063  1.00  0.00     0.049 A 
ATOM     49  N   UNL A   1      43.232  28.731  28.954  1.00  0.00    -0.248 NA
ATOM     50  C   UNL A   1      41.776  29.051  27.178  1.00  0.00     0.031 C 
ATOM     51  C   UNL A   1      38.895  27.382  30.510  1.00  0.00     0.029 A 
ATOM     52  N   UNL A   1      40.159  29.167  30.761  1.00  0.00    -0.354 N 
ATOM     53  C   UNL A   1      43.765  29.677  28.087  1.00  0.00     0.074 A 
ATOM     54  C   UNL A   1      42.941  29.645  26.906  1.00  0.00     0.031 C 
ATOM     55  C   UNL A   1      38.156  28.281  31.198  1.00  0.00     0.029 A 
ATOM     56  C   UNL A   1      38.956  29.470  31.398  1.00  0.00     0.049 A 
ATOM     57  H   UNL A   1      40.949  29.752  30.813  1.00  0.00     0.167 HD
ATOM     58  C   UNL A   1      44.667  30.601  28.520  1.00  0.00     0.037 A 
ATOM     59  C   UNL A   1      38.661  30.655  31.994  1.00  0.00     0.037 A 
ATOM     60  C   UNL A   1      45.169  30.265  29.832  1.00  0.00     0.049 A 
ATOM     61  C   UNL A   1      39.975  31.307  32.282  1.00  0.00     0.074 A 
ATOM     62  C   UNL A   1      45.807  29.159  30.364  1.00  0.00     0.029 A 
ATOM     63  N   UNL A   1      44.646  30.941  30.912  1.00  0.00    -0.354 N 
ATOM     64  N   UNL A   1      40.856  30.806  33.114  1.00  0.00    -0.248 NA
ATOM     65  C   UNL A   1      40.520  32.189  31.258  1.00  0.00     0.031 C 
ATOM     66  C   UNL A   1      45.182  28.953  31.630  1.00  0.00     0.029 A 
ATOM     67  C   UNL A   1      44.276  29.994  31.837  1.00  0.00     0.049 A 
ATOM     68  H   UNL A   1      44.555  31.917  31.004  1.00  0.00     0.167 HD
ATOM     69  C   UNL A   1      42.085  30.973  32.486  1.00  0.00     0.074 A 
ATOM     70  C   UNL A   1      41.815  31.876  31.364  1.00  0.00     0.031 C 
ATOM     71  C   UNL A   1      43.142  30.137  32.728  1.00  0.00     0.037 A 
BRANCH  58  72
ATOM     72  C   UNL A   1      44.811  31.984  27.940  1.00  0.00     0.058 A 
ATOM     73  C   UNL A   1      46.011  32.333  27.291  1.00  0.00     0.135 A 
ATOM     74  C   UNL A   1      43.934  33.056  28.222  1.00  0.00     0.135 A 
ATOM     75  F   UNL A   1      46.919  31.393  26.983  1.00  0.00    -0.206 F 
ATOM     76  C   UNL A   1      46.348  33.657  27.008  1.00  0.00     0.059 A 
ATOM     77  C   UNL A   1      44.223  34.375  27.898  1.00  0.00     0.059 A 
ATOM     78  F   UNL A   1      42.803  32.891  28.918  1.00  0.00    -0.206 F 
ATOM     79  C   UNL A   1      45.451  34.672  27.330  1.00  0.00     0.060 A 
BRANCH  79  80
ATOM     80  S   UNL A   1      45.928  36.387  27.069  1.00  0.00     0.124 S 
ATOM     81  O   UNL A   1      46.701  36.288  25.836  1.00  0.00    -0.237 OA
ATOM     82  O   UNL A   1      44.631  37.046  26.961  1.00  0.00    -0.237 OA
ATOM     83  O   UNL A   1      46.691  36.710  28.271  1.00  0.00    -0.744 OA
ENDBRANCH  79  80
ENDBRANCH  58  72
BRANCH  59  84
ATOM     84  C   UNL A   1      37.367  31.394  31.914  1.00  0.00     0.058 A 
ATOM     85  C   UNL A   1      36.661  31.769  33.072  1.00  0.00     0.135 A 
ATOM     86  C   UNL A   1      36.930  31.985  30.709  1.00  0.00     0.135 A 
ATOM     87  F   UNL A   1      37.016  31.272  34.266  1.00  0.00    -0.206 F 
ATOM     88  C   UNL A   1      35.620  32.709  33.043  1.00  0.00     0.059 A 
ATOM     89  C   UNL A   1      35.891  32.916  30.655  1.00  0.00     0.059 A 
ATOM     90  F   UNL A   1      37.562  31.745  29.550  1.00  0.00    -0.206 F 
ATOM     91  C   UNL A   1      35.256  33.294  31.830  1.00  0.00     0.060 A 
BRANCH  91  92
ATOM     92  S   UNL A   1      34.041  34.636  31.810  1.00  0.00     0.124 S 
ATOM     93  O   UNL A   1      34.863  35.794  32.143  1.00  0.00    -0.237 OA
ATOM     94  O   UNL A   1      33.544  34.581  30.439  1.00  0.00    -0.237 OA
ATOM     95  O   UNL A   1      33.078  34.239  32.833  1.00  0.00    -0.744 OA
ENDBRANCH  91  92
ENDBRANCH  59  84
BRANCH  71  96
ATOM     96  C   UNL A   1      43.040  29.131  33.853  1.00  0.00     0.058 A 
ATOM     97  C   UNL A   1      43.204  29.439  35.217  1.00  0.00     0.135 A 
ATOM     98  C   UNL A   1      42.569  27.844  33.552  1.00  0.00     0.135 A 
ATOM     99  F   UNL A   1      43.542  30.673  35.606  1.00  0.00    -0.206 F 
ATOM    100  C   UNL A   1      42.952  28.507  36.227  1.00  0.00     0.059 A 
ATOM    101  C   UNL A   1      42.284  26.905  34.543  1.00  0.00     0.059 A 
ATOM    102  F   UNL A   1      42.323  27.500  32.277  1.00  0.00    -0.206 F 
ATOM    103  C   UNL A   1      42.490  27.239  35.880  1.00  0.00     0.060 A 
BRANCH 103 104
ATOM    104  S   UNL A   1      42.107  26.051  37.187  1.00  0.00     0.124 S 
ATOM    105  O   UNL A   1      43.044  26.437  38.237  1.00  0.00    -0.237 OA
ATOM    106  O   UNL A   1      40.699  26.325  37.461  1.00  0.00    -0.237 OA
ATOM    107  O   UNL A   1      42.371  24.758  36.560  1.00  0.00    -0.744 OA
ENDBRANCH 103 104
ENDBRANCH  71  96
ENDBRANCH  45  46
ENDBRANCH  37  40
ENDBRANCH  35  36
ENDBRANCH  34  35
ENDBRANCH   1  34
TORSDOF 18
ENDMDL
