MODEL 1
REMARK VINA RESULT:     -11.2      0.000      0.000
REMARK SMILES C=CCN(CC(=O)NCCCNC(=O)c1ccc(-c2c3nc(c(-c4c(F)cc(S(=O)(=O)[O-])cc4F)c4ccc([nH]4)c(-c4c(F)cc(S(=O)(=O)[O-])cc4F)c4nc(c(-c5c(F)cc(S(=O)(=O)[O-])cc5F)c5ccc2[nH]5)C=C4)C=C3)cc1)C(=O)NC[C@@H]1CCC(=O)N1
REMARK SMILES IDX 9 1 8 2 6 3 7 4 5 6 4 7 3 8 2 9 1 10 81 11 82 12 83 13 84 15
REMARK SMILES IDX 85 16 86 17 90 18 87 19 88 20 89 22 10 23 11 24 12 25 13 26
REMARK SMILES IDX 14 28 15 29 16 30 80 31 17 32 79 33 18 34 19 35 20 36 73 37
REMARK SMILES IDX 21 38 78 39 72 40 74 41 22 42 77 43 71 44 70 45 23 47 57 48
REMARK SMILES IDX 36 49 56 50 37 51 40 52 55 53 75 54 38 55 39 56 54 58 76 59
REMARK SMILES IDX 41 60 24 61 25 62 34 63 26 64 27 65 33 66 35 67 28 68 29 69
REMARK SMILES IDX 30 70 31 71 32 72 58 73 59 74 68 75 60 76 61 77 67 78 69 79
REMARK SMILES IDX 62 80 63 81 64 82 65 83 66 84 42 85 43 86 52 87 44 88 45 89
REMARK SMILES IDX 51 90 53 91 46 92 47 93 48 94 49 95 50 96
REMARK H PARENT 8 5 83 14 90 21 12 27 74 46 40 57
REMARK Flexibility Score: inf
ROOT
ATOM      1  C   UNL A   1      34.217  29.219  27.356  1.00  0.00     0.117 C 
ENDROOT
BRANCH   1   2
ATOM      2  N   UNL A   1      32.884  28.739  27.658  1.00  0.00    -0.354 N 
ATOM      3  C   UNL A   1      31.966  28.169  26.825  1.00  0.00     0.239 C 
ATOM      4  O   UNL A   1      31.151  27.381  27.326  1.00  0.00    -0.273 OA
ATOM      5  H   UNL A   1      32.601  28.838  28.596  1.00  0.00     0.163 HD
BRANCH   3   6
ATOM      6  C   UNL A   1      31.984  28.361  25.303  1.00  0.00     0.221 C 
BRANCH   6   7
ATOM      7  N   UNL A   1      31.521  27.241  24.489  1.00  0.00    -0.312 N 
BRANCH   7   8
ATOM      8  C   UNL A   1      32.464  26.132  24.321  1.00  0.00     0.149 C 
BRANCH   8   9
ATOM      9  C   UNL A   1      32.961  26.047  22.908  1.00  0.00    -0.013 C 
ATOM     10  C   UNL A   1      33.195  24.880  22.293  1.00  0.00     0.006 C 
ENDBRANCH   8   9
ENDBRANCH   7   8
BRANCH   7  11
ATOM     11  C   UNL A   1      30.283  27.075  23.945  1.00  0.00     0.318 C 
ATOM     12  O   UNL A   1      29.576  26.100  24.224  1.00  0.00    -0.249 OA
ATOM     13  N   UNL A   1      29.707  27.912  23.074  1.00  0.00    -0.336 N 
ATOM     14  H   UNL A   1      28.771  27.644  22.927  1.00  0.00     0.165 HD
BRANCH  13  15
ATOM     15  C   UNL A   1      30.010  29.090  22.273  1.00  0.00     0.142 C 
BRANCH  15  16
ATOM     16  C   UNL A   1      29.473  30.423  22.852  1.00  0.00     0.101 C 
ATOM     17  C   UNL A   1      28.060  30.399  23.438  1.00  0.00     0.036 C 
ATOM     18  N   UNL A   1      29.376  31.480  21.881  1.00  0.00    -0.352 N 
ATOM     19  C   UNL A   1      27.597  31.851  23.334  1.00  0.00     0.102 C 
ATOM     20  C   UNL A   1      28.295  32.307  22.082  1.00  0.00     0.220 C 
ATOM     21  H   UNL A   1      30.021  31.601  21.147  1.00  0.00     0.163 HD
ATOM     22  O   UNL A   1      27.975  33.232  21.360  1.00  0.00    -0.275 OA
ENDBRANCH  15  16
ENDBRANCH  13  15
ENDBRANCH   7  11
ENDBRANCH   6   7
ENDBRANCH   3   6
ENDBRANCH   1   2
BRANCH   1  23
ATOM     23  C   UNL A   1      34.367  30.737  27.359  1.00  0.00     0.042 C 
BRANCH  23  24
ATOM     24  C   UNL A   1      35.562  31.271  28.148  1.00  0.00     0.118 C 
BRANCH  24  25
ATOM     25  N   UNL A   1      35.489  30.976  29.573  1.00  0.00    -0.352 N 
ATOM     26  C   UNL A   1      36.390  30.403  30.435  1.00  0.00     0.251 C 
ATOM     27  H   UNL A   1      34.637  31.235  29.993  1.00  0.00     0.163 HD
ATOM     28  O   UNL A   1      36.011  30.084  31.561  1.00  0.00    -0.269 OA
BRANCH  26  29
ATOM     29  C   UNL A   1      37.794  30.147  30.038  1.00  0.00     0.039 A 
ATOM     30  C   UNL A   1      38.779  30.141  31.032  1.00  0.00     0.014 A 
ATOM     31  C   UNL A   1      38.162  29.968  28.703  1.00  0.00     0.014 A 
ATOM     32  C   UNL A   1      40.110  29.877  30.698  1.00  0.00     0.010 A 
ATOM     33  C   UNL A   1      39.478  29.633  28.379  1.00  0.00     0.010 A 
ATOM     34  C   UNL A   1      40.464  29.571  29.374  1.00  0.00    -0.014 A 
BRANCH  34  35
ATOM     35  C   UNL A   1      41.843  29.128  29.029  1.00  0.00     0.031 A 
ATOM     36  C   UNL A   1      42.986  30.106  29.002  1.00  0.00     0.074 A 
ATOM     37  C   UNL A   1      42.048  27.846  28.664  1.00  0.00     0.049 A 
ATOM     38  N   UNL A   1      44.232  29.910  28.651  1.00  0.00    -0.248 NA
ATOM     39  C   UNL A   1      42.688  31.490  29.404  1.00  0.00     0.031 C 
ATOM     40  C   UNL A   1      41.011  26.810  28.606  1.00  0.00     0.029 A 
ATOM     41  N   UNL A   1      43.186  27.195  28.259  1.00  0.00    -0.354 N 
ATOM     42  C   UNL A   1      44.864  31.142  28.776  1.00  0.00     0.074 A 
ATOM     43  C   UNL A   1      43.851  32.089  29.194  1.00  0.00     0.031 C 
ATOM     44  C   UNL A   1      41.564  25.655  28.207  1.00  0.00     0.029 A 
ATOM     45  C   UNL A   1      42.980  25.874  27.932  1.00  0.00     0.049 A 
ATOM     46  H   UNL A   1      44.066  27.631  28.207  1.00  0.00     0.167 HD
ATOM     47  C   UNL A   1      46.168  31.450  28.576  1.00  0.00     0.037 A 
ATOM     48  C   UNL A   1      43.827  24.946  27.444  1.00  0.00     0.037 A 
ATOM     49  C   UNL A   1      47.171  30.497  28.167  1.00  0.00     0.049 A 
ATOM     50  C   UNL A   1      45.264  25.319  27.205  1.00  0.00     0.074 A 
ATOM     51  C   UNL A   1      48.529  30.698  27.999  1.00  0.00     0.029 A 
ATOM     52  N   UNL A   1      46.924  29.169  27.850  1.00  0.00    -0.354 N 
ATOM     53  N   UNL A   1      45.859  26.472  27.401  1.00  0.00    -0.248 NA
ATOM     54  C   UNL A   1      46.146  24.266  26.685  1.00  0.00     0.031 C 
ATOM     55  C   UNL A   1      49.094  29.511  27.521  1.00  0.00     0.029 A 
ATOM     56  C   UNL A   1      48.099  28.549  27.451  1.00  0.00     0.049 A 
ATOM     57  H   UNL A   1      46.043  28.730  27.901  1.00  0.00     0.167 HD
ATOM     58  C   UNL A   1      47.190  26.278  27.043  1.00  0.00     0.074 A 
ATOM     59  C   UNL A   1      47.315  24.892  26.642  1.00  0.00     0.031 C 
ATOM     60  C   UNL A   1      48.212  27.168  27.047  1.00  0.00     0.037 A 
BRANCH  47  61
ATOM     61  C   UNL A   1      46.593  32.881  28.786  1.00  0.00     0.058 A 
ATOM     62  C   UNL A   1      47.096  33.332  30.017  1.00  0.00     0.135 A 
ATOM     63  C   UNL A   1      46.540  33.803  27.727  1.00  0.00     0.135 A 
ATOM     64  F   UNL A   1      47.159  32.499  31.068  1.00  0.00    -0.206 F 
ATOM     65  C   UNL A   1      47.500  34.651  30.201  1.00  0.00     0.059 A 
ATOM     66  C   UNL A   1      46.970  35.119  27.878  1.00  0.00     0.059 A 
ATOM     67  F   UNL A   1      46.072  33.428  26.526  1.00  0.00    -0.206 F 
ATOM     68  C   UNL A   1      47.435  35.537  29.124  1.00  0.00     0.060 A 
BRANCH  68  69
ATOM     69  S   UNL A   1      47.968  37.242  29.378  1.00  0.00     0.124 S 
ATOM     70  O   UNL A   1      49.281  37.236  28.741  1.00  0.00    -0.237 OA
ATOM     71  O   UNL A   1      46.932  38.000  28.683  1.00  0.00    -0.237 OA
ATOM     72  O   UNL A   1      47.978  37.384  30.830  1.00  0.00    -0.744 OA
ENDBRANCH  68  69
ENDBRANCH  47  61
BRANCH  48  73
ATOM     73  C   UNL A   1      43.332  23.574  27.151  1.00  0.00     0.058 A 
ATOM     74  C   UNL A   1      42.968  23.198  25.850  1.00  0.00     0.135 A 
ATOM     75  C   UNL A   1      43.234  22.603  28.162  1.00  0.00     0.135 A 
ATOM     76  F   UNL A   1      43.035  24.091  24.850  1.00  0.00    -0.206 F 
ATOM     77  C   UNL A   1      42.515  21.915  25.561  1.00  0.00     0.059 A 
ATOM     78  C   UNL A   1      42.812  21.306  27.893  1.00  0.00     0.059 A 
ATOM     79  F   UNL A   1      43.584  22.907  29.421  1.00  0.00    -0.206 F 
ATOM     80  C   UNL A   1      42.446  20.973  26.590  1.00  0.00     0.060 A 
BRANCH  80  81
ATOM     81  S   UNL A   1      41.912  19.295  26.191  1.00  0.00     0.124 S 
ATOM     82  O   UNL A   1      42.701  19.009  24.999  1.00  0.00    -0.237 OA
ATOM     83  O   UNL A   1      42.287  18.561  27.397  1.00  0.00    -0.237 OA
ATOM     84  O   UNL A   1      40.475  19.441  25.978  1.00  0.00    -0.744 OA
ENDBRANCH  80  81
ENDBRANCH  48  73
BRANCH  60  85
ATOM     85  C   UNL A   1      49.566  26.669  26.618  1.00  0.00     0.058 A 
ATOM     86  C   UNL A   1      50.470  26.106  27.533  1.00  0.00     0.135 A 
ATOM     87  C   UNL A   1      49.946  26.713  25.266  1.00  0.00     0.135 A 
ATOM     88  F   UNL A   1      50.163  26.047  28.838  1.00  0.00    -0.206 F 
ATOM     89  C   UNL A   1      51.713  25.627  27.128  1.00  0.00     0.059 A 
ATOM     90  C   UNL A   1      51.170  26.210  24.834  1.00  0.00     0.059 A 
ATOM     91  F   UNL A   1      49.119  27.232  24.346  1.00  0.00    -0.206 F 
ATOM     92  C   UNL A   1      52.052  25.680  25.775  1.00  0.00     0.060 A 
BRANCH  92  93
ATOM     93  S   UNL A   1      53.653  25.025  25.260  1.00  0.00     0.124 S 
ATOM     94  O   UNL A   1      53.902  25.780  24.037  1.00  0.00    -0.237 OA
ATOM     95  O   UNL A   1      54.506  25.358  26.397  1.00  0.00    -0.237 OA
ATOM     96  O   UNL A   1      53.395  23.599  25.075  1.00  0.00    -0.744 OA
ENDBRANCH  92  93
ENDBRANCH  60  85
ENDBRANCH  34  35
ENDBRANCH  26  29
ENDBRANCH  24  25
ENDBRANCH  23  24
ENDBRANCH   1  23
TORSDOF 19
ENDMDL
MODEL 2
REMARK VINA RESULT:     -11.2      5.247      7.455
REMARK SMILES C=CCN(CC(=O)NCCCNC(=O)c1ccc(-c2c3nc(c(-c4c(F)cc(S(=O)(=O)[O-])cc4F)c4ccc([nH]4)c(-c4c(F)cc(S(=O)(=O)[O-])cc4F)c4nc(c(-c5c(F)cc(S(=O)(=O)[O-])cc5F)c5ccc2[nH]5)C=C4)C=C3)cc1)C(=O)NC[C@@H]1CCC(=O)N1
REMARK SMILES IDX 9 1 8 2 6 3 7 4 5 6 4 7 3 8 2 9 1 10 81 11 82 12 83 13 84 15
REMARK SMILES IDX 85 16 86 17 90 18 87 19 88 20 89 22 10 23 11 24 12 25 13 26
REMARK SMILES IDX 14 28 15 29 16 30 80 31 17 32 79 33 18 34 19 35 20 36 73 37
REMARK SMILES IDX 21 38 78 39 72 40 74 41 22 42 77 43 71 44 70 45 23 47 57 48
REMARK SMILES IDX 36 49 56 50 37 51 40 52 55 53 75 54 38 55 39 56 54 58 76 59
REMARK SMILES IDX 41 60 24 61 25 62 34 63 26 64 27 65 33 66 35 67 28 68 29 69
REMARK SMILES IDX 30 70 31 71 32 72 58 73 59 74 68 75 60 76 61 77 67 78 69 79
REMARK SMILES IDX 62 80 63 81 64 82 65 83 66 84 42 85 43 86 52 87 44 88 45 89
REMARK SMILES IDX 51 90 53 91 46 92 47 93 48 94 49 95 50 96
REMARK H PARENT 8 5 83 14 90 21 12 27 74 46 40 57
REMARK Flexibility Score: inf
ROOT
ATOM      1  C   UNL A   1      32.372  26.394  25.944  1.00  0.00     0.117 C 
ENDROOT
BRANCH   1   2
ATOM      2  N   UNL A   1      31.588  25.408  26.657  1.00  0.00    -0.354 N 
ATOM      3  C   UNL A   1      31.635  24.047  26.574  1.00  0.00     0.239 C 
ATOM      4  O   UNL A   1      31.302  23.400  27.578  1.00  0.00    -0.273 OA
ATOM      5  H   UNL A   1      30.928  25.770  27.293  1.00  0.00     0.163 HD
BRANCH   3   6
ATOM      6  C   UNL A   1      32.196  23.302  25.355  1.00  0.00     0.221 C 
BRANCH   6   7
ATOM      7  N   UNL A   1      33.416  22.527  25.557  1.00  0.00    -0.312 N 
BRANCH   7   8
ATOM      8  C   UNL A   1      34.578  22.932  24.761  1.00  0.00     0.149 C 
BRANCH   8   9
ATOM      9  C   UNL A   1      35.352  24.022  25.440  1.00  0.00    -0.013 C 
ATOM     10  C   UNL A   1      36.605  23.851  25.884  1.00  0.00     0.006 C 
ENDBRANCH   8   9
ENDBRANCH   7   8
BRANCH   7  11
ATOM     11  C   UNL A   1      33.618  21.530  26.464  1.00  0.00     0.318 C 
ATOM     12  O   UNL A   1      34.186  21.738  27.542  1.00  0.00    -0.249 OA
ATOM     13  N   UNL A   1      33.244  20.255  26.303  1.00  0.00    -0.336 N 
ATOM     14  H   UNL A   1      33.385  19.760  27.142  1.00  0.00     0.165 HD
BRANCH  13  15
ATOM     15  C   UNL A   1      32.695  19.361  25.293  1.00  0.00     0.142 C 
BRANCH  15  16
ATOM     16  C   UNL A   1      33.732  18.428  24.621  1.00  0.00     0.101 C 
ATOM     17  C   UNL A   1      33.283  17.701  23.351  1.00  0.00     0.036 C 
ATOM     18  N   UNL A   1      34.159  17.337  25.455  1.00  0.00    -0.352 N 
ATOM     19  C   UNL A   1      34.187  16.471  23.295  1.00  0.00     0.102 C 
ATOM     20  C   UNL A   1      34.395  16.176  24.755  1.00  0.00     0.220 C 
ATOM     21  H   UNL A   1      34.272  17.414  26.429  1.00  0.00     0.163 HD
ATOM     22  O   UNL A   1      34.708  15.109  25.250  1.00  0.00    -0.275 OA
ENDBRANCH  15  16
ENDBRANCH  13  15
ENDBRANCH   7  11
ENDBRANCH   6   7
ENDBRANCH   3   6
ENDBRANCH   1   2
BRANCH   1  23
ATOM     23  C   UNL A   1      32.733  27.634  26.755  1.00  0.00     0.042 C 
BRANCH  23  24
ATOM     24  C   UNL A   1      33.900  28.454  26.207  1.00  0.00     0.118 C 
BRANCH  24  25
ATOM     25  N   UNL A   1      33.811  29.871  26.533  1.00  0.00    -0.352 N 
ATOM     26  C   UNL A   1      34.543  30.661  27.384  1.00  0.00     0.251 C 
ATOM     27  H   UNL A   1      33.095  30.349  26.056  1.00  0.00     0.163 HD
ATOM     28  O   UNL A   1      34.141  31.797  27.630  1.00  0.00    -0.269 OA
BRANCH  26  29
ATOM     29  C   UNL A   1      35.788  30.174  28.022  1.00  0.00     0.039 A 
ATOM     30  C   UNL A   1      36.977  30.216  27.285  1.00  0.00     0.014 A 
ATOM     31  C   UNL A   1      35.794  29.628  29.307  1.00  0.00     0.014 A 
ATOM     32  C   UNL A   1      38.176  29.790  27.864  1.00  0.00     0.010 A 
ATOM     33  C   UNL A   1      37.001  29.271  29.911  1.00  0.00     0.010 A 
ATOM     34  C   UNL A   1      38.207  29.360  29.201  1.00  0.00    -0.014 A 
BRANCH  34  35
ATOM     35  C   UNL A   1      39.496  29.059  29.883  1.00  0.00     0.031 A 
ATOM     36  C   UNL A   1      39.983  29.907  31.026  1.00  0.00     0.074 A 
ATOM     37  C   UNL A   1      40.266  28.055  29.415  1.00  0.00     0.049 A 
ATOM     38  N   UNL A   1      41.113  29.836  31.683  1.00  0.00    -0.248 NA
ATOM     39  C   UNL A   1      39.095  30.990  31.477  1.00  0.00     0.031 C 
ATOM     40  C   UNL A   1      39.925  27.188  28.283  1.00  0.00     0.029 A 
ATOM     41  N   UNL A   1      41.498  27.602  29.817  1.00  0.00    -0.354 N 
ATOM     42  C   UNL A   1      41.079  30.866  32.616  1.00  0.00     0.074 A 
ATOM     43  C   UNL A   1      39.834  31.576  32.408  1.00  0.00     0.031 C 
ATOM     44  C   UNL A   1      40.913  26.301  28.094  1.00  0.00     0.029 A 
ATOM     45  C   UNL A   1      41.979  26.563  29.054  1.00  0.00     0.049 A 
ATOM     46  H   UNL A   1      41.989  27.984  30.579  1.00  0.00     0.167 HD
ATOM     47  C   UNL A   1      41.994  31.181  33.565  1.00  0.00     0.037 A 
ATOM     48  C   UNL A   1      43.156  25.908  29.103  1.00  0.00     0.037 A 
ATOM     49  C   UNL A   1      43.228  30.462  33.769  1.00  0.00     0.049 A 
ATOM     50  C   UNL A   1      44.166  26.292  30.150  1.00  0.00     0.074 A 
ATOM     51  C   UNL A   1      44.189  30.665  34.743  1.00  0.00     0.029 A 
ATOM     52  N   UNL A   1      43.678  29.414  32.979  1.00  0.00    -0.354 N 
ATOM     53  N   UNL A   1      44.084  27.222  31.071  1.00  0.00    -0.248 NA
ATOM     54  C   UNL A   1      45.425  25.537  30.166  1.00  0.00     0.031 C 
ATOM     55  C   UNL A   1      45.248  29.782  34.507  1.00  0.00     0.029 A 
ATOM     56  C   UNL A   1      44.920  28.984  33.422  1.00  0.00     0.049 A 
ATOM     57  H   UNL A   1      43.188  29.031  32.215  1.00  0.00     0.167 HD
ATOM     58  C   UNL A   1      45.273  27.152  31.788  1.00  0.00     0.074 A 
ATOM     59  C   UNL A   1      46.047  26.074  31.208  1.00  0.00     0.031 C 
ATOM     60  C   UNL A   1      45.686  27.913  32.832  1.00  0.00     0.037 A 
BRANCH  47  61
ATOM     61  C   UNL A   1      41.705  32.361  34.456  1.00  0.00     0.058 A 
ATOM     62  C   UNL A   1      42.149  33.655  34.140  1.00  0.00     0.135 A 
ATOM     63  C   UNL A   1      40.933  32.204  35.620  1.00  0.00     0.135 A 
ATOM     64  F   UNL A   1      42.900  33.865  33.047  1.00  0.00    -0.206 F 
ATOM     65  C   UNL A   1      41.866  34.744  34.960  1.00  0.00     0.059 A 
ATOM     66  C   UNL A   1      40.611  33.284  36.437  1.00  0.00     0.059 A 
ATOM     67  F   UNL A   1      40.479  30.991  35.971  1.00  0.00    -0.206 F 
ATOM     68  C   UNL A   1      41.094  34.548  36.106  1.00  0.00     0.060 A 
BRANCH  68  69
ATOM     69  S   UNL A   1      40.733  35.972  37.155  1.00  0.00     0.124 S 
ATOM     70  O   UNL A   1      39.760  36.695  36.341  1.00  0.00    -0.237 OA
ATOM     71  O   UNL A   1      40.204  35.343  38.362  1.00  0.00    -0.237 OA
ATOM     72  O   UNL A   1      42.030  36.623  37.307  1.00  0.00    -0.744 OA
ENDBRANCH  68  69
ENDBRANCH  47  61
BRANCH  48  73
ATOM     73  C   UNL A   1      43.437  24.819  28.130  1.00  0.00     0.058 A 
ATOM     74  C   UNL A   1      43.027  23.501  28.378  1.00  0.00     0.135 A 
ATOM     75  C   UNL A   1      44.103  25.077  26.919  1.00  0.00     0.135 A 
ATOM     76  F   UNL A   1      42.394  23.200  29.523  1.00  0.00    -0.206 F 
ATOM     77  C   UNL A   1      43.274  22.476  27.471  1.00  0.00     0.059 A 
ATOM     78  C   UNL A   1      44.336  24.075  25.984  1.00  0.00     0.059 A 
ATOM     79  F   UNL A   1      44.504  26.323  26.626  1.00  0.00    -0.206 F 
ATOM     80  C   UNL A   1      43.925  22.775  26.272  1.00  0.00     0.060 A 
BRANCH  80  81
ATOM     81  S   UNL A   1      44.187  21.447  25.077  1.00  0.00     0.124 S 
ATOM     82  O   UNL A   1      45.521  20.982  25.440  1.00  0.00    -0.237 OA
ATOM     83  O   UNL A   1      43.087  20.537  25.384  1.00  0.00    -0.237 OA
ATOM     84  O   UNL A   1      44.084  22.129  23.789  1.00  0.00    -0.744 OA
ENDBRANCH  80  81
ENDBRANCH  48  73
BRANCH  60  85
ATOM     85  C   UNL A   1      47.032  27.598  33.429  1.00  0.00     0.058 A 
ATOM     86  C   UNL A   1      48.202  28.241  32.996  1.00  0.00     0.135 A 
ATOM     87  C   UNL A   1      47.146  26.671  34.480  1.00  0.00     0.135 A 
ATOM     88  F   UNL A   1      48.152  29.128  31.990  1.00  0.00    -0.206 F 
ATOM     89  C   UNL A   1      49.441  27.960  33.565  1.00  0.00     0.059 A 
ATOM     90  C   UNL A   1      48.370  26.399  35.085  1.00  0.00     0.059 A 
ATOM     91  F   UNL A   1      46.060  26.032  34.941  1.00  0.00    -0.206 F 
ATOM     92  C   UNL A   1      49.514  27.041  34.611  1.00  0.00     0.060 A 
BRANCH  92  93
ATOM     93  S   UNL A   1      51.123  26.712  35.361  1.00  0.00     0.124 S 
ATOM     94  O   UNL A   1      51.825  27.967  35.115  1.00  0.00    -0.237 OA
ATOM     95  O   UNL A   1      50.769  26.444  36.752  1.00  0.00    -0.237 OA
ATOM     96  O   UNL A   1      51.619  25.559  34.614  1.00  0.00    -0.744 OA
ENDBRANCH  92  93
ENDBRANCH  60  85
ENDBRANCH  34  35
ENDBRANCH  26  29
ENDBRANCH  24  25
ENDBRANCH  23  24
ENDBRANCH   1  23
TORSDOF 19
ENDMDL
MODEL 3
REMARK VINA RESULT:     -11.2      3.961      5.992
REMARK SMILES C=CCN(CC(=O)NCCCNC(=O)c1ccc(-c2c3nc(c(-c4c(F)cc(S(=O)(=O)[O-])cc4F)c4ccc([nH]4)c(-c4c(F)cc(S(=O)(=O)[O-])cc4F)c4nc(c(-c5c(F)cc(S(=O)(=O)[O-])cc5F)c5ccc2[nH]5)C=C4)C=C3)cc1)C(=O)NC[C@@H]1CCC(=O)N1
REMARK SMILES IDX 9 1 8 2 6 3 7 4 5 6 4 7 3 8 2 9 1 10 81 11 82 12 83 13 84 15
REMARK SMILES IDX 85 16 86 17 90 18 87 19 88 20 89 22 10 23 11 24 12 25 13 26
REMARK SMILES IDX 14 28 15 29 16 30 80 31 17 32 79 33 18 34 19 35 20 36 73 37
REMARK SMILES IDX 21 38 78 39 72 40 74 41 22 42 77 43 71 44 70 45 23 47 57 48
REMARK SMILES IDX 36 49 56 50 37 51 40 52 55 53 75 54 38 55 39 56 54 58 76 59
REMARK SMILES IDX 41 60 24 61 25 62 34 63 26 64 27 65 33 66 35 67 28 68 29 69
REMARK SMILES IDX 30 70 31 71 32 72 58 73 59 74 68 75 60 76 61 77 67 78 69 79
REMARK SMILES IDX 62 80 63 81 64 82 65 83 66 84 42 85 43 86 52 87 44 88 45 89
REMARK SMILES IDX 51 90 53 91 46 92 47 93 48 94 49 95 50 96
REMARK H PARENT 8 5 83 14 90 21 12 27 74 46 40 57
REMARK Flexibility Score: inf
ROOT
ATOM      1  C   UNL A   1      32.369  26.487  25.961  1.00  0.00     0.117 C 
ENDROOT
BRANCH   1   2
ATOM      2  N   UNL A   1      31.587  25.498  26.676  1.00  0.00    -0.354 N 
ATOM      3  C   UNL A   1      31.659  24.137  26.616  1.00  0.00     0.239 C 
ATOM      4  O   UNL A   1      31.316  23.501  27.623  1.00  0.00    -0.273 OA
ATOM      5  H   UNL A   1      30.909  25.860  27.292  1.00  0.00     0.163 HD
BRANCH   3   6
ATOM      6  C   UNL A   1      32.257  23.382  25.421  1.00  0.00     0.221 C 
BRANCH   6   7
ATOM      7  N   UNL A   1      33.414  22.533  25.686  1.00  0.00    -0.312 N 
BRANCH   7   8
ATOM      8  C   UNL A   1      34.663  22.917  25.022  1.00  0.00     0.149 C 
BRANCH   8   9
ATOM      9  C   UNL A   1      35.440  23.900  25.846  1.00  0.00    -0.013 C 
ATOM     10  C   UNL A   1      36.769  24.043  25.739  1.00  0.00     0.006 C 
ENDBRANCH   8   9
ENDBRANCH   7   8
BRANCH   7  11
ATOM     11  C   UNL A   1      33.482  21.480  26.549  1.00  0.00     0.318 C 
ATOM     12  O   UNL A   1      33.929  21.608  27.694  1.00  0.00    -0.249 OA
ATOM     13  N   UNL A   1      33.093  20.231  26.270  1.00  0.00    -0.336 N 
ATOM     14  H   UNL A   1      33.123  19.684  27.088  1.00  0.00     0.165 HD
BRANCH  13  15
ATOM     15  C   UNL A   1      32.638  19.415  25.153  1.00  0.00     0.142 C 
BRANCH  15  16
ATOM     16  C   UNL A   1      33.704  18.451  24.577  1.00  0.00     0.101 C 
ATOM     17  C   UNL A   1      33.344  17.719  23.283  1.00  0.00     0.036 C 
ATOM     18  N   UNL A   1      34.036  17.360  25.455  1.00  0.00    -0.352 N 
ATOM     19  C   UNL A   1      34.222  16.469  23.313  1.00  0.00     0.102 C 
ATOM     20  C   UNL A   1      34.302  16.186  24.789  1.00  0.00     0.220 C 
ATOM     21  H   UNL A   1      34.071  17.447  26.435  1.00  0.00     0.163 HD
ATOM     22  O   UNL A   1      34.548  15.119  25.318  1.00  0.00    -0.275 OA
ENDBRANCH  15  16
ENDBRANCH  13  15
ENDBRANCH   7  11
ENDBRANCH   6   7
ENDBRANCH   3   6
ENDBRANCH   1   2
BRANCH   1  23
ATOM     23  C   UNL A   1      33.124  27.469  26.850  1.00  0.00     0.042 C 
BRANCH  23  24
ATOM     24  C   UNL A   1      33.823  28.610  26.111  1.00  0.00     0.118 C 
BRANCH  24  25
ATOM     25  N   UNL A   1      33.678  29.899  26.775  1.00  0.00    -0.352 N 
ATOM     26  C   UNL A   1      34.456  30.541  27.704  1.00  0.00     0.251 C 
ATOM     27  H   UNL A   1      32.874  30.400  26.507  1.00  0.00     0.163 HD
ATOM     28  O   UNL A   1      34.011  31.546  28.257  1.00  0.00    -0.269 OA
BRANCH  26  29
ATOM     29  C   UNL A   1      35.805  30.048  28.067  1.00  0.00     0.039 A 
ATOM     30  C   UNL A   1      36.817  30.096  27.101  1.00  0.00     0.014 A 
ATOM     31  C   UNL A   1      36.074  29.490  29.318  1.00  0.00     0.014 A 
ATOM     32  C   UNL A   1      38.108  29.663  27.416  1.00  0.00     0.010 A 
ATOM     33  C   UNL A   1      37.379  29.126  29.656  1.00  0.00     0.010 A 
ATOM     34  C   UNL A   1      38.413  29.221  28.713  1.00  0.00    -0.014 A 
BRANCH  34  35
ATOM     35  C   UNL A   1      39.814  28.912  29.112  1.00  0.00     0.031 A 
ATOM     36  C   UNL A   1      40.670  29.944  29.794  1.00  0.00     0.074 A 
ATOM     37  C   UNL A   1      40.339  27.713  28.786  1.00  0.00     0.049 A 
ATOM     38  N   UNL A   1      41.930  29.872  30.141  1.00  0.00    -0.248 NA
ATOM     39  C   UNL A   1      40.034  31.232  30.111  1.00  0.00     0.031 C 
ATOM     40  C   UNL A   1      39.624  26.643  28.084  1.00  0.00     0.029 A 
ATOM     41  N   UNL A   1      41.594  27.194  28.985  1.00  0.00    -0.354 N 
ATOM     42  C   UNL A   1      42.242  31.104  30.705  1.00  0.00     0.074 A 
ATOM     43  C   UNL A   1      41.050  31.920  30.613  1.00  0.00     0.031 C 
ATOM     44  C   UNL A   1      40.445  25.594  27.926  1.00  0.00     0.029 A 
ATOM     45  C   UNL A   1      41.757  25.929  28.469  1.00  0.00     0.049 A 
ATOM     46  H   UNL A   1      42.310  27.682  29.454  1.00  0.00     0.167 HD
ATOM     47  C   UNL A   1      43.410  31.511  31.261  1.00  0.00     0.037 A 
ATOM     48  C   UNL A   1      42.844  25.134  28.417  1.00  0.00     0.037 A 
ATOM     49  C   UNL A   1      44.590  30.687  31.355  1.00  0.00     0.049 A 
ATOM     50  C   UNL A   1      44.136  25.617  29.018  1.00  0.00     0.074 A 
ATOM     51  C   UNL A   1      45.800  30.986  31.956  1.00  0.00     0.029 A 
ATOM     52  N   UNL A   1      44.715  29.410  30.826  1.00  0.00    -0.354 N 
ATOM     53  N   UNL A   1      44.390  26.758  29.613  1.00  0.00    -0.248 NA
ATOM     54  C   UNL A   1      45.284  24.706  28.945  1.00  0.00     0.031 C 
ATOM     55  C   UNL A   1      46.676  29.917  31.737  1.00  0.00     0.029 A 
ATOM     56  C   UNL A   1      45.993  28.924  31.053  1.00  0.00     0.049 A 
ATOM     57  H   UNL A   1      44.000  28.921  30.356  1.00  0.00     0.167 HD
ATOM     58  C   UNL A   1      45.725  26.694  30.001  1.00  0.00     0.074 A 
ATOM     59  C   UNL A   1      46.215  25.394  29.592  1.00  0.00     0.031 C 
ATOM     60  C   UNL A   1      46.474  27.629  30.636  1.00  0.00     0.037 A 
BRANCH  47  61
ATOM     61  C   UNL A   1      43.479  32.914  31.806  1.00  0.00     0.058 A 
ATOM     62  C   UNL A   1      43.325  33.186  33.174  1.00  0.00     0.135 A 
ATOM     63  C   UNL A   1      43.748  33.998  30.952  1.00  0.00     0.135 A 
ATOM     64  F   UNL A   1      43.054  32.193  34.036  1.00  0.00    -0.206 F 
ATOM     65  C   UNL A   1      43.404  34.483  33.674  1.00  0.00     0.059 A 
ATOM     66  C   UNL A   1      43.864  35.299  31.434  1.00  0.00     0.059 A 
ATOM     67  F   UNL A   1      43.908  33.797  29.635  1.00  0.00    -0.206 F 
ATOM     68  C   UNL A   1      43.676  35.533  32.795  1.00  0.00     0.060 A 
BRANCH  68  69
ATOM     69  S   UNL A   1      43.780  37.208  33.460  1.00  0.00     0.124 S 
ATOM     70  O   UNL A   1      42.527  37.305  34.202  1.00  0.00    -0.237 OA
ATOM     71  O   UNL A   1      44.992  37.146  34.271  1.00  0.00    -0.237 OA
ATOM     72  O   UNL A   1      43.868  38.044  32.268  1.00  0.00    -0.744 OA
ENDBRANCH  68  69
ENDBRANCH  47  61
BRANCH  48  73
ATOM     73  C   UNL A   1      42.752  23.797  27.772  1.00  0.00     0.058 A 
ATOM     74  C   UNL A   1      42.968  23.641  26.395  1.00  0.00     0.135 A 
ATOM     75  C   UNL A   1      42.468  22.643  28.521  1.00  0.00     0.135 A 
ATOM     76  F   UNL A   1      43.234  24.714  25.632  1.00  0.00    -0.206 F 
ATOM     77  C   UNL A   1      42.896  22.395  25.781  1.00  0.00     0.059 A 
ATOM     78  C   UNL A   1      42.420  21.383  27.936  1.00  0.00     0.059 A 
ATOM     79  F   UNL A   1      42.268  22.735  29.845  1.00  0.00    -0.206 F 
ATOM     80  C   UNL A   1      42.627  21.270  26.562  1.00  0.00     0.060 A 
BRANCH  80  81
ATOM     81  S   UNL A   1      42.594  19.650  25.764  1.00  0.00     0.124 S 
ATOM     82  O   UNL A   1      43.025  18.777  26.850  1.00  0.00    -0.237 OA
ATOM     83  O   UNL A   1      41.193  19.533  25.368  1.00  0.00    -0.237 OA
ATOM     84  O   UNL A   1      43.538  19.800  24.660  1.00  0.00    -0.744 OA
ENDBRANCH  80  81
ENDBRANCH  48  73
BRANCH  60  85
ATOM     85  C   UNL A   1      47.905  27.275  30.946  1.00  0.00     0.058 A 
ATOM     86  C   UNL A   1      48.961  27.670  30.111  1.00  0.00     0.135 A 
ATOM     87  C   UNL A   1      48.227  26.571  32.119  1.00  0.00     0.135 A 
ATOM     88  F   UNL A   1      48.711  28.337  28.973  1.00  0.00    -0.206 F 
ATOM     89  C   UNL A   1      50.284  27.357  30.412  1.00  0.00     0.059 A 
ATOM     90  C   UNL A   1      49.544  26.276  32.456  1.00  0.00     0.059 A 
ATOM     91  F   UNL A   1      47.258  26.176  32.960  1.00  0.00    -0.206 F 
ATOM     92  C   UNL A   1      50.565  26.663  31.590  1.00  0.00     0.060 A 
BRANCH  92  93
ATOM     93  S   UNL A   1      52.288  26.295  31.984  1.00  0.00     0.124 S 
ATOM     94  O   UNL A   1      52.789  27.608  32.377  1.00  0.00    -0.237 OA
ATOM     95  O   UNL A   1      52.160  25.317  33.059  1.00  0.00    -0.237 OA
ATOM     96  O   UNL A   1      52.821  25.771  30.729  1.00  0.00    -0.744 OA
ENDBRANCH  92  93
ENDBRANCH  60  85
ENDBRANCH  34  35
ENDBRANCH  26  29
ENDBRANCH  24  25
ENDBRANCH  23  24
ENDBRANCH   1  23
TORSDOF 19
ENDMDL
