MODEL 1
REMARK VINA RESULT:     -11.1      0.000      0.000
REMARK SMILES CC(C)C[C@H](NC(N)=O)C(=O)N[C@@H](C(=O)NCCCNC(=O)c1ccc(-c2c3nc(c(-c4c(F)cc(S(=O)(=O)[O-])cc4F)c4ccc([nH]4)c(-c4c(F)cc(S(=O)(=O)[O-])cc4F)c4nc(c(-c5c(F)cc(S(=O)(=O)[O-])cc5F)c5ccc2[nH]5)C=C4)C=C3)cc1)C(C)C
REMARK SMILES IDX 17 1 16 2 14 3 15 4 13 6 12 7 10 8 11 9 5 11 4 12 2 13 1 14
REMARK SMILES IDX 3 15 6 16 7 17 8 19 9 20 89 23 90 24 91 25 18 26 19 27 20 28
REMARK SMILES IDX 21 29 22 31 23 32 24 33 88 34 25 35 87 36 26 37 27 38 28 39
REMARK SMILES IDX 81 40 29 41 86 42 80 43 82 44 30 45 85 46 79 47 78 48 31 50
REMARK SMILES IDX 65 51 44 52 64 53 45 54 48 55 63 56 83 57 46 58 47 59 62 61
REMARK SMILES IDX 84 62 49 63 32 64 33 65 42 66 34 67 35 68 41 69 43 70 36 71
REMARK SMILES IDX 37 72 38 73 39 74 40 75 66 76 67 77 76 78 68 79 69 80 75 81
REMARK SMILES IDX 77 82 70 83 71 84 72 85 73 86 74 87 50 88 51 89 60 90 52 91
REMARK SMILES IDX 53 92 59 93 61 94 54 95 55 96 56 97 57 98 58 99
REMARK H PARENT 16 5 12 10 6 18 8 21 8 22 20 30 82 49 48 60
REMARK Flexibility Score: inf
ROOT
ATOM      1  C   UNL A   1      34.198  29.054  27.331  1.00  0.00     0.117 C 
ENDROOT
BRANCH   1   2
ATOM      2  N   UNL A   1      32.873  28.765  27.803  1.00  0.00    -0.354 N 
ATOM      3  C   UNL A   1      31.911  27.963  27.278  1.00  0.00     0.242 C 
ATOM      4  O   UNL A   1      30.942  27.780  28.024  1.00  0.00    -0.273 OA
ATOM      5  H   UNL A   1      32.623  29.220  28.640  1.00  0.00     0.163 HD
BRANCH   3   6
ATOM      6  C   UNL A   1      32.066  27.212  25.899  1.00  0.00     0.173 C 
BRANCH   6   7
ATOM      7  N   UNL A   1      33.069  26.141  25.989  1.00  0.00    -0.342 N 
ATOM      8  C   UNL A   1      33.129  24.850  25.562  1.00  0.00     0.243 C 
ATOM      9  O   UNL A   1      34.104  24.214  25.994  1.00  0.00    -0.273 OA
ATOM     10  H   UNL A   1      33.882  26.422  26.468  1.00  0.00     0.164 HD
BRANCH   8  11
ATOM     11  C   UNL A   1      32.138  24.109  24.590  1.00  0.00     0.173 C 
BRANCH  11  12
ATOM     12  C   UNL A   1      31.717  24.794  23.270  1.00  0.00     0.038 C 
BRANCH  12  13
ATOM     13  C   UNL A   1      32.813  24.955  22.221  1.00  0.00    -0.015 C 
ATOM     14  C   UNL A   1      33.385  23.613  21.764  1.00  0.00     0.007 C 
ATOM     15  C   UNL A   1      32.312  25.743  21.012  1.00  0.00     0.007 C 
ENDBRANCH  12  13
ENDBRANCH  11  12
BRANCH  11  16
ATOM     16  N   UNL A   1      31.070  23.311  25.206  1.00  0.00    -0.327 N 
ATOM     17  C   UNL A   1      30.603  23.416  26.477  1.00  0.00     0.312 C 
ATOM     18  H   UNL A   1      30.646  22.627  24.637  1.00  0.00     0.166 HD
ATOM     19  N   UNL A   1      29.708  22.444  26.785  1.00  0.00    -0.352 N 
ATOM     20  O   UNL A   1      30.942  24.243  27.302  1.00  0.00    -0.249 OA
ATOM     21  H   UNL A   1      29.446  21.783  26.105  1.00  0.00     0.161 HD
ATOM     22  H   UNL A   1      29.320  22.400  27.689  1.00  0.00     0.161 HD
ENDBRANCH  11  16
ENDBRANCH   8  11
ENDBRANCH   6   7
BRANCH   6  23
ATOM     23  C   UNL A   1      32.426  28.308  24.832  1.00  0.00     0.015 C 
ATOM     24  C   UNL A   1      33.696  28.121  24.000  1.00  0.00     0.010 C 
ATOM     25  C   UNL A   1      31.239  28.501  23.872  1.00  0.00     0.010 C 
ENDBRANCH   6  23
ENDBRANCH   3   6
ENDBRANCH   1   2
BRANCH   1  26
ATOM     26  C   UNL A   1      34.520  30.533  27.317  1.00  0.00     0.042 C 
BRANCH  26  27
ATOM     27  C   UNL A   1      35.784  30.866  28.090  1.00  0.00     0.118 C 
BRANCH  27  28
ATOM     28  N   UNL A   1      35.693  30.481  29.497  1.00  0.00    -0.352 N 
ATOM     29  C   UNL A   1      36.639  29.914  30.316  1.00  0.00     0.251 C 
ATOM     30  H   UNL A   1      34.823  30.656  29.923  1.00  0.00     0.163 HD
ATOM     31  O   UNL A   1      36.306  29.462  31.408  1.00  0.00    -0.269 OA
BRANCH  29  32
ATOM     32  C   UNL A   1      38.042  29.833  29.861  1.00  0.00     0.039 A 
ATOM     33  C   UNL A   1      39.061  29.684  30.803  1.00  0.00     0.014 A 
ATOM     34  C   UNL A   1      38.343  29.869  28.497  1.00  0.00     0.014 A 
ATOM     35  C   UNL A   1      40.372  29.480  30.370  1.00  0.00     0.010 A 
ATOM     36  C   UNL A   1      39.625  29.559  28.068  1.00  0.00     0.010 A 
ATOM     37  C   UNL A   1      40.655  29.362  28.999  1.00  0.00    -0.014 A 
BRANCH  37  38
ATOM     38  C   UNL A   1      42.011  29.015  28.507  1.00  0.00     0.031 A 
ATOM     39  C   UNL A   1      42.315  27.609  28.068  1.00  0.00     0.074 A 
ATOM     40  C   UNL A   1      42.988  29.941  28.547  1.00  0.00     0.049 A 
ATOM     41  N   UNL A   1      43.455  27.091  27.688  1.00  0.00    -0.248 NA
ATOM     42  C   UNL A   1      41.199  26.650  28.095  1.00  0.00     0.031 C 
ATOM     43  C   UNL A   1      42.826  31.322  29.009  1.00  0.00     0.029 A 
ATOM     44  N   UNL A   1      44.313  29.861  28.203  1.00  0.00    -0.354 N 
ATOM     45  C   UNL A   1      43.197  25.746  27.452  1.00  0.00     0.074 A 
ATOM     46  C   UNL A   1      41.810  25.515  27.793  1.00  0.00     0.031 C 
ATOM     47  C   UNL A   1      43.995  31.968  28.881  1.00  0.00     0.029 A 
ATOM     48  C   UNL A   1      45.000  31.038  28.375  1.00  0.00     0.049 A 
ATOM     49  H   UNL A   1      44.732  29.036  27.864  1.00  0.00     0.167 HD
ATOM     50  C   UNL A   1      44.033  24.795  26.971  1.00  0.00     0.037 A 
ATOM     51  C   UNL A   1      46.294  31.336  28.152  1.00  0.00     0.037 A 
ATOM     52  C   UNL A   1      45.406  25.042  26.616  1.00  0.00     0.049 A 
ATOM     53  C   UNL A   1      47.210  30.265  27.630  1.00  0.00     0.074 A 
ATOM     54  C   UNL A   1      46.320  24.171  26.051  1.00  0.00     0.029 A 
ATOM     55  N   UNL A   1      46.067  26.248  26.804  1.00  0.00    -0.354 N 
ATOM     56  N   UNL A   1      46.933  29.015  27.336  1.00  0.00    -0.248 NA
ATOM     57  C   UNL A   1      48.612  30.640  27.409  1.00  0.00     0.031 C 
ATOM     58  C   UNL A   1      47.547  24.836  25.944  1.00  0.00     0.029 A 
ATOM     59  C   UNL A   1      47.386  26.136  26.396  1.00  0.00     0.049 A 
ATOM     60  H   UNL A   1      45.658  27.063  27.174  1.00  0.00     0.167 HD
ATOM     61  C   UNL A   1      48.121  28.460  26.877  1.00  0.00     0.074 A 
ATOM     62  C   UNL A   1      49.116  29.514  26.920  1.00  0.00     0.031 C 
ATOM     63  C   UNL A   1      48.365  27.195  26.455  1.00  0.00     0.037 A 
BRANCH  50  64
ATOM     64  C   UNL A   1      43.477  23.405  26.813  1.00  0.00     0.058 A 
ATOM     65  C   UNL A   1      43.244  22.571  27.920  1.00  0.00     0.135 A 
ATOM     66  C   UNL A   1      43.193  22.890  25.538  1.00  0.00     0.135 A 
ATOM     67  F   UNL A   1      43.509  23.006  29.162  1.00  0.00    -0.206 F 
ATOM     68  C   UNL A   1      42.806  21.260  27.766  1.00  0.00     0.059 A 
ATOM     69  C   UNL A   1      42.723  21.591  25.362  1.00  0.00     0.059 A 
ATOM     70  F   UNL A   1      43.392  23.642  24.445  1.00  0.00    -0.206 F 
ATOM     71  C   UNL A   1      42.559  20.775  26.480  1.00  0.00     0.060 A 
BRANCH  71  72
ATOM     72  S   UNL A   1      42.038  19.058  26.292  1.00  0.00     0.124 S 
ATOM     73  O   UNL A   1      42.258  18.539  27.639  1.00  0.00    -0.237 OA
ATOM     74  O   UNL A   1      40.642  19.196  25.888  1.00  0.00    -0.237 OA
ATOM     75  O   UNL A   1      42.937  18.540  25.266  1.00  0.00    -0.744 OA
ENDBRANCH  71  72
ENDBRANCH  50  64
BRANCH  51  76
ATOM     76  C   UNL A   1      46.778  32.723  28.377  1.00  0.00     0.058 A 
ATOM     77  C   UNL A   1      47.354  33.086  29.603  1.00  0.00     0.135 A 
ATOM     78  C   UNL A   1      46.735  33.691  27.362  1.00  0.00     0.135 A 
ATOM     79  F   UNL A   1      47.411  32.196  30.606  1.00  0.00    -0.206 F 
ATOM     80  C   UNL A   1      47.873  34.358  29.817  1.00  0.00     0.059 A 
ATOM     81  C   UNL A   1      47.268  34.964  27.543  1.00  0.00     0.059 A 
ATOM     82  F   UNL A   1      46.209  33.388  26.165  1.00  0.00    -0.206 F 
ATOM     83  C   UNL A   1      47.835  35.288  28.776  1.00  0.00     0.060 A 
BRANCH  83  84
ATOM     84  S   UNL A   1      48.593  36.907  29.038  1.00  0.00     0.124 S 
ATOM     85  O   UNL A   1      47.994  37.690  27.964  1.00  0.00    -0.237 OA
ATOM     86  O   UNL A   1      48.152  37.233  30.391  1.00  0.00    -0.237 OA
ATOM     87  O   UNL A   1      50.021  36.635  28.903  1.00  0.00    -0.744 OA
ENDBRANCH  83  84
ENDBRANCH  51  76
BRANCH  63  88
ATOM     88  C   UNL A   1      49.761  26.879  25.991  1.00  0.00     0.058 A 
ATOM     89  C   UNL A   1      50.142  27.033  24.650  1.00  0.00     0.135 A 
ATOM     90  C   UNL A   1      50.742  26.474  26.911  1.00  0.00     0.135 A 
ATOM     91  F   UNL A   1      49.240  27.409  23.729  1.00  0.00    -0.206 F 
ATOM     92  C   UNL A   1      51.444  26.780  24.232  1.00  0.00     0.059 A 
ATOM     93  C   UNL A   1      52.056  26.242  26.520  1.00  0.00     0.059 A 
ATOM     94  F   UNL A   1      50.431  26.320  28.208  1.00  0.00    -0.206 F 
ATOM     95  C   UNL A   1      52.396  26.389  25.176  1.00  0.00     0.060 A 
BRANCH  95  96
ATOM     96  S   UNL A   1      54.093  26.107  24.628  1.00  0.00     0.124 S 
ATOM     97  O   UNL A   1      54.248  24.678  24.878  1.00  0.00    -0.237 OA
ATOM     98  O   UNL A   1      54.036  26.503  23.224  1.00  0.00    -0.237 OA
ATOM     99  O   UNL A   1      54.879  26.985  25.489  1.00  0.00    -0.744 OA
ENDBRANCH  95  96
ENDBRANCH  63  88
ENDBRANCH  37  38
ENDBRANCH  29  32
ENDBRANCH  27  28
ENDBRANCH  26  27
ENDBRANCH   1  26
TORSDOF 19
ENDMDL
MODEL 2
REMARK VINA RESULT:     -10.9      0.773      8.405
REMARK SMILES CC(C)C[C@H](NC(N)=O)C(=O)N[C@@H](C(=O)NCCCNC(=O)c1ccc(-c2c3nc(c(-c4c(F)cc(S(=O)(=O)[O-])cc4F)c4ccc([nH]4)c(-c4c(F)cc(S(=O)(=O)[O-])cc4F)c4nc(c(-c5c(F)cc(S(=O)(=O)[O-])cc5F)c5ccc2[nH]5)C=C4)C=C3)cc1)C(C)C
REMARK SMILES IDX 17 1 16 2 14 3 15 4 13 6 12 7 10 8 11 9 5 11 4 12 2 13 1 14
REMARK SMILES IDX 3 15 6 16 7 17 8 19 9 20 89 23 90 24 91 25 18 26 19 27 20 28
REMARK SMILES IDX 21 29 22 31 23 32 24 33 88 34 25 35 87 36 26 37 27 38 28 39
REMARK SMILES IDX 81 40 29 41 86 42 80 43 82 44 30 45 85 46 79 47 78 48 31 50
REMARK SMILES IDX 65 51 44 52 64 53 45 54 48 55 63 56 83 57 46 58 47 59 62 61
REMARK SMILES IDX 84 62 49 63 32 64 33 65 42 66 34 67 35 68 41 69 43 70 36 71
REMARK SMILES IDX 37 72 38 73 39 74 40 75 66 76 67 77 76 78 68 79 69 80 75 81
REMARK SMILES IDX 77 82 70 83 71 84 72 85 73 86 74 87 50 88 51 89 60 90 52 91
REMARK SMILES IDX 53 92 59 93 61 94 54 95 55 96 56 97 57 98 58 99
REMARK H PARENT 16 5 12 10 6 18 8 21 8 22 20 30 82 49 48 60
REMARK Flexibility Score: inf
ROOT
ATOM      1  C   UNL A   1      33.576  30.042  26.811  1.00  0.00     0.117 C 
ENDROOT
BRANCH   1   2
ATOM      2  N   UNL A   1      32.494  29.414  27.514  1.00  0.00    -0.354 N 
ATOM      3  C   UNL A   1      31.716  28.358  27.162  1.00  0.00     0.242 C 
ATOM      4  O   UNL A   1      30.988  27.940  28.071  1.00  0.00    -0.273 OA
ATOM      5  H   UNL A   1      32.282  29.811  28.390  1.00  0.00     0.163 HD
BRANCH   3   6
ATOM      6  C   UNL A   1      31.821  27.630  25.766  1.00  0.00     0.173 C 
BRANCH   6   7
ATOM      7  N   UNL A   1      32.878  26.609  25.779  1.00  0.00    -0.342 N 
ATOM      8  C   UNL A   1      32.912  25.267  25.556  1.00  0.00     0.243 C 
ATOM      9  O   UNL A   1      33.995  24.730  25.837  1.00  0.00    -0.273 OA
ATOM     10  H   UNL A   1      33.762  26.980  26.002  1.00  0.00     0.164 HD
BRANCH   8  11
ATOM     11  C   UNL A   1      31.767  24.357  24.974  1.00  0.00     0.173 C 
BRANCH  11  12
ATOM     12  C   UNL A   1      31.628  24.200  23.444  1.00  0.00     0.038 C 
BRANCH  12  13
ATOM     13  C   UNL A   1      32.226  22.930  22.844  1.00  0.00    -0.015 C 
ATOM     14  C   UNL A   1      33.623  23.160  22.266  1.00  0.00     0.007 C 
ATOM     15  C   UNL A   1      32.270  21.800  23.870  1.00  0.00     0.007 C 
ENDBRANCH  12  13
ENDBRANCH  11  12
BRANCH  11  16
ATOM     16  N   UNL A   1      30.482  24.364  25.685  1.00  0.00    -0.327 N 
ATOM     17  C   UNL A   1      30.182  23.705  26.835  1.00  0.00     0.312 C 
ATOM     18  H   UNL A   1      29.760  24.904  25.286  1.00  0.00     0.166 HD
ATOM     19  N   UNL A   1      28.870  23.801  27.162  1.00  0.00    -0.352 N 
ATOM     20  O   UNL A   1      30.954  23.054  27.513  1.00  0.00    -0.249 OA
ATOM     21  H   UNL A   1      28.260  24.332  26.601  1.00  0.00     0.161 HD
ATOM     22  H   UNL A   1      28.527  23.341  27.962  1.00  0.00     0.161 HD
ENDBRANCH  11  16
ENDBRANCH   8  11
ENDBRANCH   6   7
BRANCH   6  23
ATOM     23  C   UNL A   1      32.062  28.755  24.695  1.00  0.00     0.015 C 
ATOM     24  C   UNL A   1      33.107  28.507  23.605  1.00  0.00     0.010 C 
ATOM     25  C   UNL A   1      30.728  29.113  24.016  1.00  0.00     0.010 C 
ENDBRANCH   6  23
ENDBRANCH   3   6
ENDBRANCH   1   2
BRANCH   1  26
ATOM     26  C   UNL A   1      34.940  29.651  27.339  1.00  0.00     0.042 C 
BRANCH  26  27
ATOM     27  C   UNL A   1      35.661  30.805  28.013  1.00  0.00     0.118 C 
BRANCH  27  28
ATOM     28  N   UNL A   1      35.507  30.785  29.466  1.00  0.00    -0.352 N 
ATOM     29  C   UNL A   1      36.413  30.447  30.441  1.00  0.00     0.251 C 
ATOM     30  H   UNL A   1      34.619  31.056  29.796  1.00  0.00     0.163 HD
ATOM     31  O   UNL A   1      36.030  30.282  31.596  1.00  0.00    -0.269 OA
BRANCH  29  32
ATOM     32  C   UNL A   1      37.834  30.263  30.084  1.00  0.00     0.039 A 
ATOM     33  C   UNL A   1      38.777  30.066  31.095  1.00  0.00     0.014 A 
ATOM     34  C   UNL A   1      38.226  30.252  28.743  1.00  0.00     0.014 A 
ATOM     35  C   UNL A   1      40.096  29.766  30.754  1.00  0.00     0.010 A 
ATOM     36  C   UNL A   1      39.510  29.848  28.406  1.00  0.00     0.010 A 
ATOM     37  C   UNL A   1      40.460  29.602  29.406  1.00  0.00    -0.014 A 
BRANCH  37  38
ATOM     38  C   UNL A   1      41.819  29.155  29.013  1.00  0.00     0.031 A 
ATOM     39  C   UNL A   1      42.956  30.139  28.984  1.00  0.00     0.074 A 
ATOM     40  C   UNL A   1      42.005  27.889  28.592  1.00  0.00     0.049 A 
ATOM     41  N   UNL A   1      44.191  29.963  28.590  1.00  0.00    -0.248 NA
ATOM     42  C   UNL A   1      42.656  31.512  29.422  1.00  0.00     0.031 C 
ATOM     43  C   UNL A   1      40.964  26.860  28.520  1.00  0.00     0.029 A 
ATOM     44  N   UNL A   1      43.131  27.253  28.136  1.00  0.00    -0.354 N 
ATOM     45  C   UNL A   1      44.806  31.203  28.712  1.00  0.00     0.074 A 
ATOM     46  C   UNL A   1      43.793  32.135  29.155  1.00  0.00     0.031 C 
ATOM     47  C   UNL A   1      41.510  25.713  28.087  1.00  0.00     0.029 A 
ATOM     48  C   UNL A   1      42.924  25.935  27.805  1.00  0.00     0.049 A 
ATOM     49  H   UNL A   1      44.005  27.699  28.054  1.00  0.00     0.167 HD
ATOM     50  C   UNL A   1      46.103  31.530  28.499  1.00  0.00     0.037 A 
ATOM     51  C   UNL A   1      43.777  25.010  27.327  1.00  0.00     0.037 A 
ATOM     52  C   UNL A   1      47.107  30.588  28.077  1.00  0.00     0.049 A 
ATOM     53  C   UNL A   1      45.210  25.394  27.085  1.00  0.00     0.074 A 
ATOM     54  C   UNL A   1      48.464  30.795  27.904  1.00  0.00     0.029 A 
ATOM     55  N   UNL A   1      46.860  29.261  27.752  1.00  0.00    -0.354 N 
ATOM     56  N   UNL A   1      45.797  26.553  27.280  1.00  0.00    -0.248 NA
ATOM     57  C   UNL A   1      46.097  24.350  26.558  1.00  0.00     0.031 C 
ATOM     58  C   UNL A   1      49.027  29.607  27.425  1.00  0.00     0.029 A 
ATOM     59  C   UNL A   1      48.032  28.645  27.348  1.00  0.00     0.049 A 
ATOM     60  H   UNL A   1      45.980  28.823  27.801  1.00  0.00     0.167 HD
ATOM     61  C   UNL A   1      47.126  26.371  26.918  1.00  0.00     0.074 A 
ATOM     62  C   UNL A   1      47.259  24.988  26.505  1.00  0.00     0.031 C 
ATOM     63  C   UNL A   1      48.144  27.267  26.931  1.00  0.00     0.037 A 
BRANCH  50  64
ATOM     64  C   UNL A   1      46.495  32.967  28.713  1.00  0.00     0.058 A 
ATOM     65  C   UNL A   1      46.465  33.906  27.668  1.00  0.00     0.135 A 
ATOM     66  C   UNL A   1      46.928  33.410  29.973  1.00  0.00     0.135 A 
ATOM     67  F   UNL A   1      46.072  33.537  26.438  1.00  0.00    -0.206 F 
ATOM     68  C   UNL A   1      46.904  35.213  27.848  1.00  0.00     0.059 A 
ATOM     69  C   UNL A   1      47.341  34.723  30.185  1.00  0.00     0.059 A 
ATOM     70  F   UNL A   1      46.973  32.559  31.010  1.00  0.00    -0.206 F 
ATOM     71  C   UNL A   1      47.351  35.609  29.110  1.00  0.00     0.060 A 
BRANCH  71  72
ATOM     72  S   UNL A   1      47.962  37.294  29.319  1.00  0.00     0.124 S 
ATOM     73  O   UNL A   1      48.772  37.459  28.115  1.00  0.00    -0.237 OA
ATOM     74  O   UNL A   1      46.728  38.073  29.362  1.00  0.00    -0.237 OA
ATOM     75  O   UNL A   1      48.707  37.233  30.572  1.00  0.00    -0.744 OA
ENDBRANCH  71  72
ENDBRANCH  50  64
BRANCH  51  76
ATOM     76  C   UNL A   1      43.302  23.621  27.097  1.00  0.00     0.058 A 
ATOM     77  C   UNL A   1      42.959  23.190  25.807  1.00  0.00     0.135 A 
ATOM     78  C   UNL A   1      43.238  22.683  28.139  1.00  0.00     0.135 A 
ATOM     79  F   UNL A   1      42.999  24.052  24.780  1.00  0.00    -0.206 F 
ATOM     80  C   UNL A   1      42.574  21.878  25.555  1.00  0.00     0.059 A 
ATOM     81  C   UNL A   1      42.876  21.358  27.908  1.00  0.00     0.059 A 
ATOM     82  F   UNL A   1      43.570  23.042  29.388  1.00  0.00    -0.206 F 
ATOM     83  C   UNL A   1      42.545  20.966  26.612  1.00  0.00     0.060 A 
BRANCH  83  84
ATOM     84  S   UNL A   1      42.129  19.245  26.254  1.00  0.00     0.124 S 
ATOM     85  O   UNL A   1      42.291  18.625  27.563  1.00  0.00    -0.237 OA
ATOM     86  O   UNL A   1      40.757  19.359  25.766  1.00  0.00    -0.237 OA
ATOM     87  O   UNL A   1      43.113  18.864  25.246  1.00  0.00    -0.744 OA
ENDBRANCH  83  84
ENDBRANCH  51  76
BRANCH  63  88
ATOM     88  C   UNL A   1      49.499  26.779  26.497  1.00  0.00     0.058 A 
ATOM     89  C   UNL A   1      50.353  26.101  27.381  1.00  0.00     0.135 A 
ATOM     90  C   UNL A   1      49.921  26.939  25.168  1.00  0.00     0.135 A 
ATOM     91  F   UNL A   1      50.000  25.930  28.665  1.00  0.00    -0.206 F 
ATOM     92  C   UNL A   1      51.588  25.615  26.966  1.00  0.00     0.059 A 
ATOM     93  C   UNL A   1      51.140  26.436  24.725  1.00  0.00     0.059 A 
ATOM     94  F   UNL A   1      49.138  27.573  24.281  1.00  0.00    -0.206 F 
ATOM     95  C   UNL A   1      51.971  25.783  25.634  1.00  0.00     0.060 A 
BRANCH  95  96
ATOM     96  S   UNL A   1      53.557  25.107  25.098  1.00  0.00     0.124 S 
ATOM     97  O   UNL A   1      54.484  25.787  25.996  1.00  0.00    -0.237 OA
ATOM     98  O   UNL A   1      53.381  23.677  25.331  1.00  0.00    -0.237 OA
ATOM     99  O   UNL A   1      53.638  25.502  23.695  1.00  0.00    -0.744 OA
ENDBRANCH  95  96
ENDBRANCH  63  88
ENDBRANCH  37  38
ENDBRANCH  29  32
ENDBRANCH  27  28
ENDBRANCH  26  27
ENDBRANCH   1  26
TORSDOF 19
ENDMDL
MODEL 3
REMARK VINA RESULT:     -10.8      5.075      9.526
REMARK SMILES CC(C)C[C@H](NC(N)=O)C(=O)N[C@@H](C(=O)NCCCNC(=O)c1ccc(-c2c3nc(c(-c4c(F)cc(S(=O)(=O)[O-])cc4F)c4ccc([nH]4)c(-c4c(F)cc(S(=O)(=O)[O-])cc4F)c4nc(c(-c5c(F)cc(S(=O)(=O)[O-])cc5F)c5ccc2[nH]5)C=C4)C=C3)cc1)C(C)C
REMARK SMILES IDX 17 1 16 2 14 3 15 4 13 6 12 7 10 8 11 9 5 11 4 12 2 13 1 14
REMARK SMILES IDX 3 15 6 16 7 17 8 19 9 20 89 23 90 24 91 25 18 26 19 27 20 28
REMARK SMILES IDX 21 29 22 31 23 32 24 33 88 34 25 35 87 36 26 37 27 38 28 39
REMARK SMILES IDX 81 40 29 41 86 42 80 43 82 44 30 45 85 46 79 47 78 48 31 50
REMARK SMILES IDX 65 51 44 52 64 53 45 54 48 55 63 56 83 57 46 58 47 59 62 61
REMARK SMILES IDX 84 62 49 63 32 64 33 65 42 66 34 67 35 68 41 69 43 70 36 71
REMARK SMILES IDX 37 72 38 73 39 74 40 75 66 76 67 77 76 78 68 79 69 80 75 81
REMARK SMILES IDX 77 82 70 83 71 84 72 85 73 86 74 87 50 88 51 89 60 90 52 91
REMARK SMILES IDX 53 92 59 93 61 94 54 95 55 96 56 97 57 98 58 99
REMARK H PARENT 16 5 12 10 6 18 8 21 8 22 20 30 82 49 48 60
REMARK Flexibility Score: inf
ROOT
ATOM      1  C   UNL A   1      33.828  26.508  25.232  1.00  0.00     0.117 C 
ENDROOT
BRANCH   1   2
ATOM      2  N   UNL A   1      34.025  26.059  23.882  1.00  0.00    -0.354 N 
ATOM      3  C   UNL A   1      33.217  25.323  23.076  1.00  0.00     0.242 C 
ATOM      4  O   UNL A   1      33.596  25.262  21.900  1.00  0.00    -0.273 OA
ATOM      5  H   UNL A   1      34.882  26.328  23.478  1.00  0.00     0.163 HD
BRANCH   3   6
ATOM      6  C   UNL A   1      31.843  24.712  23.551  1.00  0.00     0.173 C 
BRANCH   6   7
ATOM      7  N   UNL A   1      31.705  23.315  23.114  1.00  0.00    -0.342 N 
ATOM      8  C   UNL A   1      32.367  22.158  23.388  1.00  0.00     0.243 C 
ATOM      9  O   UNL A   1      32.042  21.200  22.669  1.00  0.00    -0.273 OA
ATOM     10  H   UNL A   1      30.965  23.188  22.477  1.00  0.00     0.164 HD
BRANCH   8  11
ATOM     11  C   UNL A   1      33.451  21.909  24.502  1.00  0.00     0.173 C 
BRANCH  11  12
ATOM     12  C   UNL A   1      34.949  22.027  24.141  1.00  0.00     0.038 C 
BRANCH  12  13
ATOM     13  C   UNL A   1      35.917  22.098  25.319  1.00  0.00    -0.015 C 
ATOM     14  C   UNL A   1      37.254  21.419  25.016  1.00  0.00     0.007 C 
ATOM     15  C   UNL A   1      36.157  23.542  25.754  1.00  0.00     0.007 C 
ENDBRANCH  12  13
ENDBRANCH  11  12
BRANCH  11  16
ATOM     16  N   UNL A   1      33.166  20.861  25.491  1.00  0.00    -0.327 N 
ATOM     17  C   UNL A   1      33.305  19.520  25.321  1.00  0.00     0.312 C 
ATOM     18  H   UNL A   1      32.839  21.162  26.370  1.00  0.00     0.166 HD
ATOM     19  N   UNL A   1      32.827  18.811  26.374  1.00  0.00    -0.352 N 
ATOM     20  O   UNL A   1      33.762  18.962  24.342  1.00  0.00    -0.249 OA
ATOM     21  H   UNL A   1      32.460  19.279  27.157  1.00  0.00     0.161 HD
ATOM     22  H   UNL A   1      32.848  17.826  26.354  1.00  0.00     0.161 HD
ENDBRANCH  11  16
ENDBRANCH   8  11
ENDBRANCH   6   7
BRANCH   6  23
ATOM     23  C   UNL A   1      30.717  25.650  22.984  1.00  0.00     0.015 C 
ATOM     24  C   UNL A   1      29.525  25.981  23.885  1.00  0.00     0.010 C 
ATOM     25  C   UNL A   1      31.343  26.971  22.502  1.00  0.00     0.010 C 
ENDBRANCH   6  23
ENDBRANCH   3   6
ENDBRANCH   1   2
BRANCH   1  26
ATOM     26  C   UNL A   1      33.824  28.016  25.367  1.00  0.00     0.042 C 
BRANCH  26  27
ATOM     27  C   UNL A   1      33.366  28.481  26.737  1.00  0.00     0.118 C 
BRANCH  27  28
ATOM     28  N   UNL A   1      33.392  29.936  26.869  1.00  0.00    -0.352 N 
ATOM     29  C   UNL A   1      34.277  30.741  27.546  1.00  0.00     0.251 C 
ATOM     30  H   UNL A   1      32.667  30.411  26.403  1.00  0.00     0.163 HD
ATOM     31  O   UNL A   1      34.008  31.926  27.722  1.00  0.00    -0.269 OA
BRANCH  29  32
ATOM     32  C   UNL A   1      35.530  30.165  28.072  1.00  0.00     0.039 A 
ATOM     33  C   UNL A   1      36.683  30.193  27.285  1.00  0.00     0.014 A 
ATOM     34  C   UNL A   1      35.571  29.628  29.361  1.00  0.00     0.014 A 
ATOM     35  C   UNL A   1      37.896  29.766  27.828  1.00  0.00     0.010 A 
ATOM     36  C   UNL A   1      36.793  29.307  29.934  1.00  0.00     0.010 A 
ATOM     37  C   UNL A   1      37.969  29.370  29.174  1.00  0.00    -0.014 A 
BRANCH  37  38
ATOM     38  C   UNL A   1      39.262  29.036  29.821  1.00  0.00     0.031 A 
ATOM     39  C   UNL A   1      39.744  29.840  30.997  1.00  0.00     0.074 A 
ATOM     40  C   UNL A   1      40.040  28.073  29.290  1.00  0.00     0.049 A 
ATOM     41  N   UNL A   1      40.878  29.757  31.644  1.00  0.00    -0.248 NA
ATOM     42  C   UNL A   1      38.849  30.899  31.488  1.00  0.00     0.031 C 
ATOM     43  C   UNL A   1      39.704  27.267  28.114  1.00  0.00     0.029 A 
ATOM     44  N   UNL A   1      41.278  27.615  29.662  1.00  0.00    -0.354 N 
ATOM     45  C   UNL A   1      40.841  30.765  32.600  1.00  0.00     0.074 A 
ATOM     46  C   UNL A   1      39.601  31.485  32.407  1.00  0.00     0.031 C 
ATOM     47  C   UNL A   1      40.692  26.388  27.887  1.00  0.00     0.029 A 
ATOM     48  C   UNL A   1      41.751  26.598  28.868  1.00  0.00     0.049 A 
ATOM     49  H   UNL A   1      41.780  27.982  30.426  1.00  0.00     0.167 HD
ATOM     50  C   UNL A   1      41.746  31.048  33.567  1.00  0.00     0.037 A 
ATOM     51  C   UNL A   1      42.909  25.913  28.923  1.00  0.00     0.037 A 
ATOM     52  C   UNL A   1      42.966  30.312  33.762  1.00  0.00     0.049 A 
ATOM     53  C   UNL A   1      43.905  26.250  29.997  1.00  0.00     0.074 A 
ATOM     54  C   UNL A   1      43.917  30.466  34.756  1.00  0.00     0.029 A 
ATOM     55  N   UNL A   1      43.412  29.287  32.938  1.00  0.00    -0.354 N 
ATOM     56  N   UNL A   1      43.822  27.155  30.944  1.00  0.00    -0.248 NA
ATOM     57  C   UNL A   1      45.154  25.477  30.009  1.00  0.00     0.031 C 
ATOM     58  C   UNL A   1      44.961  29.569  34.502  1.00  0.00     0.029 A 
ATOM     59  C   UNL A   1      44.639  28.820  33.381  1.00  0.00     0.049 A 
ATOM     60  H   UNL A   1      42.927  28.943  32.154  1.00  0.00     0.167 HD
ATOM     61  C   UNL A   1      44.996  27.046  31.678  1.00  0.00     0.074 A 
ATOM     62  C   UNL A   1      45.769  25.980  31.072  1.00  0.00     0.031 C 
ATOM     63  C   UNL A   1      45.398  27.762  32.758  1.00  0.00     0.037 A 
BRANCH  50  64
ATOM     64  C   UNL A   1      41.441  32.210  34.476  1.00  0.00     0.058 A 
ATOM     65  C   UNL A   1      40.657  32.059  35.633  1.00  0.00     0.135 A 
ATOM     66  C   UNL A   1      41.919  33.496  34.176  1.00  0.00     0.135 A 
ATOM     67  F   UNL A   1      40.163  30.854  35.962  1.00  0.00    -0.206 F 
ATOM     68  C   UNL A   1      40.311  33.147  36.426  1.00  0.00     0.059 A 
ATOM     69  C   UNL A   1      41.611  34.594  34.974  1.00  0.00     0.059 A 
ATOM     70  F   UNL A   1      42.675  33.699  33.086  1.00  0.00    -0.206 F 
ATOM     71  C   UNL A   1      40.784  34.414  36.081  1.00  0.00     0.060 A 
BRANCH  71  72
ATOM     72  S   UNL A   1      40.287  35.824  37.092  1.00  0.00     0.124 S 
ATOM     73  O   UNL A   1      39.774  36.741  36.078  1.00  0.00    -0.237 OA
ATOM     74  O   UNL A   1      39.287  35.238  37.979  1.00  0.00    -0.237 OA
ATOM     75  O   UNL A   1      41.530  36.235  37.737  1.00  0.00    -0.744 OA
ENDBRANCH  71  72
ENDBRANCH  50  64
BRANCH  51  76
ATOM     76  C   UNL A   1      43.155  24.809  27.960  1.00  0.00     0.058 A 
ATOM     77  C   UNL A   1      43.760  25.067  26.721  1.00  0.00     0.135 A 
ATOM     78  C   UNL A   1      42.853  23.475  28.276  1.00  0.00     0.135 A 
ATOM     79  F   UNL A   1      44.062  26.327  26.373  1.00  0.00    -0.206 F 
ATOM     80  C   UNL A   1      44.061  24.043  25.829  1.00  0.00     0.059 A 
ATOM     81  C   UNL A   1      43.165  22.431  27.409  1.00  0.00     0.059 A 
ATOM     82  F   UNL A   1      42.289  23.175  29.455  1.00  0.00    -0.206 F 
ATOM     83  C   UNL A   1      43.768  22.726  26.188  1.00  0.00     0.060 A 
BRANCH  83  84
ATOM     84  S   UNL A   1      44.246  21.400  25.058  1.00  0.00     0.124 S 
ATOM     85  O   UNL A   1      43.183  20.426  25.281  1.00  0.00    -0.237 OA
ATOM     86  O   UNL A   1      44.229  22.080  23.766  1.00  0.00    -0.237 OA
ATOM     87  O   UNL A   1      45.570  21.012  25.536  1.00  0.00    -0.744 OA
ENDBRANCH  83  84
ENDBRANCH  51  76
BRANCH  63  88
ATOM     88  C   UNL A   1      46.728  27.408  33.366  1.00  0.00     0.058 A 
ATOM     89  C   UNL A   1      47.910  28.054  32.973  1.00  0.00     0.135 A 
ATOM     90  C   UNL A   1      46.809  26.454  34.392  1.00  0.00     0.135 A 
ATOM     91  F   UNL A   1      47.888  28.967  31.990  1.00  0.00    -0.206 F 
ATOM     92  C   UNL A   1      49.132  27.753  33.566  1.00  0.00     0.059 A 
ATOM     93  C   UNL A   1      48.015  26.158  35.018  1.00  0.00     0.059 A 
ATOM     94  F   UNL A   1      45.705  25.814  34.810  1.00  0.00    -0.206 F 
ATOM     95  C   UNL A   1      49.173  26.806  34.592  1.00  0.00     0.060 A 
BRANCH  95  96
ATOM     96  S   UNL A   1      50.758  26.458  35.383  1.00  0.00     0.124 S 
ATOM     97  O   UNL A   1      51.685  27.170  34.511  1.00  0.00    -0.237 OA
ATOM     98  O   UNL A   1      50.574  27.028  36.714  1.00  0.00    -0.237 OA
ATOM     99  O   UNL A   1      50.847  25.001  35.340  1.00  0.00    -0.744 OA
ENDBRANCH  95  96
ENDBRANCH  63  88
ENDBRANCH  37  38
ENDBRANCH  29  32
ENDBRANCH  27  28
ENDBRANCH  26  27
ENDBRANCH   1  26
TORSDOF 19
ENDMDL
