MODEL 1
REMARK VINA RESULT:     -10.2      0.000      0.000
REMARK SMILES O=C(N/N=C/c1ccc(C(=O)NCCCNC(=O)c2ccc(-c3c4nc(c(-c5c(F)cc(S(=O)(=O)[O-])cc5F)c5ccc([nH]5)c(-c5c(F)cc(S(=O)(=O)[O-])cc5F)c5nc(c(-c6c(F)cc(S(=O)(=O)[O-])cc6F)c6ccc3[nH]6)C=C5)C=C4)cc2)cc1)C(=O)Nc1cccc(Br)c1
REMARK SMILES IDX 13 1 12 2 10 3 11 4 9 6 6 7 7 8 86 9 8 10 85 11 5 12 4 13
REMARK SMILES IDX 3 14 1 15 2 16 87 18 88 19 89 20 90 22 91 23 96 24 92 25
REMARK SMILES IDX 94 26 93 27 95 28 14 29 15 30 16 31 17 32 18 34 19 35 20 36
REMARK SMILES IDX 84 37 21 38 83 39 22 40 23 41 24 42 77 43 25 44 82 45 76 46
REMARK SMILES IDX 78 47 26 48 81 49 75 50 74 51 27 53 61 54 40 55 60 56 41 57
REMARK SMILES IDX 44 58 59 59 79 60 42 61 43 62 58 64 80 65 45 66 28 67 29 68
REMARK SMILES IDX 38 69 30 70 31 71 37 72 39 73 32 74 33 75 34 76 35 77 36 78
REMARK SMILES IDX 62 79 63 80 72 81 64 82 65 83 71 84 73 85 66 86 67 87 68 88
REMARK SMILES IDX 69 89 70 90 46 91 47 92 56 93 48 94 49 95 55 96 57 97 50 98
REMARK SMILES IDX 51 99 52 100 53 101 54 102
REMARK H PARENT 12 5 3 17 89 21 16 33 78 52 44 63
REMARK Flexibility Score: inf
ROOT
ATOM      1  C   UNL A   1      35.991  34.070  30.405  1.00  0.00     0.118 C 
ENDROOT
BRANCH   1   2
ATOM      2  N   UNL A   1      35.812  34.612  31.744  1.00  0.00    -0.352 N 
ATOM      3  C   UNL A   1      36.416  34.278  32.931  1.00  0.00     0.251 C 
ATOM      4  O   UNL A   1      36.118  34.886  33.955  1.00  0.00    -0.269 OA
ATOM      5  H   UNL A   1      35.150  35.339  31.810  1.00  0.00     0.163 HD
BRANCH   3   6
ATOM      6  C   UNL A   1      37.533  33.312  32.948  1.00  0.00     0.039 A 
ATOM      7  C   UNL A   1      39.545  31.188  33.854  1.00  0.00    -0.005 A 
ATOM      8  C   UNL A   1      38.177  31.004  33.233  1.00  0.00     0.010 A 
ATOM      9  C   UNL A   1      39.800  32.621  33.447  1.00  0.00     0.010 A 
ATOM     10  C   UNL A   1      37.229  31.981  32.839  1.00  0.00     0.014 A 
ATOM     11  C   UNL A   1      38.862  33.625  33.084  1.00  0.00     0.014 A 
BRANCH   7  12
ATOM     12  C   UNL A   1      40.705  29.831  35.018  1.00  0.00     0.141 C 
ATOM     13  N   UNL A   1      40.885  28.467  35.078  1.00  0.00    -0.180 NA
BRANCH  13  14
ATOM     14  N   UNL A   1      41.138  27.985  36.312  1.00  0.00    -0.239 N 
ATOM     15  O   UNL A   1      42.481  26.780  37.637  1.00  0.00    -0.262 OA
ATOM     16  C   UNL A   1      41.930  26.861  36.533  1.00  0.00     0.329 C 
ATOM     17  H   UNL A   1      40.747  28.447  37.089  1.00  0.00     0.194 HD
BRANCH  16  18
ATOM     18  C   UNL A   1      42.146  25.676  35.539  1.00  0.00     0.315 C 
ATOM     19  O   UNL A   1      41.243  24.833  35.476  1.00  0.00    -0.263 OA
ATOM     20  N   UNL A   1      43.171  25.521  34.616  1.00  0.00    -0.318 N 
ATOM     21  H   UNL A   1      43.065  24.779  33.978  1.00  0.00     0.170 HD
BRANCH  20  22
ATOM     22  C   UNL A   1      44.327  26.279  34.478  1.00  0.00     0.042 A 
ATOM     23  C   UNL A   1      44.094  27.844  33.578  1.00  0.00     0.026 A 
ATOM     24  C   UNL A   1      45.576  26.136  35.798  1.00  0.00     0.041 A 
ATOM     25  C   UNL A   1      45.167  29.287  33.980  1.00  0.00     0.003 A 
ATOM     26  C   UNL A   1      46.538  27.633  36.282  1.00  0.00     0.020 A 
ATOM     27  C   UNL A   1      46.358  29.172  35.343  1.00  0.00     0.016 A 
ATOM     28  Br  UNL A   1      47.605  27.615  37.849  1.00  0.00    -0.051 Br
ENDBRANCH  20  22
ENDBRANCH  16  18
ENDBRANCH  13  14
ENDBRANCH   7  12
ENDBRANCH   3   6
ENDBRANCH   1   2
BRANCH   1  29
ATOM     29  C   UNL A   1      34.789  33.223  30.005  1.00  0.00     0.042 C 
BRANCH  29  30
ATOM     30  C   UNL A   1      34.777  32.888  28.522  1.00  0.00     0.118 C 
BRANCH  30  31
ATOM     31  N   UNL A   1      33.906  31.761  28.225  1.00  0.00    -0.352 N 
ATOM     32  C   UNL A   1      34.251  30.453  27.978  1.00  0.00     0.251 C 
ATOM     33  H   UNL A   1      32.942  31.961  28.197  1.00  0.00     0.163 HD
ATOM     34  O   UNL A   1      33.418  29.674  27.526  1.00  0.00    -0.269 OA
BRANCH  32  35
ATOM     35  C   UNL A   1      35.635  30.005  28.242  1.00  0.00     0.039 A 
ATOM     36  C   UNL A   1      36.567  30.013  27.202  1.00  0.00     0.014 A 
ATOM     37  C   UNL A   1      36.014  29.595  29.524  1.00  0.00     0.014 A 
ATOM     38  C   UNL A   1      37.895  29.669  27.462  1.00  0.00     0.010 A 
ATOM     39  C   UNL A   1      37.351  29.338  29.799  1.00  0.00     0.010 A 
ATOM     40  C   UNL A   1      38.305  29.362  28.770  1.00  0.00    -0.014 A 
BRANCH  40  41
ATOM     41  C   UNL A   1      39.717  29.037  29.098  1.00  0.00     0.031 A 
ATOM     42  C   UNL A   1      40.621  30.120  29.625  1.00  0.00     0.074 A 
ATOM     43  C   UNL A   1      40.207  27.812  28.824  1.00  0.00     0.049 A 
ATOM     44  N   UNL A   1      41.913  30.098  29.815  1.00  0.00    -0.248 NA
ATOM     45  C   UNL A   1      39.990  31.412  29.945  1.00  0.00     0.031 C 
ATOM     46  C   UNL A   1      39.439  26.695  28.268  1.00  0.00     0.029 A 
ATOM     47  N   UNL A   1      41.479  27.308  28.947  1.00  0.00    -0.354 N 
ATOM     48  C   UNL A   1      42.255  31.376  30.239  1.00  0.00     0.074 A 
ATOM     49  C   UNL A   1      41.041  32.161  30.245  1.00  0.00     0.031 C 
ATOM     50  C   UNL A   1      40.253  25.640  28.098  1.00  0.00     0.029 A 
ATOM     51  C   UNL A   1      41.609  26.018  28.487  1.00  0.00     0.049 A 
ATOM     52  H   UNL A   1      42.226  27.822  29.328  1.00  0.00     0.167 HD
ATOM     53  C   UNL A   1      43.470  31.846  30.605  1.00  0.00     0.037 A 
ATOM     54  C   UNL A   1      42.701  25.238  28.367  1.00  0.00     0.037 A 
ATOM     55  C   UNL A   1      44.661  31.041  30.644  1.00  0.00     0.049 A 
ATOM     56  C   UNL A   1      44.038  25.778  28.802  1.00  0.00     0.074 A 
ATOM     57  C   UNL A   1      45.923  31.397  31.087  1.00  0.00     0.029 A 
ATOM     58  N   UNL A   1      44.740  29.721  30.226  1.00  0.00    -0.354 N 
ATOM     59  N   UNL A   1      44.330  26.967  29.273  1.00  0.00    -0.248 NA
ATOM     60  C   UNL A   1      45.192  24.874  28.696  1.00  0.00     0.031 C 
ATOM     61  C   UNL A   1      46.775  30.308  30.891  1.00  0.00     0.029 A 
ATOM     62  C   UNL A   1      46.034  29.256  30.378  1.00  0.00     0.049 A 
ATOM     63  H   UNL A   1      43.987  29.194  29.874  1.00  0.00     0.167 HD
ATOM     64  C   UNL A   1      45.693  26.942  29.548  1.00  0.00     0.074 A 
ATOM     65  C   UNL A   1      46.168  25.621  29.197  1.00  0.00     0.031 C 
ATOM     66  C   UNL A   1      46.481  27.927  30.046  1.00  0.00     0.037 A 
BRANCH  53  67
ATOM     67  C   UNL A   1      43.581  33.293  30.998  1.00  0.00     0.058 A 
ATOM     68  C   UNL A   1      43.381  33.720  32.320  1.00  0.00     0.135 A 
ATOM     69  C   UNL A   1      43.961  34.258  30.050  1.00  0.00     0.135 A 
ATOM     70  F   UNL A   1      43.001  32.844  33.263  1.00  0.00    -0.206 F 
ATOM     71  C   UNL A   1      43.538  35.053  32.686  1.00  0.00     0.059 A 
ATOM     72  C   UNL A   1      44.150  35.592  30.398  1.00  0.00     0.059 A 
ATOM     73  F   UNL A   1      44.161  33.904  28.770  1.00  0.00    -0.206 F 
ATOM     74  C   UNL A   1      43.929  35.981  31.718  1.00  0.00     0.060 A 
BRANCH  74  75
ATOM     75  S   UNL A   1      44.161  37.699  32.218  1.00  0.00     0.124 S 
ATOM     76  O   UNL A   1      43.351  37.762  33.431  1.00  0.00    -0.237 OA
ATOM     77  O   UNL A   1      45.604  37.774  32.416  1.00  0.00    -0.237 OA
ATOM     78  O   UNL A   1      43.646  38.457  31.081  1.00  0.00    -0.744 OA
ENDBRANCH  74  75
ENDBRANCH  53  67
BRANCH  54  79
ATOM     79  C   UNL A   1      42.581  23.865  27.803  1.00  0.00     0.058 A 
ATOM     80  C   UNL A   1      42.493  22.742  28.638  1.00  0.00     0.135 A 
ATOM     81  C   UNL A   1      42.557  23.649  26.415  1.00  0.00     0.135 A 
ATOM     82  F   UNL A   1      42.518  22.895  29.971  1.00  0.00    -0.206 F 
ATOM     83  C   UNL A   1      42.411  21.453  28.122  1.00  0.00     0.059 A 
ATOM     84  C   UNL A   1      42.447  22.372  25.875  1.00  0.00     0.059 A 
ATOM     85  F   UNL A   1      42.618  24.690  25.570  1.00  0.00    -0.206 F 
ATOM     86  C   UNL A   1      42.389  21.277  26.738  1.00  0.00     0.060 A 
BRANCH  86  87
ATOM     87  S   UNL A   1      42.254  19.603  26.076  1.00  0.00     0.124 S 
ATOM     88  O   UNL A   1      42.636  18.800  27.233  1.00  0.00    -0.237 OA
ATOM     89  O   UNL A   1      40.847  19.539  25.690  1.00  0.00    -0.237 OA
ATOM     90  O   UNL A   1      43.202  19.603  24.966  1.00  0.00    -0.744 OA
ENDBRANCH  86  87
ENDBRANCH  54  79
BRANCH  66  91
ATOM     91  C   UNL A   1      47.929  27.608  30.293  1.00  0.00     0.058 A 
ATOM     92  C   UNL A   1      48.358  26.994  31.477  1.00  0.00     0.135 A 
ATOM     93  C   UNL A   1      48.883  27.836  29.286  1.00  0.00     0.135 A 
ATOM     94  F   UNL A   1      47.487  26.762  32.472  1.00  0.00    -0.206 F 
ATOM     95  C   UNL A   1      49.685  26.619  31.659  1.00  0.00     0.059 A 
ATOM     96  C   UNL A   1      50.208  27.446  29.436  1.00  0.00     0.059 A 
ATOM     97  F   UNL A   1      48.520  28.413  28.129  1.00  0.00    -0.206 F 
ATOM     98  C   UNL A   1      50.601  26.842  30.629  1.00  0.00     0.060 A 
BRANCH  98  99
ATOM     99  S   UNL A   1      52.305  26.288  30.853  1.00  0.00     0.124 S 
ATOM    100  O   UNL A   1      52.120  25.076  31.644  1.00  0.00    -0.237 OA
ATOM    101  O   UNL A   1      52.750  26.086  29.477  1.00  0.00    -0.237 OA
ATOM    102  O   UNL A   1      52.936  27.404  31.552  1.00  0.00    -0.744 OA
ENDBRANCH  98  99
ENDBRANCH  66  91
ENDBRANCH  40  41
ENDBRANCH  32  35
ENDBRANCH  30  31
ENDBRANCH  29  30
ENDBRANCH   1  29
TORSDOF 17
ENDMDL
MODEL 2
REMARK VINA RESULT:     -10.1      3.609     10.858
REMARK SMILES O=C(N/N=C/c1ccc(C(=O)NCCCNC(=O)c2ccc(-c3c4nc(c(-c5c(F)cc(S(=O)(=O)[O-])cc5F)c5ccc([nH]5)c(-c5c(F)cc(S(=O)(=O)[O-])cc5F)c5nc(c(-c6c(F)cc(S(=O)(=O)[O-])cc6F)c6ccc3[nH]6)C=C5)C=C4)cc2)cc1)C(=O)Nc1cccc(Br)c1
REMARK SMILES IDX 13 1 12 2 10 3 11 4 9 6 6 7 7 8 86 9 8 10 85 11 5 12 4 13
REMARK SMILES IDX 3 14 1 15 2 16 87 18 88 19 89 20 90 22 91 23 96 24 92 25
REMARK SMILES IDX 94 26 93 27 95 28 14 29 15 30 16 31 17 32 18 34 19 35 20 36
REMARK SMILES IDX 84 37 21 38 83 39 22 40 23 41 24 42 77 43 25 44 82 45 76 46
REMARK SMILES IDX 78 47 26 48 81 49 75 50 74 51 27 53 61 54 40 55 60 56 41 57
REMARK SMILES IDX 44 58 59 59 79 60 42 61 43 62 58 64 80 65 45 66 28 67 29 68
REMARK SMILES IDX 38 69 30 70 31 71 37 72 39 73 32 74 33 75 34 76 35 77 36 78
REMARK SMILES IDX 62 79 63 80 72 81 64 82 65 83 71 84 73 85 66 86 67 87 68 88
REMARK SMILES IDX 69 89 70 90 46 91 47 92 56 93 48 94 49 95 55 96 57 97 50 98
REMARK SMILES IDX 51 99 52 100 53 101 54 102
REMARK H PARENT 12 5 3 17 89 21 16 33 78 52 44 63
REMARK Flexibility Score: inf
ROOT
ATOM      1  C   UNL A   1      42.968  22.045  26.072  1.00  0.00     0.118 C 
ENDROOT
BRANCH   1   2
ATOM      2  N   UNL A   1      44.247  21.407  25.795  1.00  0.00    -0.352 N 
ATOM      3  C   UNL A   1      45.495  21.949  25.613  1.00  0.00     0.251 C 
ATOM      4  O   UNL A   1      46.452  21.210  25.400  1.00  0.00    -0.269 OA
ATOM      5  H   UNL A   1      44.212  20.425  25.728  1.00  0.00     0.163 HD
BRANCH   3   6
ATOM      6  C   UNL A   1      45.715  23.392  25.837  1.00  0.00     0.039 A 
ATOM      7  C   UNL A   1      45.291  26.329  26.597  1.00  0.00    -0.005 A 
ATOM      8  C   UNL A   1      45.768  25.179  27.458  1.00  0.00     0.010 A 
ATOM      9  C   UNL A   1      45.560  25.733  25.234  1.00  0.00     0.010 A 
ATOM     10  C   UNL A   1      45.938  23.813  27.121  1.00  0.00     0.014 A 
ATOM     11  C   UNL A   1      45.697  24.365  24.870  1.00  0.00     0.014 A 
BRANCH   7  12
ATOM     12  C   UNL A   1      44.429  28.192  27.169  1.00  0.00     0.141 C 
ATOM     13  N   UNL A   1      44.889  29.417  27.596  1.00  0.00    -0.180 NA
BRANCH  13  14
ATOM     14  N   UNL A   1      44.077  30.054  28.464  1.00  0.00    -0.239 N 
ATOM     15  O   UNL A   1      43.429  31.991  29.380  1.00  0.00    -0.262 OA
ATOM     16  C   UNL A   1      44.383  31.301  29.005  1.00  0.00     0.329 C 
ATOM     17  H   UNL A   1      43.234  29.620  28.728  1.00  0.00     0.194 HD
BRANCH  16  18
ATOM     18  C   UNL A   1      45.815  31.884  29.223  1.00  0.00     0.315 C 
ATOM     19  O   UNL A   1      46.537  31.293  30.036  1.00  0.00    -0.263 OA
ATOM     20  N   UNL A   1      46.429  32.910  28.517  1.00  0.00    -0.318 N 
ATOM     21  H   UNL A   1      47.386  33.046  28.703  1.00  0.00     0.170 HD
BRANCH  20  22
ATOM     22  C   UNL A   1      45.865  33.769  27.581  1.00  0.00     0.042 A 
ATOM     23  C   UNL A   1      45.389  32.966  26.019  1.00  0.00     0.026 A 
ATOM     24  C   UNL A   1      44.932  35.196  28.223  1.00  0.00     0.041 A 
ATOM     25  C   UNL A   1      43.970  33.636  25.053  1.00  0.00     0.003 A 
ATOM     26  C   UNL A   1      43.428  35.760  27.315  1.00  0.00     0.020 A 
ATOM     27  C   UNL A   1      42.991  35.008  25.725  1.00  0.00     0.016 A 
ATOM     28  Br  UNL A   1      42.252  37.018  28.106  1.00  0.00    -0.051 Br
ENDBRANCH  20  22
ENDBRANCH  16  18
ENDBRANCH  13  14
ENDBRANCH   7  12
ENDBRANCH   3   6
ENDBRANCH   1   2
BRANCH   1  29
ATOM     29  C   UNL A   1      41.893  20.998  26.336  1.00  0.00     0.042 C 
BRANCH  29  30
ATOM     30  C   UNL A   1      40.662  21.581  27.013  1.00  0.00     0.118 C 
BRANCH  30  31
ATOM     31  N   UNL A   1      39.583  21.823  26.068  1.00  0.00    -0.352 N 
ATOM     32  C   UNL A   1      38.787  22.937  25.943  1.00  0.00     0.251 C 
ATOM     33  H   UNL A   1      39.398  21.092  25.434  1.00  0.00     0.163 HD
ATOM     34  O   UNL A   1      37.779  22.895  25.246  1.00  0.00    -0.269 OA
BRANCH  32  35
ATOM     35  C   UNL A   1      39.146  24.172  26.673  1.00  0.00     0.039 A 
ATOM     36  C   UNL A   1      38.654  24.371  27.964  1.00  0.00     0.014 A 
ATOM     37  C   UNL A   1      39.985  25.122  26.085  1.00  0.00     0.014 A 
ATOM     38  C   UNL A   1      39.054  25.495  28.690  1.00  0.00     0.010 A 
ATOM     39  C   UNL A   1      40.451  26.193  26.839  1.00  0.00     0.010 A 
ATOM     40  C   UNL A   1      39.982  26.397  28.146  1.00  0.00    -0.014 A 
BRANCH  40  41
ATOM     41  C   UNL A   1      40.470  27.579  28.902  1.00  0.00     0.031 A 
ATOM     42  C   UNL A   1      41.795  27.504  29.615  1.00  0.00     0.074 A 
ATOM     43  C   UNL A   1      39.684  28.665  29.035  1.00  0.00     0.049 A 
ATOM     44  N   UNL A   1      42.327  28.346  30.459  1.00  0.00    -0.248 NA
ATOM     45  C   UNL A   1      42.612  26.303  29.371  1.00  0.00     0.031 C 
ATOM     46  C   UNL A   1      38.361  28.833  28.430  1.00  0.00     0.029 A 
ATOM     47  N   UNL A   1      39.869  29.823  29.750  1.00  0.00    -0.354 N 
ATOM     48  C   UNL A   1      43.518  27.764  30.876  1.00  0.00     0.074 A 
ATOM     49  C   UNL A   1      43.615  26.480  30.219  1.00  0.00     0.031 C 
ATOM     50  C   UNL A   1      37.855  30.022  28.798  1.00  0.00     0.029 A 
ATOM     51  C   UNL A   1      38.793  30.680  29.702  1.00  0.00     0.049 A 
ATOM     52  H   UNL A   1      40.693  30.021  30.249  1.00  0.00     0.167 HD
ATOM     53  C   UNL A   1      44.452  28.263  31.718  1.00  0.00     0.037 A 
ATOM     54  C   UNL A   1      38.577  31.849  30.336  1.00  0.00     0.037 A 
ATOM     55  C   UNL A   1      44.369  29.564  32.324  1.00  0.00     0.049 A 
ATOM     56  C   UNL A   1      39.643  32.393  31.251  1.00  0.00     0.074 A 
ATOM     57  C   UNL A   1      45.305  30.201  33.120  1.00  0.00     0.029 A 
ATOM     58  N   UNL A   1      43.290  30.427  32.205  1.00  0.00    -0.354 N 
ATOM     59  N   UNL A   1      40.799  31.862  31.574  1.00  0.00    -0.248 NA
ATOM     60  C   UNL A   1      39.382  33.694  31.884  1.00  0.00     0.031 C 
ATOM     61  C   UNL A   1      44.771  31.428  33.521  1.00  0.00     0.029 A 
ATOM     62  C   UNL A   1      43.527  31.581  32.931  1.00  0.00     0.049 A 
ATOM     63  H   UNL A   1      42.476  30.246  31.680  1.00  0.00     0.167 HD
ATOM     64  C   UNL A   1      41.413  32.778  32.421  1.00  0.00     0.074 A 
ATOM     65  C   UNL A   1      40.507  33.898  32.557  1.00  0.00     0.031 C 
ATOM     66  C   UNL A   1      42.621  32.697  33.033  1.00  0.00     0.037 A 
BRANCH  53  67
ATOM     67  C   UNL A   1      45.649  27.410  32.034  1.00  0.00     0.058 A 
ATOM     68  C   UNL A   1      46.833  27.486  31.284  1.00  0.00     0.135 A 
ATOM     69  C   UNL A   1      45.634  26.554  33.148  1.00  0.00     0.135 A 
ATOM     70  F   UNL A   1      46.896  28.275  30.200  1.00  0.00    -0.206 F 
ATOM     71  C   UNL A   1      47.954  26.732  31.616  1.00  0.00     0.059 A 
ATOM     72  C   UNL A   1      46.753  25.811  33.515  1.00  0.00     0.059 A 
ATOM     73  F   UNL A   1      44.526  26.440  33.898  1.00  0.00    -0.206 F 
ATOM     74  C   UNL A   1      47.905  25.902  32.738  1.00  0.00     0.060 A 
BRANCH  74  75
ATOM     75  S   UNL A   1      49.381  24.958  33.173  1.00  0.00     0.124 S 
ATOM     76  O   UNL A   1      49.883  24.578  31.856  1.00  0.00    -0.237 OA
ATOM     77  O   UNL A   1      50.179  25.943  33.895  1.00  0.00    -0.237 OA
ATOM     78  O   UNL A   1      48.857  23.863  33.984  1.00  0.00    -0.744 OA
ENDBRANCH  74  75
ENDBRANCH  53  67
BRANCH  54  79
ATOM     79  C   UNL A   1      37.298  32.582  30.137  1.00  0.00     0.058 A 
ATOM     80  C   UNL A   1      37.183  33.594  29.173  1.00  0.00     0.135 A 
ATOM     81  C   UNL A   1      36.163  32.288  30.911  1.00  0.00     0.135 A 
ATOM     82  F   UNL A   1      38.241  33.917  28.412  1.00  0.00    -0.206 F 
ATOM     83  C   UNL A   1      36.001  34.307  28.999  1.00  0.00     0.059 A 
ATOM     84  C   UNL A   1      34.961  32.967  30.736  1.00  0.00     0.059 A 
ATOM     85  F   UNL A   1      36.211  31.315  31.835  1.00  0.00    -0.206 F 
ATOM     86  C   UNL A   1      34.894  33.986  29.787  1.00  0.00     0.060 A 
BRANCH  86  87
ATOM     87  S   UNL A   1      33.356  34.896  29.534  1.00  0.00     0.124 S 
ATOM     88  O   UNL A   1      32.619  33.988  28.663  1.00  0.00    -0.237 OA
ATOM     89  O   UNL A   1      32.849  35.025  30.898  1.00  0.00    -0.237 OA
ATOM     90  O   UNL A   1      33.800  36.143  28.919  1.00  0.00    -0.744 OA
ENDBRANCH  86  87
ENDBRANCH  54  79
BRANCH  66  91
ATOM     91  C   UNL A   1      43.065  33.867  33.865  1.00  0.00     0.058 A 
ATOM     92  C   UNL A   1      43.684  34.987  33.294  1.00  0.00     0.135 A 
ATOM     93  C   UNL A   1      42.776  33.904  35.240  1.00  0.00     0.135 A 
ATOM     94  F   UNL A   1      43.987  34.998  31.986  1.00  0.00    -0.206 F 
ATOM     95  C   UNL A   1      44.008  36.104  34.057  1.00  0.00     0.059 A 
ATOM     96  C   UNL A   1      43.067  35.019  36.016  1.00  0.00     0.059 A 
ATOM     97  F   UNL A   1      42.175  32.860  35.833  1.00  0.00    -0.206 F 
ATOM     98  C   UNL A   1      43.687  36.114  35.416  1.00  0.00     0.060 A 
BRANCH  98  99
ATOM     99  S   UNL A   1      44.052  37.597  36.380  1.00  0.00     0.124 S 
ATOM    100  O   UNL A   1      43.049  37.517  37.435  1.00  0.00    -0.237 OA
ATOM    101  O   UNL A   1      45.431  37.367  36.796  1.00  0.00    -0.237 OA
ATOM    102  O   UNL A   1      43.866  38.681  35.418  1.00  0.00    -0.744 OA
ENDBRANCH  98  99
ENDBRANCH  66  91
ENDBRANCH  40  41
ENDBRANCH  32  35
ENDBRANCH  30  31
ENDBRANCH  29  30
ENDBRANCH   1  29
TORSDOF 17
ENDMDL
MODEL 3
REMARK VINA RESULT:      -9.9      5.089     12.577
REMARK SMILES O=C(N/N=C/c1ccc(C(=O)NCCCNC(=O)c2ccc(-c3c4nc(c(-c5c(F)cc(S(=O)(=O)[O-])cc5F)c5ccc([nH]5)c(-c5c(F)cc(S(=O)(=O)[O-])cc5F)c5nc(c(-c6c(F)cc(S(=O)(=O)[O-])cc6F)c6ccc3[nH]6)C=C5)C=C4)cc2)cc1)C(=O)Nc1cccc(Br)c1
REMARK SMILES IDX 13 1 12 2 10 3 11 4 9 6 6 7 7 8 86 9 8 10 85 11 5 12 4 13
REMARK SMILES IDX 3 14 1 15 2 16 87 18 88 19 89 20 90 22 91 23 96 24 92 25
REMARK SMILES IDX 94 26 93 27 95 28 14 29 15 30 16 31 17 32 18 34 19 35 20 36
REMARK SMILES IDX 84 37 21 38 83 39 22 40 23 41 24 42 77 43 25 44 82 45 76 46
REMARK SMILES IDX 78 47 26 48 81 49 75 50 74 51 27 53 61 54 40 55 60 56 41 57
REMARK SMILES IDX 44 58 59 59 79 60 42 61 43 62 58 64 80 65 45 66 28 67 29 68
REMARK SMILES IDX 38 69 30 70 31 71 37 72 39 73 32 74 33 75 34 76 35 77 36 78
REMARK SMILES IDX 62 79 63 80 72 81 64 82 65 83 71 84 73 85 66 86 67 87 68 88
REMARK SMILES IDX 69 89 70 90 46 91 47 92 56 93 48 94 49 95 55 96 57 97 50 98
REMARK SMILES IDX 51 99 52 100 53 101 54 102
REMARK H PARENT 12 5 3 17 89 21 16 33 78 52 44 63
REMARK Flexibility Score: inf
ROOT
ATOM      1  C   UNL A   1      39.617  22.456  26.702  1.00  0.00     0.118 C 
ENDROOT
BRANCH   1   2
ATOM      2  N   UNL A   1      39.197  21.393  25.800  1.00  0.00    -0.352 N 
ATOM      3  C   UNL A   1      37.957  21.084  25.300  1.00  0.00     0.251 C 
ATOM      4  O   UNL A   1      37.832  20.135  24.531  1.00  0.00    -0.269 OA
ATOM      5  H   UNL A   1      39.922  20.798  25.498  1.00  0.00     0.163 HD
BRANCH   3   6
ATOM      6  C   UNL A   1      36.812  21.983  25.551  1.00  0.00     0.039 A 
ATOM      7  C   UNL A   1      34.161  23.489  25.256  1.00  0.00    -0.005 A 
ATOM      8  C   UNL A   1      34.427  22.138  25.884  1.00  0.00     0.010 A 
ATOM      9  C   UNL A   1      35.567  24.043  25.280  1.00  0.00     0.010 A 
ATOM     10  C   UNL A   1      35.645  21.422  25.997  1.00  0.00     0.014 A 
ATOM     11  C   UNL A   1      36.801  23.341  25.356  1.00  0.00     0.014 A 
BRANCH   7  12
ATOM     12  C   UNL A   1      32.343  24.306  24.501  1.00  0.00     0.141 C 
ATOM     13  N   UNL A   1      31.579  24.163  23.365  1.00  0.00    -0.180 NA
BRANCH  13  14
ATOM     14  N   UNL A   1      30.932  25.280  22.975  1.00  0.00    -0.239 N 
ATOM     15  O   UNL A   1      30.867  27.056  21.614  1.00  0.00    -0.262 OA
ATOM     16  C   UNL A   1      31.572  26.335  22.330  1.00  0.00     0.329 C 
ATOM     17  H   UNL A   1      29.966  25.353  23.155  1.00  0.00     0.194 HD
BRANCH  16  18
ATOM     18  C   UNL A   1      33.080  26.717  22.462  1.00  0.00     0.315 C 
ATOM     19  O   UNL A   1      33.810  26.434  21.504  1.00  0.00    -0.263 OA
ATOM     20  N   UNL A   1      33.681  27.458  23.471  1.00  0.00    -0.318 N 
ATOM     21  H   UNL A   1      34.617  27.718  23.312  1.00  0.00     0.170 HD
BRANCH  20  22
ATOM     22  C   UNL A   1      33.130  27.880  24.675  1.00  0.00     0.042 A 
ATOM     23  C   UNL A   1      34.256  27.750  26.099  1.00  0.00     0.026 A 
ATOM     24  C   UNL A   1      31.870  29.193  24.595  1.00  0.00     0.041 A 
ATOM     25  C   UNL A   1      34.085  28.937  27.498  1.00  0.00     0.003 A 
ATOM     26  C   UNL A   1      31.812  30.457  25.937  1.00  0.00     0.020 A 
ATOM     27  C   UNL A   1      32.883  30.291  27.389  1.00  0.00     0.016 A 
ATOM     28  Br  UNL A   1      30.745  32.012  25.737  1.00  0.00    -0.051 Br
ENDBRANCH  20  22
ENDBRANCH  16  18
ENDBRANCH  13  14
ENDBRANCH   7  12
ENDBRANCH   3   6
ENDBRANCH   1   2
BRANCH   1  29
ATOM     29  C   UNL A   1      40.560  21.913  27.768  1.00  0.00     0.042 C 
BRANCH  29  30
ATOM     30  C   UNL A   1      41.792  22.784  27.958  1.00  0.00     0.118 C 
BRANCH  30  31
ATOM     31  N   UNL A   1      42.262  23.346  26.701  1.00  0.00    -0.352 N 
ATOM     32  C   UNL A   1      42.287  24.663  26.308  1.00  0.00     0.251 C 
ATOM     33  H   UNL A   1      42.607  22.698  26.045  1.00  0.00     0.163 HD
ATOM     34  O   UNL A   1      42.504  24.949  25.135  1.00  0.00    -0.269 OA
BRANCH  32  35
ATOM     35  C   UNL A   1      42.027  25.724  27.305  1.00  0.00     0.039 A 
ATOM     36  C   UNL A   1      40.915  25.617  28.143  1.00  0.00     0.014 A 
ATOM     37  C   UNL A   1      42.895  26.813  27.421  1.00  0.00     0.014 A 
ATOM     38  C   UNL A   1      40.708  26.573  29.141  1.00  0.00     0.010 A 
ATOM     39  C   UNL A   1      42.736  27.713  28.468  1.00  0.00     0.010 A 
ATOM     40  C   UNL A   1      41.636  27.609  29.333  1.00  0.00    -0.014 A 
BRANCH  40  41
ATOM     41  C   UNL A   1      41.479  28.617  30.412  1.00  0.00     0.031 A 
ATOM     42  C   UNL A   1      42.337  28.519  31.646  1.00  0.00     0.074 A 
ATOM     43  C   UNL A   1      40.505  29.544  30.331  1.00  0.00     0.049 A 
ATOM     44  N   UNL A   1      42.252  29.183  32.767  1.00  0.00    -0.248 NA
ATOM     45  C   UNL A   1      43.412  27.511  31.627  1.00  0.00     0.031 C 
ATOM     46  C   UNL A   1      39.580  29.708  29.207  1.00  0.00     0.029 A 
ATOM     47  N   UNL A   1      40.107  30.507  31.227  1.00  0.00    -0.354 N 
ATOM     48  C   UNL A   1      43.231  28.653  33.598  1.00  0.00     0.074 A 
ATOM     49  C   UNL A   1      43.877  27.586  32.866  1.00  0.00     0.031 C 
ATOM     50  C   UNL A   1      38.725  30.707  29.479  1.00  0.00     0.029 A 
ATOM     51  C   UNL A   1      39.008  31.225  30.814  1.00  0.00     0.049 A 
ATOM     52  H   UNL A   1      40.565  30.667  32.082  1.00  0.00     0.167 HD
ATOM     53  C   UNL A   1      43.571  29.032  34.851  1.00  0.00     0.037 A 
ATOM     54  C   UNL A   1      38.293  32.173  31.451  1.00  0.00     0.037 A 
ATOM     55  C   UNL A   1      42.956  30.129  35.549  1.00  0.00     0.049 A 
ATOM     56  C   UNL A   1      38.705  32.593  32.838  1.00  0.00     0.074 A 
ATOM     57  C   UNL A   1      43.288  30.652  36.786  1.00  0.00     0.029 A 
ATOM     58  N   UNL A   1      41.884  30.870  35.074  1.00  0.00    -0.354 N 
ATOM     59  N   UNL A   1      39.684  32.130  33.580  1.00  0.00    -0.248 NA
ATOM     60  C   UNL A   1      37.924  33.663  33.474  1.00  0.00     0.031 C 
ATOM     61  C   UNL A   1      42.386  31.678  37.080  1.00  0.00     0.029 A 
ATOM     62  C   UNL A   1      41.528  31.831  36.003  1.00  0.00     0.049 A 
ATOM     63  H   UNL A   1      41.443  30.733  34.205  1.00  0.00     0.167 HD
ATOM     64  C   UNL A   1      39.654  32.874  34.754  1.00  0.00     0.074 A 
ATOM     65  C   UNL A   1      38.567  33.820  34.624  1.00  0.00     0.031 C 
ATOM     66  C   UNL A   1      40.456  32.781  35.844  1.00  0.00     0.037 A 
BRANCH  53  67
ATOM     67  C   UNL A   1      44.657  28.266  35.554  1.00  0.00     0.058 A 
ATOM     68  C   UNL A   1      44.377  27.142  36.347  1.00  0.00     0.135 A 
ATOM     69  C   UNL A   1      46.004  28.621  35.374  1.00  0.00     0.135 A 
ATOM     70  F   UNL A   1      43.107  26.769  36.566  1.00  0.00    -0.206 F 
ATOM     71  C   UNL A   1      45.393  26.407  36.951  1.00  0.00     0.059 A 
ATOM     72  C   UNL A   1      47.038  27.884  35.945  1.00  0.00     0.059 A 
ATOM     73  F   UNL A   1      46.327  29.690  34.628  1.00  0.00    -0.206 F 
ATOM     74  C   UNL A   1      46.721  26.783  36.739  1.00  0.00     0.060 A 
BRANCH  74  75
ATOM     75  S   UNL A   1      48.026  25.797  37.501  1.00  0.00     0.124 S 
ATOM     76  O   UNL A   1      47.251  24.874  38.324  1.00  0.00    -0.237 OA
ATOM     77  O   UNL A   1      48.689  25.208  36.342  1.00  0.00    -0.237 OA
ATOM     78  O   UNL A   1      48.813  26.783  38.236  1.00  0.00    -0.744 OA
ENDBRANCH  74  75
ENDBRANCH  53  67
BRANCH  54  79
ATOM     79  C   UNL A   1      37.109  32.786  30.791  1.00  0.00     0.058 A 
ATOM     80  C   UNL A   1      37.254  33.815  29.849  1.00  0.00     0.135 A 
ATOM     81  C   UNL A   1      35.805  32.358  31.092  1.00  0.00     0.135 A 
ATOM     82  F   UNL A   1      38.479  34.264  29.531  1.00  0.00    -0.206 F 
ATOM     83  C   UNL A   1      36.153  34.416  29.248  1.00  0.00     0.059 A 
ATOM     84  C   UNL A   1      34.689  32.924  30.483  1.00  0.00     0.059 A 
ATOM     85  F   UNL A   1      35.609  31.363  31.972  1.00  0.00    -0.206 F 
ATOM     86  C   UNL A   1      34.873  33.964  29.572  1.00  0.00     0.060 A 
BRANCH  86  87
ATOM     87  S   UNL A   1      33.451  34.730  28.766  1.00  0.00     0.124 S 
ATOM     88  O   UNL A   1      32.569  34.976  29.901  1.00  0.00    -0.237 OA
ATOM     89  O   UNL A   1      34.048  35.912  28.151  1.00  0.00    -0.237 OA
ATOM     90  O   UNL A   1      33.004  33.703  27.829  1.00  0.00    -0.744 OA
ENDBRANCH  86  87
ENDBRANCH  54  79
BRANCH  66  91
ATOM     91  C   UNL A   1      40.229  33.755  36.966  1.00  0.00     0.058 A 
ATOM     92  C   UNL A   1      40.959  34.948  37.066  1.00  0.00     0.135 A 
ATOM     93  C   UNL A   1      39.201  33.532  37.896  1.00  0.00     0.135 A 
ATOM     94  F   UNL A   1      41.957  35.205  36.206  1.00  0.00    -0.206 F 
ATOM     95  C   UNL A   1      40.680  35.886  38.055  1.00  0.00     0.059 A 
ATOM     96  C   UNL A   1      38.888  34.467  38.876  1.00  0.00     0.059 A 
ATOM     97  F   UNL A   1      38.467  32.409  37.837  1.00  0.00    -0.206 F 
ATOM     98  C   UNL A   1      39.636  35.640  38.949  1.00  0.00     0.060 A 
BRANCH  98  99
ATOM     99  S   UNL A   1      39.240  36.898  40.183  1.00  0.00     0.124 S 
ATOM    100  O   UNL A   1      40.562  37.218  40.712  1.00  0.00    -0.237 OA
ATOM    101  O   UNL A   1      38.611  37.939  39.377  1.00  0.00    -0.237 OA
ATOM    102  O   UNL A   1      38.347  36.201  41.104  1.00  0.00    -0.744 OA
ENDBRANCH  98  99
ENDBRANCH  66  91
ENDBRANCH  40  41
ENDBRANCH  32  35
ENDBRANCH  30  31
ENDBRANCH  29  30
ENDBRANCH   1  29
TORSDOF 17
ENDMDL
