MODEL 1
REMARK VINA RESULT:     -12.3      0.000      0.000
REMARK SMILES O=C(NCCCNC(=O)[C@@H]1[C@H](C(=O)Nc2ccccc2OC(F)F)[C@@H]2C=C[C@H]1C2)c1ccc(-c2c3nc(c(-c4c(F)cc(S(=O)(=O)[O-])cc4F)c4ccc([nH]4)c(-c4c(F)cc(S(=O)(=O)[O-])cc4F)c4nc(c(-c5c(F)cc(S(=O)(=O)[O-])cc5F)c5ccc2[nH]5)C=C4)C=C3)cc1
REMARK SMILES IDX 5 1 4 2 3 3 1 4 2 5 30 7 31 8 95 9 32 10 94 11 33 12 34 13
REMARK SMILES IDX 35 14 88 15 36 16 93 17 87 18 89 19 37 20 92 21 86 22 85 23
REMARK SMILES IDX 38 25 72 26 51 27 71 28 52 29 55 30 70 31 90 32 53 33 54 34
REMARK SMILES IDX 69 36 91 37 56 38 39 39 40 40 49 41 41 42 42 43 48 44 50 45
REMARK SMILES IDX 43 46 44 47 45 48 46 49 47 50 73 51 74 52 83 53 75 54 76 55
REMARK SMILES IDX 82 56 84 57 77 58 78 59 79 60 80 61 81 62 57 63 58 64 67 65
REMARK SMILES IDX 59 66 60 67 66 68 68 69 61 70 62 71 63 72 64 73 65 74 6 75
REMARK SMILES IDX 7 76 8 77 9 79 10 80 11 81 28 82 25 83 27 84 29 85 26 86
REMARK SMILES IDX 12 87 13 88 14 89 15 91 16 92 20 93 17 94 19 95 18 96 21 97
REMARK SMILES IDX 22 98 23 99 24 100
REMARK H PARENT 3 6 89 24 55 35 7 78 14 90
REMARK Flexibility Score: inf
ROOT
ATOM      1  C   UNL A   1      37.231  23.751  25.391  1.00  0.00     0.042 C 
ENDROOT
BRANCH   1   2
ATOM      2  C   UNL A   1      38.179  24.169  26.511  1.00  0.00     0.118 C 
BRANCH   2   3
ATOM      3  N   UNL A   1      39.582  24.059  26.142  1.00  0.00    -0.352 N 
ATOM      4  O   UNL A   1      41.742  24.690  25.990  1.00  0.00    -0.269 OA
ATOM      5  C   UNL A   1      40.648  24.838  26.529  1.00  0.00     0.251 C 
ATOM      6  H   UNL A   1      39.800  23.322  25.528  1.00  0.00     0.163 HD
BRANCH   5   7
ATOM      7  C   UNL A   1      40.460  25.874  27.568  1.00  0.00     0.039 A 
ATOM      8  C   UNL A   1      41.251  27.024  27.572  1.00  0.00     0.014 A 
ATOM      9  C   UNL A   1      39.500  25.681  28.563  1.00  0.00     0.014 A 
ATOM     10  C   UNL A   1      41.211  27.882  28.663  1.00  0.00     0.010 A 
ATOM     11  C   UNL A   1      39.387  26.604  29.607  1.00  0.00     0.010 A 
ATOM     12  C   UNL A   1      40.272  27.690  29.690  1.00  0.00    -0.014 A 
BRANCH  12  13
ATOM     13  C   UNL A   1      40.207  28.669  30.808  1.00  0.00     0.031 A 
ATOM     14  C   UNL A   1      41.170  28.603  31.964  1.00  0.00     0.074 A 
ATOM     15  C   UNL A   1      39.284  29.649  30.754  1.00  0.00     0.049 A 
ATOM     16  N   UNL A   1      41.256  29.386  33.008  1.00  0.00    -0.248 NA
ATOM     17  C   UNL A   1      42.157  27.512  31.952  1.00  0.00     0.031 C 
ATOM     18  C   UNL A   1      38.294  29.812  29.685  1.00  0.00     0.029 A 
ATOM     19  N   UNL A   1      39.039  30.704  31.594  1.00  0.00    -0.354 N 
ATOM     20  C   UNL A   1      42.284  28.872  33.792  1.00  0.00     0.074 A 
ATOM     21  C   UNL A   1      42.776  27.693  33.110  1.00  0.00     0.031 C 
ATOM     22  C   UNL A   1      37.592  30.932  29.901  1.00  0.00     0.029 A 
ATOM     23  C   UNL A   1      38.027  31.527  31.159  1.00  0.00     0.049 A 
ATOM     24  H   UNL A   1      39.538  30.858  32.428  1.00  0.00     0.167 HD
ATOM     25  C   UNL A   1      42.773  29.342  34.966  1.00  0.00     0.037 A 
ATOM     26  C   UNL A   1      37.492  32.630  31.716  1.00  0.00     0.037 A 
ATOM     27  C   UNL A   1      42.282  30.526  35.627  1.00  0.00     0.049 A 
ATOM     28  C   UNL A   1      38.037  33.119  33.025  1.00  0.00     0.074 A 
ATOM     29  C   UNL A   1      42.730  31.105  36.802  1.00  0.00     0.029 A 
ATOM     30  N   UNL A   1      41.231  31.312  35.174  1.00  0.00    -0.354 N 
ATOM     31  N   UNL A   1      39.020  32.629  33.741  1.00  0.00    -0.248 NA
ATOM     32  C   UNL A   1      37.395  34.305  33.606  1.00  0.00     0.031 C 
ATOM     33  C   UNL A   1      41.919  32.211  37.085  1.00  0.00     0.029 A 
ATOM     34  C   UNL A   1      40.999  32.354  36.058  1.00  0.00     0.049 A 
ATOM     35  H   UNL A   1      40.723  31.151  34.346  1.00  0.00     0.167 HD
ATOM     36  C   UNL A   1      39.127  33.455  34.853  1.00  0.00     0.074 A 
ATOM     37  C   UNL A   1      38.117  34.486  34.704  1.00  0.00     0.031 C 
ATOM     38  C   UNL A   1      39.986  33.369  35.899  1.00  0.00     0.037 A 
BRANCH  25  39
ATOM     39  C   UNL A   1      43.872  28.553  35.630  1.00  0.00     0.058 A 
ATOM     40  C   UNL A   1      43.603  27.523  36.545  1.00  0.00     0.135 A 
ATOM     41  C   UNL A   1      45.219  28.825  35.334  1.00  0.00     0.135 A 
ATOM     42  F   UNL A   1      42.335  27.226  36.874  1.00  0.00    -0.206 F 
ATOM     43  C   UNL A   1      44.626  26.822  37.176  1.00  0.00     0.059 A 
ATOM     44  C   UNL A   1      46.259  28.117  35.932  1.00  0.00     0.059 A 
ATOM     45  F   UNL A   1      45.537  29.794  34.462  1.00  0.00    -0.206 F 
ATOM     46  C   UNL A   1      45.952  27.132  36.870  1.00  0.00     0.060 A 
BRANCH  46  47
ATOM     47  S   UNL A   1      47.271  26.242  37.724  1.00  0.00     0.124 S 
ATOM     48  O   UNL A   1      48.122  27.343  38.166  1.00  0.00    -0.237 OA
ATOM     49  O   UNL A   1      46.544  25.542  38.778  1.00  0.00    -0.237 OA
ATOM     50  O   UNL A   1      47.836  25.390  36.684  1.00  0.00    -0.744 OA
ENDBRANCH  46  47
ENDBRANCH  25  39
BRANCH  26  51
ATOM     51  C   UNL A   1      36.387  33.336  31.018  1.00  0.00     0.058 A 
ATOM     52  C   UNL A   1      35.081  33.313  31.528  1.00  0.00     0.135 A 
ATOM     53  C   UNL A   1      36.628  34.103  29.867  1.00  0.00     0.135 A 
ATOM     54  F   UNL A   1      34.802  32.590  32.623  1.00  0.00    -0.206 F 
ATOM     55  C   UNL A   1      34.053  34.029  30.924  1.00  0.00     0.059 A 
ATOM     56  C   UNL A   1      35.623  34.848  29.262  1.00  0.00     0.059 A 
ATOM     57  F   UNL A   1      37.865  34.172  29.352  1.00  0.00    -0.206 F 
ATOM     58  C   UNL A   1      34.336  34.802  29.797  1.00  0.00     0.060 A 
BRANCH  58  59
ATOM     59  S   UNL A   1      33.014  35.795  29.073  1.00  0.00     0.124 S 
ATOM     60  O   UNL A   1      32.247  36.170  30.255  1.00  0.00    -0.237 OA
ATOM     61  O   UNL A   1      33.759  36.872  28.427  1.00  0.00    -0.237 OA
ATOM     62  O   UNL A   1      32.356  34.864  28.161  1.00  0.00    -0.744 OA
ENDBRANCH  58  59
ENDBRANCH  26  51
BRANCH  38  63
ATOM     63  C   UNL A   1      39.886  34.435  36.953  1.00  0.00     0.058 A 
ATOM     64  C   UNL A   1      39.070  34.280  38.085  1.00  0.00     0.135 A 
ATOM     65  C   UNL A   1      40.642  35.613  36.845  1.00  0.00     0.135 A 
ATOM     66  F   UNL A   1      38.320  33.176  38.232  1.00  0.00    -0.206 F 
ATOM     67  C   UNL A   1      38.988  35.267  39.062  1.00  0.00     0.059 A 
ATOM     68  C   UNL A   1      40.595  36.603  37.822  1.00  0.00     0.059 A 
ATOM     69  F   UNL A   1      41.443  35.807  35.786  1.00  0.00    -0.206 F 
ATOM     70  C   UNL A   1      39.756  36.426  38.921  1.00  0.00     0.060 A 
BRANCH  70  71
ATOM     71  S   UNL A   1      39.662  37.689  40.207  1.00  0.00     0.124 S 
ATOM     72  O   UNL A   1      38.286  38.153  40.063  1.00  0.00    -0.237 OA
ATOM     73  O   UNL A   1      39.951  36.926  41.418  1.00  0.00    -0.237 OA
ATOM     74  O   UNL A   1      40.693  38.646  39.817  1.00  0.00    -0.744 OA
ENDBRANCH  70  71
ENDBRANCH  38  63
ENDBRANCH  12  13
ENDBRANCH   5   7
ENDBRANCH   2   3
ENDBRANCH   1   2
BRANCH   1  75
ATOM     75  C   UNL A   1      35.749  23.837  25.754  1.00  0.00     0.117 C 
BRANCH  75  76
ATOM     76  N   UNL A   1      35.012  24.508  24.700  1.00  0.00    -0.356 N 
ATOM     77  C   UNL A   1      34.079  25.481  24.684  1.00  0.00     0.224 C 
ATOM     78  H   UNL A   1      35.245  24.183  23.801  1.00  0.00     0.163 HD
ATOM     79  O   UNL A   1      33.328  25.487  23.702  1.00  0.00    -0.275 OA
BRANCH  77  80
ATOM     80  C   UNL A   1      33.838  26.460  25.790  1.00  0.00     0.098 C 
ATOM     81  C   UNL A   1      32.496  26.322  26.592  1.00  0.00     0.099 C 
ATOM     82  C   UNL A   1      33.994  27.985  25.654  1.00  0.00     0.025 C 
ATOM     83  C   UNL A   1      32.146  27.807  26.909  1.00  0.00     0.025 C 
ATOM     84  C   UNL A   1      32.861  28.593  24.871  1.00  0.00    -0.027 C 
ATOM     85  C   UNL A   1      33.542  28.412  27.066  1.00  0.00     0.017 C 
ATOM     86  C   UNL A   1      31.768  28.531  25.643  1.00  0.00    -0.027 C 
BRANCH  81  87
ATOM     87  C   UNL A   1      31.219  25.497  26.337  1.00  0.00     0.229 C 
ATOM     88  O   UNL A   1      30.165  26.140  26.166  1.00  0.00    -0.274 OA
ATOM     89  N   UNL A   1      31.114  24.180  26.012  1.00  0.00    -0.323 N 
ATOM     90  H   UNL A   1      30.246  23.949  25.609  1.00  0.00     0.170 HD
BRANCH  89  91
ATOM     91  C   UNL A   1      31.972  23.087  26.126  1.00  0.00     0.084 A 
ATOM     92  C   UNL A   1      32.693  22.978  27.326  1.00  0.00     0.030 A 
ATOM     93  C   UNL A   1      32.223  22.169  25.109  1.00  0.00     0.149 A 
ATOM     94  C   UNL A   1      33.449  21.837  27.600  1.00  0.00     0.002 A 
ATOM     95  C   UNL A   1      32.938  21.000  25.407  1.00  0.00     0.049 A 
ATOM     96  C   UNL A   1      33.526  20.820  26.657  1.00  0.00     0.004 A 
BRANCH  93  97
ATOM     97  O   UNL A   1      31.885  22.285  23.794  1.00  0.00    -0.433 OA
BRANCH  97  98
ATOM     98  C   UNL A   1      32.770  21.748  22.807  1.00  0.00     0.542 C 
ATOM     99  F   UNL A   1      32.102  21.337  21.710  1.00  0.00    -0.167 F 
ATOM    100  F   UNL A   1      33.678  22.679  22.423  1.00  0.00    -0.167 F 
ENDBRANCH  97  98
ENDBRANCH  93  97
ENDBRANCH  89  91
ENDBRANCH  81  87
ENDBRANCH  77  80
ENDBRANCH  75  76
ENDBRANCH   1  75
TORSDOF 17
ENDMDL
MODEL 2
REMARK VINA RESULT:     -12.0      5.085      9.733
REMARK SMILES O=C(NCCCNC(=O)[C@@H]1[C@H](C(=O)Nc2ccccc2OC(F)F)[C@@H]2C=C[C@H]1C2)c1ccc(-c2c3nc(c(-c4c(F)cc(S(=O)(=O)[O-])cc4F)c4ccc([nH]4)c(-c4c(F)cc(S(=O)(=O)[O-])cc4F)c4nc(c(-c5c(F)cc(S(=O)(=O)[O-])cc5F)c5ccc2[nH]5)C=C4)C=C3)cc1
REMARK SMILES IDX 5 1 4 2 3 3 1 4 2 5 30 7 31 8 95 9 32 10 94 11 33 12 34 13
REMARK SMILES IDX 35 14 88 15 36 16 93 17 87 18 89 19 37 20 92 21 86 22 85 23
REMARK SMILES IDX 38 25 72 26 51 27 71 28 52 29 55 30 70 31 90 32 53 33 54 34
REMARK SMILES IDX 69 36 91 37 56 38 39 39 40 40 49 41 41 42 42 43 48 44 50 45
REMARK SMILES IDX 43 46 44 47 45 48 46 49 47 50 73 51 74 52 83 53 75 54 76 55
REMARK SMILES IDX 82 56 84 57 77 58 78 59 79 60 80 61 81 62 57 63 58 64 67 65
REMARK SMILES IDX 59 66 60 67 66 68 68 69 61 70 62 71 63 72 64 73 65 74 6 75
REMARK SMILES IDX 7 76 8 77 9 79 10 80 11 81 28 82 25 83 27 84 29 85 26 86
REMARK SMILES IDX 12 87 13 88 14 89 15 91 16 92 20 93 17 94 19 95 18 96 21 97
REMARK SMILES IDX 22 98 23 99 24 100
REMARK H PARENT 3 6 89 24 55 35 7 78 14 90
REMARK Flexibility Score: inf
ROOT
ATOM      1  C   UNL A   1      32.776  27.508  26.772  1.00  0.00     0.042 C 
ENDROOT
BRANCH   1   2
ATOM      2  C   UNL A   1      34.077  28.295  26.898  1.00  0.00     0.118 C 
BRANCH   2   3
ATOM      3  N   UNL A   1      33.895  29.604  27.507  1.00  0.00    -0.352 N 
ATOM      4  O   UNL A   1      34.397  31.371  28.816  1.00  0.00    -0.269 OA
ATOM      5  C   UNL A   1      34.781  30.351  28.250  1.00  0.00     0.251 C 
ATOM      6  H   UNL A   1      33.012  30.015  27.367  1.00  0.00     0.163 HD
BRANCH   5   7
ATOM      7  C   UNL A   1      36.183  29.900  28.389  1.00  0.00     0.039 A 
ATOM      8  C   UNL A   1      36.632  29.349  29.589  1.00  0.00     0.014 A 
ATOM      9  C   UNL A   1      37.062  30.054  27.315  1.00  0.00     0.014 A 
ATOM     10  C   UNL A   1      37.991  29.126  29.777  1.00  0.00     0.010 A 
ATOM     11  C   UNL A   1      38.413  29.727  27.473  1.00  0.00     0.010 A 
ATOM     12  C   UNL A   1      38.897  29.301  28.719  1.00  0.00    -0.014 A 
BRANCH  12  13
ATOM     13  C   UNL A   1      40.335  28.984  28.933  1.00  0.00     0.031 A 
ATOM     14  C   UNL A   1      40.909  27.648  28.545  1.00  0.00     0.074 A 
ATOM     15  C   UNL A   1      41.134  29.936  29.454  1.00  0.00     0.049 A 
ATOM     16  N   UNL A   1      42.140  27.219  28.651  1.00  0.00    -0.248 NA
ATOM     17  C   UNL A   1      39.980  26.661  27.972  1.00  0.00     0.031 C 
ATOM     18  C   UNL A   1      40.689  31.269  29.873  1.00  0.00     0.029 A 
ATOM     19  N   UNL A   1      42.482  29.946  29.700  1.00  0.00    -0.354 N 
ATOM     20  C   UNL A   1      42.134  25.908  28.187  1.00  0.00     0.074 A 
ATOM     21  C   UNL A   1      40.767  25.605  27.819  1.00  0.00     0.031 C 
ATOM     22  C   UNL A   1      41.751  31.985  30.265  1.00  0.00     0.029 A 
ATOM     23  C   UNL A   1      42.940  31.143  30.198  1.00  0.00     0.049 A 
ATOM     24  H   UNL A   1      43.067  29.172  29.536  1.00  0.00     0.167 HD
ATOM     25  C   UNL A   1      43.171  25.041  28.076  1.00  0.00     0.037 A 
ATOM     26  C   UNL A   1      44.175  31.522  30.577  1.00  0.00     0.037 A 
ATOM     27  C   UNL A   1      44.531  25.362  28.433  1.00  0.00     0.049 A 
ATOM     28  C   UNL A   1      45.302  30.540  30.463  1.00  0.00     0.074 A 
ATOM     29  C   UNL A   1      45.659  24.567  28.328  1.00  0.00     0.029 A 
ATOM     30  N   UNL A   1      44.948  26.573  28.970  1.00  0.00    -0.354 N 
ATOM     31  N   UNL A   1      45.278  29.311  30.005  1.00  0.00    -0.248 NA
ATOM     32  C   UNL A   1      46.621  30.991  30.922  1.00  0.00     0.031 C 
ATOM     33  C   UNL A   1      46.748  25.279  28.844  1.00  0.00     0.029 A 
ATOM     34  C   UNL A   1      46.309  26.538  29.223  1.00  0.00     0.049 A 
ATOM     35  H   UNL A   1      44.361  27.344  29.145  1.00  0.00     0.167 HD
ATOM     36  C   UNL A   1      46.583  28.844  30.107  1.00  0.00     0.074 A 
ATOM     37  C   UNL A   1      47.371  29.930  30.655  1.00  0.00     0.031 C 
ATOM     38  C   UNL A   1      47.081  27.627  29.775  1.00  0.00     0.037 A 
BRANCH  25  39
ATOM     39  C   UNL A   1      42.868  23.651  27.579  1.00  0.00     0.058 A 
ATOM     40  C   UNL A   1      42.547  22.600  28.453  1.00  0.00     0.135 A 
ATOM     41  C   UNL A   1      42.887  23.370  26.202  1.00  0.00     0.135 A 
ATOM     42  F   UNL A   1      42.523  22.808  29.779  1.00  0.00    -0.206 F 
ATOM     43  C   UNL A   1      42.300  21.313  27.985  1.00  0.00     0.059 A 
ATOM     44  C   UNL A   1      42.616  22.095  25.710  1.00  0.00     0.059 A 
ATOM     45  F   UNL A   1      43.181  24.336  25.318  1.00  0.00    -0.206 F 
ATOM     46  C   UNL A   1      42.346  21.068  26.612  1.00  0.00     0.060 A 
BRANCH  46  47
ATOM     47  S   UNL A   1      42.062  19.385  26.022  1.00  0.00     0.124 S 
ATOM     48  O   UNL A   1      42.960  19.327  24.873  1.00  0.00    -0.237 OA
ATOM     49  O   UNL A   1      42.455  18.579  27.173  1.00  0.00    -0.237 OA
ATOM     50  O   UNL A   1      40.637  19.370  25.707  1.00  0.00    -0.744 OA
ENDBRANCH  46  47
ENDBRANCH  25  39
BRANCH  26  51
ATOM     51  C   UNL A   1      44.389  32.900  31.089  1.00  0.00     0.058 A 
ATOM     52  C   UNL A   1      44.266  33.189  32.455  1.00  0.00     0.135 A 
ATOM     53  C   UNL A   1      44.790  33.938  30.233  1.00  0.00     0.135 A 
ATOM     54  F   UNL A   1      43.881  32.230  33.311  1.00  0.00    -0.206 F 
ATOM     55  C   UNL A   1      44.534  34.458  32.956  1.00  0.00     0.059 A 
ATOM     56  C   UNL A   1      45.091  35.207  30.714  1.00  0.00     0.059 A 
ATOM     57  F   UNL A   1      44.941  33.706  28.920  1.00  0.00    -0.206 F 
ATOM     58  C   UNL A   1      44.956  35.458  32.079  1.00  0.00     0.060 A 
BRANCH  58  59
ATOM     59  S   UNL A   1      45.387  37.077  32.752  1.00  0.00     0.124 S 
ATOM     60  O   UNL A   1      44.216  37.376  33.569  1.00  0.00    -0.237 OA
ATOM     61  O   UNL A   1      46.618  36.788  33.481  1.00  0.00    -0.237 OA
ATOM     62  O   UNL A   1      45.554  37.903  31.560  1.00  0.00    -0.744 OA
ENDBRANCH  58  59
ENDBRANCH  26  51
BRANCH  38  63
ATOM     63  C   UNL A   1      48.555  27.416  29.971  1.00  0.00     0.058 A 
ATOM     64  C   UNL A   1      49.496  27.852  29.024  1.00  0.00     0.135 A 
ATOM     65  C   UNL A   1      49.036  26.802  31.138  1.00  0.00     0.135 A 
ATOM     66  F   UNL A   1      49.088  28.437  27.886  1.00  0.00    -0.206 F 
ATOM     67  C   UNL A   1      50.861  27.661  29.215  1.00  0.00     0.059 A 
ATOM     68  C   UNL A   1      50.397  26.624  31.363  1.00  0.00     0.059 A 
ATOM     69  F   UNL A   1      48.178  26.375  32.079  1.00  0.00    -0.206 F 
ATOM     70  C   UNL A   1      51.301  27.047  30.389  1.00  0.00     0.060 A 
BRANCH  70  71
ATOM     71  S   UNL A   1      53.076  26.828  30.639  1.00  0.00     0.124 S 
ATOM     72  O   UNL A   1      53.508  28.199  30.888  1.00  0.00    -0.237 OA
ATOM     73  O   UNL A   1      53.121  25.929  31.789  1.00  0.00    -0.237 OA
ATOM     74  O   UNL A   1      53.526  26.245  29.379  1.00  0.00    -0.744 OA
ENDBRANCH  70  71
ENDBRANCH  38  63
ENDBRANCH  12  13
ENDBRANCH   5   7
ENDBRANCH   2   3
ENDBRANCH   1   2
BRANCH   1  75
ATOM     75  C   UNL A   1      32.732  26.551  25.582  1.00  0.00     0.117 C 
BRANCH  75  76
ATOM     76  N   UNL A   1      32.343  25.224  26.019  1.00  0.00    -0.356 N 
ATOM     77  C   UNL A   1      32.619  23.977  25.586  1.00  0.00     0.224 C 
ATOM     78  H   UNL A   1      31.749  25.236  26.803  1.00  0.00     0.163 HD
ATOM     79  O   UNL A   1      31.777  23.115  25.861  1.00  0.00    -0.275 OA
BRANCH  77  80
ATOM     80  C   UNL A   1      33.792  23.603  24.734  1.00  0.00     0.098 C 
ATOM     81  C   UNL A   1      34.385  22.162  24.920  1.00  0.00     0.099 C 
ATOM     82  C   UNL A   1      35.054  24.466  24.559  1.00  0.00     0.025 C 
ATOM     83  C   UNL A   1      35.908  22.399  24.695  1.00  0.00     0.025 C 
ATOM     84  C   UNL A   1      35.931  24.424  25.783  1.00  0.00    -0.027 C 
ATOM     85  C   UNL A   1      35.881  23.525  23.660  1.00  0.00     0.017 C 
ATOM     86  C   UNL A   1      36.480  23.203  25.834  1.00  0.00    -0.027 C 
BRANCH  81  87
ATOM     87  C   UNL A   1      34.147  21.076  25.989  1.00  0.00     0.229 C 
ATOM     88  O   UNL A   1      34.133  21.456  27.176  1.00  0.00    -0.274 OA
ATOM     89  N   UNL A   1      33.691  19.805  25.817  1.00  0.00    -0.323 N 
ATOM     90  H   UNL A   1      33.338  19.406  26.644  1.00  0.00     0.170 HD
BRANCH  89  91
ATOM     91  C   UNL A   1      33.617  18.948  24.720  1.00  0.00     0.084 A 
ATOM     92  C   UNL A   1      34.631  17.984  24.607  1.00  0.00     0.030 A 
ATOM     93  C   UNL A   1      32.672  19.047  23.702  1.00  0.00     0.149 A 
ATOM     94  C   UNL A   1      34.553  16.980  23.640  1.00  0.00     0.002 A 
ATOM     95  C   UNL A   1      32.565  18.008  22.766  1.00  0.00     0.049 A 
ATOM     96  C   UNL A   1      33.486  16.962  22.751  1.00  0.00     0.004 A 
BRANCH  93  97
ATOM     97  O   UNL A   1      31.828  20.090  23.461  1.00  0.00    -0.433 OA
BRANCH  97  98
ATOM     98  C   UNL A   1      32.197  21.061  22.479  1.00  0.00     0.542 C 
ATOM     99  F   UNL A   1      31.847  20.671  21.236  1.00  0.00    -0.167 F 
ATOM    100  F   UNL A   1      31.595  22.249  22.731  1.00  0.00    -0.167 F 
ENDBRANCH  97  98
ENDBRANCH  93  97
ENDBRANCH  89  91
ENDBRANCH  81  87
ENDBRANCH  77  80
ENDBRANCH  75  76
ENDBRANCH   1  75
TORSDOF 17
ENDMDL
MODEL 3
REMARK VINA RESULT:     -12.0      1.414      2.898
REMARK SMILES O=C(NCCCNC(=O)[C@@H]1[C@H](C(=O)Nc2ccccc2OC(F)F)[C@@H]2C=C[C@H]1C2)c1ccc(-c2c3nc(c(-c4c(F)cc(S(=O)(=O)[O-])cc4F)c4ccc([nH]4)c(-c4c(F)cc(S(=O)(=O)[O-])cc4F)c4nc(c(-c5c(F)cc(S(=O)(=O)[O-])cc5F)c5ccc2[nH]5)C=C4)C=C3)cc1
REMARK SMILES IDX 5 1 4 2 3 3 1 4 2 5 30 7 31 8 95 9 32 10 94 11 33 12 34 13
REMARK SMILES IDX 35 14 88 15 36 16 93 17 87 18 89 19 37 20 92 21 86 22 85 23
REMARK SMILES IDX 38 25 72 26 51 27 71 28 52 29 55 30 70 31 90 32 53 33 54 34
REMARK SMILES IDX 69 36 91 37 56 38 39 39 40 40 49 41 41 42 42 43 48 44 50 45
REMARK SMILES IDX 43 46 44 47 45 48 46 49 47 50 73 51 74 52 83 53 75 54 76 55
REMARK SMILES IDX 82 56 84 57 77 58 78 59 79 60 80 61 81 62 57 63 58 64 67 65
REMARK SMILES IDX 59 66 60 67 66 68 68 69 61 70 62 71 63 72 64 73 65 74 6 75
REMARK SMILES IDX 7 76 8 77 9 79 10 80 11 81 28 82 25 83 27 84 29 85 26 86
REMARK SMILES IDX 12 87 13 88 14 89 15 91 16 92 20 93 17 94 19 95 18 96 21 97
REMARK SMILES IDX 22 98 23 99 24 100
REMARK H PARENT 3 6 89 24 55 35 7 78 14 90
REMARK Flexibility Score: inf
ROOT
ATOM      1  C   UNL A   1      38.493  22.707  26.152  1.00  0.00     0.042 C 
ENDROOT
BRANCH   1   2
ATOM      2  C   UNL A   1      39.638  23.318  26.956  1.00  0.00     0.118 C 
BRANCH   2   3
ATOM      3  N   UNL A   1      40.742  23.769  26.124  1.00  0.00    -0.352 N 
ATOM      4  O   UNL A   1      42.222  25.234  25.256  1.00  0.00    -0.269 OA
ATOM      5  C   UNL A   1      41.414  24.970  26.143  1.00  0.00     0.251 C 
ATOM      6  H   UNL A   1      41.054  23.123  25.450  1.00  0.00     0.163 HD
BRANCH   5   7
ATOM      7  C   UNL A   1      41.131  25.951  27.213  1.00  0.00     0.039 A 
ATOM      8  C   UNL A   1      41.823  27.161  27.264  1.00  0.00     0.014 A 
ATOM      9  C   UNL A   1      40.181  25.645  28.190  1.00  0.00     0.014 A 
ATOM     10  C   UNL A   1      41.703  27.976  28.383  1.00  0.00     0.010 A 
ATOM     11  C   UNL A   1      39.983  26.520  29.262  1.00  0.00     0.010 A 
ATOM     12  C   UNL A   1      40.773  27.672  29.392  1.00  0.00    -0.014 A 
BRANCH  12  13
ATOM     13  C   UNL A   1      40.618  28.603  30.541  1.00  0.00     0.031 A 
ATOM     14  C   UNL A   1      41.536  28.538  31.732  1.00  0.00     0.074 A 
ATOM     15  C   UNL A   1      39.652  29.542  30.484  1.00  0.00     0.049 A 
ATOM     16  N   UNL A   1      41.543  29.285  32.807  1.00  0.00    -0.248 NA
ATOM     17  C   UNL A   1      42.574  27.496  31.721  1.00  0.00     0.031 C 
ATOM     18  C   UNL A   1      38.698  29.699  29.381  1.00  0.00     0.029 A 
ATOM     19  N   UNL A   1      39.323  30.551  31.350  1.00  0.00    -0.354 N 
ATOM     20  C   UNL A   1      42.562  28.790  33.613  1.00  0.00     0.074 A 
ATOM     21  C   UNL A   1      43.137  27.661  32.910  1.00  0.00     0.031 C 
ATOM     22  C   UNL A   1      37.935  30.776  29.609  1.00  0.00     0.029 A 
ATOM     23  C   UNL A   1      38.292  31.343  30.904  1.00  0.00     0.049 A 
ATOM     24  H   UNL A   1      39.781  30.696  32.209  1.00  0.00     0.167 HD
ATOM     25  C   UNL A   1      42.981  29.236  34.823  1.00  0.00     0.037 A 
ATOM     26  C   UNL A   1      37.683  32.398  31.477  1.00  0.00     0.037 A 
ATOM     27  C   UNL A   1      42.409  30.370  35.505  1.00  0.00     0.049 A 
ATOM     28  C   UNL A   1      38.151  32.861  32.825  1.00  0.00     0.074 A 
ATOM     29  C   UNL A   1      42.781  30.924  36.718  1.00  0.00     0.029 A 
ATOM     30  N   UNL A   1      41.339  31.123  35.038  1.00  0.00    -0.354 N 
ATOM     31  N   UNL A   1      39.128  32.390  33.563  1.00  0.00    -0.248 NA
ATOM     32  C   UNL A   1      37.431  33.993  33.421  1.00  0.00     0.031 C 
ATOM     33  C   UNL A   1      41.908  31.980  37.007  1.00  0.00     0.029 A 
ATOM     34  C   UNL A   1      41.023  32.119  35.948  1.00  0.00     0.049 A 
ATOM     35  H   UNL A   1      40.873  30.970  34.185  1.00  0.00     0.167 HD
ATOM     36  C   UNL A   1      39.150  33.178  34.707  1.00  0.00     0.074 A 
ATOM     37  C   UNL A   1      38.099  34.165  34.554  1.00  0.00     0.031 C 
ATOM     38  C   UNL A   1      39.970  33.092  35.785  1.00  0.00     0.037 A 
BRANCH  25  39
ATOM     39  C   UNL A   1      44.090  28.475  35.503  1.00  0.00     0.058 A 
ATOM     40  C   UNL A   1      45.443  28.789  35.301  1.00  0.00     0.135 A 
ATOM     41  C   UNL A   1      43.791  27.419  36.382  1.00  0.00     0.135 A 
ATOM     42  F   UNL A   1      45.789  29.781  34.465  1.00  0.00    -0.206 F 
ATOM     43  C   UNL A   1      46.460  28.059  35.909  1.00  0.00     0.059 A 
ATOM     44  C   UNL A   1      44.792  26.693  37.023  1.00  0.00     0.059 A 
ATOM     45  F   UNL A   1      42.515  27.077  36.619  1.00  0.00    -0.206 F 
ATOM     46  C   UNL A   1      46.125  27.006  36.762  1.00  0.00     0.060 A 
BRANCH  46  47
ATOM     47  S   UNL A   1      47.454  26.042  37.514  1.00  0.00     0.124 S 
ATOM     48  O   UNL A   1      47.602  26.711  38.802  1.00  0.00    -0.237 OA
ATOM     49  O   UNL A   1      46.880  24.701  37.560  1.00  0.00    -0.237 OA
ATOM     50  O   UNL A   1      48.566  26.213  36.586  1.00  0.00    -0.744 OA
ENDBRANCH  46  47
ENDBRANCH  25  39
BRANCH  26  51
ATOM     51  C   UNL A   1      36.573  33.077  30.760  1.00  0.00     0.058 A 
ATOM     52  C   UNL A   1      35.243  32.914  31.169  1.00  0.00     0.135 A 
ATOM     53  C   UNL A   1      36.829  33.958  29.697  1.00  0.00     0.135 A 
ATOM     54  F   UNL A   1      34.950  32.079  32.177  1.00  0.00    -0.206 F 
ATOM     55  C   UNL A   1      34.203  33.600  30.552  1.00  0.00     0.059 A 
ATOM     56  C   UNL A   1      35.810  34.677  29.083  1.00  0.00     0.059 A 
ATOM     57  F   UNL A   1      38.088  34.163  29.281  1.00  0.00    -0.206 F 
ATOM     58  C   UNL A   1      34.498  34.488  29.516  1.00  0.00     0.060 A 
BRANCH  58  59
ATOM     59  S   UNL A   1      33.152  35.440  28.780  1.00  0.00     0.124 S 
ATOM     60  O   UNL A   1      32.460  34.418  28.003  1.00  0.00    -0.237 OA
ATOM     61  O   UNL A   1      32.446  35.934  29.959  1.00  0.00    -0.237 OA
ATOM     62  O   UNL A   1      33.849  36.461  28.003  1.00  0.00    -0.744 OA
ENDBRANCH  58  59
ENDBRANCH  26  51
BRANCH  38  63
ATOM     63  C   UNL A   1      39.777  34.111  36.871  1.00  0.00     0.058 A 
ATOM     64  C   UNL A   1      38.886  33.897  37.935  1.00  0.00     0.135 A 
ATOM     65  C   UNL A   1      40.519  35.303  36.866  1.00  0.00     0.135 A 
ATOM     66  F   UNL A   1      38.147  32.778  37.982  1.00  0.00    -0.206 F 
ATOM     67  C   UNL A   1      38.718  34.842  38.942  1.00  0.00     0.059 A 
ATOM     68  C   UNL A   1      40.387  36.250  37.877  1.00  0.00     0.059 A 
ATOM     69  F   UNL A   1      41.391  35.552  35.875  1.00  0.00    -0.206 F 
ATOM     70  C   UNL A   1      39.475  36.015  38.904  1.00  0.00     0.060 A 
BRANCH  70  71
ATOM     71  S   UNL A   1      39.268  37.223  40.231  1.00  0.00     0.124 S 
ATOM     72  O   UNL A   1      38.550  36.440  41.231  1.00  0.00    -0.237 OA
ATOM     73  O   UNL A   1      40.649  37.563  40.562  1.00  0.00    -0.237 OA
ATOM     74  O   UNL A   1      38.501  38.292  39.599  1.00  0.00    -0.744 OA
ENDBRANCH  70  71
ENDBRANCH  38  63
ENDBRANCH  12  13
ENDBRANCH   5   7
ENDBRANCH   2   3
ENDBRANCH   1   2
BRANCH   1  75
ATOM     75  C   UNL A   1      37.327  23.660  25.893  1.00  0.00     0.117 C 
BRANCH  75  76
ATOM     76  N   UNL A   1      36.110  23.136  26.482  1.00  0.00    -0.356 N 
ATOM     77  C   UNL A   1      34.797  23.311  26.230  1.00  0.00     0.224 C 
ATOM     78  H   UNL A   1      36.279  22.516  27.227  1.00  0.00     0.163 HD
ATOM     79  O   UNL A   1      34.036  23.112  27.184  1.00  0.00    -0.275 OA
BRANCH  77  80
ATOM     80  C   UNL A   1      34.228  23.813  24.939  1.00  0.00     0.098 C 
ATOM     81  C   UNL A   1      32.851  24.563  25.004  1.00  0.00     0.099 C 
ATOM     82  C   UNL A   1      34.093  22.969  23.660  1.00  0.00     0.025 C 
ATOM     83  C   UNL A   1      32.175  24.128  23.669  1.00  0.00     0.025 C 
ATOM     84  C   UNL A   1      32.968  21.973  23.767  1.00  0.00    -0.027 C 
ATOM     85  C   UNL A   1      33.392  23.999  22.750  1.00  0.00     0.017 C 
ATOM     86  C   UNL A   1      31.821  22.665  23.721  1.00  0.00    -0.027 C 
BRANCH  81  87
ATOM     87  C   UNL A   1      31.807  24.713  26.128  1.00  0.00     0.229 C 
ATOM     88  O   UNL A   1      31.463  23.667  26.712  1.00  0.00    -0.274 OA
ATOM     89  N   UNL A   1      31.395  25.849  26.754  1.00  0.00    -0.323 N 
ATOM     90  H   UNL A   1      30.962  25.678  27.621  1.00  0.00     0.170 HD
BRANCH  89  91
ATOM     91  C   UNL A   1      31.456  27.204  26.431  1.00  0.00     0.084 A 
ATOM     92  C   UNL A   1      31.781  28.084  27.475  1.00  0.00     0.030 A 
ATOM     93  C   UNL A   1      31.130  27.736  25.186  1.00  0.00     0.149 A 
ATOM     94  C   UNL A   1      32.028  29.434  27.217  1.00  0.00     0.002 A 
ATOM     95  C   UNL A   1      31.430  29.079  24.917  1.00  0.00     0.049 A 
ATOM     96  C   UNL A   1      31.904  29.921  25.921  1.00  0.00     0.004 A 
BRANCH  93  97
ATOM     97  O   UNL A   1      30.491  27.102  24.162  1.00  0.00    -0.433 OA
BRANCH  97  98
ATOM     98  C   UNL A   1      30.395  27.763  22.898  1.00  0.00     0.542 C 
ATOM     99  F   UNL A   1      30.889  27.002  21.899  1.00  0.00    -0.167 F 
ATOM    100  F   UNL A   1      29.104  28.051  22.606  1.00  0.00    -0.167 F 
ENDBRANCH  97  98
ENDBRANCH  93  97
ENDBRANCH  89  91
ENDBRANCH  81  87
ENDBRANCH  77  80
ENDBRANCH  75  76
ENDBRANCH   1  75
TORSDOF 17
ENDMDL
