MODEL 1
REMARK VINA RESULT:     -13.9      0.000      0.000
REMARK SMILES CCC(=O)Nc1cc(NC(=O)/C=C/C(=O)NCCCNC(=O)c2ccc(-c3c4nc(c(-c5c(F)cc(S(=O)(=O)[O-])cc5F)c5ccc([nH]5)c(-c5c(F)cc(S(=O)(=O)[O-])cc5F)c5nc(c(-c6c(F)cc(S(=O)(=O)[O-])cc6F)c6ccc3[nH]6)C=C5)C=C4)cc2)ccc1C
REMARK SMILES IDX 17 1 16 2 14 3 15 4 13 6 12 7 10 8 9 9 11 11 8 12 6 13 7 14
REMARK SMILES IDX 91 15 90 16 92 17 89 18 5 19 3 20 4 21 2 23 1 24 18 25 19 26
REMARK SMILES IDX 20 27 21 28 22 30 23 31 24 32 88 33 25 34 87 35 26 36 27 37
REMARK SMILES IDX 28 38 81 39 29 40 86 41 80 42 82 43 30 44 85 45 79 46 78 47
REMARK SMILES IDX 31 49 65 50 44 51 64 52 45 53 48 54 63 55 83 56 46 57 47 58
REMARK SMILES IDX 62 60 84 61 49 62 32 63 33 64 42 65 34 66 35 67 41 68 43 69
REMARK SMILES IDX 36 70 37 71 38 72 39 73 40 74 66 75 67 76 76 77 68 78 69 79
REMARK SMILES IDX 75 80 77 81 70 82 71 83 72 84 73 85 74 86 50 87 51 88 60 89
REMARK SMILES IDX 52 90 53 91 59 92 61 93 54 94 55 95 56 96 57 97 58 98
REMARK H PARENT 16 5 9 10 5 22 20 29 82 48 48 59
REMARK Flexibility Score: inf
ROOT
ATOM      1  C   UNL A   1      32.155  30.528  25.855  1.00  0.00     0.118 C 
ENDROOT
BRANCH   1   2
ATOM      2  N   UNL A   1      32.841  29.849  24.758  1.00  0.00    -0.352 N 
ATOM      3  C   UNL A   1      32.405  28.876  23.918  1.00  0.00     0.244 C 
ATOM      4  O   UNL A   1      33.133  28.409  23.043  1.00  0.00    -0.270 OA
ATOM      5  H   UNL A   1      33.768  30.144  24.603  1.00  0.00     0.163 HD
BRANCH   3   6
ATOM      6  C   UNL A   1      31.032  28.351  24.040  1.00  0.00     0.077 C 
ATOM      7  C   UNL A   1      30.784  27.075  23.715  1.00  0.00     0.077 C 
BRANCH   7   8
ATOM      8  C   UNL A   1      29.537  26.432  24.155  1.00  0.00     0.248 C 
ATOM      9  N   UNL A   1      29.570  25.389  25.041  1.00  0.00    -0.322 N 
ATOM     10  H   UNL A   1      28.681  25.029  25.261  1.00  0.00     0.170 HD
ATOM     11  O   UNL A   1      28.460  26.836  23.718  1.00  0.00    -0.270 OA
BRANCH   9  12
ATOM     12  C   UNL A   1      30.628  24.728  25.698  1.00  0.00     0.043 A 
ATOM     13  C   UNL A   1      31.924  22.745  26.272  1.00  0.00     0.046 A 
ATOM     14  C   UNL A   1      30.739  23.346  25.836  1.00  0.00     0.052 A 
ATOM     15  C   UNL A   1      33.022  23.542  26.616  1.00  0.00    -0.027 A 
ATOM     16  C   UNL A   1      32.853  24.937  26.635  1.00  0.00     0.008 A 
ATOM     17  C   UNL A   1      34.418  23.010  26.795  1.00  0.00     0.046 C 
ATOM     18  C   UNL A   1      31.668  25.523  26.181  1.00  0.00     0.026 A 
BRANCH  13  19
ATOM     19  N   UNL A   1      32.014  21.357  26.108  1.00  0.00    -0.326 N 
ATOM     20  C   UNL A   1      32.292  20.638  24.980  1.00  0.00     0.224 C 
ATOM     21  O   UNL A   1      32.059  19.427  24.949  1.00  0.00    -0.275 OA
ATOM     22  H   UNL A   1      31.857  20.823  26.921  1.00  0.00     0.169 HD
BRANCH  20  23
ATOM     23  C   UNL A   1      33.018  21.305  23.826  1.00  0.00     0.097 C 
ATOM     24  C   UNL A   1      32.138  21.835  22.717  1.00  0.00     0.014 C 
ENDBRANCH  20  23
ENDBRANCH  13  19
ENDBRANCH   9  12
ENDBRANCH   7   8
ENDBRANCH   3   6
ENDBRANCH   1   2
BRANCH   1  25
ATOM     25  C   UNL A   1      32.692  30.148  27.231  1.00  0.00     0.042 C 
BRANCH  25  26
ATOM     26  C   UNL A   1      34.169  29.796  27.185  1.00  0.00     0.118 C 
BRANCH  26  27
ATOM     27  N   UNL A   1      35.048  30.954  27.246  1.00  0.00    -0.352 N 
ATOM     28  C   UNL A   1      36.013  31.042  28.240  1.00  0.00     0.251 C 
ATOM     29  H   UNL A   1      34.959  31.676  26.583  1.00  0.00     0.163 HD
ATOM     30  O   UNL A   1      36.072  31.927  29.084  1.00  0.00    -0.269 OA
BRANCH  28  31
ATOM     31  C   UNL A   1      36.983  29.929  28.228  1.00  0.00     0.039 A 
ATOM     32  C   UNL A   1      37.127  29.132  29.364  1.00  0.00     0.014 A 
ATOM     33  C   UNL A   1      37.911  29.885  27.187  1.00  0.00     0.014 A 
ATOM     34  C   UNL A   1      38.281  28.361  29.511  1.00  0.00     0.010 A 
ATOM     35  C   UNL A   1      39.087  29.183  27.373  1.00  0.00     0.010 A 
ATOM     36  C   UNL A   1      39.288  28.440  28.546  1.00  0.00    -0.014 A 
BRANCH  36  37
ATOM     37  C   UNL A   1      40.618  27.857  28.714  1.00  0.00     0.031 A 
ATOM     38  C   UNL A   1      40.897  26.459  28.303  1.00  0.00     0.074 A 
ATOM     39  C   UNL A   1      41.638  28.609  29.182  1.00  0.00     0.049 A 
ATOM     40  N   UNL A   1      41.849  25.732  28.794  1.00  0.00    -0.248 NA
ATOM     41  C   UNL A   1      40.088  25.751  27.316  1.00  0.00     0.031 C 
ATOM     42  C   UNL A   1      43.063  28.302  29.086  1.00  0.00     0.029 A 
ATOM     43  N   UNL A   1      41.580  29.729  30.008  1.00  0.00    -0.354 N 
ATOM     44  C   UNL A   1      41.955  24.601  28.017  1.00  0.00     0.074 A 
ATOM     45  C   UNL A   1      40.799  24.633  27.148  1.00  0.00     0.031 C 
ATOM     46  C   UNL A   1      43.730  29.040  29.985  1.00  0.00     0.029 A 
ATOM     47  C   UNL A   1      42.746  29.738  30.794  1.00  0.00     0.049 A 
ATOM     48  H   UNL A   1      40.854  30.394  30.036  1.00  0.00     0.167 HD
ATOM     49  C   UNL A   1      43.073  23.820  28.079  1.00  0.00     0.037 A 
ATOM     50  C   UNL A   1      42.694  29.696  32.158  1.00  0.00     0.037 A 
ATOM     51  C   UNL A   1      44.045  24.335  29.039  1.00  0.00     0.049 A 
ATOM     52  C   UNL A   1      43.373  28.493  32.771  1.00  0.00     0.074 A 
ATOM     53  C   UNL A   1      45.167  25.132  28.886  1.00  0.00     0.029 A 
ATOM     54  N   UNL A   1      43.777  24.292  30.403  1.00  0.00    -0.354 N 
ATOM     55  N   UNL A   1      43.724  27.433  32.100  1.00  0.00    -0.248 NA
ATOM     56  C   UNL A   1      43.677  28.376  34.195  1.00  0.00     0.031 C 
ATOM     57  C   UNL A   1      45.557  25.602  30.161  1.00  0.00     0.029 A 
ATOM     58  C   UNL A   1      44.672  25.089  31.094  1.00  0.00     0.049 A 
ATOM     59  H   UNL A   1      43.053  23.770  30.818  1.00  0.00     0.167 HD
ATOM     60  C   UNL A   1      44.224  26.491  32.961  1.00  0.00     0.074 A 
ATOM     61  C   UNL A   1      44.212  27.143  34.256  1.00  0.00     0.031 C 
ATOM     62  C   UNL A   1      44.588  25.244  32.536  1.00  0.00     0.037 A 
BRANCH  49  63
ATOM     63  C   UNL A   1      43.395  22.792  27.015  1.00  0.00     0.058 A 
ATOM     64  C   UNL A   1      42.773  21.525  27.006  1.00  0.00     0.135 A 
ATOM     65  C   UNL A   1      44.371  22.979  26.015  1.00  0.00     0.135 A 
ATOM     66  F   UNL A   1      41.750  21.237  27.820  1.00  0.00    -0.206 F 
ATOM     67  C   UNL A   1      43.186  20.483  26.176  1.00  0.00     0.059 A 
ATOM     68  C   UNL A   1      44.838  21.936  25.207  1.00  0.00     0.059 A 
ATOM     69  F   UNL A   1      44.896  24.193  25.787  1.00  0.00    -0.206 F 
ATOM     70  C   UNL A   1      44.251  20.682  25.311  1.00  0.00     0.060 A 
BRANCH  70  71
ATOM     71  S   UNL A   1      44.872  19.277  24.367  1.00  0.00     0.124 S 
ATOM     72  O   UNL A   1      46.310  19.347  24.609  1.00  0.00    -0.237 OA
ATOM     73  O   UNL A   1      44.177  18.159  24.995  1.00  0.00    -0.237 OA
ATOM     74  O   UNL A   1      44.463  19.583  22.998  1.00  0.00    -0.744 OA
ENDBRANCH  70  71
ENDBRANCH  49  63
BRANCH  50  75
ATOM     75  C   UNL A   1      41.499  30.383  32.719  1.00  0.00     0.058 A 
ATOM     76  C   UNL A   1      40.414  29.580  33.116  1.00  0.00     0.135 A 
ATOM     77  C   UNL A   1      41.598  31.666  33.275  1.00  0.00     0.135 A 
ATOM     78  F   UNL A   1      40.259  28.353  32.591  1.00  0.00    -0.206 F 
ATOM     79  C   UNL A   1      39.573  29.955  34.158  1.00  0.00     0.059 A 
ATOM     80  C   UNL A   1      40.761  32.066  34.317  1.00  0.00     0.059 A 
ATOM     81  F   UNL A   1      42.604  32.480  32.921  1.00  0.00    -0.206 F 
ATOM     82  C   UNL A   1      39.813  31.165  34.806  1.00  0.00     0.060 A 
BRANCH  82  83
ATOM     83  S   UNL A   1      38.980  31.461  36.387  1.00  0.00     0.124 S 
ATOM     84  O   UNL A   1      40.097  31.778  37.268  1.00  0.00    -0.237 OA
ATOM     85  O   UNL A   1      38.092  32.582  36.063  1.00  0.00    -0.237 OA
ATOM     86  O   UNL A   1      38.304  30.197  36.650  1.00  0.00    -0.744 OA
ENDBRANCH  82  83
ENDBRANCH  50  75
BRANCH  62  87
ATOM     87  C   UNL A   1      44.991  24.095  33.427  1.00  0.00     0.058 A 
ATOM     88  C   UNL A   1      44.168  22.990  33.700  1.00  0.00     0.135 A 
ATOM     89  C   UNL A   1      46.308  24.018  33.941  1.00  0.00     0.135 A 
ATOM     90  F   UNL A   1      42.936  22.895  33.176  1.00  0.00    -0.206 F 
ATOM     91  C   UNL A   1      44.591  21.916  34.486  1.00  0.00     0.059 A 
ATOM     92  C   UNL A   1      46.768  22.934  34.685  1.00  0.00     0.059 A 
ATOM     93  F   UNL A   1      47.198  24.999  33.728  1.00  0.00    -0.206 F 
ATOM     94  C   UNL A   1      45.892  21.897  34.977  1.00  0.00     0.060 A 
BRANCH  94  95
ATOM     95  S   UNL A   1      46.477  20.493  35.946  1.00  0.00     0.124 S 
ATOM     96  O   UNL A   1      46.074  19.370  35.105  1.00  0.00    -0.237 OA
ATOM     97  O   UNL A   1      47.916  20.727  36.030  1.00  0.00    -0.237 OA
ATOM     98  O   UNL A   1      45.752  20.637  37.203  1.00  0.00    -0.744 OA
ENDBRANCH  94  95
ENDBRANCH  62  87
ENDBRANCH  36  37
ENDBRANCH  28  31
ENDBRANCH  26  27
ENDBRANCH  25  26
ENDBRANCH   1  25
TORSDOF 17
ENDMDL
MODEL 2
REMARK VINA RESULT:     -13.8      0.971      1.489
REMARK SMILES CCC(=O)Nc1cc(NC(=O)/C=C/C(=O)NCCCNC(=O)c2ccc(-c3c4nc(c(-c5c(F)cc(S(=O)(=O)[O-])cc5F)c5ccc([nH]5)c(-c5c(F)cc(S(=O)(=O)[O-])cc5F)c5nc(c(-c6c(F)cc(S(=O)(=O)[O-])cc6F)c6ccc3[nH]6)C=C5)C=C4)cc2)ccc1C
REMARK SMILES IDX 17 1 16 2 14 3 15 4 13 6 12 7 10 8 9 9 11 11 8 12 6 13 7 14
REMARK SMILES IDX 91 15 90 16 92 17 89 18 5 19 3 20 4 21 2 23 1 24 18 25 19 26
REMARK SMILES IDX 20 27 21 28 22 30 23 31 24 32 88 33 25 34 87 35 26 36 27 37
REMARK SMILES IDX 28 38 81 39 29 40 86 41 80 42 82 43 30 44 85 45 79 46 78 47
REMARK SMILES IDX 31 49 65 50 44 51 64 52 45 53 48 54 63 55 83 56 46 57 47 58
REMARK SMILES IDX 62 60 84 61 49 62 32 63 33 64 42 65 34 66 35 67 41 68 43 69
REMARK SMILES IDX 36 70 37 71 38 72 39 73 40 74 66 75 67 76 76 77 68 78 69 79
REMARK SMILES IDX 75 80 77 81 70 82 71 83 72 84 73 85 74 86 50 87 51 88 60 89
REMARK SMILES IDX 52 90 53 91 59 92 61 93 54 94 55 95 56 96 57 97 58 98
REMARK H PARENT 16 5 9 10 5 22 20 29 82 48 48 59
REMARK Flexibility Score: inf
ROOT
ATOM      1  C   UNL A   1      32.199  30.435  25.909  1.00  0.00     0.118 C 
ENDROOT
BRANCH   1   2
ATOM      2  N   UNL A   1      32.807  29.781  24.753  1.00  0.00    -0.352 N 
ATOM      3  C   UNL A   1      32.313  28.827  23.922  1.00  0.00     0.244 C 
ATOM      4  O   UNL A   1      32.977  28.380  22.990  1.00  0.00    -0.270 OA
ATOM      5  H   UNL A   1      33.722  30.078  24.541  1.00  0.00     0.163 HD
BRANCH   3   6
ATOM      6  C   UNL A   1      30.950  28.301  24.126  1.00  0.00     0.077 C 
ATOM      7  C   UNL A   1      30.660  27.053  23.731  1.00  0.00     0.077 C 
BRANCH   7   8
ATOM      8  C   UNL A   1      29.450  26.385  24.232  1.00  0.00     0.248 C 
ATOM      9  N   UNL A   1      29.548  25.343  25.114  1.00  0.00    -0.322 N 
ATOM     10  H   UNL A   1      28.678  24.965  25.377  1.00  0.00     0.170 HD
ATOM     11  O   UNL A   1      28.345  26.767  23.847  1.00  0.00    -0.270 OA
BRANCH   9  12
ATOM     12  C   UNL A   1      30.650  24.705  25.718  1.00  0.00     0.043 A 
ATOM     13  C   UNL A   1      31.992  22.743  26.260  1.00  0.00     0.046 A 
ATOM     14  C   UNL A   1      30.778  23.327  25.886  1.00  0.00     0.052 A 
ATOM     15  C   UNL A   1      33.105  23.554  26.510  1.00  0.00    -0.027 A 
ATOM     16  C   UNL A   1      32.930  24.948  26.503  1.00  0.00     0.008 A 
ATOM     17  C   UNL A   1      34.513  23.033  26.612  1.00  0.00     0.046 C 
ATOM     18  C   UNL A   1      31.714  25.516  26.112  1.00  0.00     0.026 A 
BRANCH  13  19
ATOM     19  N   UNL A   1      32.080  21.351  26.127  1.00  0.00    -0.326 N 
ATOM     20  C   UNL A   1      32.329  20.606  25.009  1.00  0.00     0.224 C 
ATOM     21  O   UNL A   1      32.098  19.395  25.013  1.00  0.00    -0.275 OA
ATOM     22  H   UNL A   1      31.945  20.837  26.955  1.00  0.00     0.169 HD
BRANCH  20  23
ATOM     23  C   UNL A   1      33.024  21.246  23.821  1.00  0.00     0.097 C 
ATOM     24  C   UNL A   1      32.115  21.752  22.724  1.00  0.00     0.014 C 
ENDBRANCH  20  23
ENDBRANCH  13  19
ENDBRANCH   9  12
ENDBRANCH   7   8
ENDBRANCH   3   6
ENDBRANCH   1   2
BRANCH   1  25
ATOM     25  C   UNL A   1      32.779  29.970  27.241  1.00  0.00     0.042 C 
BRANCH  25  26
ATOM     26  C   UNL A   1      34.260  29.649  27.133  1.00  0.00     0.118 C 
BRANCH  26  27
ATOM     27  N   UNL A   1      35.125  30.802  27.338  1.00  0.00    -0.352 N 
ATOM     28  C   UNL A   1      35.964  30.852  28.442  1.00  0.00     0.251 C 
ATOM     29  H   UNL A   1      35.114  31.547  26.695  1.00  0.00     0.163 HD
ATOM     30  O   UNL A   1      35.921  31.708  29.318  1.00  0.00    -0.269 OA
BRANCH  28  31
ATOM     31  C   UNL A   1      36.930  29.738  28.507  1.00  0.00     0.039 A 
ATOM     32  C   UNL A   1      37.136  29.077  29.718  1.00  0.00     0.014 A 
ATOM     33  C   UNL A   1      37.799  29.565  27.428  1.00  0.00     0.014 A 
ATOM     34  C   UNL A   1      38.295  28.319  29.890  1.00  0.00     0.010 A 
ATOM     35  C   UNL A   1      38.982  28.880  27.630  1.00  0.00     0.010 A 
ATOM     36  C   UNL A   1      39.247  28.276  28.869  1.00  0.00    -0.014 A 
BRANCH  36  37
ATOM     37  C   UNL A   1      40.582  27.706  29.030  1.00  0.00     0.031 A 
ATOM     38  C   UNL A   1      40.886  26.329  28.569  1.00  0.00     0.074 A 
ATOM     39  C   UNL A   1      41.586  28.453  29.540  1.00  0.00     0.049 A 
ATOM     40  N   UNL A   1      41.843  25.598  29.043  1.00  0.00    -0.248 NA
ATOM     41  C   UNL A   1      40.100  25.650  27.545  1.00  0.00     0.031 C 
ATOM     42  C   UNL A   1      43.017  28.170  29.450  1.00  0.00     0.029 A 
ATOM     43  N   UNL A   1      41.503  29.539  30.408  1.00  0.00    -0.354 N 
ATOM     44  C   UNL A   1      41.975  24.499  28.223  1.00  0.00     0.074 A 
ATOM     45  C   UNL A   1      40.829  24.548  27.342  1.00  0.00     0.031 C 
ATOM     46  C   UNL A   1      43.662  28.882  30.385  1.00  0.00     0.029 A 
ATOM     47  C   UNL A   1      42.659  29.534  31.208  1.00  0.00     0.049 A 
ATOM     48  H   UNL A   1      40.766  30.193  30.453  1.00  0.00     0.167 HD
ATOM     49  C   UNL A   1      43.103  23.732  28.268  1.00  0.00     0.037 A 
ATOM     50  C   UNL A   1      42.591  29.438  32.569  1.00  0.00     0.037 A 
ATOM     51  C   UNL A   1      44.056  24.222  29.260  1.00  0.00     0.049 A 
ATOM     52  C   UNL A   1      43.280  28.221  33.143  1.00  0.00     0.074 A 
ATOM     53  C   UNL A   1      45.169  25.041  29.151  1.00  0.00     0.029 A 
ATOM     54  N   UNL A   1      43.773  24.122  30.618  1.00  0.00    -0.354 N 
ATOM     55  N   UNL A   1      43.654  27.193  32.436  1.00  0.00    -0.248 NA
ATOM     56  C   UNL A   1      43.569  28.052  34.565  1.00  0.00     0.031 C 
ATOM     57  C   UNL A   1      45.536  25.465  30.449  1.00  0.00     0.029 A 
ATOM     58  C   UNL A   1      44.649  24.904  31.350  1.00  0.00     0.049 A 
ATOM     59  H   UNL A   1      43.052  23.574  31.003  1.00  0.00     0.167 HD
ATOM     60  C   UNL A   1      44.158  26.225  33.265  1.00  0.00     0.074 A 
ATOM     61  C   UNL A   1      44.121  26.826  34.584  1.00  0.00     0.031 C 
ATOM     62  C   UNL A   1      44.545  25.002  32.796  1.00  0.00     0.037 A 
BRANCH  49  63
ATOM     63  C   UNL A   1      43.453  22.751  27.169  1.00  0.00     0.058 A 
ATOM     64  C   UNL A   1      42.799  21.505  27.063  1.00  0.00     0.135 A 
ATOM     65  C   UNL A   1      44.483  22.961  26.231  1.00  0.00     0.135 A 
ATOM     66  F   UNL A   1      41.729  21.205  27.808  1.00  0.00    -0.206 F 
ATOM     67  C   UNL A   1      43.226  20.495  26.201  1.00  0.00     0.059 A 
ATOM     68  C   UNL A   1      44.964  21.948  25.393  1.00  0.00     0.059 A 
ATOM     69  F   UNL A   1      45.051  24.169  26.094  1.00  0.00    -0.206 F 
ATOM     70  C   UNL A   1      44.340  20.708  25.401  1.00  0.00     0.060 A 
BRANCH  70  71
ATOM     71  S   UNL A   1      44.971  19.335  24.417  1.00  0.00     0.124 S 
ATOM     72  O   UNL A   1      46.398  19.357  24.727  1.00  0.00    -0.237 OA
ATOM     73  O   UNL A   1      44.223  18.206  24.956  1.00  0.00    -0.237 OA
ATOM     74  O   UNL A   1      44.633  19.719  23.048  1.00  0.00    -0.744 OA
ENDBRANCH  70  71
ENDBRANCH  49  63
BRANCH  50  75
ATOM     75  C   UNL A   1      41.380  30.085  33.142  1.00  0.00     0.058 A 
ATOM     76  C   UNL A   1      41.409  31.482  33.313  1.00  0.00     0.135 A 
ATOM     77  C   UNL A   1      40.126  29.463  33.070  1.00  0.00     0.135 A 
ATOM     78  F   UNL A   1      42.585  32.122  33.417  1.00  0.00    -0.206 F 
ATOM     79  C   UNL A   1      40.254  32.250  33.226  1.00  0.00     0.059 A 
ATOM     80  C   UNL A   1      38.953  30.215  32.987  1.00  0.00     0.059 A 
ATOM     81  F   UNL A   1      40.040  28.133  32.921  1.00  0.00    -0.206 F 
ATOM     82  C   UNL A   1      39.042  31.608  32.977  1.00  0.00     0.060 A 
BRANCH  82  83
ATOM     83  S   UNL A   1      37.629  32.624  32.479  1.00  0.00     0.124 S 
ATOM     84  O   UNL A   1      38.069  33.154  31.194  1.00  0.00    -0.237 OA
ATOM     85  O   UNL A   1      36.545  31.638  32.420  1.00  0.00    -0.237 OA
ATOM     86  O   UNL A   1      37.518  33.596  33.561  1.00  0.00    -0.744 OA
ENDBRANCH  82  83
ENDBRANCH  50  75
BRANCH  62  87
ATOM     87  C   UNL A   1      44.954  23.824  33.646  1.00  0.00     0.058 A 
ATOM     88  C   UNL A   1      44.098  22.759  33.973  1.00  0.00     0.135 A 
ATOM     89  C   UNL A   1      46.301  23.675  34.059  1.00  0.00     0.135 A 
ATOM     90  F   UNL A   1      42.828  22.733  33.543  1.00  0.00    -0.206 F 
ATOM     91  C   UNL A   1      44.523  21.657  34.718  1.00  0.00     0.059 A 
ATOM     92  C   UNL A   1      46.758  22.561  34.760  1.00  0.00     0.059 A 
ATOM     93  F   UNL A   1      47.221  24.612  33.787  1.00  0.00    -0.206 F 
ATOM     94  C   UNL A   1      45.855  21.567  35.110  1.00  0.00     0.060 A 
BRANCH  94  95
ATOM     95  S   UNL A   1      46.438  20.125  36.022  1.00  0.00     0.124 S 
ATOM     96  O   UNL A   1      45.982  20.432  37.374  1.00  0.00    -0.237 OA
ATOM     97  O   UNL A   1      45.749  19.018  35.364  1.00  0.00    -0.237 OA
ATOM     98  O   UNL A   1      47.881  20.166  35.813  1.00  0.00    -0.744 OA
ENDBRANCH  94  95
ENDBRANCH  62  87
ENDBRANCH  36  37
ENDBRANCH  28  31
ENDBRANCH  26  27
ENDBRANCH  25  26
ENDBRANCH   1  25
TORSDOF 17
ENDMDL
MODEL 3
REMARK VINA RESULT:     -13.8      1.604      2.523
REMARK SMILES CCC(=O)Nc1cc(NC(=O)/C=C/C(=O)NCCCNC(=O)c2ccc(-c3c4nc(c(-c5c(F)cc(S(=O)(=O)[O-])cc5F)c5ccc([nH]5)c(-c5c(F)cc(S(=O)(=O)[O-])cc5F)c5nc(c(-c6c(F)cc(S(=O)(=O)[O-])cc6F)c6ccc3[nH]6)C=C5)C=C4)cc2)ccc1C
REMARK SMILES IDX 17 1 16 2 14 3 15 4 13 6 12 7 10 8 9 9 11 11 8 12 6 13 7 14
REMARK SMILES IDX 91 15 90 16 92 17 89 18 5 19 3 20 4 21 2 23 1 24 18 25 19 26
REMARK SMILES IDX 20 27 21 28 22 30 23 31 24 32 88 33 25 34 87 35 26 36 27 37
REMARK SMILES IDX 28 38 81 39 29 40 86 41 80 42 82 43 30 44 85 45 79 46 78 47
REMARK SMILES IDX 31 49 65 50 44 51 64 52 45 53 48 54 63 55 83 56 46 57 47 58
REMARK SMILES IDX 62 60 84 61 49 62 32 63 33 64 42 65 34 66 35 67 41 68 43 69
REMARK SMILES IDX 36 70 37 71 38 72 39 73 40 74 66 75 67 76 76 77 68 78 69 79
REMARK SMILES IDX 75 80 77 81 70 82 71 83 72 84 73 85 74 86 50 87 51 88 60 89
REMARK SMILES IDX 52 90 53 91 59 92 61 93 54 94 55 95 56 96 57 97 58 98
REMARK H PARENT 16 5 9 10 5 22 20 29 82 48 48 59
REMARK Flexibility Score: inf
ROOT
ATOM      1  C   UNL A   1      32.151  28.984  26.134  1.00  0.00     0.118 C 
ENDROOT
BRANCH   1   2
ATOM      2  N   UNL A   1      31.768  27.724  26.766  1.00  0.00    -0.352 N 
ATOM      3  C   UNL A   1      31.567  26.495  26.225  1.00  0.00     0.244 C 
ATOM      4  O   UNL A   1      31.237  25.534  26.917  1.00  0.00    -0.270 OA
ATOM      5  H   UNL A   1      31.634  27.773  27.741  1.00  0.00     0.163 HD
BRANCH   3   6
ATOM      6  C   UNL A   1      31.743  26.286  24.775  1.00  0.00     0.077 C 
ATOM      7  C   UNL A   1      32.858  25.693  24.327  1.00  0.00     0.077 C 
BRANCH   7   8
ATOM      8  C   UNL A   1      32.907  25.155  22.960  1.00  0.00     0.248 C 
ATOM      9  N   UNL A   1      33.597  24.003  22.692  1.00  0.00    -0.322 N 
ATOM     10  H   UNL A   1      33.570  23.738  21.744  1.00  0.00     0.170 HD
ATOM     11  O   UNL A   1      32.326  25.751  22.053  1.00  0.00    -0.270 OA
BRANCH   9  12
ATOM     12  C   UNL A   1      34.338  23.123  23.507  1.00  0.00     0.043 A 
ATOM     13  C   UNL A   1      34.551  21.197  24.986  1.00  0.00     0.046 A 
ATOM     14  C   UNL A   1      33.782  22.206  24.397  1.00  0.00     0.052 A 
ATOM     15  C   UNL A   1      35.921  21.117  24.711  1.00  0.00    -0.027 A 
ATOM     16  C   UNL A   1      36.508  22.140  23.948  1.00  0.00     0.008 A 
ATOM     17  C   UNL A   1      36.769  19.917  25.031  1.00  0.00     0.046 C 
ATOM     18  C   UNL A   1      35.724  23.133  23.353  1.00  0.00     0.026 A 
BRANCH  13  19
ATOM     19  N   UNL A   1      33.845  20.175  25.634  1.00  0.00    -0.326 N 
ATOM     20  C   UNL A   1      33.176  19.113  25.095  1.00  0.00     0.224 C 
ATOM     21  O   UNL A   1      32.382  18.470  25.786  1.00  0.00    -0.275 OA
ATOM     22  H   UNL A   1      33.829  20.229  26.617  1.00  0.00     0.169 HD
BRANCH  20  23
ATOM     23  C   UNL A   1      33.523  18.642  23.694  1.00  0.00     0.097 C 
ATOM     24  C   UNL A   1      33.866  17.175  23.561  1.00  0.00     0.014 C 
ENDBRANCH  20  23
ENDBRANCH  13  19
ENDBRANCH   9  12
ENDBRANCH   7   8
ENDBRANCH   3   6
ENDBRANCH   1   2
BRANCH   1  25
ATOM     25  C   UNL A   1      32.910  29.922  27.068  1.00  0.00     0.042 C 
BRANCH  25  26
ATOM     26  C   UNL A   1      34.398  29.613  27.094  1.00  0.00     0.118 C 
BRANCH  26  27
ATOM     27  N   UNL A   1      35.229  30.767  27.405  1.00  0.00    -0.352 N 
ATOM     28  C   UNL A   1      36.019  30.766  28.546  1.00  0.00     0.251 C 
ATOM     29  H   UNL A   1      35.231  31.548  26.806  1.00  0.00     0.163 HD
ATOM     30  O   UNL A   1      35.920  31.567  29.468  1.00  0.00    -0.269 OA
BRANCH  28  31
ATOM     31  C   UNL A   1      37.003  29.667  28.588  1.00  0.00     0.039 A 
ATOM     32  C   UNL A   1      37.231  28.995  29.789  1.00  0.00     0.014 A 
ATOM     33  C   UNL A   1      37.865  29.522  27.500  1.00  0.00     0.014 A 
ATOM     34  C   UNL A   1      38.403  28.254  29.942  1.00  0.00     0.010 A 
ATOM     35  C   UNL A   1      39.061  28.854  27.683  1.00  0.00     0.010 A 
ATOM     36  C   UNL A   1      39.347  28.239  28.912  1.00  0.00    -0.014 A 
BRANCH  36  37
ATOM     37  C   UNL A   1      40.693  27.689  29.054  1.00  0.00     0.031 A 
ATOM     38  C   UNL A   1      41.018  26.329  28.560  1.00  0.00     0.074 A 
ATOM     39  C   UNL A   1      41.686  28.442  29.576  1.00  0.00     0.049 A 
ATOM     40  N   UNL A   1      41.990  25.603  29.012  1.00  0.00    -0.248 NA
ATOM     41  C   UNL A   1      40.239  25.659  27.524  1.00  0.00     0.031 C 
ATOM     42  C   UNL A   1      43.120  28.186  29.474  1.00  0.00     0.029 A 
ATOM     43  N   UNL A   1      41.587  29.506  30.470  1.00  0.00    -0.354 N 
ATOM     44  C   UNL A   1      42.137  24.526  28.167  1.00  0.00     0.074 A 
ATOM     45  C   UNL A   1      40.986  24.576  27.292  1.00  0.00     0.031 C 
ATOM     46  C   UNL A   1      43.758  28.887  30.422  1.00  0.00     0.029 A 
ATOM     47  C   UNL A   1      42.747  29.502  31.265  1.00  0.00     0.049 A 
ATOM     48  H   UNL A   1      40.840  30.145  30.533  1.00  0.00     0.167 HD
ATOM     49  C   UNL A   1      43.279  23.779  28.190  1.00  0.00     0.037 A 
ATOM     50  C   UNL A   1      42.688  29.374  32.623  1.00  0.00     0.037 A 
ATOM     51  C   UNL A   1      44.228  24.262  29.189  1.00  0.00     0.049 A 
ATOM     52  C   UNL A   1      43.400  28.157  33.166  1.00  0.00     0.074 A 
ATOM     53  C   UNL A   1      45.325  25.102  29.094  1.00  0.00     0.029 A 
ATOM     54  N   UNL A   1      43.953  24.126  30.545  1.00  0.00    -0.354 N 
ATOM     55  N   UNL A   1      43.789  27.152  32.433  1.00  0.00    -0.248 NA
ATOM     56  C   UNL A   1      43.699  27.960  34.583  1.00  0.00     0.031 C 
ATOM     57  C   UNL A   1      45.691  25.503  30.399  1.00  0.00     0.029 A 
ATOM     58  C   UNL A   1      44.818  24.906  31.291  1.00  0.00     0.049 A 
ATOM     59  H   UNL A   1      43.243  23.557  30.921  1.00  0.00     0.167 HD
ATOM     60  C   UNL A   1      44.314  26.174  33.238  1.00  0.00     0.074 A 
ATOM     61  C   UNL A   1      44.272  26.744  34.571  1.00  0.00     0.031 C 
ATOM     62  C   UNL A   1      44.719  24.968  32.740  1.00  0.00     0.037 A 
BRANCH  49  63
ATOM     63  C   UNL A   1      43.640  22.829  27.067  1.00  0.00     0.058 A 
ATOM     64  C   UNL A   1      42.952  21.610  26.887  1.00  0.00     0.135 A 
ATOM     65  C   UNL A   1      44.712  23.041  26.177  1.00  0.00     0.135 A 
ATOM     66  F   UNL A   1      41.845  21.317  27.579  1.00  0.00    -0.206 F 
ATOM     67  C   UNL A   1      43.381  20.621  26.002  1.00  0.00     0.059 A 
ATOM     68  C   UNL A   1      45.194  22.046  25.319  1.00  0.00     0.059 A 
ATOM     69  F   UNL A   1      45.322  24.235  26.109  1.00  0.00    -0.206 F 
ATOM     70  C   UNL A   1      44.532  20.827  25.254  1.00  0.00     0.060 A 
BRANCH  70  71
ATOM     71  S   UNL A   1      45.157  19.473  24.241  1.00  0.00     0.124 S 
ATOM     72  O   UNL A   1      44.552  19.749  22.941  1.00  0.00    -0.237 OA
ATOM     73  O   UNL A   1      46.599  19.674  24.324  1.00  0.00    -0.237 OA
ATOM     74  O   UNL A   1      44.647  18.283  24.917  1.00  0.00    -0.744 OA
ENDBRANCH  70  71
ENDBRANCH  49  63
BRANCH  50  75
ATOM     75  C   UNL A   1      41.468  29.987  33.216  1.00  0.00     0.058 A 
ATOM     76  C   UNL A   1      41.439  31.388  33.340  1.00  0.00     0.135 A 
ATOM     77  C   UNL A   1      40.242  29.307  33.208  1.00  0.00     0.135 A 
ATOM     78  F   UNL A   1      42.588  32.083  33.381  1.00  0.00    -0.206 F 
ATOM     79  C   UNL A   1      40.248  32.101  33.267  1.00  0.00     0.059 A 
ATOM     80  C   UNL A   1      39.034  30.003  33.142  1.00  0.00     0.059 A 
ATOM     81  F   UNL A   1      40.211  27.970  33.107  1.00  0.00    -0.206 F 
ATOM     82  C   UNL A   1      39.059  31.397  33.082  1.00  0.00     0.060 A 
BRANCH  82  83
ATOM     83  S   UNL A   1      37.585  32.332  32.600  1.00  0.00     0.124 S 
ATOM     84  O   UNL A   1      36.595  31.276  32.426  1.00  0.00    -0.237 OA
ATOM     85  O   UNL A   1      37.380  33.205  33.761  1.00  0.00    -0.237 OA
ATOM     86  O   UNL A   1      38.005  33.015  31.383  1.00  0.00    -0.744 OA
ENDBRANCH  82  83
ENDBRANCH  50  75
BRANCH  62  87
ATOM     87  C   UNL A   1      45.153  23.779  33.560  1.00  0.00     0.058 A 
ATOM     88  C   UNL A   1      46.446  23.619  34.084  1.00  0.00     0.135 A 
ATOM     89  C   UNL A   1      44.207  22.802  33.957  1.00  0.00     0.135 A 
ATOM     90  F   UNL A   1      47.401  24.538  33.870  1.00  0.00    -0.206 F 
ATOM     91  C   UNL A   1      46.802  22.531  34.886  1.00  0.00     0.059 A 
ATOM     92  C   UNL A   1      44.527  21.737  34.796  1.00  0.00     0.059 A 
ATOM     93  F   UNL A   1      42.932  22.858  33.544  1.00  0.00    -0.206 F 
ATOM     94  C   UNL A   1      45.836  21.593  35.235  1.00  0.00     0.060 A 
BRANCH  94  95
ATOM     95  S   UNL A   1      46.259  20.214  36.316  1.00  0.00     0.124 S 
ATOM     96  O   UNL A   1      47.704  20.128  36.127  1.00  0.00    -0.237 OA
ATOM     97  O   UNL A   1      45.824  20.679  37.630  1.00  0.00    -0.237 OA
ATOM     98  O   UNL A   1      45.480  19.112  35.761  1.00  0.00    -0.744 OA
ENDBRANCH  94  95
ENDBRANCH  62  87
ENDBRANCH  36  37
ENDBRANCH  28  31
ENDBRANCH  26  27
ENDBRANCH  25  26
ENDBRANCH   1  25
TORSDOF 17
ENDMDL
