MODEL 1
REMARK VINA RESULT:     -13.2      0.000      0.000
REMARK SMILES O=C(NCCCNC(=O)c1ccc(N2C(=O)/C(=C\C3=Cc4ccccc4OC3)SC2=S)cc1)c1ccc(-c2c3nc(c(-c4c(F)cc(S(=O)(=O)[O-])cc4F)c4ccc([nH]4)c(-c4c(F)cc(S(=O)(=O)[O-])cc4F)c4nc(c(-c5c(F)cc(S(=O)(=O)[O-])cc5F)c5ccc2[nH]5)C=C4)C=C3)cc1
REMARK SMILES IDX 4 1 3 2 1 3 2 4 34 6 35 7 99 8 36 9 98 10 37 11 38 12 39 13
REMARK SMILES IDX 92 14 40 15 97 16 91 17 93 18 41 19 96 20 90 21 89 22 42 24
REMARK SMILES IDX 76 25 55 26 75 27 56 28 59 29 74 30 94 31 57 32 58 33 73 35
REMARK SMILES IDX 95 36 60 37 43 38 44 39 53 40 45 41 46 42 52 43 54 44 47 45
REMARK SMILES IDX 48 46 49 47 50 48 51 49 77 50 78 51 87 52 79 53 80 54 86 55
REMARK SMILES IDX 88 56 81 57 82 58 83 59 84 60 85 61 61 62 62 63 71 64 63 65
REMARK SMILES IDX 64 66 70 67 72 68 65 69 66 70 67 71 68 72 69 73 5 74 6 75
REMARK SMILES IDX 7 76 8 77 9 79 10 80 11 81 33 82 12 83 32 84 13 85 14 86
REMARK SMILES IDX 15 87 30 88 16 89 17 90 29 91 31 92 18 93 19 94 20 95 28 96
REMARK SMILES IDX 21 97 27 98 22 99 26 100 23 101 25 102 24 103
REMARK H PARENT 3 5 93 23 59 34 7 78
REMARK Flexibility Score: inf
ROOT
ATOM      1  C   UNL A   1      36.298  32.451  28.853  1.00  0.00     0.118 C 
ENDROOT
BRANCH   1   2
ATOM      2  N   UNL A   1      35.943  31.713  30.054  1.00  0.00    -0.352 N 
ATOM      3  O   UNL A   1      35.976  30.053  31.563  1.00  0.00    -0.269 OA
ATOM      4  C   UNL A   1      36.554  30.635  30.648  1.00  0.00     0.251 C 
ATOM      5  H   UNL A   1      35.137  32.037  30.516  1.00  0.00     0.163 HD
BRANCH   4   6
ATOM      6  C   UNL A   1      37.883  30.161  30.196  1.00  0.00     0.039 A 
ATOM      7  C   UNL A   1      38.165  29.969  28.840  1.00  0.00     0.014 A 
ATOM      8  C   UNL A   1      38.895  29.977  31.145  1.00  0.00     0.014 A 
ATOM      9  C   UNL A   1      39.413  29.493  28.447  1.00  0.00     0.010 A 
ATOM     10  C   UNL A   1      40.171  29.571  30.742  1.00  0.00     0.010 A 
ATOM     11  C   UNL A   1      40.438  29.313  29.389  1.00  0.00    -0.014 A 
BRANCH  11  12
ATOM     12  C   UNL A   1      41.808  28.975  28.928  1.00  0.00     0.031 A 
ATOM     13  C   UNL A   1      42.886  30.018  28.846  1.00  0.00     0.074 A 
ATOM     14  C   UNL A   1      42.065  27.702  28.567  1.00  0.00     0.049 A 
ATOM     15  N   UNL A   1      44.125  29.885  28.446  1.00  0.00    -0.248 NA
ATOM     16  C   UNL A   1      42.533  31.387  29.254  1.00  0.00     0.031 C 
ATOM     17  C   UNL A   1      41.083  26.611  28.574  1.00  0.00     0.029 A 
ATOM     18  N   UNL A   1      43.215  27.105  28.120  1.00  0.00    -0.354 N 
ATOM     19  C   UNL A   1      44.695  31.149  28.533  1.00  0.00     0.074 A 
ATOM     20  C   UNL A   1      43.663  32.043  29.015  1.00  0.00     0.031 C 
ATOM     21  C   UNL A   1      41.676  25.480  28.165  1.00  0.00     0.029 A 
ATOM     22  C   UNL A   1      43.061  25.771  27.818  1.00  0.00     0.049 A 
ATOM     23  H   UNL A   1      44.069  27.584  28.024  1.00  0.00     0.167 HD
ATOM     24  C   UNL A   1      45.964  31.521  28.241  1.00  0.00     0.037 A 
ATOM     25  C   UNL A   1      43.927  24.887  27.289  1.00  0.00     0.037 A 
ATOM     26  C   UNL A   1      46.992  30.616  27.794  1.00  0.00     0.049 A 
ATOM     27  C   UNL A   1      45.321  25.337  26.960  1.00  0.00     0.074 A 
ATOM     28  C   UNL A   1      48.333  30.881  27.575  1.00  0.00     0.029 A 
ATOM     29  N   UNL A   1      46.794  29.281  27.481  1.00  0.00    -0.354 N 
ATOM     30  N   UNL A   1      45.864  26.517  27.133  1.00  0.00    -0.248 NA
ATOM     31  C   UNL A   1      46.216  24.342  26.354  1.00  0.00     0.031 C 
ATOM     32  C   UNL A   1      48.935  29.718  27.082  1.00  0.00     0.029 A 
ATOM     33  C   UNL A   1      47.978  28.719  27.030  1.00  0.00     0.049 A 
ATOM     34  H   UNL A   1      45.937  28.801  27.567  1.00  0.00     0.167 HD
ATOM     35  C   UNL A   1      47.164  26.408  26.655  1.00  0.00     0.074 A 
ATOM     36  C   UNL A   1      47.334  25.039  26.213  1.00  0.00     0.031 C 
ATOM     37  C   UNL A   1      48.126  27.359  26.580  1.00  0.00     0.037 A 
BRANCH  24  38
ATOM     38  C   UNL A   1      46.336  32.970  28.387  1.00  0.00     0.058 A 
ATOM     39  C   UNL A   1      46.176  33.882  27.334  1.00  0.00     0.135 A 
ATOM     40  C   UNL A   1      46.750  33.471  29.633  1.00  0.00     0.135 A 
ATOM     41  F   UNL A   1      45.793  33.453  26.121  1.00  0.00    -0.206 F 
ATOM     42  C   UNL A   1      46.412  35.242  27.510  1.00  0.00     0.059 A 
ATOM     43  C   UNL A   1      46.976  34.830  29.835  1.00  0.00     0.059 A 
ATOM     44  F   UNL A   1      46.919  32.639  30.672  1.00  0.00    -0.206 F 
ATOM     45  C   UNL A   1      46.806  35.708  28.766  1.00  0.00     0.060 A 
BRANCH  45  46
ATOM     46  S   UNL A   1      47.059  37.482  28.989  1.00  0.00     0.124 S 
ATOM     47  O   UNL A   1      45.685  37.975  28.984  1.00  0.00    -0.237 OA
ATOM     48  O   UNL A   1      47.747  37.541  30.275  1.00  0.00    -0.237 OA
ATOM     49  O   UNL A   1      47.866  37.859  27.832  1.00  0.00    -0.744 OA
ENDBRANCH  45  46
ENDBRANCH  24  38
BRANCH  25  50
ATOM     50  C   UNL A   1      43.481  23.501  26.993  1.00  0.00     0.058 A 
ATOM     51  C   UNL A   1      43.190  23.094  25.685  1.00  0.00     0.135 A 
ATOM     52  C   UNL A   1      43.341  22.557  28.022  1.00  0.00     0.135 A 
ATOM     53  F   UNL A   1      43.305  23.965  24.670  1.00  0.00    -0.206 F 
ATOM     54  C   UNL A   1      42.756  21.802  25.405  1.00  0.00     0.059 A 
ATOM     55  C   UNL A   1      42.933  21.252  27.766  1.00  0.00     0.059 A 
ATOM     56  F   UNL A   1      43.624  22.894  29.290  1.00  0.00    -0.206 F 
ATOM     57  C   UNL A   1      42.627  20.890  26.455  1.00  0.00     0.060 A 
BRANCH  57  58
ATOM     58  S   UNL A   1      42.092  19.205  26.087  1.00  0.00     0.124 S 
ATOM     59  O   UNL A   1      42.951  18.867  24.957  1.00  0.00    -0.237 OA
ATOM     60  O   UNL A   1      42.378  18.507  27.337  1.00  0.00    -0.237 OA
ATOM     61  O   UNL A   1      40.674  19.366  25.780  1.00  0.00    -0.744 OA
ENDBRANCH  57  58
ENDBRANCH  25  50
BRANCH  37  62
ATOM     62  C   UNL A   1      49.445  26.954  25.990  1.00  0.00     0.058 A 
ATOM     63  C   UNL A   1      49.728  27.167  24.632  1.00  0.00     0.135 A 
ATOM     64  C   UNL A   1      50.450  26.394  26.794  1.00  0.00     0.135 A 
ATOM     65  F   UNL A   1      48.793  27.689  23.821  1.00  0.00    -0.206 F 
ATOM     66  C   UNL A   1      50.960  26.827  24.087  1.00  0.00     0.059 A 
ATOM     67  C   UNL A   1      51.698  26.066  26.274  1.00  0.00     0.059 A 
ATOM     68  F   UNL A   1      50.229  26.176  28.099  1.00  0.00    -0.206 F 
ATOM     69  C   UNL A   1      51.941  26.279  24.917  1.00  0.00     0.060 A 
BRANCH  69  70
ATOM     70  S   UNL A   1      53.552  25.881  24.207  1.00  0.00     0.124 S 
ATOM     71  O   UNL A   1      53.260  25.911  22.779  1.00  0.00    -0.237 OA
ATOM     72  O   UNL A   1      54.392  26.965  24.707  1.00  0.00    -0.237 OA
ATOM     73  O   UNL A   1      53.848  24.563  24.760  1.00  0.00    -0.744 OA
ENDBRANCH  69  70
ENDBRANCH  37  62
ENDBRANCH  11  12
ENDBRANCH   4   6
ENDBRANCH   1   2
BRANCH   1  74
ATOM     74  C   UNL A   1      35.464  32.047  27.644  1.00  0.00     0.042 C 
BRANCH  74  75
ATOM     75  C   UNL A   1      34.789  30.684  27.754  1.00  0.00     0.118 C 
BRANCH  75  76
ATOM     76  N   UNL A   1      33.338  30.769  27.798  1.00  0.00    -0.352 N 
ATOM     77  C   UNL A   1      32.377  30.045  27.137  1.00  0.00     0.251 C 
ATOM     78  H   UNL A   1      32.986  31.461  28.402  1.00  0.00     0.163 HD
ATOM     79  O   UNL A   1      31.200  30.384  27.224  1.00  0.00    -0.269 OA
BRANCH  77  80
ATOM     80  C   UNL A   1      32.732  28.880  26.297  1.00  0.00     0.039 A 
ATOM     81  C   UNL A   1      32.296  27.618  26.697  1.00  0.00     0.016 A 
ATOM     82  C   UNL A   1      33.515  28.995  25.152  1.00  0.00     0.016 A 
ATOM     83  C   UNL A   1      32.576  26.492  25.911  1.00  0.00     0.027 A 
ATOM     84  C   UNL A   1      33.768  27.869  24.355  1.00  0.00     0.027 A 
ATOM     85  C   UNL A   1      33.302  26.591  24.712  1.00  0.00     0.051 A 
BRANCH  85  86
ATOM     86  N   UNL A   1      33.464  25.464  23.830  1.00  0.00    -0.261 N 
ATOM     87  C   UNL A   1      34.353  24.437  24.157  1.00  0.00     0.270 C 
ATOM     88  C   UNL A   1      32.821  25.287  22.609  1.00  0.00     0.152 C 
ATOM     89  O   UNL A   1      35.381  24.502  24.810  1.00  0.00    -0.268 OA
ATOM     90  C   UNL A   1      33.958  23.199  23.428  1.00  0.00     0.081 C 
ATOM     91  S   UNL A   1      33.187  23.675  21.962  1.00  0.00    -0.054 SA
ATOM     92  S   UNL A   1      31.907  26.346  21.689  1.00  0.00    -0.051 S 
ATOM     93  C   UNL A   1      33.943  21.925  23.851  1.00  0.00     0.028 C 
BRANCH  93  94
ATOM     94  C   UNL A   1      34.139  21.381  25.204  1.00  0.00    -0.009 C 
ATOM     95  C   UNL A   1      33.273  20.551  25.822  1.00  0.00     0.019 C 
ATOM     96  C   UNL A   1      35.585  20.925  25.397  1.00  0.00     0.265 C 
ATOM     97  C   UNL A   1      33.533  19.134  25.428  1.00  0.00     0.017 A 
ATOM     98  O   UNL A   1      35.802  19.683  24.691  1.00  0.00    -0.488 OA
ATOM     99  C   UNL A   1      32.529  18.173  25.558  1.00  0.00     0.012 A 
ATOM    100  C   UNL A   1      34.764  18.785  24.837  1.00  0.00     0.127 A 
ATOM    101  C   UNL A   1      32.730  16.889  25.049  1.00  0.00     0.001 A 
ATOM    102  C   UNL A   1      34.951  17.510  24.310  1.00  0.00     0.047 A 
ATOM    103  C   UNL A   1      33.930  16.565  24.411  1.00  0.00     0.004 A 
ENDBRANCH  93  94
ENDBRANCH  85  86
ENDBRANCH  77  80
ENDBRANCH  75  76
ENDBRANCH  74  75
ENDBRANCH   1  74
TORSDOF 15
ENDMDL
MODEL 2
REMARK VINA RESULT:     -13.2      6.286     12.350
REMARK SMILES O=C(NCCCNC(=O)c1ccc(N2C(=O)/C(=C\C3=Cc4ccccc4OC3)SC2=S)cc1)c1ccc(-c2c3nc(c(-c4c(F)cc(S(=O)(=O)[O-])cc4F)c4ccc([nH]4)c(-c4c(F)cc(S(=O)(=O)[O-])cc4F)c4nc(c(-c5c(F)cc(S(=O)(=O)[O-])cc5F)c5ccc2[nH]5)C=C4)C=C3)cc1
REMARK SMILES IDX 4 1 3 2 1 3 2 4 34 6 35 7 99 8 36 9 98 10 37 11 38 12 39 13
REMARK SMILES IDX 92 14 40 15 97 16 91 17 93 18 41 19 96 20 90 21 89 22 42 24
REMARK SMILES IDX 76 25 55 26 75 27 56 28 59 29 74 30 94 31 57 32 58 33 73 35
REMARK SMILES IDX 95 36 60 37 43 38 44 39 53 40 45 41 46 42 52 43 54 44 47 45
REMARK SMILES IDX 48 46 49 47 50 48 51 49 77 50 78 51 87 52 79 53 80 54 86 55
REMARK SMILES IDX 88 56 81 57 82 58 83 59 84 60 85 61 61 62 62 63 71 64 63 65
REMARK SMILES IDX 64 66 70 67 72 68 65 69 66 70 67 71 68 72 69 73 5 74 6 75
REMARK SMILES IDX 7 76 8 77 9 79 10 80 11 81 33 82 12 83 32 84 13 85 14 86
REMARK SMILES IDX 15 87 30 88 16 89 17 90 29 91 31 92 18 93 19 94 20 95 28 96
REMARK SMILES IDX 21 97 27 98 22 99 26 100 23 101 25 102 24 103
REMARK H PARENT 3 5 93 23 59 34 7 78
REMARK Flexibility Score: inf
ROOT
ATOM      1  C   UNL A   1      39.965  23.183  26.892  1.00  0.00     0.118 C 
ENDROOT
BRANCH   1   2
ATOM      2  N   UNL A   1      41.090  23.663  26.107  1.00  0.00    -0.352 N 
ATOM      3  O   UNL A   1      42.571  25.124  25.267  1.00  0.00    -0.269 OA
ATOM      4  C   UNL A   1      41.761  24.862  26.153  1.00  0.00     0.251 C 
ATOM      5  H   UNL A   1      41.426  23.028  25.434  1.00  0.00     0.163 HD
BRANCH   4   6
ATOM      6  C   UNL A   1      41.513  25.837  27.240  1.00  0.00     0.039 A 
ATOM      7  C   UNL A   1      40.468  25.662  28.152  1.00  0.00     0.014 A 
ATOM      8  C   UNL A   1      42.395  26.913  27.397  1.00  0.00     0.014 A 
ATOM      9  C   UNL A   1      40.241  26.612  29.145  1.00  0.00     0.010 A 
ATOM     10  C   UNL A   1      42.209  27.826  28.440  1.00  0.00     0.010 A 
ATOM     11  C   UNL A   1      41.123  27.690  29.317  1.00  0.00    -0.014 A 
BRANCH  11  12
ATOM     12  C   UNL A   1      40.963  28.590  30.486  1.00  0.00     0.031 A 
ATOM     13  C   UNL A   1      41.808  28.431  31.718  1.00  0.00     0.074 A 
ATOM     14  C   UNL A   1      40.024  29.555  30.426  1.00  0.00     0.049 A 
ATOM     15  N   UNL A   1      41.776  29.124  32.828  1.00  0.00    -0.248 NA
ATOM     16  C   UNL A   1      42.811  27.354  31.714  1.00  0.00     0.031 C 
ATOM     17  C   UNL A   1      39.120  29.781  29.291  1.00  0.00     0.029 A 
ATOM     18  N   UNL A   1      39.662  30.521  31.330  1.00  0.00    -0.354 N 
ATOM     19  C   UNL A   1      42.734  28.560  33.661  1.00  0.00     0.074 A 
ATOM     20  C   UNL A   1      43.328  27.458  32.933  1.00  0.00     0.031 C 
ATOM     21  C   UNL A   1      38.322  30.823  29.563  1.00  0.00     0.029 A 
ATOM     22  C   UNL A   1      38.617  31.308  30.905  1.00  0.00     0.049 A 
ATOM     23  H   UNL A   1      40.108  30.639  32.199  1.00  0.00     0.167 HD
ATOM     24  C   UNL A   1      43.086  28.936  34.914  1.00  0.00     0.037 A 
ATOM     25  C   UNL A   1      37.947  32.289  31.536  1.00  0.00     0.037 A 
ATOM     26  C   UNL A   1      42.511  30.056  35.615  1.00  0.00     0.049 A 
ATOM     27  C   UNL A   1      38.349  32.669  32.932  1.00  0.00     0.074 A 
ATOM     28  C   UNL A   1      42.877  30.577  36.845  1.00  0.00     0.029 A 
ATOM     29  N   UNL A   1      41.444  30.814  35.162  1.00  0.00    -0.354 N 
ATOM     30  N   UNL A   1      39.318  32.180  33.668  1.00  0.00    -0.248 NA
ATOM     31  C   UNL A   1      37.565  33.724  33.588  1.00  0.00     0.031 C 
ATOM     32  C   UNL A   1      41.998  31.619  37.158  1.00  0.00     0.029 A 
ATOM     33  C   UNL A   1      41.110  31.772  36.107  1.00  0.00     0.049 A 
ATOM     34  H   UNL A   1      40.990  30.691  34.297  1.00  0.00     0.167 HD
ATOM     35  C   UNL A   1      39.257  32.865  34.875  1.00  0.00     0.074 A 
ATOM     36  C   UNL A   1      38.176  33.822  34.760  1.00  0.00     0.031 C 
ATOM     37  C   UNL A   1      40.022  32.708  35.982  1.00  0.00     0.037 A 
BRANCH  24  38
ATOM     38  C   UNL A   1      44.140  28.139  35.630  1.00  0.00     0.058 A 
ATOM     39  C   UNL A   1      45.503  28.442  35.508  1.00  0.00     0.135 A 
ATOM     40  C   UNL A   1      43.770  27.132  36.538  1.00  0.00     0.135 A 
ATOM     41  F   UNL A   1      45.911  29.388  34.646  1.00  0.00    -0.206 F 
ATOM     42  C   UNL A   1      46.466  27.776  36.261  1.00  0.00     0.059 A 
ATOM     43  C   UNL A   1      44.714  26.465  37.313  1.00  0.00     0.059 A 
ATOM     44  F   UNL A   1      42.478  26.804  36.691  1.00  0.00    -0.206 F 
ATOM     45  C   UNL A   1      46.060  26.793  37.167  1.00  0.00     0.060 A 
BRANCH  45  46
ATOM     46  S   UNL A   1      47.317  25.975  38.172  1.00  0.00     0.124 S 
ATOM     47  O   UNL A   1      48.212  27.086  38.481  1.00  0.00    -0.237 OA
ATOM     48  O   UNL A   1      46.536  25.462  39.293  1.00  0.00    -0.237 OA
ATOM     49  O   UNL A   1      47.863  24.960  37.276  1.00  0.00    -0.744 OA
ENDBRANCH  45  46
ENDBRANCH  24  38
BRANCH  25  50
ATOM     50  C   UNL A   1      36.793  32.946  30.868  1.00  0.00     0.058 A 
ATOM     51  C   UNL A   1      35.473  32.608  31.197  1.00  0.00     0.135 A 
ATOM     52  C   UNL A   1      36.995  33.928  29.887  1.00  0.00     0.135 A 
ATOM     53  F   UNL A   1      35.232  31.671  32.127  1.00  0.00    -0.206 F 
ATOM     54  C   UNL A   1      34.391  33.208  30.562  1.00  0.00     0.059 A 
ATOM     55  C   UNL A   1      35.930  34.561  29.255  1.00  0.00     0.059 A 
ATOM     56  F   UNL A   1      38.240  34.298  29.550  1.00  0.00    -0.206 F 
ATOM     57  C   UNL A   1      34.631  34.181  29.590  1.00  0.00     0.060 A 
BRANCH  57  58
ATOM     58  S   UNL A   1      33.224  34.980  28.788  1.00  0.00     0.124 S 
ATOM     59  O   UNL A   1      32.735  33.910  27.926  1.00  0.00    -0.237 OA
ATOM     60  O   UNL A   1      32.373  35.325  29.923  1.00  0.00    -0.237 OA
ATOM     61  O   UNL A   1      33.832  36.117  28.104  1.00  0.00    -0.744 OA
ENDBRANCH  57  58
ENDBRANCH  25  50
BRANCH  37  62
ATOM     62  C   UNL A   1      39.710  33.584  37.160  1.00  0.00     0.058 A 
ATOM     63  C   UNL A   1      38.847  33.149  38.178  1.00  0.00     0.135 A 
ATOM     64  C   UNL A   1      40.313  34.843  37.299  1.00  0.00     0.135 A 
ATOM     65  F   UNL A   1      38.237  31.956  38.084  1.00  0.00    -0.206 F 
ATOM     66  C   UNL A   1      38.581  33.941  39.289  1.00  0.00     0.059 A 
ATOM     67  C   UNL A   1      40.078  35.642  38.413  1.00  0.00     0.059 A 
ATOM     68  F   UNL A   1      41.150  35.299  36.354  1.00  0.00    -0.206 F 
ATOM     69  C   UNL A   1      39.204  35.186  39.399  1.00  0.00     0.060 A 
BRANCH  69  70
ATOM     70  S   UNL A   1      38.886  36.186  40.867  1.00  0.00     0.124 S 
ATOM     71  O   UNL A   1      38.562  37.480  40.277  1.00  0.00    -0.237 OA
ATOM     72  O   UNL A   1      37.774  35.479  41.495  1.00  0.00    -0.237 OA
ATOM     73  O   UNL A   1      40.149  36.127  41.597  1.00  0.00    -0.744 OA
ENDBRANCH  69  70
ENDBRANCH  37  62
ENDBRANCH  11  12
ENDBRANCH   4   6
ENDBRANCH   1   2
BRANCH   1  74
ATOM     74  C   UNL A   1      39.335  21.923  26.312  1.00  0.00     0.042 C 
BRANCH  74  75
ATOM     75  C   UNL A   1      38.127  22.162  25.413  1.00  0.00     0.118 C 
BRANCH  75  76
ATOM     76  N   UNL A   1      37.457  20.933  25.020  1.00  0.00    -0.352 N 
ATOM     77  C   UNL A   1      36.124  20.604  25.003  1.00  0.00     0.251 C 
ATOM     78  H   UNL A   1      38.059  20.217  24.715  1.00  0.00     0.163 HD
ATOM     79  O   UNL A   1      35.792  19.447  24.759  1.00  0.00    -0.269 OA
BRANCH  77  80
ATOM     80  C   UNL A   1      35.079  21.608  25.301  1.00  0.00     0.039 A 
ATOM     81  C   UNL A   1      34.391  22.184  24.234  1.00  0.00     0.016 A 
ATOM     82  C   UNL A   1      34.790  22.024  26.597  1.00  0.00     0.016 A 
ATOM     83  C   UNL A   1      33.366  23.110  24.472  1.00  0.00     0.027 A 
ATOM     84  C   UNL A   1      33.745  22.930  26.831  1.00  0.00     0.027 A 
ATOM     85  C   UNL A   1      33.004  23.492  25.775  1.00  0.00     0.051 A 
BRANCH  85  86
ATOM     86  N   UNL A   1      31.860  24.328  26.029  1.00  0.00    -0.261 N 
ATOM     87  C   UNL A   1      31.973  25.718  25.953  1.00  0.00     0.270 C 
ATOM     88  C   UNL A   1      30.591  23.883  26.387  1.00  0.00     0.152 C 
ATOM     89  O   UNL A   1      32.949  26.414  26.175  1.00  0.00    -0.268 OA
ATOM     90  C   UNL A   1      30.624  26.305  25.714  1.00  0.00     0.081 C 
ATOM     91  S   UNL A   1      29.458  25.249  26.416  1.00  0.00    -0.054 SA
ATOM     92  S   UNL A   1      30.054  22.369  26.861  1.00  0.00    -0.051 S 
ATOM     93  C   UNL A   1      30.263  27.322  24.915  1.00  0.00     0.028 C 
BRANCH  93  94
ATOM     94  C   UNL A   1      31.049  28.049  23.904  1.00  0.00    -0.009 C 
ATOM     95  C   UNL A   1      30.611  28.332  22.660  1.00  0.00     0.019 C 
ATOM     96  C   UNL A   1      31.756  29.248  24.534  1.00  0.00     0.265 C 
ATOM     97  C   UNL A   1      29.810  29.593  22.660  1.00  0.00     0.017 A 
ATOM     98  O   UNL A   1      30.800  30.302  24.783  1.00  0.00    -0.488 OA
ATOM     99  C   UNL A   1      28.897  29.846  21.635  1.00  0.00     0.012 A 
ATOM    100  C   UNL A   1      29.909  30.487  23.745  1.00  0.00     0.127 A 
ATOM    101  C   UNL A   1      28.048  30.950  21.720  1.00  0.00     0.001 A 
ATOM    102  C   UNL A   1      29.045  31.573  23.838  1.00  0.00     0.047 A 
ATOM    103  C   UNL A   1      28.110  31.799  22.828  1.00  0.00     0.004 A 
ENDBRANCH  93  94
ENDBRANCH  85  86
ENDBRANCH  77  80
ENDBRANCH  75  76
ENDBRANCH  74  75
ENDBRANCH   1  74
TORSDOF 15
ENDMDL
MODEL 3
REMARK VINA RESULT:     -13.1      4.728      8.091
REMARK SMILES O=C(NCCCNC(=O)c1ccc(N2C(=O)/C(=C\C3=Cc4ccccc4OC3)SC2=S)cc1)c1ccc(-c2c3nc(c(-c4c(F)cc(S(=O)(=O)[O-])cc4F)c4ccc([nH]4)c(-c4c(F)cc(S(=O)(=O)[O-])cc4F)c4nc(c(-c5c(F)cc(S(=O)(=O)[O-])cc5F)c5ccc2[nH]5)C=C4)C=C3)cc1
REMARK SMILES IDX 4 1 3 2 1 3 2 4 34 6 35 7 99 8 36 9 98 10 37 11 38 12 39 13
REMARK SMILES IDX 92 14 40 15 97 16 91 17 93 18 41 19 96 20 90 21 89 22 42 24
REMARK SMILES IDX 76 25 55 26 75 27 56 28 59 29 74 30 94 31 57 32 58 33 73 35
REMARK SMILES IDX 95 36 60 37 43 38 44 39 53 40 45 41 46 42 52 43 54 44 47 45
REMARK SMILES IDX 48 46 49 47 50 48 51 49 77 50 78 51 87 52 79 53 80 54 86 55
REMARK SMILES IDX 88 56 81 57 82 58 83 59 84 60 85 61 61 62 62 63 71 64 63 65
REMARK SMILES IDX 64 66 70 67 72 68 65 69 66 70 67 71 68 72 69 73 5 74 6 75
REMARK SMILES IDX 7 76 8 77 9 79 10 80 11 81 33 82 12 83 32 84 13 85 14 86
REMARK SMILES IDX 15 87 30 88 16 89 17 90 29 91 31 92 18 93 19 94 20 95 28 96
REMARK SMILES IDX 21 97 27 98 22 99 26 100 23 101 25 102 24 103
REMARK H PARENT 3 5 93 23 59 34 7 78
REMARK Flexibility Score: inf
ROOT
ATOM      1  C   UNL A   1      34.870  32.609  28.821  1.00  0.00     0.118 C 
ENDROOT
BRANCH   1   2
ATOM      2  N   UNL A   1      34.143  31.434  28.369  1.00  0.00    -0.352 N 
ATOM      3  O   UNL A   1      33.823  29.394  27.494  1.00  0.00    -0.269 OA
ATOM      4  C   UNL A   1      34.599  30.184  28.026  1.00  0.00     0.251 C 
ATOM      5  H   UNL A   1      33.169  31.553  28.296  1.00  0.00     0.163 HD
BRANCH   4   6
ATOM      6  C   UNL A   1      36.003  29.784  28.276  1.00  0.00     0.039 A 
ATOM      7  C   UNL A   1      36.984  29.911  27.288  1.00  0.00     0.014 A 
ATOM      8  C   UNL A   1      36.363  29.343  29.555  1.00  0.00     0.014 A 
ATOM      9  C   UNL A   1      38.289  29.498  27.542  1.00  0.00     0.010 A 
ATOM     10  C   UNL A   1      37.691  28.999  29.831  1.00  0.00     0.010 A 
ATOM     11  C   UNL A   1      38.664  29.062  28.823  1.00  0.00    -0.014 A 
BRANCH  11  12
ATOM     12  C   UNL A   1      40.093  28.795  29.119  1.00  0.00     0.031 A 
ATOM     13  C   UNL A   1      40.974  29.842  29.738  1.00  0.00     0.074 A 
ATOM     14  C   UNL A   1      40.595  27.584  28.804  1.00  0.00     0.049 A 
ATOM     15  N   UNL A   1      42.246  29.769  30.039  1.00  0.00    -0.248 NA
ATOM     16  C   UNL A   1      40.359  31.142  30.053  1.00  0.00     0.031 C 
ATOM     17  C   UNL A   1      39.840  26.500  28.166  1.00  0.00     0.029 A 
ATOM     18  N   UNL A   1      41.851  27.057  28.966  1.00  0.00    -0.354 N 
ATOM     19  C   UNL A   1      42.589  31.011  30.559  1.00  0.00     0.074 A 
ATOM     20  C   UNL A   1      41.394  31.827  30.523  1.00  0.00     0.031 C 
ATOM     21  C   UNL A   1      40.642  25.438  28.004  1.00  0.00     0.029 A 
ATOM     22  C   UNL A   1      41.978  25.778  28.477  1.00  0.00     0.049 A 
ATOM     23  H   UNL A   1      42.591  27.548  29.391  1.00  0.00     0.167 HD
ATOM     24  C   UNL A   1      43.792  31.424  31.026  1.00  0.00     0.037 A 
ATOM     25  C   UNL A   1      43.056  24.978  28.386  1.00  0.00     0.037 A 
ATOM     26  C   UNL A   1      44.967  30.592  31.087  1.00  0.00     0.049 A 
ATOM     27  C   UNL A   1      44.379  25.472  28.896  1.00  0.00     0.074 A 
ATOM     28  C   UNL A   1      46.201  30.889  31.641  1.00  0.00     0.029 A 
ATOM     29  N   UNL A   1      45.062  29.312  30.565  1.00  0.00    -0.354 N 
ATOM     30  N   UNL A   1      44.661  26.619  29.464  1.00  0.00    -0.248 NA
ATOM     31  C   UNL A   1      45.530  24.573  28.744  1.00  0.00     0.031 C 
ATOM     32  C   UNL A   1      47.057  29.807  31.409  1.00  0.00     0.029 A 
ATOM     33  C   UNL A   1      46.346  28.821  30.745  1.00  0.00     0.049 A 
ATOM     34  H   UNL A   1      44.326  28.822  30.131  1.00  0.00     0.167 HD
ATOM     35  C   UNL A   1      46.023  26.581  29.735  1.00  0.00     0.074 A 
ATOM     36  C   UNL A   1      46.502  25.286  29.295  1.00  0.00     0.031 C 
ATOM     37  C   UNL A   1      46.808  27.536  30.288  1.00  0.00     0.037 A 
BRANCH  24  38
ATOM     38  C   UNL A   1      43.923  32.840  31.511  1.00  0.00     0.058 A 
ATOM     39  C   UNL A   1      44.293  33.884  30.651  1.00  0.00     0.135 A 
ATOM     40  C   UNL A   1      43.562  33.172  32.829  1.00  0.00     0.135 A 
ATOM     41  F   UNL A   1      44.657  33.619  29.385  1.00  0.00    -0.206 F 
ATOM     42  C   UNL A   1      44.300  35.208  31.077  1.00  0.00     0.059 A 
ATOM     43  C   UNL A   1      43.547  34.491  33.271  1.00  0.00     0.059 A 
ATOM     44  F   UNL A   1      43.202  32.210  33.691  1.00  0.00    -0.206 F 
ATOM     45  C   UNL A   1      43.920  35.503  32.388  1.00  0.00     0.060 A 
BRANCH  45  46
ATOM     46  S   UNL A   1      43.887  37.232  32.910  1.00  0.00     0.124 S 
ATOM     47  O   UNL A   1      42.719  37.249  33.786  1.00  0.00    -0.237 OA
ATOM     48  O   UNL A   1      45.178  37.383  33.573  1.00  0.00    -0.237 OA
ATOM     49  O   UNL A   1      43.740  37.963  31.655  1.00  0.00    -0.744 OA
ENDBRANCH  45  46
ENDBRANCH  24  38
BRANCH  25  50
ATOM     50  C   UNL A   1      42.936  23.643  27.742  1.00  0.00     0.058 A 
ATOM     51  C   UNL A   1      43.200  23.468  26.378  1.00  0.00     0.135 A 
ATOM     52  C   UNL A   1      42.554  22.518  28.489  1.00  0.00     0.135 A 
ATOM     53  F   UNL A   1      43.564  24.517  25.624  1.00  0.00    -0.206 F 
ATOM     54  C   UNL A   1      43.072  22.224  25.768  1.00  0.00     0.059 A 
ATOM     55  C   UNL A   1      42.443  21.259  27.908  1.00  0.00     0.059 A 
ATOM     56  F   UNL A   1      42.307  22.632  29.803  1.00  0.00    -0.206 F 
ATOM     57  C   UNL A   1      42.689  21.127  26.542  1.00  0.00     0.060 A 
BRANCH  57  58
ATOM     58  S   UNL A   1      42.552  19.507  25.755  1.00  0.00     0.124 S 
ATOM     59  O   UNL A   1      42.997  18.624  26.827  1.00  0.00    -0.237 OA
ATOM     60  O   UNL A   1      41.133  19.443  25.421  1.00  0.00    -0.237 OA
ATOM     61  O   UNL A   1      43.451  19.617  24.610  1.00  0.00    -0.744 OA
ENDBRANCH  57  58
ENDBRANCH  25  50
BRANCH  37  62
ATOM     62  C   UNL A   1      48.268  27.220  30.441  1.00  0.00     0.058 A 
ATOM     63  C   UNL A   1      49.197  27.594  29.458  1.00  0.00     0.135 A 
ATOM     64  C   UNL A   1      48.748  26.584  31.596  1.00  0.00     0.135 A 
ATOM     65  F   UNL A   1      48.783  28.194  28.331  1.00  0.00    -0.206 F 
ATOM     66  C   UNL A   1      50.554  27.336  29.610  1.00  0.00     0.059 A 
ATOM     67  C   UNL A   1      50.105  26.335  31.778  1.00  0.00     0.059 A 
ATOM     68  F   UNL A   1      47.899  26.212  32.566  1.00  0.00    -0.206 F 
ATOM     69  C   UNL A   1      50.999  26.708  30.775  1.00  0.00     0.060 A 
BRANCH  69  70
ATOM     70  S   UNL A   1      52.769  26.417  30.979  1.00  0.00     0.124 S 
ATOM     71  O   UNL A   1      53.209  26.295  29.594  1.00  0.00    -0.237 OA
ATOM     72  O   UNL A   1      53.207  27.619  31.681  1.00  0.00    -0.237 OA
ATOM     73  O   UNL A   1      52.820  25.187  31.765  1.00  0.00    -0.744 OA
ENDBRANCH  69  70
ENDBRANCH  37  62
ENDBRANCH  11  12
ENDBRANCH   4   6
ENDBRANCH   1   2
BRANCH   1  74
ATOM     74  C   UNL A   1      34.979  32.688  30.339  1.00  0.00     0.042 C 
BRANCH  74  75
ATOM     75  C   UNL A   1      36.077  33.609  30.859  1.00  0.00     0.118 C 
BRANCH  75  76
ATOM     76  N   UNL A   1      35.571  34.678  31.705  1.00  0.00    -0.352 N 
ATOM     77  C   UNL A   1      35.905  35.043  32.985  1.00  0.00     0.251 C 
ATOM     78  H   UNL A   1      34.873  35.233  31.290  1.00  0.00     0.163 HD
ATOM     79  O   UNL A   1      35.243  35.904  33.559  1.00  0.00    -0.269 OA
BRANCH  77  80
ATOM     80  C   UNL A   1      37.029  34.399  33.702  1.00  0.00     0.039 A 
ATOM     81  C   UNL A   1      36.784  33.850  34.959  1.00  0.00     0.016 A 
ATOM     82  C   UNL A   1      38.320  34.361  33.184  1.00  0.00     0.016 A 
ATOM     83  C   UNL A   1      37.811  33.197  35.655  1.00  0.00     0.027 A 
ATOM     84  C   UNL A   1      39.336  33.682  33.874  1.00  0.00     0.027 A 
ATOM     85  C   UNL A   1      39.105  33.079  35.123  1.00  0.00     0.051 A 
BRANCH  85  86
ATOM     86  N   UNL A   1      40.119  32.285  35.767  1.00  0.00    -0.261 N 
ATOM     87  C   UNL A   1      40.148  30.900  35.588  1.00  0.00     0.270 C 
ATOM     88  C   UNL A   1      41.112  32.765  36.615  1.00  0.00     0.152 C 
ATOM     89  O   UNL A   1      39.216  30.143  35.375  1.00  0.00    -0.268 OA
ATOM     90  C   UNL A   1      41.523  30.399  35.870  1.00  0.00     0.081 C 
ATOM     91  S   UNL A   1      42.242  31.458  37.023  1.00  0.00    -0.054 SA
ATOM     92  S   UNL A   1      41.309  34.266  37.332  1.00  0.00    -0.051 S 
ATOM     93  C   UNL A   1      42.240  29.462  35.231  1.00  0.00     0.028 C 
BRANCH  93  94
ATOM     94  C   UNL A   1      41.965  28.771  33.960  1.00  0.00    -0.009 C 
ATOM     95  C   UNL A   1      42.918  28.300  33.130  1.00  0.00     0.019 C 
ATOM     96  C   UNL A   1      40.825  27.768  34.129  1.00  0.00     0.265 C 
ATOM     97  C   UNL A   1      43.353  26.934  33.552  1.00  0.00     0.017 A 
ATOM     98  O   UNL A   1      41.300  26.606  34.844  1.00  0.00    -0.488 OA
ATOM     99  C   UNL A   1      44.596  26.439  33.157  1.00  0.00     0.012 A 
ATOM    100  C   UNL A   1      42.545  26.180  34.426  1.00  0.00     0.127 A 
ATOM    101  C   UNL A   1      45.056  25.228  33.677  1.00  0.00     0.001 A 
ATOM    102  C   UNL A   1      43.016  24.985  34.960  1.00  0.00     0.047 A 
ATOM    103  C   UNL A   1      44.276  24.514  34.590  1.00  0.00     0.004 A 
ENDBRANCH  93  94
ENDBRANCH  85  86
ENDBRANCH  77  80
ENDBRANCH  75  76
ENDBRANCH  74  75
ENDBRANCH   1  74
TORSDOF 15
ENDMDL
