MODEL 1
REMARK VINA RESULT:     -13.3      0.000      0.000
REMARK SMILES O=C(NCCCNC(=O)C1(n2ccnc2)CCN(C(=O)[C@@H]2CC(=O)N(C3CC3)C2)CC1)c1ccc(-c2c3nc(c(-c4c(F)cc(S(=O)(=O)[O-])cc4F)c4ccc([nH]4)c(-c4c(F)cc(S(=O)(=O)[O-])cc4F)c4nc(c(-c5c(F)cc(S(=O)(=O)[O-])cc5F)c5ccc2[nH]5)C=C4)C=C3)cc1
REMARK SMILES IDX 4 1 3 2 1 3 2 4 32 6 33 7 97 8 34 9 96 10 35 11 36 12 37 13
REMARK SMILES IDX 90 14 38 15 95 16 89 17 91 18 39 19 94 20 88 21 87 22 40 24
REMARK SMILES IDX 74 25 53 26 73 27 54 28 57 29 72 30 92 31 55 32 56 33 71 35
REMARK SMILES IDX 93 36 58 37 41 38 42 39 51 40 43 41 44 42 50 43 52 44 45 45
REMARK SMILES IDX 46 46 47 47 48 48 49 49 75 50 76 51 85 52 77 53 78 54 84 55
REMARK SMILES IDX 86 56 79 57 80 58 81 59 82 60 83 61 59 62 60 63 69 64 61 65
REMARK SMILES IDX 62 66 68 67 70 68 63 69 64 70 65 71 66 72 67 73 5 74 6 75
REMARK SMILES IDX 7 76 8 77 9 79 10 80 16 81 31 82 17 83 30 84 18 85 19 86
REMARK SMILES IDX 20 87 11 88 12 89 15 90 13 91 14 92 21 93 22 94 29 95 23 96
REMARK SMILES IDX 25 97 24 98 26 99 27 100 28 101
REMARK H PARENT 3 5 91 23 57 34 7 78
REMARK Flexibility Score: inf
ROOT
ATOM      1  C   UNL A   1      37.197  22.474  25.030  1.00  0.00     0.118 C 
ENDROOT
BRANCH   1   2
ATOM      2  N   UNL A   1      38.401  21.761  25.413  1.00  0.00    -0.352 N 
ATOM      3  O   UNL A   1      40.213  21.024  26.405  1.00  0.00    -0.269 OA
ATOM      4  C   UNL A   1      39.477  22.000  26.224  1.00  0.00     0.251 C 
ATOM      5  H   UNL A   1      38.458  20.880  24.979  1.00  0.00     0.163 HD
BRANCH   4   6
ATOM      6  C   UNL A   1      39.833  23.297  26.871  1.00  0.00     0.039 A 
ATOM      7  C   UNL A   1      39.146  24.502  26.729  1.00  0.00     0.014 A 
ATOM      8  C   UNL A   1      40.997  23.292  27.666  1.00  0.00     0.014 A 
ATOM      9  C   UNL A   1      39.632  25.675  27.319  1.00  0.00     0.010 A 
ATOM     10  C   UNL A   1      41.473  24.454  28.274  1.00  0.00     0.010 A 
ATOM     11  C   UNL A   1      40.805  25.661  28.082  1.00  0.00    -0.014 A 
BRANCH  11  12
ATOM     12  C   UNL A   1      41.237  26.902  28.739  1.00  0.00     0.031 A 
ATOM     13  C   UNL A   1      42.461  27.568  28.189  1.00  0.00     0.074 A 
ATOM     14  C   UNL A   1      40.504  27.575  29.651  1.00  0.00     0.049 A 
ATOM     15  N   UNL A   1      43.551  27.912  28.800  1.00  0.00    -0.248 NA
ATOM     16  C   UNL A   1      42.468  27.870  26.749  1.00  0.00     0.031 C 
ATOM     17  C   UNL A   1      39.124  27.312  30.066  1.00  0.00     0.029 A 
ATOM     18  N   UNL A   1      40.814  28.730  30.316  1.00  0.00    -0.354 N 
ATOM     19  C   UNL A   1      44.314  28.624  27.871  1.00  0.00     0.074 A 
ATOM     20  C   UNL A   1      43.644  28.482  26.604  1.00  0.00     0.031 C 
ATOM     21  C   UNL A   1      38.650  28.388  30.735  1.00  0.00     0.029 A 
ATOM     22  C   UNL A   1      39.725  29.350  30.912  1.00  0.00     0.049 A 
ATOM     23  H   UNL A   1      41.730  29.088  30.369  1.00  0.00     0.167 HD
ATOM     24  C   UNL A   1      45.369  29.414  28.220  1.00  0.00     0.037 A 
ATOM     25  C   UNL A   1      39.686  30.594  31.449  1.00  0.00     0.037 A 
ATOM     26  C   UNL A   1      45.842  29.135  29.548  1.00  0.00     0.049 A 
ATOM     27  C   UNL A   1      41.077  31.010  31.756  1.00  0.00     0.074 A 
ATOM     28  C   UNL A   1      46.370  28.032  30.188  1.00  0.00     0.029 A 
ATOM     29  N   UNL A   1      45.562  30.039  30.542  1.00  0.00    -0.354 N 
ATOM     30  N   UNL A   1      41.832  30.471  32.673  1.00  0.00    -0.248 NA
ATOM     31  C   UNL A   1      41.773  31.851  30.793  1.00  0.00     0.031 C 
ATOM     32  C   UNL A   1      45.938  28.141  31.542  1.00  0.00     0.029 A 
ATOM     33  C   UNL A   1      45.181  29.310  31.640  1.00  0.00     0.049 A 
ATOM     34  H   UNL A   1      45.622  31.019  30.480  1.00  0.00     0.167 HD
ATOM     35  C   UNL A   1      43.124  30.578  32.181  1.00  0.00     0.074 A 
ATOM     36  C   UNL A   1      43.036  31.544  31.093  1.00  0.00     0.031 C 
ATOM     37  C   UNL A   1      44.090  29.676  32.518  1.00  0.00     0.037 A 
BRANCH  24  38
ATOM     38  C   UNL A   1      45.820  30.644  27.464  1.00  0.00     0.058 A 
ATOM     39  C   UNL A   1      47.191  30.838  27.186  1.00  0.00     0.135 A 
ATOM     40  C   UNL A   1      44.992  31.767  27.254  1.00  0.00     0.135 A 
ATOM     41  F   UNL A   1      48.072  29.840  27.360  1.00  0.00    -0.206 F 
ATOM     42  C   UNL A   1      47.709  32.076  26.799  1.00  0.00     0.059 A 
ATOM     43  C   UNL A   1      45.480  32.997  26.817  1.00  0.00     0.059 A 
ATOM     44  F   UNL A   1      43.687  31.747  27.556  1.00  0.00    -0.206 F 
ATOM     45  C   UNL A   1      46.846  33.155  26.640  1.00  0.00     0.060 A 
BRANCH  45  46
ATOM     46  S   UNL A   1      47.526  34.786  26.280  1.00  0.00     0.124 S 
ATOM     47  O   UNL A   1      48.495  34.938  27.359  1.00  0.00    -0.237 OA
ATOM     48  O   UNL A   1      48.082  34.601  24.944  1.00  0.00    -0.237 OA
ATOM     49  O   UNL A   1      46.358  35.658  26.350  1.00  0.00    -0.744 OA
ENDBRANCH  45  46
ENDBRANCH  24  38
BRANCH  25  50
ATOM     50  C   UNL A   1      38.551  31.553  31.450  1.00  0.00     0.058 A 
ATOM     51  C   UNL A   1      37.952  31.981  30.253  1.00  0.00     0.135 A 
ATOM     52  C   UNL A   1      37.858  31.863  32.638  1.00  0.00     0.135 A 
ATOM     53  F   UNL A   1      38.524  31.701  29.072  1.00  0.00    -0.206 F 
ATOM     54  C   UNL A   1      36.721  32.646  30.232  1.00  0.00     0.059 A 
ATOM     55  C   UNL A   1      36.641  32.538  32.644  1.00  0.00     0.059 A 
ATOM     56  F   UNL A   1      38.303  31.435  33.830  1.00  0.00    -0.206 F 
ATOM     57  C   UNL A   1      36.065  32.907  31.434  1.00  0.00     0.060 A 
BRANCH  57  58
ATOM     58  S   UNL A   1      34.403  33.619  31.407  1.00  0.00     0.124 S 
ATOM     59  O   UNL A   1      33.724  32.837  32.434  1.00  0.00    -0.237 OA
ATOM     60  O   UNL A   1      34.662  35.017  31.736  1.00  0.00    -0.237 OA
ATOM     61  O   UNL A   1      33.952  33.377  30.038  1.00  0.00    -0.744 OA
ENDBRANCH  57  58
ENDBRANCH  25  50
BRANCH  37  62
ATOM     62  C   UNL A   1      43.858  28.777  33.702  1.00  0.00     0.058 A 
ATOM     63  C   UNL A   1      44.154  29.143  35.026  1.00  0.00     0.135 A 
ATOM     64  C   UNL A   1      43.134  27.590  33.510  1.00  0.00     0.135 A 
ATOM     65  F   UNL A   1      44.751  30.310  35.303  1.00  0.00    -0.206 F 
ATOM     66  C   UNL A   1      43.765  28.354  36.109  1.00  0.00     0.059 A 
ATOM     67  C   UNL A   1      42.709  26.803  34.578  1.00  0.00     0.059 A 
ATOM     68  F   UNL A   1      42.768  27.219  32.271  1.00  0.00    -0.206 F 
ATOM     69  C   UNL A   1      43.032  27.191  35.877  1.00  0.00     0.060 A 
BRANCH  69  70
ATOM     70  S   UNL A   1      42.400  26.259  37.291  1.00  0.00     0.124 S 
ATOM     71  O   UNL A   1      41.048  26.788  37.429  1.00  0.00    -0.237 OA
ATOM     72  O   UNL A   1      42.494  24.876  36.830  1.00  0.00    -0.237 OA
ATOM     73  O   UNL A   1      43.322  26.608  38.369  1.00  0.00    -0.744 OA
ENDBRANCH  69  70
ENDBRANCH  37  62
ENDBRANCH  11  12
ENDBRANCH   4   6
ENDBRANCH   1   2
BRANCH   1  74
ATOM     74  C   UNL A   1      36.875  22.453  23.537  1.00  0.00     0.042 C 
BRANCH  74  75
ATOM     75  C   UNL A   1      35.661  23.265  23.106  1.00  0.00     0.117 C 
BRANCH  75  76
ATOM     76  N   UNL A   1      34.410  22.521  22.969  1.00  0.00    -0.354 N 
ATOM     77  C   UNL A   1      33.106  22.800  23.288  1.00  0.00     0.246 C 
ATOM     78  H   UNL A   1      34.529  21.632  22.559  1.00  0.00     0.163 HD
ATOM     79  O   UNL A   1      32.272  22.234  22.566  1.00  0.00    -0.272 OA
BRANCH  77  80
ATOM     80  C   UNL A   1      32.610  23.640  24.523  1.00  0.00     0.127 C 
ATOM     81  C   UNL A   1      31.037  23.618  24.605  1.00  0.00     0.061 C 
ATOM     82  C   UNL A   1      32.990  25.119  24.503  1.00  0.00     0.061 C 
ATOM     83  C   UNL A   1      30.312  24.538  23.601  1.00  0.00     0.122 C 
ATOM     84  C   UNL A   1      32.365  25.769  23.284  1.00  0.00     0.122 C 
ATOM     85  N   UNL A   1      30.945  25.854  23.464  1.00  0.00    -0.342 N 
ATOM     86  C   UNL A   1      30.190  27.015  23.401  1.00  0.00     0.227 C 
ATOM     87  O   UNL A   1      28.964  26.962  23.563  1.00  0.00    -0.274 OA
BRANCH  80  88
ATOM     88  N   UNL A   1      33.137  22.973  25.742  1.00  0.00    -0.322 N 
ATOM     89  C   UNL A   1      33.999  23.532  26.658  1.00  0.00     0.108 A 
ATOM     90  C   UNL A   1      32.911  21.688  26.164  1.00  0.00     0.200 A 
ATOM     91  C   UNL A   1      34.258  22.545  27.576  1.00  0.00     0.130 A 
ATOM     92  N   UNL A   1      33.577  21.404  27.261  1.00  0.00    -0.245 NA
ENDBRANCH  80  88
BRANCH  86  93
ATOM     93  C   UNL A   1      30.810  28.395  23.088  1.00  0.00     0.107 C 
ATOM     94  C   UNL A   1      31.693  28.956  24.197  1.00  0.00     0.115 C 
ATOM     95  C   UNL A   1      29.859  29.519  22.713  1.00  0.00     0.133 C 
ATOM     96  C   UNL A   1      30.972  30.186  24.685  1.00  0.00     0.223 C 
ATOM     97  N   UNL A   1      29.939  30.478  23.796  1.00  0.00    -0.339 N 
ATOM     98  O   UNL A   1      31.236  30.741  25.747  1.00  0.00    -0.275 OA
BRANCH  97  99
ATOM     99  C   UNL A   1      28.892  31.449  23.979  1.00  0.00     0.085 C 
ATOM    100  C   UNL A   1      28.742  32.631  23.050  1.00  0.00     0.027 C 
ATOM    101  C   UNL A   1      27.685  31.566  23.095  1.00  0.00     0.027 C 
ENDBRANCH  97  99
ENDBRANCH  86  93
ENDBRANCH  77  80
ENDBRANCH  75  76
ENDBRANCH  74  75
ENDBRANCH   1  74
TORSDOF 16
ENDMDL
MODEL 2
REMARK VINA RESULT:     -13.2      2.931      9.526
REMARK SMILES O=C(NCCCNC(=O)C1(n2ccnc2)CCN(C(=O)[C@@H]2CC(=O)N(C3CC3)C2)CC1)c1ccc(-c2c3nc(c(-c4c(F)cc(S(=O)(=O)[O-])cc4F)c4ccc([nH]4)c(-c4c(F)cc(S(=O)(=O)[O-])cc4F)c4nc(c(-c5c(F)cc(S(=O)(=O)[O-])cc5F)c5ccc2[nH]5)C=C4)C=C3)cc1
REMARK SMILES IDX 4 1 3 2 1 3 2 4 32 6 33 7 97 8 34 9 96 10 35 11 36 12 37 13
REMARK SMILES IDX 90 14 38 15 95 16 89 17 91 18 39 19 94 20 88 21 87 22 40 24
REMARK SMILES IDX 74 25 53 26 73 27 54 28 57 29 72 30 92 31 55 32 56 33 71 35
REMARK SMILES IDX 93 36 58 37 41 38 42 39 51 40 43 41 44 42 50 43 52 44 45 45
REMARK SMILES IDX 46 46 47 47 48 48 49 49 75 50 76 51 85 52 77 53 78 54 84 55
REMARK SMILES IDX 86 56 79 57 80 58 81 59 82 60 83 61 59 62 60 63 69 64 61 65
REMARK SMILES IDX 62 66 68 67 70 68 63 69 64 70 65 71 66 72 67 73 5 74 6 75
REMARK SMILES IDX 7 76 8 77 9 79 10 80 16 81 31 82 17 83 30 84 18 85 19 86
REMARK SMILES IDX 20 87 11 88 12 89 15 90 13 91 14 92 21 93 22 94 29 95 23 96
REMARK SMILES IDX 25 97 24 98 26 99 27 100 28 101
REMARK H PARENT 3 5 91 23 57 34 7 78
REMARK Flexibility Score: inf
ROOT
ATOM      1  C   UNL A   1      32.890  29.449  26.938  1.00  0.00     0.118 C 
ENDROOT
BRANCH   1   2
ATOM      2  N   UNL A   1      33.130  30.758  27.515  1.00  0.00    -0.352 N 
ATOM      3  O   UNL A   1      33.997  32.642  28.229  1.00  0.00    -0.269 OA
ATOM      4  C   UNL A   1      34.217  31.454  27.969  1.00  0.00     0.251 C 
ATOM      5  H   UNL A   1      32.300  31.277  27.603  1.00  0.00     0.163 HD
BRANCH   4   6
ATOM      6  C   UNL A   1      35.592  30.916  28.186  1.00  0.00     0.039 A 
ATOM      7  C   UNL A   1      36.004  29.602  27.965  1.00  0.00     0.014 A 
ATOM      8  C   UNL A   1      36.539  31.826  28.699  1.00  0.00     0.014 A 
ATOM      9  C   UNL A   1      37.304  29.197  28.291  1.00  0.00     0.010 A 
ATOM     10  C   UNL A   1      37.842  31.432  29.004  1.00  0.00     0.010 A 
ATOM     11  C   UNL A   1      38.225  30.105  28.826  1.00  0.00    -0.014 A 
BRANCH  11  12
ATOM     12  C   UNL A   1      39.598  29.651  29.087  1.00  0.00     0.031 A 
ATOM     13  C   UNL A   1      39.981  29.444  30.520  1.00  0.00     0.074 A 
ATOM     14  C   UNL A   1      40.451  29.220  28.133  1.00  0.00     0.049 A 
ATOM     15  N   UNL A   1      40.970  29.953  31.186  1.00  0.00    -0.248 NA
ATOM     16  C   UNL A   1      39.122  28.558  31.321  1.00  0.00     0.031 C 
ATOM     17  C   UNL A   1      40.170  28.987  26.715  1.00  0.00     0.029 A 
ATOM     18  N   UNL A   1      41.739  28.781  28.271  1.00  0.00    -0.354 N 
ATOM     19  C   UNL A   1      40.965  29.329  32.436  1.00  0.00     0.074 A 
ATOM     20  C   UNL A   1      39.752  28.555  32.496  1.00  0.00     0.031 C 
ATOM     21  C   UNL A   1      41.173  28.254  26.179  1.00  0.00     0.029 A 
ATOM     22  C   UNL A   1      42.221  28.084  27.172  1.00  0.00     0.049 A 
ATOM     23  H   UNL A   1      42.278  28.945  29.080  1.00  0.00     0.167 HD
ATOM     24  C   UNL A   1      42.027  29.361  33.291  1.00  0.00     0.037 A 
ATOM     25  C   UNL A   1      43.365  27.360  27.100  1.00  0.00     0.037 A 
ATOM     26  C   UNL A   1      42.966  30.396  32.954  1.00  0.00     0.049 A 
ATOM     27  C   UNL A   1      44.268  27.811  28.187  1.00  0.00     0.074 A 
ATOM     28  C   UNL A   1      42.914  31.772  32.859  1.00  0.00     0.029 A 
ATOM     29  N   UNL A   1      44.159  30.031  32.381  1.00  0.00    -0.354 N 
ATOM     30  N   UNL A   1      44.834  28.985  28.247  1.00  0.00    -0.248 NA
ATOM     31  C   UNL A   1      44.297  27.043  29.423  1.00  0.00     0.031 C 
ATOM     32  C   UNL A   1      43.834  32.111  31.824  1.00  0.00     0.029 A 
ATOM     33  C   UNL A   1      44.393  30.918  31.362  1.00  0.00     0.049 A 
ATOM     34  H   UNL A   1      44.734  29.279  32.649  1.00  0.00     0.167 HD
ATOM     35  C   UNL A   1      44.937  29.263  29.602  1.00  0.00     0.074 A 
ATOM     36  C   UNL A   1      44.712  27.986  30.269  1.00  0.00     0.031 C 
ATOM     37  C   UNL A   1      44.923  30.545  30.068  1.00  0.00     0.037 A 
BRANCH  24  38
ATOM     38  C   UNL A   1      42.370  28.278  34.289  1.00  0.00     0.058 A 
ATOM     39  C   UNL A   1      42.379  28.569  35.671  1.00  0.00     0.135 A 
ATOM     40  C   UNL A   1      42.963  27.050  33.923  1.00  0.00     0.135 A 
ATOM     41  F   UNL A   1      41.850  29.714  36.131  1.00  0.00    -0.206 F 
ATOM     42  C   UNL A   1      42.995  27.737  36.609  1.00  0.00     0.059 A 
ATOM     43  C   UNL A   1      43.536  26.180  34.847  1.00  0.00     0.059 A 
ATOM     44  F   UNL A   1      43.098  26.688  32.640  1.00  0.00    -0.206 F 
ATOM     45  C   UNL A   1      43.591  26.555  36.181  1.00  0.00     0.060 A 
BRANCH  45  46
ATOM     46  S   UNL A   1      44.509  25.550  37.364  1.00  0.00     0.124 S 
ATOM     47  O   UNL A   1      45.851  26.106  37.233  1.00  0.00    -0.237 OA
ATOM     48  O   UNL A   1      43.818  25.838  38.616  1.00  0.00    -0.237 OA
ATOM     49  O   UNL A   1      44.333  24.193  36.856  1.00  0.00    -0.744 OA
ENDBRANCH  45  46
ENDBRANCH  24  38
BRANCH  25  50
ATOM     50  C   UNL A   1      43.608  26.112  26.331  1.00  0.00     0.058 A 
ATOM     51  C   UNL A   1      44.733  25.969  25.501  1.00  0.00     0.135 A 
ATOM     52  C   UNL A   1      42.881  24.935  26.602  1.00  0.00     0.135 A 
ATOM     53  F   UNL A   1      45.503  27.030  25.217  1.00  0.00    -0.206 F 
ATOM     54  C   UNL A   1      45.135  24.726  24.998  1.00  0.00     0.059 A 
ATOM     55  C   UNL A   1      43.251  23.690  26.101  1.00  0.00     0.059 A 
ATOM     56  F   UNL A   1      41.835  24.945  27.443  1.00  0.00    -0.206 F 
ATOM     57  C   UNL A   1      44.395  23.588  25.317  1.00  0.00     0.060 A 
BRANCH  57  58
ATOM     58  S   UNL A   1      44.997  21.962  24.807  1.00  0.00     0.124 S 
ATOM     59  O   UNL A   1      46.431  22.083  25.048  1.00  0.00    -0.237 OA
ATOM     60  O   UNL A   1      44.272  21.070  25.706  1.00  0.00    -0.237 OA
ATOM     61  O   UNL A   1      44.604  21.879  23.403  1.00  0.00    -0.744 OA
ENDBRANCH  57  58
ENDBRANCH  25  50
BRANCH  37  62
ATOM     62  C   UNL A   1      45.161  31.669  29.096  1.00  0.00     0.058 A 
ATOM     63  C   UNL A   1      46.439  32.137  28.745  1.00  0.00     0.135 A 
ATOM     64  C   UNL A   1      44.073  32.154  28.352  1.00  0.00     0.135 A 
ATOM     65  F   UNL A   1      47.538  31.649  29.335  1.00  0.00    -0.206 F 
ATOM     66  C   UNL A   1      46.624  33.060  27.715  1.00  0.00     0.059 A 
ATOM     67  C   UNL A   1      44.238  33.051  27.300  1.00  0.00     0.059 A 
ATOM     68  F   UNL A   1      42.833  31.697  28.600  1.00  0.00    -0.206 F 
ATOM     69  C   UNL A   1      45.520  33.502  26.989  1.00  0.00     0.060 A 
BRANCH  69  70
ATOM     70  S   UNL A   1      45.787  34.575  25.559  1.00  0.00     0.124 S 
ATOM     71  O   UNL A   1      47.208  34.386  25.294  1.00  0.00    -0.237 OA
ATOM     72  O   UNL A   1      44.877  34.014  24.563  1.00  0.00    -0.237 OA
ATOM     73  O   UNL A   1      45.413  35.899  26.052  1.00  0.00    -0.744 OA
ENDBRANCH  69  70
ENDBRANCH  37  62
ENDBRANCH  11  12
ENDBRANCH   4   6
ENDBRANCH   1   2
BRANCH   1  74
ATOM     74  C   UNL A   1      31.807  28.622  27.628  1.00  0.00     0.042 C 
BRANCH  74  75
ATOM     75  C   UNL A   1      31.610  27.207  27.099  1.00  0.00     0.117 C 
BRANCH  75  76
ATOM     76  N   UNL A   1      30.727  27.075  25.942  1.00  0.00    -0.354 N 
ATOM     77  C   UNL A   1      30.732  26.261  24.839  1.00  0.00     0.246 C 
ATOM     78  H   UNL A   1      29.967  27.703  25.958  1.00  0.00     0.163 HD
ATOM     79  O   UNL A   1      29.607  26.026  24.373  1.00  0.00    -0.272 OA
BRANCH  77  80
ATOM     80  C   UNL A   1      32.005  25.732  24.079  1.00  0.00     0.127 C 
ATOM     81  C   UNL A   1      31.580  24.899  22.811  1.00  0.00     0.061 C 
ATOM     82  C   UNL A   1      32.909  24.802  24.885  1.00  0.00     0.061 C 
ATOM     83  C   UNL A   1      31.075  23.470  23.101  1.00  0.00     0.122 C 
ATOM     84  C   UNL A   1      32.119  23.568  25.275  1.00  0.00     0.122 C 
ATOM     85  N   UNL A   1      31.876  22.769  24.110  1.00  0.00    -0.342 N 
ATOM     86  C   UNL A   1      32.228  21.438  23.954  1.00  0.00     0.227 C 
ATOM     87  O   UNL A   1      31.954  20.847  22.902  1.00  0.00    -0.274 OA
BRANCH  80  88
ATOM     88  N   UNL A   1      32.755  26.925  23.606  1.00  0.00    -0.322 N 
ATOM     89  C   UNL A   1      33.916  27.417  24.158  1.00  0.00     0.108 A 
ATOM     90  C   UNL A   1      32.428  27.774  22.581  1.00  0.00     0.200 A 
ATOM     91  C   UNL A   1      34.217  28.549  23.443  1.00  0.00     0.130 A 
ATOM     92  N   UNL A   1      33.287  28.762  22.466  1.00  0.00    -0.245 NA
ENDBRANCH  80  88
BRANCH  86  93
ATOM     93  C   UNL A   1      32.923  20.624  25.070  1.00  0.00     0.107 C 
ATOM     94  C   UNL A   1      34.360  21.046  25.356  1.00  0.00     0.115 C 
ATOM     95  C   UNL A   1      32.961  19.114  24.911  1.00  0.00     0.133 C 
ATOM     96  C   UNL A   1      35.200  19.861  24.954  1.00  0.00     0.223 C 
ATOM     97  N   UNL A   1      34.357  18.775  24.723  1.00  0.00    -0.339 N 
ATOM     98  O   UNL A   1      36.414  19.928  24.783  1.00  0.00    -0.275 OA
BRANCH  97  99
ATOM     99  C   UNL A   1      34.721  17.509  24.143  1.00  0.00     0.085 C 
ATOM    100  C   UNL A   1      34.711  16.237  24.956  1.00  0.00     0.027 C 
ATOM    101  C   UNL A   1      33.744  16.416  23.822  1.00  0.00     0.027 C 
ENDBRANCH  97  99
ENDBRANCH  86  93
ENDBRANCH  77  80
ENDBRANCH  75  76
ENDBRANCH  74  75
ENDBRANCH   1  74
TORSDOF 16
ENDMDL
MODEL 3
REMARK VINA RESULT:     -13.0      1.739      2.694
REMARK SMILES O=C(NCCCNC(=O)C1(n2ccnc2)CCN(C(=O)[C@@H]2CC(=O)N(C3CC3)C2)CC1)c1ccc(-c2c3nc(c(-c4c(F)cc(S(=O)(=O)[O-])cc4F)c4ccc([nH]4)c(-c4c(F)cc(S(=O)(=O)[O-])cc4F)c4nc(c(-c5c(F)cc(S(=O)(=O)[O-])cc5F)c5ccc2[nH]5)C=C4)C=C3)cc1
REMARK SMILES IDX 4 1 3 2 1 3 2 4 32 6 33 7 97 8 34 9 96 10 35 11 36 12 37 13
REMARK SMILES IDX 90 14 38 15 95 16 89 17 91 18 39 19 94 20 88 21 87 22 40 24
REMARK SMILES IDX 74 25 53 26 73 27 54 28 57 29 72 30 92 31 55 32 56 33 71 35
REMARK SMILES IDX 93 36 58 37 41 38 42 39 51 40 43 41 44 42 50 43 52 44 45 45
REMARK SMILES IDX 46 46 47 47 48 48 49 49 75 50 76 51 85 52 77 53 78 54 84 55
REMARK SMILES IDX 86 56 79 57 80 58 81 59 82 60 83 61 59 62 60 63 69 64 61 65
REMARK SMILES IDX 62 66 68 67 70 68 63 69 64 70 65 71 66 72 67 73 5 74 6 75
REMARK SMILES IDX 7 76 8 77 9 79 10 80 16 81 31 82 17 83 30 84 18 85 19 86
REMARK SMILES IDX 20 87 11 88 12 89 15 90 13 91 14 92 21 93 22 94 29 95 23 96
REMARK SMILES IDX 25 97 24 98 26 99 27 100 28 101
REMARK H PARENT 3 5 91 23 57 34 7 78
REMARK Flexibility Score: inf
ROOT
ATOM      1  C   UNL A   1      38.187  22.419  25.392  1.00  0.00     0.118 C 
ENDROOT
BRANCH   1   2
ATOM      2  N   UNL A   1      39.557  22.027  25.664  1.00  0.00    -0.352 N 
ATOM      3  O   UNL A   1      41.562  21.745  26.509  1.00  0.00    -0.269 OA
ATOM      4  C   UNL A   1      40.589  22.503  26.427  1.00  0.00     0.251 C 
ATOM      5  H   UNL A   1      39.808  21.210  25.177  1.00  0.00     0.163 HD
BRANCH   4   6
ATOM      6  C   UNL A   1      40.645  23.820  27.128  1.00  0.00     0.039 A 
ATOM      7  C   UNL A   1      39.725  24.859  26.997  1.00  0.00     0.014 A 
ATOM      8  C   UNL A   1      41.759  24.027  27.966  1.00  0.00     0.014 A 
ATOM      9  C   UNL A   1      39.935  26.084  27.641  1.00  0.00     0.010 A 
ATOM     10  C   UNL A   1      41.961  25.238  28.628  1.00  0.00     0.010 A 
ATOM     11  C   UNL A   1      41.061  26.286  28.448  1.00  0.00    -0.014 A 
BRANCH  11  12
ATOM     12  C   UNL A   1      41.203  27.563  29.160  1.00  0.00     0.031 A 
ATOM     13  C   UNL A   1      42.257  28.503  28.661  1.00  0.00     0.074 A 
ATOM     14  C   UNL A   1      40.328  28.022  30.082  1.00  0.00     0.049 A 
ATOM     15  N   UNL A   1      43.238  29.052  29.307  1.00  0.00    -0.248 NA
ATOM     16  C   UNL A   1      42.215  28.858  27.234  1.00  0.00     0.031 C 
ATOM     17  C   UNL A   1      39.035  27.446  30.458  1.00  0.00     0.029 A 
ATOM     18  N   UNL A   1      40.370  29.188  30.796  1.00  0.00    -0.354 N 
ATOM     19  C   UNL A   1      43.837  29.951  28.421  1.00  0.00     0.074 A 
ATOM     20  C   UNL A   1      43.229  29.718  27.136  1.00  0.00     0.031 C 
ATOM     21  C   UNL A   1      38.328  28.364  31.156  1.00  0.00     0.029 A 
ATOM     22  C   UNL A   1      39.164  29.530  31.391  1.00  0.00     0.049 A 
ATOM     23  H   UNL A   1      41.184  29.735  30.881  1.00  0.00     0.167 HD
ATOM     24  C   UNL A   1      44.689  30.938  28.822  1.00  0.00     0.037 A 
ATOM     25  C   UNL A   1      38.847  30.712  31.974  1.00  0.00     0.037 A 
ATOM     26  C   UNL A   1      45.196  30.714  30.148  1.00  0.00     0.049 A 
ATOM     27  C   UNL A   1      40.109  31.409  32.325  1.00  0.00     0.074 A 
ATOM     28  C   UNL A   1      45.944  29.728  30.757  1.00  0.00     0.029 A 
ATOM     29  N   UNL A   1      44.712  31.493  31.169  1.00  0.00    -0.354 N 
ATOM     30  N   UNL A   1      40.952  31.011  33.237  1.00  0.00    -0.248 NA
ATOM     31  C   UNL A   1      40.615  32.421  31.409  1.00  0.00     0.031 C 
ATOM     32  C   UNL A   1      45.483  29.684  32.104  1.00  0.00     0.029 A 
ATOM     33  C   UNL A   1      44.487  30.655  32.231  1.00  0.00     0.049 A 
ATOM     34  H   UNL A   1      44.556  32.465  31.144  1.00  0.00     0.167 HD
ATOM     35  C   UNL A   1      42.195  31.418  32.776  1.00  0.00     0.074 A 
ATOM     36  C   UNL A   1      41.911  32.385  31.723  1.00  0.00     0.031 C 
ATOM     37  C   UNL A   1      43.332  30.736  33.099  1.00  0.00     0.037 A 
BRANCH  24  38
ATOM     38  C   UNL A   1      44.867  32.266  28.121  1.00  0.00     0.058 A 
ATOM     39  C   UNL A   1      46.117  32.602  27.554  1.00  0.00     0.135 A 
ATOM     40  C   UNL A   1      43.947  33.329  28.236  1.00  0.00     0.135 A 
ATOM     41  F   UNL A   1      47.073  31.671  27.406  1.00  0.00    -0.206 F 
ATOM     42  C   UNL A   1      46.450  33.910  27.196  1.00  0.00     0.059 A 
ATOM     43  C   UNL A   1      44.239  34.631  27.835  1.00  0.00     0.059 A 
ATOM     44  F   UNL A   1      42.757  33.170  28.831  1.00  0.00    -0.206 F 
ATOM     45  C   UNL A   1      45.510  34.922  27.363  1.00  0.00     0.060 A 
BRANCH  45  46
ATOM     46  S   UNL A   1      45.982  36.631  27.036  1.00  0.00     0.124 S 
ATOM     47  O   UNL A   1      44.677  37.269  26.902  1.00  0.00    -0.237 OA
ATOM     48  O   UNL A   1      46.742  36.976  28.232  1.00  0.00    -0.237 OA
ATOM     49  O   UNL A   1      46.766  36.532  25.809  1.00  0.00    -0.744 OA
ENDBRANCH  45  46
ENDBRANCH  24  38
BRANCH  25  50
ATOM     50  C   UNL A   1      37.529  31.399  31.987  1.00  0.00     0.058 A 
ATOM     51  C   UNL A   1      36.908  31.773  33.191  1.00  0.00     0.135 A 
ATOM     52  C   UNL A   1      36.978  31.942  30.808  1.00  0.00     0.135 A 
ATOM     53  F   UNL A   1      37.386  31.331  34.364  1.00  0.00    -0.206 F 
ATOM     54  C   UNL A   1      35.826  32.660  33.228  1.00  0.00     0.059 A 
ATOM     55  C   UNL A   1      35.892  32.812  30.818  1.00  0.00     0.059 A 
ATOM     56  F   UNL A   1      37.540  31.711  29.611  1.00  0.00    -0.206 F 
ATOM     57  C   UNL A   1      35.334  33.187  32.035  1.00  0.00     0.060 A 
BRANCH  57  58
ATOM     58  S   UNL A   1      34.046  34.454  32.084  1.00  0.00     0.124 S 
ATOM     59  O   UNL A   1      33.069  33.854  32.987  1.00  0.00    -0.237 OA
ATOM     60  O   UNL A   1      34.770  35.609  32.605  1.00  0.00    -0.237 OA
ATOM     61  O   UNL A   1      33.623  34.564  30.691  1.00  0.00    -0.744 OA
ENDBRANCH  57  58
ENDBRANCH  25  50
BRANCH  37  62
ATOM     62  C   UNL A   1      43.288  29.761  34.244  1.00  0.00     0.058 A 
ATOM     63  C   UNL A   1      42.905  28.416  34.107  1.00  0.00     0.135 A 
ATOM     64  C   UNL A   1      43.837  30.150  35.476  1.00  0.00     0.135 A 
ATOM     65  F   UNL A   1      42.468  27.940  32.933  1.00  0.00    -0.206 F 
ATOM     66  C   UNL A   1      43.042  27.504  35.153  1.00  0.00     0.059 A 
ATOM     67  C   UNL A   1      44.013  29.249  36.524  1.00  0.00     0.059 A 
ATOM     68  F   UNL A   1      44.279  31.408  35.648  1.00  0.00    -0.206 F 
ATOM     69  C   UNL A   1      43.609  27.925  36.355  1.00  0.00     0.060 A 
BRANCH  69  70
ATOM     70  S   UNL A   1      43.926  26.703  37.648  1.00  0.00     0.124 S 
ATOM     71  O   UNL A   1      44.758  25.728  36.952  1.00  0.00    -0.237 OA
ATOM     72  O   UNL A   1      44.602  27.493  38.676  1.00  0.00    -0.237 OA
ATOM     73  O   UNL A   1      42.590  26.240  38.013  1.00  0.00    -0.744 OA
ENDBRANCH  69  70
ENDBRANCH  37  62
ENDBRANCH  11  12
ENDBRANCH   4   6
ENDBRANCH   1   2
BRANCH   1  74
ATOM     74  C   UNL A   1      37.404  21.464  24.494  1.00  0.00     0.042 C 
BRANCH  74  75
ATOM     75  C   UNL A   1      36.407  20.553  25.199  1.00  0.00     0.117 C 
BRANCH  75  76
ATOM     76  N   UNL A   1      35.542  21.196  26.186  1.00  0.00    -0.354 N 
ATOM     77  C   UNL A   1      34.185  21.370  26.281  1.00  0.00     0.246 C 
ATOM     78  H   UNL A   1      36.038  21.586  26.944  1.00  0.00     0.163 HD
ATOM     79  O   UNL A   1      33.761  21.446  27.444  1.00  0.00    -0.272 OA
BRANCH  77  80
ATOM     80  C   UNL A   1      33.191  21.599  25.084  1.00  0.00     0.127 C 
ATOM     81  C   UNL A   1      33.922  22.330  23.895  1.00  0.00     0.061 C 
ATOM     82  C   UNL A   1      31.975  22.468  25.400  1.00  0.00     0.061 C 
ATOM     83  C   UNL A   1      34.145  23.844  24.090  1.00  0.00     0.122 C 
ATOM     84  C   UNL A   1      32.451  23.847  25.810  1.00  0.00     0.122 C 
ATOM     85  N   UNL A   1      32.982  24.528  24.666  1.00  0.00    -0.342 N 
ATOM     86  C   UNL A   1      32.561  25.760  24.191  1.00  0.00     0.227 C 
ATOM     87  O   UNL A   1      33.105  26.255  23.195  1.00  0.00    -0.274 OA
BRANCH  80  88
ATOM     88  N   UNL A   1      32.774  20.256  24.602  1.00  0.00    -0.322 N 
ATOM     89  C   UNL A   1      32.405  19.940  23.314  1.00  0.00     0.108 A 
ATOM     90  C   UNL A   1      32.636  19.104  25.334  1.00  0.00     0.200 A 
ATOM     91  C   UNL A   1      32.049  18.615  23.343  1.00  0.00     0.130 A 
ATOM     92  N   UNL A   1      32.197  18.105  24.602  1.00  0.00    -0.245 NA
ENDBRANCH  80  88
BRANCH  86  93
ATOM     93  C   UNL A   1      31.450  26.583  24.881  1.00  0.00     0.107 C 
ATOM     94  C   UNL A   1      30.487  27.273  23.922  1.00  0.00     0.115 C 
ATOM     95  C   UNL A   1      31.886  27.655  25.866  1.00  0.00     0.133 C 
ATOM     96  C   UNL A   1      30.720  28.748  24.129  1.00  0.00     0.223 C 
ATOM     97  N   UNL A   1      31.514  28.918  25.261  1.00  0.00    -0.339 N 
ATOM     98  O   UNL A   1      30.328  29.605  23.342  1.00  0.00    -0.275 OA
BRANCH  97  99
ATOM     99  C   UNL A   1      32.127  30.141  25.708  1.00  0.00     0.085 C 
ATOM    100  C   UNL A   1      31.344  31.183  26.470  1.00  0.00     0.027 C 
ATOM    101  C   UNL A   1      32.465  30.443  27.139  1.00  0.00     0.027 C 
ENDBRANCH  97  99
ENDBRANCH  86  93
ENDBRANCH  77  80
ENDBRANCH  75  76
ENDBRANCH  74  75
ENDBRANCH   1  74
TORSDOF 16
ENDMDL
