MODEL 1
REMARK VINA RESULT:     -10.7      0.000      0.000
REMARK SMILES CCOc1cccc(-c2ccc([C@@H](C)C(=O)NCCCNC(=O)c3ccc(-c4c5nc(c(-c6c(F)cc(S(=O)(=O)[O-])cc6F)c6ccc([nH]6)c(-c6c(F)cc(S(=O)(=O)[O-])cc6F)c6nc(c(-c7c(F)cc(S(=O)(=O)[O-])cc7F)c7ccc4[nH]7)C=C6)C=C5)cc3)cc2F)c1
REMARK SMILES IDX 18 1 17 2 15 3 16 4 13 6 14 7 12 8 9 9 10 10 91 11 11 12
REMARK SMILES IDX 90 13 92 14 8 15 4 16 5 17 93 18 6 19 7 20 3 21 2 22 1 23
REMARK SMILES IDX 19 24 20 25 21 26 22 27 23 29 24 30 25 31 89 32 26 33 88 34
REMARK SMILES IDX 27 35 28 36 29 37 82 38 30 39 87 40 81 41 83 42 31 43 86 44
REMARK SMILES IDX 80 45 79 46 32 48 66 49 45 50 65 51 46 52 49 53 64 54 84 55
REMARK SMILES IDX 47 56 48 57 63 59 85 60 50 61 33 62 34 63 43 64 35 65 36 66
REMARK SMILES IDX 42 67 44 68 37 69 38 70 39 71 40 72 41 73 67 74 68 75 77 76
REMARK SMILES IDX 69 77 70 78 76 79 78 80 71 81 72 82 73 83 74 84 75 85 51 86
REMARK SMILES IDX 52 87 61 88 53 89 54 90 60 91 62 92 55 93 56 94 57 95 58 96
REMARK SMILES IDX 59 97
REMARK H PARENT 17 5 21 28 83 47 49 58
REMARK Flexibility Score: inf
ROOT
ATOM      1  C   UNL A   1      34.924  22.904  24.131  1.00  0.00     0.117 C 
ENDROOT
BRANCH   1   2
ATOM      2  N   UNL A   1      34.406  23.460  22.897  1.00  0.00    -0.356 N 
ATOM      3  C   UNL A   1      33.279  24.172  22.622  1.00  0.00     0.227 C 
ATOM      4  O   UNL A   1      33.094  24.459  21.433  1.00  0.00    -0.274 OA
ATOM      5  H   UNL A   1      34.976  23.293  22.112  1.00  0.00     0.163 HD
BRANCH   3   6
ATOM      6  C   UNL A   1      32.271  24.636  23.683  1.00  0.00     0.105 C 
ATOM      7  C   UNL A   1      30.810  24.575  23.239  1.00  0.00     0.023 C 
BRANCH   6   8
ATOM      8  C   UNL A   1      32.678  25.906  24.411  1.00  0.00    -0.033 A 
ATOM      9  C   UNL A   1      33.520  28.200  25.925  1.00  0.00     0.018 A 
ATOM     10  C   UNL A   1      34.000  27.944  24.630  1.00  0.00     0.012 A 
ATOM     11  C   UNL A   1      32.565  27.290  26.413  1.00  0.00     0.131 A 
ATOM     12  C   UNL A   1      33.560  26.847  23.876  1.00  0.00     0.005 A 
ATOM     13  C   UNL A   1      32.173  26.158  25.692  1.00  0.00     0.044 A 
ATOM     14  F   UNL A   1      31.981  27.474  27.608  1.00  0.00    -0.206 F 
BRANCH   9  15
ATOM     15  C   UNL A   1      34.035  29.345  26.723  1.00  0.00    -0.012 A 
ATOM     16  C   UNL A   1      33.740  31.585  27.666  1.00  0.00     0.119 A 
ATOM     17  C   UNL A   1      34.967  31.510  28.310  1.00  0.00     0.046 A 
ATOM     18  C   UNL A   1      33.289  30.525  26.876  1.00  0.00     0.055 A 
ATOM     19  C   UNL A   1      35.735  30.357  28.177  1.00  0.00     0.004 A 
ATOM     20  C   UNL A   1      35.277  29.294  27.388  1.00  0.00     0.009 A 
BRANCH  16  21
ATOM     21  O   UNL A   1      33.036  32.756  27.723  1.00  0.00    -0.494 OA
BRANCH  21  22
ATOM     22  C   UNL A   1      33.859  33.884  28.047  1.00  0.00     0.226 C 
ATOM     23  C   UNL A   1      33.279  34.678  29.208  1.00  0.00     0.049 C 
ENDBRANCH  21  22
ENDBRANCH  16  21
ENDBRANCH   9  15
ENDBRANCH   6   8
ENDBRANCH   3   6
ENDBRANCH   1   2
BRANCH   1  24
ATOM     24  C   UNL A   1      36.035  23.760  24.732  1.00  0.00     0.042 C 
BRANCH  24  25
ATOM     25  C   UNL A   1      36.455  23.332  26.132  1.00  0.00     0.118 C 
BRANCH  25  26
ATOM     26  N   UNL A   1      37.511  22.329  26.104  1.00  0.00    -0.352 N 
ATOM     27  C   UNL A   1      38.873  22.459  26.230  1.00  0.00     0.251 C 
ATOM     28  H   UNL A   1      37.197  21.405  25.973  1.00  0.00     0.163 HD
ATOM     29  O   UNL A   1      39.586  21.500  25.947  1.00  0.00    -0.269 OA
BRANCH  27  30
ATOM     30  C   UNL A   1      39.487  23.726  26.689  1.00  0.00     0.039 A 
ATOM     31  C   UNL A   1      39.690  23.917  28.060  1.00  0.00     0.014 A 
ATOM     32  C   UNL A   1      39.811  24.750  25.796  1.00  0.00     0.014 A 
ATOM     33  C   UNL A   1      40.262  25.104  28.526  1.00  0.00     0.010 A 
ATOM     34  C   UNL A   1      40.459  25.897  26.251  1.00  0.00     0.010 A 
ATOM     35  C   UNL A   1      40.678  26.094  27.621  1.00  0.00    -0.014 A 
BRANCH  35  36
ATOM     36  C   UNL A   1      41.332  27.345  28.088  1.00  0.00     0.031 A 
ATOM     37  C   UNL A   1      42.816  27.534  27.918  1.00  0.00     0.074 A 
ATOM     38  C   UNL A   1      40.601  28.280  28.728  1.00  0.00     0.049 A 
ATOM     39  N   UNL A   1      43.576  28.519  28.325  1.00  0.00    -0.248 NA
ATOM     40  C   UNL A   1      43.546  26.461  27.225  1.00  0.00     0.031 C 
ATOM     41  C   UNL A   1      39.166  28.187  29.002  1.00  0.00     0.029 A 
ATOM     42  N   UNL A   1      40.966  29.483  29.275  1.00  0.00    -0.354 N 
ATOM     43  C   UNL A   1      44.871  28.176  27.956  1.00  0.00     0.074 A 
ATOM     44  C   UNL A   1      44.801  26.867  27.342  1.00  0.00     0.031 C 
ATOM     45  C   UNL A   1      38.770  29.295  29.649  1.00  0.00     0.029 A 
ATOM     46  C   UNL A   1      39.926  30.158  29.868  1.00  0.00     0.049 A 
ATOM     47  H   UNL A   1      41.887  29.832  29.246  1.00  0.00     0.167 HD
ATOM     48  C   UNL A   1      46.013  28.893  28.093  1.00  0.00     0.037 A 
ATOM     49  C   UNL A   1      39.905  31.335  30.523  1.00  0.00     0.037 A 
ATOM     50  C   UNL A   1      46.071  30.205  28.685  1.00  0.00     0.049 A 
ATOM     51  C   UNL A   1      41.178  32.123  30.655  1.00  0.00     0.074 A 
ATOM     52  C   UNL A   1      47.163  31.043  28.819  1.00  0.00     0.029 A 
ATOM     53  N   UNL A   1      44.988  30.868  29.248  1.00  0.00    -0.354 N 
ATOM     54  N   UNL A   1      42.384  31.814  30.242  1.00  0.00    -0.248 NA
ATOM     55  C   UNL A   1      41.089  33.423  31.333  1.00  0.00     0.031 C 
ATOM     56  C   UNL A   1      46.752  32.195  29.499  1.00  0.00     0.029 A 
ATOM     57  C   UNL A   1      45.391  32.096  29.747  1.00  0.00     0.049 A 
ATOM     58  H   UNL A   1      44.069  30.518  29.286  1.00  0.00     0.167 HD
ATOM     59  C   UNL A   1      43.194  32.889  30.590  1.00  0.00     0.074 A 
ATOM     60  C   UNL A   1      42.337  33.862  31.238  1.00  0.00     0.031 C 
ATOM     61  C   UNL A   1      44.525  33.055  30.391  1.00  0.00     0.037 A 
BRANCH  48  62
ATOM     62  C   UNL A   1      47.289  28.268  27.595  1.00  0.00     0.058 A 
ATOM     63  C   UNL A   1      47.634  28.278  26.234  1.00  0.00     0.135 A 
ATOM     64  C   UNL A   1      48.181  27.655  28.489  1.00  0.00     0.135 A 
ATOM     65  F   UNL A   1      46.813  28.840  25.332  1.00  0.00    -0.206 F 
ATOM     66  C   UNL A   1      48.790  27.660  25.771  1.00  0.00     0.059 A 
ATOM     67  C   UNL A   1      49.361  27.057  28.052  1.00  0.00     0.059 A 
ATOM     68  F   UNL A   1      47.906  27.620  29.803  1.00  0.00    -0.206 F 
ATOM     69  C   UNL A   1      49.644  27.045  26.687  1.00  0.00     0.060 A 
BRANCH  69  70
ATOM     70  S   UNL A   1      51.128  26.223  26.067  1.00  0.00     0.124 S 
ATOM     71  O   UNL A   1      52.179  26.969  26.753  1.00  0.00    -0.237 OA
ATOM     72  O   UNL A   1      50.935  24.848  26.513  1.00  0.00    -0.237 OA
ATOM     73  O   UNL A   1      51.052  26.429  24.624  1.00  0.00    -0.744 OA
ENDBRANCH  69  70
ENDBRANCH  48  62
BRANCH  49  74
ATOM     74  C   UNL A   1      38.621  31.843  31.074  1.00  0.00     0.058 A 
ATOM     75  C   UNL A   1      38.177  31.452  32.345  1.00  0.00     0.135 A 
ATOM     76  C   UNL A   1      37.841  32.770  30.364  1.00  0.00     0.135 A 
ATOM     77  F   UNL A   1      38.885  30.563  33.058  1.00  0.00    -0.206 F 
ATOM     78  C   UNL A   1      37.006  31.961  32.897  1.00  0.00     0.059 A 
ATOM     79  C   UNL A   1      36.679  33.313  30.905  1.00  0.00     0.059 A 
ATOM     80  F   UNL A   1      38.232  33.189  29.151  1.00  0.00    -0.206 F 
ATOM     81  C   UNL A   1      36.268  32.899  32.171  1.00  0.00     0.060 A 
BRANCH  81  82
ATOM     82  S   UNL A   1      34.798  33.621  32.933  1.00  0.00     0.124 S 
ATOM     83  O   UNL A   1      34.843  34.987  32.422  1.00  0.00    -0.237 OA
ATOM     84  O   UNL A   1      33.732  32.775  32.406  1.00  0.00    -0.237 OA
ATOM     85  O   UNL A   1      35.055  33.473  34.364  1.00  0.00    -0.744 OA
ENDBRANCH  81  82
ENDBRANCH  49  74
BRANCH  61  86
ATOM     86  C   UNL A   1      45.138  34.347  30.854  1.00  0.00     0.058 A 
ATOM     87  C   UNL A   1      45.172  35.484  30.033  1.00  0.00     0.135 A 
ATOM     88  C   UNL A   1      45.649  34.463  32.157  1.00  0.00     0.135 A 
ATOM     89  F   UNL A   1      44.702  35.424  28.777  1.00  0.00    -0.206 F 
ATOM     90  C   UNL A   1      45.711  36.687  30.479  1.00  0.00     0.059 A 
ATOM     91  C   UNL A   1      46.169  35.663  32.634  1.00  0.00     0.059 A 
ATOM     92  F   UNL A   1      45.633  33.408  32.987  1.00  0.00    -0.206 F 
ATOM     93  C   UNL A   1      46.206  36.766  31.783  1.00  0.00     0.060 A 
BRANCH  93  94
ATOM     94  S   UNL A   1      46.870  38.342  32.362  1.00  0.00     0.124 S 
ATOM     95  O   UNL A   1      47.206  38.999  31.103  1.00  0.00    -0.237 OA
ATOM     96  O   UNL A   1      45.741  38.909  33.091  1.00  0.00    -0.237 OA
ATOM     97  O   UNL A   1      48.007  37.948  33.188  1.00  0.00    -0.744 OA
ENDBRANCH  93  94
ENDBRANCH  61  86
ENDBRANCH  35  36
ENDBRANCH  27  30
ENDBRANCH  25  26
ENDBRANCH  24  25
ENDBRANCH   1  24
TORSDOF 17
ENDMDL
MODEL 2
REMARK VINA RESULT:     -10.5      3.781     10.569
REMARK SMILES CCOc1cccc(-c2ccc([C@@H](C)C(=O)NCCCNC(=O)c3ccc(-c4c5nc(c(-c6c(F)cc(S(=O)(=O)[O-])cc6F)c6ccc([nH]6)c(-c6c(F)cc(S(=O)(=O)[O-])cc6F)c6nc(c(-c7c(F)cc(S(=O)(=O)[O-])cc7F)c7ccc4[nH]7)C=C6)C=C5)cc3)cc2F)c1
REMARK SMILES IDX 18 1 17 2 15 3 16 4 13 6 14 7 12 8 9 9 10 10 91 11 11 12
REMARK SMILES IDX 90 13 92 14 8 15 4 16 5 17 93 18 6 19 7 20 3 21 2 22 1 23
REMARK SMILES IDX 19 24 20 25 21 26 22 27 23 29 24 30 25 31 89 32 26 33 88 34
REMARK SMILES IDX 27 35 28 36 29 37 82 38 30 39 87 40 81 41 83 42 31 43 86 44
REMARK SMILES IDX 80 45 79 46 32 48 66 49 45 50 65 51 46 52 49 53 64 54 84 55
REMARK SMILES IDX 47 56 48 57 63 59 85 60 50 61 33 62 34 63 43 64 35 65 36 66
REMARK SMILES IDX 42 67 44 68 37 69 38 70 39 71 40 72 41 73 67 74 68 75 77 76
REMARK SMILES IDX 69 77 70 78 76 79 78 80 71 81 72 82 73 83 74 84 75 85 51 86
REMARK SMILES IDX 52 87 61 88 53 89 54 90 60 91 62 92 55 93 56 94 57 95 58 96
REMARK SMILES IDX 59 97
REMARK H PARENT 17 5 21 28 83 47 49 58
REMARK Flexibility Score: inf
ROOT
ATOM      1  C   UNL A   1      36.111  32.915  31.540  1.00  0.00     0.117 C 
ENDROOT
BRANCH   1   2
ATOM      2  N   UNL A   1      36.086  32.783  32.983  1.00  0.00    -0.356 N 
ATOM      3  C   UNL A   1      37.075  32.800  33.917  1.00  0.00     0.227 C 
ATOM      4  O   UNL A   1      36.723  32.602  35.086  1.00  0.00    -0.274 OA
ATOM      5  H   UNL A   1      35.183  32.658  33.358  1.00  0.00     0.163 HD
BRANCH   3   6
ATOM      6  C   UNL A   1      38.555  33.064  33.602  1.00  0.00     0.105 C 
ATOM      7  C   UNL A   1      38.796  33.914  32.355  1.00  0.00     0.023 C 
BRANCH   6   8
ATOM      8  C   UNL A   1      39.444  31.840  33.737  1.00  0.00    -0.033 A 
ATOM      9  C   UNL A   1      41.149  29.526  33.807  1.00  0.00     0.018 A 
ATOM     10  C   UNL A   1      41.472  30.711  34.488  1.00  0.00     0.012 A 
ATOM     11  C   UNL A   1      39.916  29.527  33.131  1.00  0.00     0.131 A 
ATOM     12  C   UNL A   1      40.622  31.827  34.487  1.00  0.00     0.005 A 
ATOM     13  C   UNL A   1      39.096  30.658  33.071  1.00  0.00     0.044 A 
ATOM     14  F   UNL A   1      39.468  28.426  32.508  1.00  0.00    -0.206 F 
BRANCH   9  15
ATOM     15  C   UNL A   1      42.088  28.373  33.786  1.00  0.00    -0.012 A 
ATOM     16  C   UNL A   1      42.853  26.235  34.704  1.00  0.00     0.119 A 
ATOM     17  C   UNL A   1      43.819  26.120  33.713  1.00  0.00     0.046 A 
ATOM     18  C   UNL A   1      42.011  27.349  34.745  1.00  0.00     0.055 A 
ATOM     19  C   UNL A   1      43.926  27.118  32.750  1.00  0.00     0.004 A 
ATOM     20  C   UNL A   1      43.076  28.231  32.792  1.00  0.00     0.009 A 
BRANCH  16  21
ATOM     21  O   UNL A   1      42.817  25.300  35.701  1.00  0.00    -0.494 OA
BRANCH  21  22
ATOM     22  C   UNL A   1      42.332  24.028  35.254  1.00  0.00     0.226 C 
ATOM     23  C   UNL A   1      43.474  23.050  35.021  1.00  0.00     0.049 C 
ENDBRANCH  21  22
ENDBRANCH  16  21
ENDBRANCH   9  15
ENDBRANCH   6   8
ENDBRANCH   3   6
ENDBRANCH   1   2
BRANCH   1  24
ATOM     24  C   UNL A   1      34.833  32.396  30.887  1.00  0.00     0.042 C 
BRANCH  24  25
ATOM     25  C   UNL A   1      34.777  32.618  29.381  1.00  0.00     0.118 C 
BRANCH  25  26
ATOM     26  N   UNL A   1      34.151  31.501  28.686  1.00  0.00    -0.352 N 
ATOM     27  C   UNL A   1      34.701  30.371  28.130  1.00  0.00     0.251 C 
ATOM     28  H   UNL A   1      33.173  31.567  28.600  1.00  0.00     0.163 HD
ATOM     29  O   UNL A   1      34.005  29.676  27.395  1.00  0.00    -0.269 OA
BRANCH  27  30
ATOM     30  C   UNL A   1      36.108  29.988  28.395  1.00  0.00     0.039 A 
ATOM     31  C   UNL A   1      37.048  30.132  27.369  1.00  0.00     0.014 A 
ATOM     32  C   UNL A   1      36.500  29.437  29.617  1.00  0.00     0.014 A 
ATOM     33  C   UNL A   1      38.382  29.775  27.586  1.00  0.00     0.010 A 
ATOM     34  C   UNL A   1      37.844  29.161  29.861  1.00  0.00     0.010 A 
ATOM     35  C   UNL A   1      38.797  29.313  28.845  1.00  0.00    -0.014 A 
BRANCH  35  36
ATOM     36  C   UNL A   1      40.219  28.971  29.115  1.00  0.00     0.031 A 
ATOM     37  C   UNL A   1      41.152  30.005  29.686  1.00  0.00     0.074 A 
ATOM     38  C   UNL A   1      40.686  27.751  28.780  1.00  0.00     0.049 A 
ATOM     39  N   UNL A   1      42.437  29.920  29.920  1.00  0.00    -0.248 NA
ATOM     40  C   UNL A   1      40.570  31.317  30.008  1.00  0.00     0.031 C 
ATOM     41  C   UNL A   1      39.893  26.682  28.170  1.00  0.00     0.029 A 
ATOM     42  N   UNL A   1      41.941  27.210  28.893  1.00  0.00    -0.354 N 
ATOM     43  C   UNL A   1      42.819  31.168  30.397  1.00  0.00     0.074 A 
ATOM     44  C   UNL A   1      41.642  32.009  30.367  1.00  0.00     0.031 C 
ATOM     45  C   UNL A   1      40.676  25.608  27.980  1.00  0.00     0.029 A 
ATOM     46  C   UNL A   1      42.032  25.923  28.419  1.00  0.00     0.049 A 
ATOM     47  H   UNL A   1      42.705  27.697  29.278  1.00  0.00     0.167 HD
ATOM     48  C   UNL A   1      44.033  31.573  30.843  1.00  0.00     0.037 A 
ATOM     49  C   UNL A   1      43.089  25.092  28.337  1.00  0.00     0.037 A 
ATOM     50  C   UNL A   1      45.196  30.723  30.892  1.00  0.00     0.049 A 
ATOM     51  C   UNL A   1      44.425  25.553  28.847  1.00  0.00     0.074 A 
ATOM     52  C   UNL A   1      46.456  31.014  31.380  1.00  0.00     0.029 A 
ATOM     53  N   UNL A   1      45.239  29.415  30.429  1.00  0.00    -0.354 N 
ATOM     54  N   UNL A   1      44.755  26.717  29.357  1.00  0.00    -0.248 NA
ATOM     55  C   UNL A   1      45.532  24.590  28.781  1.00  0.00     0.031 C 
ATOM     56  C   UNL A   1      47.274  29.898  31.176  1.00  0.00     0.029 A 
ATOM     57  C   UNL A   1      46.511  28.892  30.603  1.00  0.00     0.049 A 
ATOM     58  H   UNL A   1      44.479  28.929  30.035  1.00  0.00     0.167 HD
ATOM     59  C   UNL A   1      46.101  26.619  29.692  1.00  0.00     0.074 A 
ATOM     60  C   UNL A   1      46.520  25.277  29.338  1.00  0.00     0.031 C 
ATOM     61  C   UNL A   1      46.914  27.553  30.244  1.00  0.00     0.037 A 
BRANCH  48  62
ATOM     62  C   UNL A   1      44.161  32.999  31.309  1.00  0.00     0.058 A 
ATOM     63  C   UNL A   1      44.382  34.054  30.409  1.00  0.00     0.135 A 
ATOM     64  C   UNL A   1      44.059  33.317  32.673  1.00  0.00     0.135 A 
ATOM     65  F   UNL A   1      44.501  33.807  29.094  1.00  0.00    -0.206 F 
ATOM     66  C   UNL A   1      44.546  35.363  30.847  1.00  0.00     0.059 A 
ATOM     67  C   UNL A   1      44.188  34.626  33.131  1.00  0.00     0.059 A 
ATOM     68  F   UNL A   1      43.843  32.349  33.580  1.00  0.00    -0.206 F 
ATOM     69  C   UNL A   1      44.454  35.639  32.212  1.00  0.00     0.060 A 
BRANCH  69  70
ATOM     70  S   UNL A   1      44.696  37.339  32.767  1.00  0.00     0.124 S 
ATOM     71  O   UNL A   1      43.320  37.821  32.829  1.00  0.00    -0.237 OA
ATOM     72  O   UNL A   1      45.361  37.159  34.053  1.00  0.00    -0.237 OA
ATOM     73  O   UNL A   1      45.520  37.926  31.715  1.00  0.00    -0.744 OA
ENDBRANCH  69  70
ENDBRANCH  48  62
BRANCH  49  74
ATOM     74  C   UNL A   1      42.906  23.728  27.772  1.00  0.00     0.058 A 
ATOM     75  C   UNL A   1      42.677  22.627  28.610  1.00  0.00     0.135 A 
ATOM     76  C   UNL A   1      42.903  23.510  26.386  1.00  0.00     0.135 A 
ATOM     77  F   UNL A   1      42.678  22.786  29.941  1.00  0.00    -0.206 F 
ATOM     78  C   UNL A   1      42.450  21.355  28.094  1.00  0.00     0.059 A 
ATOM     79  C   UNL A   1      42.653  22.252  25.845  1.00  0.00     0.059 A 
ATOM     80  F   UNL A   1      43.100  24.535  25.543  1.00  0.00    -0.206 F 
ATOM     81  C   UNL A   1      42.431  21.180  26.709  1.00  0.00     0.060 A 
BRANCH  81  82
ATOM     82  S   UNL A   1      42.046  19.544  26.048  1.00  0.00     0.124 S 
ATOM     83  O   UNL A   1      40.607  19.647  25.828  1.00  0.00    -0.237 OA
ATOM     84  O   UNL A   1      42.875  19.494  24.848  1.00  0.00    -0.237 OA
ATOM     85  O   UNL A   1      42.458  18.643  27.121  1.00  0.00    -0.744 OA
ENDBRANCH  81  82
ENDBRANCH  49  74
BRANCH  61  86
ATOM     86  C   UNL A   1      48.336  27.154  30.524  1.00  0.00     0.058 A 
ATOM     87  C   UNL A   1      49.356  27.345  29.580  1.00  0.00     0.135 A 
ATOM     88  C   UNL A   1      48.690  26.623  31.775  1.00  0.00     0.135 A 
ATOM     89  F   UNL A   1      49.068  27.842  28.366  1.00  0.00    -0.206 F 
ATOM     90  C   UNL A   1      50.675  27.003  29.857  1.00  0.00     0.059 A 
ATOM     91  C   UNL A   1      50.008  26.299  32.084  1.00  0.00     0.059 A 
ATOM     92  F   UNL A   1      47.754  26.429  32.718  1.00  0.00    -0.206 F 
ATOM     93  C   UNL A   1      50.992  26.482  31.114  1.00  0.00     0.060 A 
BRANCH  93  94
ATOM     94  S   UNL A   1      52.714  26.076  31.474  1.00  0.00     0.124 S 
ATOM     95  O   UNL A   1      53.320  26.169  30.150  1.00  0.00    -0.237 OA
ATOM     96  O   UNL A   1      53.091  27.123  32.418  1.00  0.00    -0.237 OA
ATOM     97  O   UNL A   1      52.635  24.732  32.037  1.00  0.00    -0.744 OA
ENDBRANCH  93  94
ENDBRANCH  61  86
ENDBRANCH  35  36
ENDBRANCH  27  30
ENDBRANCH  25  26
ENDBRANCH  24  25
ENDBRANCH   1  24
TORSDOF 17
ENDMDL
MODEL 3
REMARK VINA RESULT:     -10.5      3.138      6.160
REMARK SMILES CCOc1cccc(-c2ccc([C@@H](C)C(=O)NCCCNC(=O)c3ccc(-c4c5nc(c(-c6c(F)cc(S(=O)(=O)[O-])cc6F)c6ccc([nH]6)c(-c6c(F)cc(S(=O)(=O)[O-])cc6F)c6nc(c(-c7c(F)cc(S(=O)(=O)[O-])cc7F)c7ccc4[nH]7)C=C6)C=C5)cc3)cc2F)c1
REMARK SMILES IDX 18 1 17 2 15 3 16 4 13 6 14 7 12 8 9 9 10 10 91 11 11 12
REMARK SMILES IDX 90 13 92 14 8 15 4 16 5 17 93 18 6 19 7 20 3 21 2 22 1 23
REMARK SMILES IDX 19 24 20 25 21 26 22 27 23 29 24 30 25 31 89 32 26 33 88 34
REMARK SMILES IDX 27 35 28 36 29 37 82 38 30 39 87 40 81 41 83 42 31 43 86 44
REMARK SMILES IDX 80 45 79 46 32 48 66 49 45 50 65 51 46 52 49 53 64 54 84 55
REMARK SMILES IDX 47 56 48 57 63 59 85 60 50 61 33 62 34 63 43 64 35 65 36 66
REMARK SMILES IDX 42 67 44 68 37 69 38 70 39 71 40 72 41 73 67 74 68 75 77 76
REMARK SMILES IDX 69 77 70 78 76 79 78 80 71 81 72 82 73 83 74 84 75 85 51 86
REMARK SMILES IDX 52 87 61 88 53 89 54 90 60 91 62 92 55 93 56 94 57 95 58 96
REMARK SMILES IDX 59 97
REMARK H PARENT 17 5 21 28 83 47 49 58
REMARK Flexibility Score: inf
ROOT
ATOM      1  C   UNL A   1      42.397  21.306  25.765  1.00  0.00     0.117 C 
ENDROOT
BRANCH   1   2
ATOM      2  N   UNL A   1      43.815  21.015  25.731  1.00  0.00    -0.356 N 
ATOM      3  C   UNL A   1      44.911  21.821  25.776  1.00  0.00     0.227 C 
ATOM      4  O   UNL A   1      46.007  21.255  25.670  1.00  0.00    -0.274 OA
ATOM      5  H   UNL A   1      44.026  20.056  25.664  1.00  0.00     0.163 HD
BRANCH   3   6
ATOM      6  C   UNL A   1      44.856  23.344  25.965  1.00  0.00     0.105 C 
ATOM      7  C   UNL A   1      45.886  24.122  25.147  1.00  0.00     0.023 C 
BRANCH   6   8
ATOM      8  C   UNL A   1      44.706  23.782  27.411  1.00  0.00    -0.033 A 
ATOM      9  C   UNL A   1      44.471  24.786  30.095  1.00  0.00     0.018 A 
ATOM     10  C   UNL A   1      43.383  24.215  29.415  1.00  0.00     0.012 A 
ATOM     11  C   UNL A   1      45.693  24.791  29.399  1.00  0.00     0.131 A 
ATOM     12  C   UNL A   1      43.506  23.689  28.120  1.00  0.00     0.005 A 
ATOM     13  C   UNL A   1      45.806  24.329  28.083  1.00  0.00     0.044 A 
ATOM     14  F   UNL A   1      46.817  25.242  29.976  1.00  0.00    -0.206 F 
BRANCH   9  15
ATOM     15  C   UNL A   1      44.304  25.378  31.449  1.00  0.00    -0.012 A 
ATOM     16  C   UNL A   1      43.589  27.223  32.892  1.00  0.00     0.119 A 
ATOM     17  C   UNL A   1      43.899  26.494  34.031  1.00  0.00     0.046 A 
ATOM     18  C   UNL A   1      43.800  26.678  31.623  1.00  0.00     0.055 A 
ATOM     19  C   UNL A   1      44.404  25.205  33.897  1.00  0.00     0.004 A 
ATOM     20  C   UNL A   1      44.610  24.659  32.623  1.00  0.00     0.009 A 
BRANCH  16  21
ATOM     21  O   UNL A   1      43.184  28.522  33.030  1.00  0.00    -0.494 OA
BRANCH  21  22
ATOM     22  C   UNL A   1      41.767  28.680  32.898  1.00  0.00     0.226 C 
ATOM     23  C   UNL A   1      41.365  30.147  32.949  1.00  0.00     0.049 C 
ENDBRANCH  21  22
ENDBRANCH  16  21
ENDBRANCH   9  15
ENDBRANCH   6   8
ENDBRANCH   3   6
ENDBRANCH   1   2
BRANCH   1  24
ATOM     24  C   UNL A   1      41.696  20.644  26.949  1.00  0.00     0.042 C 
BRANCH  24  25
ATOM     25  C   UNL A   1      40.663  21.532  27.629  1.00  0.00     0.118 C 
BRANCH  25  26
ATOM     26  N   UNL A   1      39.561  21.872  26.740  1.00  0.00    -0.352 N 
ATOM     27  C   UNL A   1      38.942  23.075  26.500  1.00  0.00     0.251 C 
ATOM     28  H   UNL A   1      39.200  21.114  26.226  1.00  0.00     0.163 HD
ATOM     29  O   UNL A   1      37.884  23.081  25.877  1.00  0.00    -0.269 OA
BRANCH  27  30
ATOM     30  C   UNL A   1      39.522  24.350  26.984  1.00  0.00     0.039 A 
ATOM     31  C   UNL A   1      40.227  25.153  26.082  1.00  0.00     0.014 A 
ATOM     32  C   UNL A   1      39.431  24.735  28.324  1.00  0.00     0.014 A 
ATOM     33  C   UNL A   1      40.791  26.359  26.509  1.00  0.00     0.010 A 
ATOM     34  C   UNL A   1      39.919  25.976  28.730  1.00  0.00     0.010 A 
ATOM     35  C   UNL A   1      40.616  26.795  27.832  1.00  0.00    -0.014 A 
BRANCH  35  36
ATOM     36  C   UNL A   1      41.165  28.096  28.297  1.00  0.00     0.031 A 
ATOM     37  C   UNL A   1      42.647  28.357  28.241  1.00  0.00     0.074 A 
ATOM     38  C   UNL A   1      40.338  29.015  28.835  1.00  0.00     0.049 A 
ATOM     39  N   UNL A   1      43.320  29.395  28.667  1.00  0.00    -0.248 NA
ATOM     40  C   UNL A   1      43.484  27.298  27.656  1.00  0.00     0.031 C 
ATOM     41  C   UNL A   1      38.891  28.857  28.994  1.00  0.00     0.029 A 
ATOM     42  N   UNL A   1      40.596  30.256  29.358  1.00  0.00    -0.354 N 
ATOM     43  C   UNL A   1      44.658  29.107  28.420  1.00  0.00     0.074 A 
ATOM     44  C   UNL A   1      44.704  27.774  27.858  1.00  0.00     0.031 C 
ATOM     45  C   UNL A   1      38.388  29.966  29.559  1.00  0.00     0.029 A 
ATOM     46  C   UNL A   1      39.477  30.898  29.834  1.00  0.00     0.049 A 
ATOM     47  H   UNL A   1      41.497  30.651  29.389  1.00  0.00     0.167 HD
ATOM     48  C   UNL A   1      45.747  29.888  28.619  1.00  0.00     0.037 A 
ATOM     49  C   UNL A   1      39.343  32.096  30.435  1.00  0.00     0.037 A 
ATOM     50  C   UNL A   1      45.690  31.224  29.157  1.00  0.00     0.049 A 
ATOM     51  C   UNL A   1      40.560  32.955  30.637  1.00  0.00     0.074 A 
ATOM     52  C   UNL A   1      46.724  32.122  29.344  1.00  0.00     0.029 A 
ATOM     53  N   UNL A   1      44.533  31.850  29.601  1.00  0.00    -0.354 N 
ATOM     54  N   UNL A   1      41.811  32.693  30.337  1.00  0.00    -0.248 NA
ATOM     55  C   UNL A   1      40.351  34.273  31.249  1.00  0.00     0.031 C 
ATOM     56  C   UNL A   1      46.201  33.276  29.938  1.00  0.00     0.029 A 
ATOM     57  C   UNL A   1      44.831  33.115  30.078  1.00  0.00     0.049 A 
ATOM     58  H   UNL A   1      43.632  31.453  29.579  1.00  0.00     0.167 HD
ATOM     59  C   UNL A   1      42.534  33.822  30.705  1.00  0.00     0.074 A 
ATOM     60  C   UNL A   1      41.579  34.773  31.237  1.00  0.00     0.031 C 
ATOM     61  C   UNL A   1      43.868  34.051  30.608  1.00  0.00     0.037 A 
BRANCH  48  62
ATOM     62  C   UNL A   1      47.089  29.313  28.254  1.00  0.00     0.058 A 
ATOM     63  C   UNL A   1      47.687  29.565  27.009  1.00  0.00     0.135 A 
ATOM     64  C   UNL A   1      47.791  28.502  29.161  1.00  0.00     0.135 A 
ATOM     65  F   UNL A   1      47.057  30.324  26.097  1.00  0.00    -0.206 F 
ATOM     66  C   UNL A   1      48.906  28.995  26.656  1.00  0.00     0.059 A 
ATOM     67  C   UNL A   1      49.027  27.947  28.842  1.00  0.00     0.059 A 
ATOM     68  F   UNL A   1      47.270  28.231  30.369  1.00  0.00    -0.206 F 
ATOM     69  C   UNL A   1      49.565  28.181  27.578  1.00  0.00     0.060 A 
BRANCH  69  70
ATOM     70  S   UNL A   1      51.133  27.426  27.096  1.00  0.00     0.124 S 
ATOM     71  O   UNL A   1      51.010  27.408  25.642  1.00  0.00    -0.237 OA
ATOM     72  O   UNL A   1      52.112  28.363  27.636  1.00  0.00    -0.237 OA
ATOM     73  O   UNL A   1      51.095  26.120  27.746  1.00  0.00    -0.744 OA
ENDBRANCH  69  70
ENDBRANCH  48  62
BRANCH  49  74
ATOM     74  C   UNL A   1      37.994  32.556  30.857  1.00  0.00     0.058 A 
ATOM     75  C   UNL A   1      37.496  32.253  32.132  1.00  0.00     0.135 A 
ATOM     76  C   UNL A   1      37.201  33.352  30.015  1.00  0.00     0.135 A 
ATOM     77  F   UNL A   1      38.214  31.490  32.969  1.00  0.00    -0.206 F 
ATOM     78  C   UNL A   1      36.258  32.724  32.561  1.00  0.00     0.059 A 
ATOM     79  C   UNL A   1      35.971  33.854  30.430  1.00  0.00     0.059 A 
ATOM     80  F   UNL A   1      37.641  33.684  28.792  1.00  0.00    -0.206 F 
ATOM     81  C   UNL A   1      35.508  33.531  31.705  1.00  0.00     0.060 A 
BRANCH  81  82
ATOM     82  S   UNL A   1      33.945  34.211  32.304  1.00  0.00     0.124 S 
ATOM     83  O   UNL A   1      33.283  34.572  31.056  1.00  0.00    -0.237 OA
ATOM     84  O   UNL A   1      33.375  33.078  33.026  1.00  0.00    -0.237 OA
ATOM     85  O   UNL A   1      34.366  35.329  33.144  1.00  0.00    -0.744 OA
ENDBRANCH  81  82
ENDBRANCH  49  74
BRANCH  61  86
ATOM     86  C   UNL A   1      44.375  35.390  31.064  1.00  0.00     0.058 A 
ATOM     87  C   UNL A   1      44.504  36.472  30.179  1.00  0.00     0.135 A 
ATOM     88  C   UNL A   1      44.684  35.609  32.417  1.00  0.00     0.135 A 
ATOM     89  F   UNL A   1      44.228  36.313  28.875  1.00  0.00    -0.206 F 
ATOM     90  C   UNL A   1      44.943  37.718  30.614  1.00  0.00     0.059 A 
ATOM     91  C   UNL A   1      45.099  36.854  32.879  1.00  0.00     0.059 A 
ATOM     92  F   UNL A   1      44.568  34.611  33.307  1.00  0.00    -0.206 F 
ATOM     93  C   UNL A   1      45.237  37.900  31.968  1.00  0.00     0.060 A 
BRANCH  93  94
ATOM     94  S   UNL A   1      45.771  39.531  32.526  1.00  0.00     0.124 S 
ATOM     95  O   UNL A   1      44.859  39.773  33.639  1.00  0.00    -0.237 OA
ATOM     96  O   UNL A   1      47.165  39.298  32.889  1.00  0.00    -0.237 OA
ATOM     97  O   UNL A   1      45.569  40.374  31.352  1.00  0.00    -0.744 OA
ENDBRANCH  93  94
ENDBRANCH  61  86
ENDBRANCH  35  36
ENDBRANCH  27  30
ENDBRANCH  25  26
ENDBRANCH  24  25
ENDBRANCH   1  24
TORSDOF 17
ENDMDL
