MODEL 1
REMARK VINA RESULT:     -12.1      0.000      0.000
REMARK SMILES Cc1cc(C)cc(OCC(=O)Nc2ccc(O)cc2C(=O)NCCCNC(=O)c2ccc(-c3c4nc(c(-c5c(F)cc(S(=O)(=O)[O-])cc5F)c5ccc([nH]5)c(-c5c(F)cc(S(=O)(=O)[O-])cc5F)c5nc(c(-c6c(F)cc(S(=O)(=O)[O-])cc6F)c6ccc3[nH]6)C=C5)C=C4)cc2)c1
REMARK SMILES IDX 23 1 22 2 20 3 21 4 19 6 13 7 14 8 15 9 18 10 16 11 12 12
REMARK SMILES IDX 10 13 11 14 9 16 8 17 7 18 1 19 2 20 3 21 95 22 4 23 5 24
REMARK SMILES IDX 6 25 17 26 24 28 25 29 26 30 27 31 28 33 29 34 30 35 94 36
REMARK SMILES IDX 31 37 93 38 32 39 33 40 34 41 87 42 35 43 92 44 86 45 88 46
REMARK SMILES IDX 36 47 91 48 85 49 84 50 37 52 71 53 50 54 70 55 51 56 54 57
REMARK SMILES IDX 69 58 89 59 52 60 53 61 68 63 90 64 55 65 38 66 39 67 48 68
REMARK SMILES IDX 40 69 41 70 47 71 49 72 42 73 43 74 44 75 45 76 46 77 72 78
REMARK SMILES IDX 73 79 82 80 74 81 75 82 81 83 83 84 76 85 77 86 78 87 79 88
REMARK SMILES IDX 80 89 56 90 57 91 66 92 58 93 59 94 65 95 67 96 60 97 61 98
REMARK SMILES IDX 62 99 63 100 64 101
REMARK H PARENT 22 5 12 15 17 27 26 32 88 51 54 62
REMARK Flexibility Score: inf
ROOT
ATOM      1  C   UNL A   1      31.976  27.256  25.564  1.00  0.00     0.118 C 
ENDROOT
BRANCH   1   2
ATOM      2  N   UNL A   1      30.704  27.108  24.901  1.00  0.00    -0.352 N 
ATOM      3  C   UNL A   1      30.194  26.052  24.176  1.00  0.00     0.253 C 
ATOM      4  O   UNL A   1      29.014  26.148  23.826  1.00  0.00    -0.269 OA
ATOM      5  H   UNL A   1      30.105  27.886  24.977  1.00  0.00     0.163 HD
BRANCH   3   6
ATOM      6  C   UNL A   1      30.971  24.845  23.724  1.00  0.00     0.067 A 
ATOM      7  C   UNL A   1      31.045  23.569  24.321  1.00  0.00     0.054 A 
ATOM      8  C   UNL A   1      31.851  22.568  23.749  1.00  0.00     0.031 A 
ATOM      9  C   UNL A   1      32.577  22.801  22.586  1.00  0.00     0.048 A 
ATOM     10  C   UNL A   1      31.715  25.056  22.543  1.00  0.00     0.062 A 
ATOM     11  C   UNL A   1      32.495  24.045  21.986  1.00  0.00     0.116 A 
BRANCH   7  12
ATOM     12  N   UNL A   1      30.245  23.190  25.402  1.00  0.00    -0.322 N 
ATOM     13  C   UNL A   1      30.562  23.254  26.738  1.00  0.00     0.262 C 
ATOM     14  O   UNL A   1      29.642  23.070  27.543  1.00  0.00    -0.271 OA
ATOM     15  H   UNL A   1      29.353  22.835  25.182  1.00  0.00     0.170 HD
BRANCH  13  16
ATOM     16  C   UNL A   1      31.962  23.739  27.216  1.00  0.00     0.329 C 
BRANCH  16  17
ATOM     17  O   UNL A   1      32.840  22.824  27.859  1.00  0.00    -0.484 OA
BRANCH  17  18
ATOM     18  C   UNL A   1      33.763  22.279  27.008  1.00  0.00     0.120 A 
ATOM     19  C   UNL A   1      34.196  19.322  24.688  1.00  0.00     0.044 C 
ATOM     20  C   UNL A   1      34.450  20.622  25.391  1.00  0.00    -0.047 A 
ATOM     21  C   UNL A   1      35.465  21.488  24.963  1.00  0.00     0.007 A 
ATOM     22  C   UNL A   1      33.646  21.001  26.465  1.00  0.00     0.049 A 
ATOM     23  C   UNL A   1      35.656  22.732  25.583  1.00  0.00    -0.047 A 
ATOM     24  C   UNL A   1      36.749  23.646  25.122  1.00  0.00     0.044 C 
ATOM     25  C   UNL A   1      34.802  23.117  26.617  1.00  0.00     0.049 A 
ENDBRANCH  17  18
ENDBRANCH  16  17
ENDBRANCH  13  16
ENDBRANCH   7  12
BRANCH  11  26
ATOM     26  O   UNL A   1      33.163  24.314  20.829  1.00  0.00    -0.508 OA
ATOM     27  H   UNL A   1      33.992  23.911  20.663  1.00  0.00     0.293 HD
ENDBRANCH  11  26
ENDBRANCH   3   6
ENDBRANCH   1   2
BRANCH   1  28
ATOM     28  C   UNL A   1      32.057  28.137  26.790  1.00  0.00     0.042 C 
BRANCH  28  29
ATOM     29  C   UNL A   1      33.444  28.617  27.166  1.00  0.00     0.118 C 
BRANCH  29  30
ATOM     30  N   UNL A   1      33.501  29.980  27.683  1.00  0.00    -0.352 N 
ATOM     31  C   UNL A   1      34.505  30.722  28.265  1.00  0.00     0.251 C 
ATOM     32  H   UNL A   1      32.650  30.467  27.599  1.00  0.00     0.163 HD
ATOM     33  O   UNL A   1      34.238  31.860  28.656  1.00  0.00    -0.269 OA
BRANCH  31  34
ATOM     34  C   UNL A   1      35.872  30.185  28.477  1.00  0.00     0.039 A 
ATOM     35  C   UNL A   1      36.789  30.228  27.420  1.00  0.00     0.014 A 
ATOM     36  C   UNL A   1      36.268  29.619  29.685  1.00  0.00     0.014 A 
ATOM     37  C   UNL A   1      38.106  29.794  27.613  1.00  0.00     0.010 A 
ATOM     38  C   UNL A   1      37.609  29.334  29.923  1.00  0.00     0.010 A 
ATOM     39  C   UNL A   1      38.546  29.397  28.886  1.00  0.00    -0.014 A 
BRANCH  39  40
ATOM     40  C   UNL A   1      39.962  29.013  29.149  1.00  0.00     0.031 A 
ATOM     41  C   UNL A   1      40.912  29.999  29.787  1.00  0.00     0.074 A 
ATOM     42  C   UNL A   1      40.410  27.800  28.761  1.00  0.00     0.049 A 
ATOM     43  N   UNL A   1      42.193  29.876  30.028  1.00  0.00    -0.248 NA
ATOM     44  C   UNL A   1      40.362  31.311  30.172  1.00  0.00     0.031 C 
ATOM     45  C   UNL A   1      39.612  26.779  28.074  1.00  0.00     0.029 A 
ATOM     46  N   UNL A   1      41.647  27.217  28.885  1.00  0.00    -0.354 N 
ATOM     47  C   UNL A   1      42.597  31.089  30.577  1.00  0.00     0.074 A 
ATOM     48  C   UNL A   1      41.447  31.965  30.558  1.00  0.00     0.031 C 
ATOM     49  C   UNL A   1      40.364  25.684  27.882  1.00  0.00     0.029 A 
ATOM     50  C   UNL A   1      41.709  25.936  28.385  1.00  0.00     0.049 A 
ATOM     51  H   UNL A   1      42.417  27.673  29.295  1.00  0.00     0.167 HD
ATOM     52  C   UNL A   1      43.801  31.433  31.091  1.00  0.00     0.037 A 
ATOM     53  C   UNL A   1      42.735  25.064  28.336  1.00  0.00     0.037 A 
ATOM     54  C   UNL A   1      44.933  30.545  31.144  1.00  0.00     0.049 A 
ATOM     55  C   UNL A   1      44.066  25.473  28.911  1.00  0.00     0.074 A 
ATOM     56  C   UNL A   1      46.185  30.780  31.686  1.00  0.00     0.029 A 
ATOM     57  N   UNL A   1      44.947  29.251  30.648  1.00  0.00    -0.354 N 
ATOM     58  N   UNL A   1      44.407  26.605  29.480  1.00  0.00    -0.248 NA
ATOM     59  C   UNL A   1      45.148  24.483  28.847  1.00  0.00     0.031 C 
ATOM     60  C   UNL A   1      46.970  29.641  31.479  1.00  0.00     0.029 A 
ATOM     61  C   UNL A   1      46.190  28.679  30.857  1.00  0.00     0.049 A 
ATOM     62  H   UNL A   1      44.187  28.805  30.210  1.00  0.00     0.167 HD
ATOM     63  C   UNL A   1      45.733  26.449  29.872  1.00  0.00     0.074 A 
ATOM     64  C   UNL A   1      46.123  25.107  29.492  1.00  0.00     0.031 C 
ATOM     65  C   UNL A   1      46.555  27.335  30.487  1.00  0.00     0.037 A 
BRANCH  52  66
ATOM     66  C   UNL A   1      43.952  32.816  31.668  1.00  0.00     0.058 A 
ATOM     67  C   UNL A   1      43.693  33.077  33.024  1.00  0.00     0.135 A 
ATOM     68  C   UNL A   1      44.417  33.879  30.876  1.00  0.00     0.135 A 
ATOM     69  F   UNL A   1      43.227  32.104  33.823  1.00  0.00    -0.206 F 
ATOM     70  C   UNL A   1      43.870  34.344  33.569  1.00  0.00     0.059 A 
ATOM     71  C   UNL A   1      44.632  35.148  31.410  1.00  0.00     0.059 A 
ATOM     72  F   UNL A   1      44.678  33.689  29.574  1.00  0.00    -0.206 F 
ATOM     73  C   UNL A   1      44.348  35.372  32.755  1.00  0.00     0.060 A 
BRANCH  73  74
ATOM     74  S   UNL A   1      44.607  36.999  33.492  1.00  0.00     0.124 S 
ATOM     75  O   UNL A   1      43.357  37.674  33.157  1.00  0.00    -0.237 OA
ATOM     76  O   UNL A   1      44.793  36.675  34.903  1.00  0.00    -0.237 OA
ATOM     77  O   UNL A   1      45.793  37.500  32.804  1.00  0.00    -0.744 OA
ENDBRANCH  73  74
ENDBRANCH  52  66
BRANCH  53  78
ATOM     78  C   UNL A   1      42.551  23.710  27.743  1.00  0.00     0.058 A 
ATOM     79  C   UNL A   1      42.362  22.583  28.558  1.00  0.00     0.135 A 
ATOM     80  C   UNL A   1      42.590  23.507  26.354  1.00  0.00     0.135 A 
ATOM     81  F   UNL A   1      42.319  22.720  29.893  1.00  0.00    -0.206 F 
ATOM     82  C   UNL A   1      42.261  21.302  28.024  1.00  0.00     0.059 A 
ATOM     83  C   UNL A   1      42.458  22.240  25.794  1.00  0.00     0.059 A 
ATOM     84  F   UNL A   1      42.746  24.551  25.526  1.00  0.00    -0.206 F 
ATOM     85  C   UNL A   1      42.316  21.141  26.640  1.00  0.00     0.060 A 
BRANCH  85  86
ATOM     86  S   UNL A   1      42.183  19.475  25.955  1.00  0.00     0.124 S 
ATOM     87  O   UNL A   1      42.700  18.665  27.052  1.00  0.00    -0.237 OA
ATOM     88  O   UNL A   1      40.751  19.361  25.698  1.00  0.00    -0.237 OA
ATOM     89  O   UNL A   1      43.024  19.534  24.763  1.00  0.00    -0.744 OA
ENDBRANCH  85  86
ENDBRANCH  53  78
BRANCH  65  90
ATOM     90  C   UNL A   1      47.943  26.865  30.827  1.00  0.00     0.058 A 
ATOM     91  C   UNL A   1      49.051  27.187  30.030  1.00  0.00     0.135 A 
ATOM     92  C   UNL A   1      48.168  26.107  31.989  1.00  0.00     0.135 A 
ATOM     93  F   UNL A   1      48.890  27.907  28.907  1.00  0.00    -0.206 F 
ATOM     94  C   UNL A   1      50.329  26.742  30.348  1.00  0.00     0.059 A 
ATOM     95  C   UNL A   1      49.444  25.679  32.345  1.00  0.00     0.059 A 
ATOM     96  F   UNL A   1      47.146  25.783  32.795  1.00  0.00    -0.206 F 
ATOM     97  C   UNL A   1      50.515  25.987  31.508  1.00  0.00     0.060 A 
BRANCH  97  98
ATOM     98  S   UNL A   1      52.181  25.427  31.917  1.00  0.00     0.124 S 
ATOM     99  O   UNL A   1      52.892  25.686  30.670  1.00  0.00    -0.237 OA
ATOM    100  O   UNL A   1      52.533  26.292  33.039  1.00  0.00    -0.237 OA
ATOM    101  O   UNL A   1      51.994  24.019  32.254  1.00  0.00    -0.744 OA
ENDBRANCH  97  98
ENDBRANCH  65  90
ENDBRANCH  39  40
ENDBRANCH  31  34
ENDBRANCH  29  30
ENDBRANCH  28  29
ENDBRANCH   1  28
TORSDOF 18
ENDMDL
MODEL 2
REMARK VINA RESULT:     -12.0      0.825      2.021
REMARK SMILES Cc1cc(C)cc(OCC(=O)Nc2ccc(O)cc2C(=O)NCCCNC(=O)c2ccc(-c3c4nc(c(-c5c(F)cc(S(=O)(=O)[O-])cc5F)c5ccc([nH]5)c(-c5c(F)cc(S(=O)(=O)[O-])cc5F)c5nc(c(-c6c(F)cc(S(=O)(=O)[O-])cc6F)c6ccc3[nH]6)C=C5)C=C4)cc2)c1
REMARK SMILES IDX 23 1 22 2 20 3 21 4 19 6 13 7 14 8 15 9 18 10 16 11 12 12
REMARK SMILES IDX 10 13 11 14 9 16 8 17 7 18 1 19 2 20 3 21 95 22 4 23 5 24
REMARK SMILES IDX 6 25 17 26 24 28 25 29 26 30 27 31 28 33 29 34 30 35 94 36
REMARK SMILES IDX 31 37 93 38 32 39 33 40 34 41 87 42 35 43 92 44 86 45 88 46
REMARK SMILES IDX 36 47 91 48 85 49 84 50 37 52 71 53 50 54 70 55 51 56 54 57
REMARK SMILES IDX 69 58 89 59 52 60 53 61 68 63 90 64 55 65 38 66 39 67 48 68
REMARK SMILES IDX 40 69 41 70 47 71 49 72 42 73 43 74 44 75 45 76 46 77 72 78
REMARK SMILES IDX 73 79 82 80 74 81 75 82 81 83 83 84 76 85 77 86 78 87 79 88
REMARK SMILES IDX 80 89 56 90 57 91 66 92 58 93 59 94 65 95 67 96 60 97 61 98
REMARK SMILES IDX 62 99 63 100 64 101
REMARK H PARENT 22 5 12 15 17 27 26 32 88 51 54 62
REMARK Flexibility Score: inf
ROOT
ATOM      1  C   UNL A   1      31.687  27.479  26.457  1.00  0.00     0.118 C 
ENDROOT
BRANCH   1   2
ATOM      2  N   UNL A   1      30.828  27.494  25.299  1.00  0.00    -0.352 N 
ATOM      3  C   UNL A   1      30.262  26.451  24.595  1.00  0.00     0.253 C 
ATOM      4  O   UNL A   1      29.456  26.761  23.713  1.00  0.00    -0.269 OA
ATOM      5  H   UNL A   1      30.612  28.391  24.955  1.00  0.00     0.163 HD
BRANCH   3   6
ATOM      6  C   UNL A   1      30.599  24.995  24.767  1.00  0.00     0.067 A 
ATOM      7  C   UNL A   1      31.091  24.084  23.809  1.00  0.00     0.054 A 
ATOM      8  C   UNL A   1      31.328  22.744  24.165  1.00  0.00     0.031 A 
ATOM      9  C   UNL A   1      31.099  22.289  25.459  1.00  0.00     0.048 A 
ATOM     10  C   UNL A   1      30.378  24.509  26.074  1.00  0.00     0.062 A 
ATOM     11  C   UNL A   1      30.632  23.182  26.408  1.00  0.00     0.116 A 
BRANCH   7  12
ATOM     12  N   UNL A   1      31.490  24.473  22.527  1.00  0.00    -0.322 N 
ATOM     13  C   UNL A   1      32.743  24.875  22.129  1.00  0.00     0.262 C 
ATOM     14  O   UNL A   1      32.940  24.974  20.912  1.00  0.00    -0.271 OA
ATOM     15  H   UNL A   1      30.795  24.458  21.830  1.00  0.00     0.170 HD
BRANCH  13  16
ATOM     16  C   UNL A   1      33.916  24.999  23.145  1.00  0.00     0.329 C 
BRANCH  16  17
ATOM     17  O   UNL A   1      35.075  24.192  22.982  1.00  0.00    -0.484 OA
BRANCH  17  18
ATOM     18  C   UNL A   1      35.378  23.460  24.099  1.00  0.00     0.120 A 
ATOM     19  C   UNL A   1      34.041  22.745  27.565  1.00  0.00     0.044 C 
ATOM     20  C   UNL A   1      34.879  22.665  26.323  1.00  0.00    -0.047 A 
ATOM     21  C   UNL A   1      35.786  21.615  26.131  1.00  0.00     0.007 A 
ATOM     22  C   UNL A   1      34.734  23.626  25.323  1.00  0.00     0.049 A 
ATOM     23  C   UNL A   1      36.520  21.508  24.940  1.00  0.00    -0.047 A 
ATOM     24  C   UNL A   1      37.492  20.385  24.749  1.00  0.00     0.044 C 
ATOM     25  C   UNL A   1      36.315  22.447  23.928  1.00  0.00     0.049 A 
ENDBRANCH  17  18
ENDBRANCH  16  17
ENDBRANCH  13  16
ENDBRANCH   7  12
BRANCH  11  26
ATOM     26  O   UNL A   1      30.422  22.793  27.697  1.00  0.00    -0.508 OA
ATOM     27  H   UNL A   1      31.045  23.016  28.361  1.00  0.00     0.293 HD
ENDBRANCH  11  26
ENDBRANCH   3   6
ENDBRANCH   1   2
BRANCH   1  28
ATOM     28  C   UNL A   1      33.126  27.048  26.288  1.00  0.00     0.042 C 
BRANCH  28  29
ATOM     29  C   UNL A   1      34.142  28.167  26.183  1.00  0.00     0.118 C 
BRANCH  29  30
ATOM     30  N   UNL A   1      33.780  29.391  26.889  1.00  0.00    -0.352 N 
ATOM     31  C   UNL A   1      34.478  30.233  27.727  1.00  0.00     0.251 C 
ATOM     32  H   UNL A   1      32.850  29.672  26.736  1.00  0.00     0.163 HD
ATOM     33  O   UNL A   1      33.880  31.189  28.225  1.00  0.00    -0.269 OA
BRANCH  31  34
ATOM     34  C   UNL A   1      35.901  30.003  28.083  1.00  0.00     0.039 A 
ATOM     35  C   UNL A   1      36.210  29.512  29.356  1.00  0.00     0.014 A 
ATOM     36  C   UNL A   1      36.941  30.279  27.201  1.00  0.00     0.014 A 
ATOM     37  C   UNL A   1      37.537  29.219  29.695  1.00  0.00     0.010 A 
ATOM     38  C   UNL A   1      38.233  29.845  27.477  1.00  0.00     0.010 A 
ATOM     39  C   UNL A   1      38.557  29.326  28.736  1.00  0.00    -0.014 A 
BRANCH  39  40
ATOM     40  C   UNL A   1      39.965  28.939  29.033  1.00  0.00     0.031 A 
ATOM     41  C   UNL A   1      40.904  29.924  29.689  1.00  0.00     0.074 A 
ATOM     42  C   UNL A   1      40.418  27.722  28.661  1.00  0.00     0.049 A 
ATOM     43  N   UNL A   1      42.178  29.798  29.960  1.00  0.00    -0.248 NA
ATOM     44  C   UNL A   1      40.350  31.240  30.055  1.00  0.00     0.031 C 
ATOM     45  C   UNL A   1      39.632  26.702  27.960  1.00  0.00     0.029 A 
ATOM     46  N   UNL A   1      41.649  27.135  28.817  1.00  0.00    -0.354 N 
ATOM     47  C   UNL A   1      42.573  31.012  30.513  1.00  0.00     0.074 A 
ATOM     48  C   UNL A   1      41.428  31.892  30.464  1.00  0.00     0.031 C 
ATOM     49  C   UNL A   1      40.385  25.603  27.791  1.00  0.00     0.029 A 
ATOM     50  C   UNL A   1      41.718  25.852  28.324  1.00  0.00     0.049 A 
ATOM     51  H   UNL A   1      42.412  27.591  29.242  1.00  0.00     0.167 HD
ATOM     52  C   UNL A   1      43.767  31.354  31.053  1.00  0.00     0.037 A 
ATOM     53  C   UNL A   1      42.741  24.976  28.302  1.00  0.00     0.037 A 
ATOM     54  C   UNL A   1      44.894  30.463  31.137  1.00  0.00     0.049 A 
ATOM     55  C   UNL A   1      44.060  25.383  28.907  1.00  0.00     0.074 A 
ATOM     56  C   UNL A   1      46.134  30.695  31.707  1.00  0.00     0.029 A 
ATOM     57  N   UNL A   1      44.915  29.166  30.646  1.00  0.00    -0.354 N 
ATOM     58  N   UNL A   1      44.392  26.517  29.478  1.00  0.00    -0.248 NA
ATOM     59  C   UNL A   1      45.141  24.389  28.872  1.00  0.00     0.031 C 
ATOM     60  C   UNL A   1      46.919  29.553  31.523  1.00  0.00     0.029 A 
ATOM     61  C   UNL A   1      46.151  28.590  30.887  1.00  0.00     0.049 A 
ATOM     62  H   UNL A   1      44.163  28.720  30.193  1.00  0.00     0.167 HD
ATOM     63  C   UNL A   1      45.708  26.357  29.902  1.00  0.00     0.074 A 
ATOM     64  C   UNL A   1      46.103  25.012  29.537  1.00  0.00     0.031 C 
ATOM     65  C   UNL A   1      46.519  27.243  30.531  1.00  0.00     0.037 A 
BRANCH  52  66
ATOM     66  C   UNL A   1      43.909  32.739  31.627  1.00  0.00     0.058 A 
ATOM     67  C   UNL A   1      43.626  33.006  32.977  1.00  0.00     0.135 A 
ATOM     68  C   UNL A   1      44.391  33.798  30.840  1.00  0.00     0.135 A 
ATOM     69  F   UNL A   1      43.143  32.036  33.772  1.00  0.00    -0.206 F 
ATOM     70  C   UNL A   1      43.794  34.275  33.521  1.00  0.00     0.059 A 
ATOM     71  C   UNL A   1      44.598  35.069  31.373  1.00  0.00     0.059 A 
ATOM     72  F   UNL A   1      44.676  33.602  29.544  1.00  0.00    -0.206 F 
ATOM     73  C   UNL A   1      44.289  35.299  32.712  1.00  0.00     0.060 A 
BRANCH  73  74
ATOM     74  S   UNL A   1      44.538  36.928  33.447  1.00  0.00     0.124 S 
ATOM     75  O   UNL A   1      44.057  37.804  32.383  1.00  0.00    -0.237 OA
ATOM     76  O   UNL A   1      43.699  36.862  34.640  1.00  0.00    -0.237 OA
ATOM     77  O   UNL A   1      45.975  36.975  33.696  1.00  0.00    -0.744 OA
ENDBRANCH  73  74
ENDBRANCH  52  66
BRANCH  53  78
ATOM     78  C   UNL A   1      42.566  23.620  27.711  1.00  0.00     0.058 A 
ATOM     79  C   UNL A   1      42.363  22.496  28.527  1.00  0.00     0.135 A 
ATOM     80  C   UNL A   1      42.629  23.412  26.324  1.00  0.00     0.135 A 
ATOM     81  F   UNL A   1      42.298  22.639  29.860  1.00  0.00    -0.206 F 
ATOM     82  C   UNL A   1      42.270  21.213  27.996  1.00  0.00     0.059 A 
ATOM     83  C   UNL A   1      42.506  22.143  25.766  1.00  0.00     0.059 A 
ATOM     84  F   UNL A   1      42.800  24.454  25.495  1.00  0.00    -0.206 F 
ATOM     85  C   UNL A   1      42.348  21.048  26.613  1.00  0.00     0.060 A 
BRANCH  85  86
ATOM     86  S   UNL A   1      42.225  19.379  25.933  1.00  0.00     0.124 S 
ATOM     87  O   UNL A   1      42.734  18.574  27.037  1.00  0.00    -0.237 OA
ATOM     88  O   UNL A   1      40.796  19.262  25.662  1.00  0.00    -0.237 OA
ATOM     89  O   UNL A   1      43.077  19.437  24.748  1.00  0.00    -0.744 OA
ENDBRANCH  85  86
ENDBRANCH  53  78
BRANCH  65  90
ATOM     90  C   UNL A   1      47.897  26.770  30.906  1.00  0.00     0.058 A 
ATOM     91  C   UNL A   1      49.014  27.027  30.097  1.00  0.00     0.135 A 
ATOM     92  C   UNL A   1      48.104  26.076  32.110  1.00  0.00     0.135 A 
ATOM     93  F   UNL A   1      48.871  27.684  28.934  1.00  0.00    -0.206 F 
ATOM     94  C   UNL A   1      50.282  26.578  30.448  1.00  0.00     0.059 A 
ATOM     95  C   UNL A   1      49.370  25.649  32.498  1.00  0.00     0.059 A 
ATOM     96  F   UNL A   1      47.072  25.817  32.929  1.00  0.00    -0.206 F 
ATOM     97  C   UNL A   1      50.450  25.889  31.650  1.00  0.00     0.060 A 
BRANCH  97  98
ATOM     98  S   UNL A   1      52.104  25.325  32.100  1.00  0.00     0.124 S 
ATOM     99  O   UNL A   1      52.358  26.099  33.311  1.00  0.00    -0.237 OA
ATOM    100  O   UNL A   1      51.903  23.892  32.294  1.00  0.00    -0.237 OA
ATOM    101  O   UNL A   1      52.915  25.687  30.941  1.00  0.00    -0.744 OA
ENDBRANCH  97  98
ENDBRANCH  65  90
ENDBRANCH  39  40
ENDBRANCH  31  34
ENDBRANCH  29  30
ENDBRANCH  28  29
ENDBRANCH   1  28
TORSDOF 18
ENDMDL
MODEL 3
REMARK VINA RESULT:     -11.9      3.026      4.158
REMARK SMILES Cc1cc(C)cc(OCC(=O)Nc2ccc(O)cc2C(=O)NCCCNC(=O)c2ccc(-c3c4nc(c(-c5c(F)cc(S(=O)(=O)[O-])cc5F)c5ccc([nH]5)c(-c5c(F)cc(S(=O)(=O)[O-])cc5F)c5nc(c(-c6c(F)cc(S(=O)(=O)[O-])cc6F)c6ccc3[nH]6)C=C5)C=C4)cc2)c1
REMARK SMILES IDX 23 1 22 2 20 3 21 4 19 6 13 7 14 8 15 9 18 10 16 11 12 12
REMARK SMILES IDX 10 13 11 14 9 16 8 17 7 18 1 19 2 20 3 21 95 22 4 23 5 24
REMARK SMILES IDX 6 25 17 26 24 28 25 29 26 30 27 31 28 33 29 34 30 35 94 36
REMARK SMILES IDX 31 37 93 38 32 39 33 40 34 41 87 42 35 43 92 44 86 45 88 46
REMARK SMILES IDX 36 47 91 48 85 49 84 50 37 52 71 53 50 54 70 55 51 56 54 57
REMARK SMILES IDX 69 58 89 59 52 60 53 61 68 63 90 64 55 65 38 66 39 67 48 68
REMARK SMILES IDX 40 69 41 70 47 71 49 72 42 73 43 74 44 75 45 76 46 77 72 78
REMARK SMILES IDX 73 79 82 80 74 81 75 82 81 83 83 84 76 85 77 86 78 87 79 88
REMARK SMILES IDX 80 89 56 90 57 91 66 92 58 93 59 94 65 95 67 96 60 97 61 98
REMARK SMILES IDX 62 99 63 100 64 101
REMARK H PARENT 22 5 12 15 17 27 26 32 88 51 54 62
REMARK Flexibility Score: inf
ROOT
ATOM      1  C   UNL A   1      33.715  29.210  26.105  1.00  0.00     0.118 C 
ENDROOT
BRANCH   1   2
ATOM      2  N   UNL A   1      34.147  28.984  24.748  1.00  0.00    -0.352 N 
ATOM      3  C   UNL A   1      33.554  28.266  23.731  1.00  0.00     0.253 C 
ATOM      4  O   UNL A   1      34.086  28.349  22.620  1.00  0.00    -0.269 OA
ATOM      5  H   UNL A   1      35.002  29.410  24.509  1.00  0.00     0.163 HD
BRANCH   3   6
ATOM      6  C   UNL A   1      32.372  27.348  23.883  1.00  0.00     0.067 A 
ATOM      7  C   UNL A   1      31.707  26.594  22.893  1.00  0.00     0.054 A 
ATOM      8  C   UNL A   1      30.597  25.802  23.236  1.00  0.00     0.031 A 
ATOM      9  C   UNL A   1      30.138  25.729  24.547  1.00  0.00     0.048 A 
ATOM     10  C   UNL A   1      31.888  27.255  25.206  1.00  0.00     0.062 A 
ATOM     11  C   UNL A   1      30.796  26.453  25.525  1.00  0.00     0.116 A 
BRANCH   7  12
ATOM     12  N   UNL A   1      32.176  26.484  21.580  1.00  0.00    -0.322 N 
ATOM     13  C   UNL A   1      32.766  25.390  20.994  1.00  0.00     0.262 C 
ATOM     14  O   UNL A   1      32.916  25.423  19.767  1.00  0.00    -0.271 OA
ATOM     15  H   UNL A   1      32.072  27.281  21.011  1.00  0.00     0.170 HD
BRANCH  13  16
ATOM     16  C   UNL A   1      33.041  24.087  21.801  1.00  0.00     0.329 C 
BRANCH  16  17
ATOM     17  O   UNL A   1      34.361  23.806  22.251  1.00  0.00    -0.484 OA
BRANCH  17  18
ATOM     18  C   UNL A   1      34.487  23.872  23.612  1.00  0.00     0.120 A 
ATOM     19  C   UNL A   1      32.459  23.318  26.758  1.00  0.00     0.044 C 
ATOM     20  C   UNL A   1      33.622  23.581  25.848  1.00  0.00    -0.047 A 
ATOM     21  C   UNL A   1      34.936  23.571  26.335  1.00  0.00     0.007 A 
ATOM     22  C   UNL A   1      33.406  23.802  24.488  1.00  0.00     0.049 A 
ATOM     23  C   UNL A   1      36.024  23.753  25.469  1.00  0.00    -0.047 A 
ATOM     24  C   UNL A   1      37.424  23.749  26.002  1.00  0.00     0.044 C 
ATOM     25  C   UNL A   1      35.788  23.914  24.102  1.00  0.00     0.049 A 
ENDBRANCH  17  18
ENDBRANCH  16  17
ENDBRANCH  13  16
ENDBRANCH   7  12
BRANCH  11  26
ATOM     26  O   UNL A   1      30.405  26.391  26.829  1.00  0.00    -0.508 OA
ATOM     27  H   UNL A   1      30.938  26.776  27.497  1.00  0.00     0.293 HD
ENDBRANCH  11  26
ENDBRANCH   3   6
ENDBRANCH   1   2
BRANCH   1  28
ATOM     28  C   UNL A   1      34.719  29.044  27.223  1.00  0.00     0.042 C 
BRANCH  28  29
ATOM     29  C   UNL A   1      35.240  30.328  27.837  1.00  0.00     0.118 C 
BRANCH  29  30
ATOM     30  N   UNL A   1      35.280  30.337  29.295  1.00  0.00    -0.352 N 
ATOM     31  C   UNL A   1      36.297  30.165  30.207  1.00  0.00     0.251 C 
ATOM     32  H   UNL A   1      34.403  30.498  29.710  1.00  0.00     0.163 HD
ATOM     33  O   UNL A   1      36.014  30.178  31.407  1.00  0.00    -0.269 OA
BRANCH  31  34
ATOM     34  C   UNL A   1      37.703  29.922  29.797  1.00  0.00     0.039 A 
ATOM     35  C   UNL A   1      38.644  29.578  30.774  1.00  0.00     0.014 A 
ATOM     36  C   UNL A   1      38.123  30.045  28.477  1.00  0.00     0.014 A 
ATOM     37  C   UNL A   1      39.961  29.274  30.407  1.00  0.00     0.010 A 
ATOM     38  C   UNL A   1      39.382  29.595  28.093  1.00  0.00     0.010 A 
ATOM     39  C   UNL A   1      40.329  29.221  29.053  1.00  0.00    -0.014 A 
BRANCH  39  40
ATOM     40  C   UNL A   1      41.696  28.815  28.620  1.00  0.00     0.031 A 
ATOM     41  C   UNL A   1      42.808  29.835  28.557  1.00  0.00     0.074 A 
ATOM     42  C   UNL A   1      41.924  27.543  28.229  1.00  0.00     0.049 A 
ATOM     43  N   UNL A   1      44.040  29.690  28.138  1.00  0.00    -0.248 NA
ATOM     44  C   UNL A   1      42.487  31.209  28.983  1.00  0.00     0.031 C 
ATOM     45  C   UNL A   1      40.920  26.476  28.180  1.00  0.00     0.029 A 
ATOM     46  N   UNL A   1      43.073  26.929  27.795  1.00  0.00    -0.354 N 
ATOM     47  C   UNL A   1      44.629  30.946  28.241  1.00  0.00     0.074 A 
ATOM     48  C   UNL A   1      43.600  31.861  28.682  1.00  0.00     0.031 C 
ATOM     49  C   UNL A   1      41.506  25.334  27.788  1.00  0.00     0.029 A 
ATOM     50  C   UNL A   1      42.913  25.592  27.511  1.00  0.00     0.049 A 
ATOM     51  H   UNL A   1      43.931  27.402  27.698  1.00  0.00     0.167 HD
ATOM     52  C   UNL A   1      45.918  31.303  28.030  1.00  0.00     0.037 A 
ATOM     53  C   UNL A   1      43.801  24.677  27.073  1.00  0.00     0.037 A 
ATOM     54  C   UNL A   1      46.950  30.383  27.630  1.00  0.00     0.049 A 
ATOM     55  C   UNL A   1      45.228  25.102  26.843  1.00  0.00     0.074 A 
ATOM     56  C   UNL A   1      48.297  30.632  27.435  1.00  0.00     0.029 A 
ATOM     57  N   UNL A   1      46.751  29.034  27.374  1.00  0.00    -0.354 N 
ATOM     58  N   UNL A   1      45.775  26.284  27.005  1.00  0.00    -0.248 NA
ATOM     59  C   UNL A   1      46.161  24.066  26.380  1.00  0.00     0.031 C 
ATOM     60  C   UNL A   1      48.905  29.444  27.019  1.00  0.00     0.029 A 
ATOM     61  C   UNL A   1      47.947  28.442  27.008  1.00  0.00     0.049 A 
ATOM     62  H   UNL A   1      45.887  28.567  27.441  1.00  0.00     0.167 HD
ATOM     63  C   UNL A   1      47.123  26.123  26.697  1.00  0.00     0.074 A 
ATOM     64  C   UNL A   1      47.310  24.727  26.359  1.00  0.00     0.031 C 
ATOM     65  C   UNL A   1      48.116  27.047  26.691  1.00  0.00     0.037 A 
BRANCH  52  66
ATOM     66  C   UNL A   1      46.297  32.743  28.261  1.00  0.00     0.058 A 
ATOM     67  C   UNL A   1      46.813  33.177  29.493  1.00  0.00     0.135 A 
ATOM     68  C   UNL A   1      46.203  33.686  27.224  1.00  0.00     0.135 A 
ATOM     69  F   UNL A   1      46.907  32.323  30.526  1.00  0.00    -0.206 F 
ATOM     70  C   UNL A   1      47.202  34.496  29.697  1.00  0.00     0.059 A 
ATOM     71  C   UNL A   1      46.617  35.005  27.397  1.00  0.00     0.059 A 
ATOM     72  F   UNL A   1      45.715  33.328  26.027  1.00  0.00    -0.206 F 
ATOM     73  C   UNL A   1      47.108  35.402  28.639  1.00  0.00     0.060 A 
BRANCH  73  74
ATOM     74  S   UNL A   1      47.654  37.100  28.913  1.00  0.00     0.124 S 
ATOM     75  O   UNL A   1      48.275  36.998  30.230  1.00  0.00    -0.237 OA
ATOM     76  O   UNL A   1      48.569  37.315  27.796  1.00  0.00    -0.237 OA
ATOM     77  O   UNL A   1      46.415  37.869  28.862  1.00  0.00    -0.744 OA
ENDBRANCH  73  74
ENDBRANCH  52  66
BRANCH  53  78
ATOM     78  C   UNL A   1      43.384  23.266  26.842  1.00  0.00     0.058 A 
ATOM     79  C   UNL A   1      43.120  22.404  27.918  1.00  0.00     0.135 A 
ATOM     80  C   UNL A   1      43.270  22.739  25.545  1.00  0.00     0.135 A 
ATOM     81  F   UNL A   1      43.217  22.857  29.178  1.00  0.00    -0.206 F 
ATOM     82  C   UNL A   1      42.801  21.065  27.721  1.00  0.00     0.059 A 
ATOM     83  C   UNL A   1      42.920  21.412  25.321  1.00  0.00     0.059 A 
ATOM     84  F   UNL A   1      43.489  23.524  24.479  1.00  0.00    -0.206 F 
ATOM     85  C   UNL A   1      42.708  20.577  26.417  1.00  0.00     0.060 A 
BRANCH  85  86
ATOM     86  S   UNL A   1      42.292  18.837  26.172  1.00  0.00     0.124 S 
ATOM     87  O   UNL A   1      40.886  18.922  25.794  1.00  0.00    -0.237 OA
ATOM     88  O   UNL A   1      43.215  18.446  25.111  1.00  0.00    -0.237 OA
ATOM     89  O   UNL A   1      42.560  18.240  27.478  1.00  0.00    -0.744 OA
ENDBRANCH  85  86
ENDBRANCH  53  78
BRANCH  65  90
ATOM     90  C   UNL A   1      49.501  26.566  26.351  1.00  0.00     0.058 A 
ATOM     91  C   UNL A   1      50.328  25.955  27.304  1.00  0.00     0.135 A 
ATOM     92  C   UNL A   1      49.991  26.692  25.040  1.00  0.00     0.135 A 
ATOM     93  F   UNL A   1      49.909  25.813  28.572  1.00  0.00    -0.206 F 
ATOM     94  C   UNL A   1      51.609  25.522  26.982  1.00  0.00     0.059 A 
ATOM     95  C   UNL A   1      51.257  26.234  24.687  1.00  0.00     0.059 A 
ATOM     96  F   UNL A   1      49.235  27.255  24.085  1.00  0.00    -0.206 F 
ATOM     97  C   UNL A   1      52.065  25.667  25.671  1.00  0.00     0.060 A 
BRANCH  97  98
ATOM     98  S   UNL A   1      53.725  25.086  25.263  1.00  0.00     0.124 S 
ATOM     99  O   UNL A   1      53.548  23.639  25.307  1.00  0.00    -0.237 OA
ATOM    100  O   UNL A   1      53.938  25.659  23.938  1.00  0.00    -0.237 OA
ATOM    101  O   UNL A   1      54.553  25.651  26.324  1.00  0.00    -0.744 OA
ENDBRANCH  97  98
ENDBRANCH  65  90
ENDBRANCH  39  40
ENDBRANCH  31  34
ENDBRANCH  29  30
ENDBRANCH  28  29
ENDBRANCH   1  28
TORSDOF 18
ENDMDL
