MODEL 1
REMARK VINA RESULT:     -11.8      0.000      0.000
REMARK SMILES CC(C)CS(=O)(=O)Cc1c(C(=O)NCCCNC(=O)c2ccc(-c3c4nc(c(-c5c(F)cc(S(=O)(=O)[O-])cc5F)c5ccc([nH]5)c(-c5c(F)cc(S(=O)(=O)[O-])cc5F)c5nc(c(-c6c(F)cc(S(=O)(=O)[O-])cc6F)c6ccc3[nH]6)C=C5)C=C4)cc2)oc2ccccc12
REMARK SMILES IDX 14 1 13 2 11 3 12 4 10 6 9 7 92 8 86 9 87 10 91 11 88 12
REMARK SMILES IDX 90 13 89 14 8 15 5 16 6 17 7 18 4 19 2 20 1 21 3 22 15 23
REMARK SMILES IDX 16 24 17 25 18 26 19 28 20 29 21 30 85 31 22 32 84 33 23 34
REMARK SMILES IDX 24 35 25 36 78 37 26 38 83 39 77 40 79 41 27 42 82 43 76 44
REMARK SMILES IDX 75 45 28 47 62 48 41 49 61 50 42 51 45 52 60 53 80 54 43 55
REMARK SMILES IDX 44 56 59 58 81 59 46 60 29 61 30 62 39 63 31 64 32 65 38 66
REMARK SMILES IDX 40 67 33 68 34 69 35 70 36 71 37 72 63 73 64 74 73 75 65 76
REMARK SMILES IDX 66 77 72 78 74 79 67 80 68 81 69 82 70 83 71 84 47 85 48 86
REMARK SMILES IDX 57 87 49 88 50 89 56 90 58 91 51 92 52 93 53 94 54 95 55 96
REMARK H PARENT 13 5 17 27 79 46 45 57
REMARK Flexibility Score: inf
ROOT
ATOM      1  C   UNL A   1      36.416  22.321  25.985  1.00  0.00     0.118 C 
ENDROOT
BRANCH   1   2
ATOM      2  N   UNL A   1      35.215  22.725  26.699  1.00  0.00    -0.349 N 
ATOM      3  C   UNL A   1      33.897  22.371  26.555  1.00  0.00     0.287 C 
ATOM      4  O   UNL A   1      33.107  22.958  27.305  1.00  0.00    -0.266 OA
ATOM      5  H   UNL A   1      35.378  23.374  27.423  1.00  0.00     0.163 HD
BRANCH   3   6
ATOM      6  C   UNL A   1      33.467  21.375  25.582  1.00  0.00     0.196 A 
ATOM      7  C   UNL A   1      32.802  21.492  24.349  1.00  0.00     0.027 A 
ATOM      8  C   UNL A   1      32.733  20.142  23.828  1.00  0.00     0.025 A 
ATOM      9  O   UNL A   1      33.776  20.073  25.810  1.00  0.00    -0.451 OA
ATOM     10  C   UNL A   1      33.335  19.332  24.781  1.00  0.00     0.135 A 
ATOM     11  C   UNL A   1      32.289  19.478  22.668  1.00  0.00     0.012 A 
ATOM     12  C   UNL A   1      33.498  17.950  24.689  1.00  0.00     0.048 A 
ATOM     13  C   UNL A   1      32.404  18.084  22.544  1.00  0.00     0.001 A 
ATOM     14  C   UNL A   1      33.003  17.330  23.544  1.00  0.00     0.004 A 
BRANCH   7  15
ATOM     15  C   UNL A   1      32.437  22.813  23.721  1.00  0.00     0.177 C 
BRANCH  15  16
ATOM     16  S   UNL A   1      33.646  23.822  22.872  1.00  0.00     0.154 S 
ATOM     17  O   UNL A   1      33.019  24.319  21.657  1.00  0.00    -0.228 OA
ATOM     18  O   UNL A   1      34.877  23.056  22.770  1.00  0.00    -0.228 OA
BRANCH  16  19
ATOM     19  C   UNL A   1      34.034  25.261  23.836  1.00  0.00     0.140 C 
BRANCH  19  20
ATOM     20  C   UNL A   1      33.120  25.641  25.014  1.00  0.00    -0.002 C 
ATOM     21  C   UNL A   1      33.659  26.654  26.023  1.00  0.00     0.008 C 
ATOM     22  C   UNL A   1      31.781  26.148  24.459  1.00  0.00     0.008 C 
ENDBRANCH  19  20
ENDBRANCH  16  19
ENDBRANCH  15  16
ENDBRANCH   7  15
ENDBRANCH   3   6
ENDBRANCH   1   2
BRANCH   1  23
ATOM     23  C   UNL A   1      37.114  23.517  25.346  1.00  0.00     0.042 C 
BRANCH  23  24
ATOM     24  C   UNL A   1      37.986  24.291  26.332  1.00  0.00     0.118 C 
BRANCH  24  25
ATOM     25  N   UNL A   1      39.403  23.989  26.165  1.00  0.00    -0.352 N 
ATOM     26  C   UNL A   1      40.513  24.665  26.602  1.00  0.00     0.251 C 
ATOM     27  H   UNL A   1      39.594  23.167  25.658  1.00  0.00     0.163 HD
ATOM     28  O   UNL A   1      41.614  24.385  26.134  1.00  0.00    -0.269 OA
BRANCH  26  29
ATOM     29  C   UNL A   1      40.387  25.721  27.625  1.00  0.00     0.039 A 
ATOM     30  C   UNL A   1      39.422  25.584  28.626  1.00  0.00     0.014 A 
ATOM     31  C   UNL A   1      41.195  26.860  27.580  1.00  0.00     0.014 A 
ATOM     32  C   UNL A   1      39.312  26.560  29.617  1.00  0.00     0.010 A 
ATOM     33  C   UNL A   1      41.141  27.789  28.613  1.00  0.00     0.010 A 
ATOM     34  C   UNL A   1      40.195  27.652  29.639  1.00  0.00    -0.014 A 
BRANCH  34  35
ATOM     35  C   UNL A   1      40.152  28.659  30.730  1.00  0.00     0.031 A 
ATOM     36  C   UNL A   1      41.032  28.503  31.939  1.00  0.00     0.074 A 
ATOM     37  C   UNL A   1      39.268  29.674  30.657  1.00  0.00     0.049 A 
ATOM     38  N   UNL A   1      41.080  29.234  33.024  1.00  0.00    -0.248 NA
ATOM     39  C   UNL A   1      41.961  27.362  31.945  1.00  0.00     0.031 C 
ATOM     40  C   UNL A   1      38.328  29.900  29.557  1.00  0.00     0.029 A 
ATOM     41  N   UNL A   1      39.005  30.698  31.531  1.00  0.00    -0.354 N 
ATOM     42  C   UNL A   1      42.031  28.635  33.843  1.00  0.00     0.074 A 
ATOM     43  C   UNL A   1      42.493  27.450  33.156  1.00  0.00     0.031 C 
ATOM     44  C   UNL A   1      37.609  31.006  29.810  1.00  0.00     0.029 A 
ATOM     45  C   UNL A   1      38.002  31.540  31.109  1.00  0.00     0.049 A 
ATOM     46  H   UNL A   1      39.488  30.819  32.381  1.00  0.00     0.167 HD
ATOM     47  C   UNL A   1      42.490  29.048  35.049  1.00  0.00     0.037 A 
ATOM     48  C   UNL A   1      37.453  32.615  31.707  1.00  0.00     0.037 A 
ATOM     49  C   UNL A   1      42.036  30.241  35.715  1.00  0.00     0.049 A 
ATOM     50  C   UNL A   1      37.974  33.049  33.051  1.00  0.00     0.074 A 
ATOM     51  C   UNL A   1      42.481  30.781  36.909  1.00  0.00     0.029 A 
ATOM     52  N   UNL A   1      41.032  31.078  35.247  1.00  0.00    -0.354 N 
ATOM     53  N   UNL A   1      38.920  32.509  33.782  1.00  0.00    -0.248 NA
ATOM     54  C   UNL A   1      37.357  34.240  33.650  1.00  0.00     0.031 C 
ATOM     55  C   UNL A   1      41.709  31.912  37.191  1.00  0.00     0.029 A 
ATOM     56  C   UNL A   1      40.825  32.114  36.144  1.00  0.00     0.049 A 
ATOM     57  H   UNL A   1      40.541  30.954  34.404  1.00  0.00     0.167 HD
ATOM     58  C   UNL A   1      39.033  33.311  34.911  1.00  0.00     0.074 A 
ATOM     59  C   UNL A   1      38.067  34.380  34.761  1.00  0.00     0.031 C 
ATOM     60  C   UNL A   1      39.863  33.176  35.976  1.00  0.00     0.037 A 
BRANCH  47  61
ATOM     61  C   UNL A   1      43.538  28.206  35.725  1.00  0.00     0.058 A 
ATOM     62  C   UNL A   1      43.198  27.187  36.631  1.00  0.00     0.135 A 
ATOM     63  C   UNL A   1      44.899  28.392  35.435  1.00  0.00     0.135 A 
ATOM     64  F   UNL A   1      41.913  26.975  36.958  1.00  0.00    -0.206 F 
ATOM     65  C   UNL A   1      44.170  26.404  37.245  1.00  0.00     0.059 A 
ATOM     66  C   UNL A   1      45.887  27.599  36.014  1.00  0.00     0.059 A 
ATOM     67  F   UNL A   1      45.283  29.350  34.576  1.00  0.00    -0.206 F 
ATOM     68  C   UNL A   1      45.512  26.617  36.929  1.00  0.00     0.060 A 
BRANCH  68  69
ATOM     69  S   UNL A   1      46.759  25.585  37.729  1.00  0.00     0.124 S 
ATOM     70  O   UNL A   1      47.714  25.388  36.642  1.00  0.00    -0.237 OA
ATOM     71  O   UNL A   1      47.212  26.438  38.823  1.00  0.00    -0.237 OA
ATOM     72  O   UNL A   1      46.013  24.397  38.131  1.00  0.00    -0.744 OA
ENDBRANCH  68  69
ENDBRANCH  47  61
BRANCH  48  73
ATOM     73  C   UNL A   1      36.358  33.363  31.032  1.00  0.00     0.058 A 
ATOM     74  C   UNL A   1      35.037  33.286  31.497  1.00  0.00     0.135 A 
ATOM     75  C   UNL A   1      36.611  34.179  29.918  1.00  0.00     0.135 A 
ATOM     76  F   UNL A   1      34.742  32.515  32.555  1.00  0.00    -0.206 F 
ATOM     77  C   UNL A   1      34.002  33.976  30.873  1.00  0.00     0.059 A 
ATOM     78  C   UNL A   1      35.599  34.901  29.295  1.00  0.00     0.059 A 
ATOM     79  F   UNL A   1      37.861  34.301  29.443  1.00  0.00    -0.206 F 
ATOM     80  C   UNL A   1      34.294  34.784  29.773  1.00  0.00     0.060 A 
BRANCH  80  81
ATOM     81  S   UNL A   1      32.951  35.711  28.999  1.00  0.00     0.124 S 
ATOM     82  O   UNL A   1      32.137  36.069  30.155  1.00  0.00    -0.237 OA
ATOM     83  O   UNL A   1      33.669  36.808  28.357  1.00  0.00    -0.237 OA
ATOM     84  O   UNL A   1      32.357  34.739  28.085  1.00  0.00    -0.744 OA
ENDBRANCH  80  81
ENDBRANCH  48  73
BRANCH  60  85
ATOM     85  C   UNL A   1      39.792  34.229  37.048  1.00  0.00     0.058 A 
ATOM     86  C   UNL A   1      40.423  35.474  36.909  1.00  0.00     0.135 A 
ATOM     87  C   UNL A   1      39.032  34.006  38.209  1.00  0.00     0.135 A 
ATOM     88  F   UNL A   1      41.168  35.735  35.822  1.00  0.00    -0.206 F 
ATOM     89  C   UNL A   1      40.325  36.453  37.892  1.00  0.00     0.059 A 
ATOM     90  C   UNL A   1      38.894  34.982  39.191  1.00  0.00     0.059 A 
ATOM     91  F   UNL A   1      38.398  32.837  38.390  1.00  0.00    -0.206 F 
ATOM     92  C   UNL A   1      39.554  36.199  39.027  1.00  0.00     0.060 A 
BRANCH  92  93
ATOM     93  S   UNL A   1      39.405  37.494  40.277  1.00  0.00     0.124 S 
ATOM     94  O   UNL A   1      38.615  36.822  41.304  1.00  0.00    -0.237 OA
ATOM     95  O   UNL A   1      40.798  37.758  40.620  1.00  0.00    -0.237 OA
ATOM     96  O   UNL A   1      38.724  38.574  39.568  1.00  0.00    -0.744 OA
ENDBRANCH  92  93
ENDBRANCH  60  85
ENDBRANCH  34  35
ENDBRANCH  26  29
ENDBRANCH  24  25
ENDBRANCH  23  24
ENDBRANCH   1  23
TORSDOF 17
ENDMDL
MODEL 2
REMARK VINA RESULT:     -11.7      4.983     10.708
REMARK SMILES CC(C)CS(=O)(=O)Cc1c(C(=O)NCCCNC(=O)c2ccc(-c3c4nc(c(-c5c(F)cc(S(=O)(=O)[O-])cc5F)c5ccc([nH]5)c(-c5c(F)cc(S(=O)(=O)[O-])cc5F)c5nc(c(-c6c(F)cc(S(=O)(=O)[O-])cc6F)c6ccc3[nH]6)C=C5)C=C4)cc2)oc2ccccc12
REMARK SMILES IDX 14 1 13 2 11 3 12 4 10 6 9 7 92 8 86 9 87 10 91 11 88 12
REMARK SMILES IDX 90 13 89 14 8 15 5 16 6 17 7 18 4 19 2 20 1 21 3 22 15 23
REMARK SMILES IDX 16 24 17 25 18 26 19 28 20 29 21 30 85 31 22 32 84 33 23 34
REMARK SMILES IDX 24 35 25 36 78 37 26 38 83 39 77 40 79 41 27 42 82 43 76 44
REMARK SMILES IDX 75 45 28 47 62 48 41 49 61 50 42 51 45 52 60 53 80 54 43 55
REMARK SMILES IDX 44 56 59 58 81 59 46 60 29 61 30 62 39 63 31 64 32 65 38 66
REMARK SMILES IDX 40 67 33 68 34 69 35 70 36 71 37 72 63 73 64 74 73 75 65 76
REMARK SMILES IDX 66 77 72 78 74 79 67 80 68 81 69 82 70 83 71 84 47 85 48 86
REMARK SMILES IDX 57 87 49 88 50 89 56 90 58 91 51 92 52 93 53 94 54 95 55 96
REMARK H PARENT 13 5 17 27 79 46 45 57
REMARK Flexibility Score: inf
ROOT
ATOM      1  C   UNL A   1      33.799  28.910  24.901  1.00  0.00     0.118 C 
ENDROOT
BRANCH   1   2
ATOM      2  N   UNL A   1      34.044  28.365  23.575  1.00  0.00    -0.349 N 
ATOM      3  C   UNL A   1      33.194  27.989  22.565  1.00  0.00     0.287 C 
ATOM      4  O   UNL A   1      33.742  27.499  21.569  1.00  0.00    -0.266 OA
ATOM      5  H   UNL A   1      34.997  28.242  23.362  1.00  0.00     0.163 HD
BRANCH   3   6
ATOM      6  C   UNL A   1      31.751  28.155  22.668  1.00  0.00     0.196 A 
ATOM      7  C   UNL A   1      30.706  27.226  22.817  1.00  0.00     0.027 A 
ATOM      8  C   UNL A   1      29.504  28.027  22.936  1.00  0.00     0.025 A 
ATOM      9  O   UNL A   1      31.245  29.415  22.684  1.00  0.00    -0.451 OA
ATOM     10  C   UNL A   1      29.911  29.349  22.831  1.00  0.00     0.135 A 
ATOM     11  C   UNL A   1      28.126  27.837  23.159  1.00  0.00     0.012 A 
ATOM     12  C   UNL A   1      29.079  30.466  22.899  1.00  0.00     0.048 A 
ATOM     13  C   UNL A   1      27.245  28.929  23.204  1.00  0.00     0.001 A 
ATOM     14  C   UNL A   1      27.717  30.229  23.076  1.00  0.00     0.004 A 
BRANCH   7  15
ATOM     15  C   UNL A   1      30.926  25.744  22.979  1.00  0.00     0.177 C 
BRANCH  15  16
ATOM     16  S   UNL A   1      31.744  25.061  24.417  1.00  0.00     0.154 S 
ATOM     17  O   UNL A   1      31.243  25.778  25.580  1.00  0.00    -0.228 OA
ATOM     18  O   UNL A   1      33.174  25.049  24.156  1.00  0.00    -0.228 OA
BRANCH  16  19
ATOM     19  C   UNL A   1      31.266  23.368  24.652  1.00  0.00     0.140 C 
BRANCH  19  20
ATOM     20  C   UNL A   1      32.272  22.253  24.318  1.00  0.00    -0.002 C 
ATOM     21  C   UNL A   1      32.177  20.957  25.121  1.00  0.00     0.008 C 
ATOM     22  C   UNL A   1      32.170  21.925  22.822  1.00  0.00     0.008 C 
ENDBRANCH  19  20
ENDBRANCH  16  19
ENDBRANCH  15  16
ENDBRANCH   7  15
ENDBRANCH   3   6
ENDBRANCH   1   2
BRANCH   1  23
ATOM     23  C   UNL A   1      34.087  27.883  25.990  1.00  0.00     0.042 C 
BRANCH  23  24
ATOM     24  C   UNL A   1      33.509  28.277  27.347  1.00  0.00     0.118 C 
BRANCH  24  25
ATOM     25  N   UNL A   1      33.464  29.725  27.524  1.00  0.00    -0.352 N 
ATOM     26  C   UNL A   1      34.379  30.580  28.080  1.00  0.00     0.251 C 
ATOM     27  H   UNL A   1      32.644  30.156  27.192  1.00  0.00     0.163 HD
ATOM     28  O   UNL A   1      34.039  31.724  28.369  1.00  0.00    -0.269 OA
BRANCH  26  29
ATOM     29  C   UNL A   1      35.763  30.130  28.330  1.00  0.00     0.039 A 
ATOM     30  C   UNL A   1      36.681  30.144  27.277  1.00  0.00     0.014 A 
ATOM     31  C   UNL A   1      36.146  29.665  29.591  1.00  0.00     0.014 A 
ATOM     32  C   UNL A   1      38.000  29.751  27.507  1.00  0.00     0.010 A 
ATOM     33  C   UNL A   1      37.478  29.352  29.837  1.00  0.00     0.010 A 
ATOM     34  C   UNL A   1      38.418  29.387  28.797  1.00  0.00    -0.014 A 
BRANCH  34  35
ATOM     35  C   UNL A   1      39.834  29.044  29.083  1.00  0.00     0.031 A 
ATOM     36  C   UNL A   1      40.762  30.077  29.660  1.00  0.00     0.074 A 
ATOM     37  C   UNL A   1      40.297  27.821  28.756  1.00  0.00     0.049 A 
ATOM     38  N   UNL A   1      42.044  29.990  29.905  1.00  0.00    -0.248 NA
ATOM     39  C   UNL A   1      40.180  31.391  29.979  1.00  0.00     0.031 C 
ATOM     40  C   UNL A   1      39.504  26.752  28.144  1.00  0.00     0.029 A 
ATOM     41  N   UNL A   1      41.550  27.274  28.878  1.00  0.00    -0.354 N 
ATOM     42  C   UNL A   1      42.423  31.236  30.392  1.00  0.00     0.074 A 
ATOM     43  C   UNL A   1      41.248  32.078  30.355  1.00  0.00     0.031 C 
ATOM     44  C   UNL A   1      40.282  25.672  27.967  1.00  0.00     0.029 A 
ATOM     45  C   UNL A   1      41.637  25.984  28.407  1.00  0.00     0.049 A 
ATOM     46  H   UNL A   1      42.314  27.759  29.265  1.00  0.00     0.167 HD
ATOM     47  C   UNL A   1      43.635  31.634  30.848  1.00  0.00     0.037 A 
ATOM     48  C   UNL A   1      42.692  25.151  28.328  1.00  0.00     0.037 A 
ATOM     49  C   UNL A   1      44.793  30.779  30.899  1.00  0.00     0.049 A 
ATOM     50  C   UNL A   1      44.031  25.619  28.833  1.00  0.00     0.074 A 
ATOM     51  C   UNL A   1      46.051  31.066  31.400  1.00  0.00     0.029 A 
ATOM     52  N   UNL A   1      44.838  29.474  30.431  1.00  0.00    -0.354 N 
ATOM     53  N   UNL A   1      44.356  26.779  29.353  1.00  0.00    -0.248 NA
ATOM     54  C   UNL A   1      45.144  24.665  28.746  1.00  0.00     0.031 C 
ATOM     55  C   UNL A   1      46.871  29.954  31.184  1.00  0.00     0.029 A 
ATOM     56  C   UNL A   1      46.109  28.952  30.605  1.00  0.00     0.049 A 
ATOM     57  H   UNL A   1      44.078  28.990  30.033  1.00  0.00     0.167 HD
ATOM     58  C   UNL A   1      45.704  26.683  29.682  1.00  0.00     0.074 A 
ATOM     59  C   UNL A   1      46.129  25.348  29.315  1.00  0.00     0.031 C 
ATOM     60  C   UNL A   1      46.515  27.616  30.240  1.00  0.00     0.037 A 
BRANCH  47  61
ATOM     61  C   UNL A   1      43.771  33.053  31.330  1.00  0.00     0.058 A 
ATOM     62  C   UNL A   1      43.653  33.388  32.689  1.00  0.00     0.135 A 
ATOM     63  C   UNL A   1      44.064  34.088  30.427  1.00  0.00     0.135 A 
ATOM     64  F   UNL A   1      43.359  32.442  33.596  1.00  0.00    -0.206 F 
ATOM     65  C   UNL A   1      43.791  34.700  33.131  1.00  0.00     0.059 A 
ATOM     66  C   UNL A   1      44.238  35.403  30.851  1.00  0.00     0.059 A 
ATOM     67  F   UNL A   1      44.188  33.827  29.116  1.00  0.00    -0.206 F 
ATOM     68  C   UNL A   1      44.085  35.700  32.205  1.00  0.00     0.060 A 
BRANCH  68  69
ATOM     69  S   UNL A   1      44.270  37.395  32.797  1.00  0.00     0.124 S 
ATOM     70  O   UNL A   1      45.555  37.324  33.487  1.00  0.00    -0.237 OA
ATOM     71  O   UNL A   1      44.260  38.161  31.555  1.00  0.00    -0.237 OA
ATOM     72  O   UNL A   1      43.107  37.585  33.658  1.00  0.00    -0.744 OA
ENDBRANCH  68  69
ENDBRANCH  47  61
BRANCH  48  73
ATOM     73  C   UNL A   1      42.521  23.786  27.763  1.00  0.00     0.058 A 
ATOM     74  C   UNL A   1      42.348  22.674  28.600  1.00  0.00     0.135 A 
ATOM     75  C   UNL A   1      42.513  23.566  26.377  1.00  0.00     0.135 A 
ATOM     76  F   UNL A   1      42.353  22.830  29.932  1.00  0.00    -0.206 F 
ATOM     77  C   UNL A   1      42.190  21.390  28.085  1.00  0.00     0.059 A 
ATOM     78  C   UNL A   1      42.329  22.297  25.837  1.00  0.00     0.059 A 
ATOM     79  F   UNL A   1      42.658  24.598  25.530  1.00  0.00    -0.206 F 
ATOM     80  C   UNL A   1      42.179  21.213  26.701  1.00  0.00     0.060 A 
BRANCH  80  81
ATOM     81  S   UNL A   1      41.929  19.550  26.044  1.00  0.00     0.124 S 
ATOM     82  O   UNL A   1      42.852  19.537  24.916  1.00  0.00    -0.237 OA
ATOM     83  O   UNL A   1      42.296  18.713  27.182  1.00  0.00    -0.237 OA
ATOM     84  O   UNL A   1      40.509  19.536  25.698  1.00  0.00    -0.744 OA
ENDBRANCH  80  81
ENDBRANCH  48  73
BRANCH  60  85
ATOM     85  C   UNL A   1      47.938  27.218  30.524  1.00  0.00     0.058 A 
ATOM     86  C   UNL A   1      48.958  27.386  29.577  1.00  0.00     0.135 A 
ATOM     87  C   UNL A   1      48.292  26.712  31.786  1.00  0.00     0.135 A 
ATOM     88  F   UNL A   1      48.673  27.859  28.353  1.00  0.00    -0.206 F 
ATOM     89  C   UNL A   1      50.277  27.045  29.860  1.00  0.00     0.059 A 
ATOM     90  C   UNL A   1      49.609  26.393  32.102  1.00  0.00     0.059 A 
ATOM     91  F   UNL A   1      47.357  26.540  32.734  1.00  0.00    -0.206 F 
ATOM     92  C   UNL A   1      50.593  26.554  31.128  1.00  0.00     0.060 A 
BRANCH  92  93
ATOM     93  S   UNL A   1      52.314  26.151  31.494  1.00  0.00     0.124 S 
ATOM     94  O   UNL A   1      52.199  24.781  31.983  1.00  0.00    -0.237 OA
ATOM     95  O   UNL A   1      52.955  26.308  30.192  1.00  0.00    -0.237 OA
ATOM     96  O   UNL A   1      52.691  27.145  32.495  1.00  0.00    -0.744 OA
ENDBRANCH  92  93
ENDBRANCH  60  85
ENDBRANCH  34  35
ENDBRANCH  26  29
ENDBRANCH  24  25
ENDBRANCH  23  24
ENDBRANCH   1  23
TORSDOF 17
ENDMDL
MODEL 3
REMARK VINA RESULT:     -11.6      1.114      3.024
REMARK SMILES CC(C)CS(=O)(=O)Cc1c(C(=O)NCCCNC(=O)c2ccc(-c3c4nc(c(-c5c(F)cc(S(=O)(=O)[O-])cc5F)c5ccc([nH]5)c(-c5c(F)cc(S(=O)(=O)[O-])cc5F)c5nc(c(-c6c(F)cc(S(=O)(=O)[O-])cc6F)c6ccc3[nH]6)C=C5)C=C4)cc2)oc2ccccc12
REMARK SMILES IDX 14 1 13 2 11 3 12 4 10 6 9 7 92 8 86 9 87 10 91 11 88 12
REMARK SMILES IDX 90 13 89 14 8 15 5 16 6 17 7 18 4 19 2 20 1 21 3 22 15 23
REMARK SMILES IDX 16 24 17 25 18 26 19 28 20 29 21 30 85 31 22 32 84 33 23 34
REMARK SMILES IDX 24 35 25 36 78 37 26 38 83 39 77 40 79 41 27 42 82 43 76 44
REMARK SMILES IDX 75 45 28 47 62 48 41 49 61 50 42 51 45 52 60 53 80 54 43 55
REMARK SMILES IDX 44 56 59 58 81 59 46 60 29 61 30 62 39 63 31 64 32 65 38 66
REMARK SMILES IDX 40 67 33 68 34 69 35 70 36 71 37 72 63 73 64 74 73 75 65 76
REMARK SMILES IDX 66 77 72 78 74 79 67 80 68 81 69 82 70 83 71 84 47 85 48 86
REMARK SMILES IDX 57 87 49 88 50 89 56 90 58 91 51 92 52 93 53 94 54 95 55 96
REMARK H PARENT 13 5 17 27 79 46 45 57
REMARK Flexibility Score: inf
ROOT
ATOM      1  C   UNL A   1      36.365  23.484  25.811  1.00  0.00     0.118 C 
ENDROOT
BRANCH   1   2
ATOM      2  N   UNL A   1      35.518  22.863  26.817  1.00  0.00    -0.349 N 
ATOM      3  C   UNL A   1      34.160  22.879  27.011  1.00  0.00     0.287 C 
ATOM      4  O   UNL A   1      33.763  22.281  28.019  1.00  0.00    -0.266 OA
ATOM      5  H   UNL A   1      36.011  22.331  27.483  1.00  0.00     0.163 HD
BRANCH   3   6
ATOM      6  C   UNL A   1      33.256  23.558  26.092  1.00  0.00     0.196 A 
ATOM      7  C   UNL A   1      32.897  23.292  24.759  1.00  0.00     0.027 A 
ATOM      8  C   UNL A   1      31.896  24.288  24.432  1.00  0.00     0.025 A 
ATOM      9  O   UNL A   1      32.549  24.624  26.549  1.00  0.00    -0.451 OA
ATOM     10  C   UNL A   1      31.748  25.070  25.568  1.00  0.00     0.135 A 
ATOM     11  C   UNL A   1      31.053  24.624  23.355  1.00  0.00     0.012 A 
ATOM     12  C   UNL A   1      30.876  26.150  25.706  1.00  0.00     0.048 A 
ATOM     13  C   UNL A   1      30.181  25.722  23.436  1.00  0.00     0.001 A 
ATOM     14  C   UNL A   1      30.094  26.475  24.600  1.00  0.00     0.004 A 
BRANCH   7  15
ATOM     15  C   UNL A   1      33.388  22.094  23.986  1.00  0.00     0.177 C 
BRANCH  15  16
ATOM     16  S   UNL A   1      32.546  20.517  24.055  1.00  0.00     0.154 S 
ATOM     17  O   UNL A   1      31.981  20.271  22.736  1.00  0.00    -0.228 OA
ATOM     18  O   UNL A   1      31.664  20.528  25.210  1.00  0.00    -0.228 OA
BRANCH  16  19
ATOM     19  C   UNL A   1      33.712  19.208  24.331  1.00  0.00     0.140 C 
BRANCH  19  20
ATOM     20  C   UNL A   1      33.274  17.752  24.097  1.00  0.00    -0.002 C 
ATOM     21  C   UNL A   1      34.155  16.889  23.196  1.00  0.00     0.008 C 
ATOM     22  C   UNL A   1      33.113  17.058  25.457  1.00  0.00     0.008 C 
ENDBRANCH  19  20
ENDBRANCH  16  19
ENDBRANCH  15  16
ENDBRANCH   7  15
ENDBRANCH   3   6
ENDBRANCH   1   2
BRANCH   1  23
ATOM     23  C   UNL A   1      37.826  23.083  25.987  1.00  0.00     0.042 C 
BRANCH  23  24
ATOM     24  C   UNL A   1      38.678  24.195  26.596  1.00  0.00     0.118 C 
BRANCH  24  25
ATOM     25  N   UNL A   1      40.050  24.169  26.099  1.00  0.00    -0.352 N 
ATOM     26  C   UNL A   1      41.107  24.998  26.370  1.00  0.00     0.251 C 
ATOM     27  H   UNL A   1      40.247  23.440  25.468  1.00  0.00     0.163 HD
ATOM     28  O   UNL A   1      42.102  24.962  25.651  1.00  0.00    -0.269 OA
BRANCH  26  29
ATOM     29  C   UNL A   1      41.051  25.927  27.516  1.00  0.00     0.039 A 
ATOM     30  C   UNL A   1      42.022  26.926  27.628  1.00  0.00     0.014 A 
ATOM     31  C   UNL A   1      40.064  25.794  28.495  1.00  0.00     0.014 A 
ATOM     32  C   UNL A   1      41.963  27.830  28.690  1.00  0.00     0.010 A 
ATOM     33  C   UNL A   1      39.958  26.744  29.505  1.00  0.00     0.010 A 
ATOM     34  C   UNL A   1      40.909  27.768  29.616  1.00  0.00    -0.014 A 
BRANCH  34  35
ATOM     35  C   UNL A   1      40.779  28.769  30.705  1.00  0.00     0.031 A 
ATOM     36  C   UNL A   1      41.644  28.668  31.932  1.00  0.00     0.074 A 
ATOM     37  C   UNL A   1      39.834  29.725  30.616  1.00  0.00     0.049 A 
ATOM     38  N   UNL A   1      41.624  29.398  33.018  1.00  0.00    -0.248 NA
ATOM     39  C   UNL A   1      42.644  27.589  31.956  1.00  0.00     0.031 C 
ATOM     40  C   UNL A   1      38.903  29.892  29.497  1.00  0.00     0.029 A 
ATOM     41  N   UNL A   1      39.488  30.729  31.485  1.00  0.00    -0.354 N 
ATOM     42  C   UNL A   1      42.595  28.861  33.855  1.00  0.00     0.074 A 
ATOM     43  C   UNL A   1      43.145  27.709  33.176  1.00  0.00     0.031 C 
ATOM     44  C   UNL A   1      38.110  30.949  29.737  1.00  0.00     0.029 A 
ATOM     45  C   UNL A   1      38.442  31.506  31.044  1.00  0.00     0.049 A 
ATOM     46  H   UNL A   1      39.946  30.879  32.344  1.00  0.00     0.167 HD
ATOM     47  C   UNL A   1      43.003  29.300  35.070  1.00  0.00     0.037 A 
ATOM     48  C   UNL A   1      37.813  32.542  31.631  1.00  0.00     0.037 A 
ATOM     49  C   UNL A   1      42.460  30.461  35.727  1.00  0.00     0.049 A 
ATOM     50  C   UNL A   1      38.278  33.006  32.985  1.00  0.00     0.074 A 
ATOM     51  C   UNL A   1      42.845  31.026  36.930  1.00  0.00     0.029 A 
ATOM     52  N   UNL A   1      41.413  31.232  35.241  1.00  0.00    -0.354 N 
ATOM     53  N   UNL A   1      39.243  32.527  33.734  1.00  0.00    -0.248 NA
ATOM     54  C   UNL A   1      37.575  34.154  33.572  1.00  0.00     0.031 C 
ATOM     55  C   UNL A   1      41.997  32.105  37.197  1.00  0.00     0.029 A 
ATOM     56  C   UNL A   1      41.122  32.251  36.133  1.00  0.00     0.049 A 
ATOM     57  H   UNL A   1      40.948  31.078  34.388  1.00  0.00     0.167 HD
ATOM     58  C   UNL A   1      39.282  33.333  34.866  1.00  0.00     0.074 A 
ATOM     59  C   UNL A   1      38.253  34.338  34.697  1.00  0.00     0.031 C 
ATOM     60  C   UNL A   1      40.097  33.250  35.947  1.00  0.00     0.037 A 
BRANCH  47  61
ATOM     61  C   UNL A   1      44.089  28.526  35.766  1.00  0.00     0.058 A 
ATOM     62  C   UNL A   1      43.799  27.463  36.637  1.00  0.00     0.135 A 
ATOM     63  C   UNL A   1      45.441  28.824  35.530  1.00  0.00     0.135 A 
ATOM     64  F   UNL A   1      42.524  27.144  36.913  1.00  0.00    -0.206 F 
ATOM     65  C   UNL A   1      44.807  26.744  37.271  1.00  0.00     0.059 A 
ATOM     66  C   UNL A   1      46.467  28.097  36.128  1.00  0.00     0.059 A 
ATOM     67  F   UNL A   1      45.778  29.830  34.707  1.00  0.00    -0.206 F 
ATOM     68  C   UNL A   1      46.138  27.067  37.008  1.00  0.00     0.060 A 
BRANCH  68  69
ATOM     69  S   UNL A   1      47.433  26.116  37.832  1.00  0.00     0.124 S 
ATOM     70  O   UNL A   1      46.840  24.783  37.864  1.00  0.00    -0.237 OA
ATOM     71  O   UNL A   1      48.565  26.284  36.925  1.00  0.00    -0.237 OA
ATOM     72  O   UNL A   1      47.569  26.774  39.127  1.00  0.00    -0.744 OA
ENDBRANCH  68  69
ENDBRANCH  47  61
BRANCH  48  73
ATOM     73  C   UNL A   1      36.686  33.218  30.935  1.00  0.00     0.058 A 
ATOM     74  C   UNL A   1      36.918  34.084  29.856  1.00  0.00     0.135 A 
ATOM     75  C   UNL A   1      35.354  33.005  31.323  1.00  0.00     0.135 A 
ATOM     76  F   UNL A   1      38.174  34.326  29.449  1.00  0.00    -0.206 F 
ATOM     77  C   UNL A   1      35.875  34.726  29.197  1.00  0.00     0.059 A 
ATOM     78  C   UNL A   1      34.292  33.613  30.663  1.00  0.00     0.059 A 
ATOM     79  F   UNL A   1      35.074  32.172  32.339  1.00  0.00    -0.206 F 
ATOM     80  C   UNL A   1      34.564  34.482  29.607  1.00  0.00     0.060 A 
BRANCH  80  81
ATOM     81  S   UNL A   1      33.214  35.286  28.716  1.00  0.00     0.124 S 
ATOM     82  O   UNL A   1      32.612  34.159  28.014  1.00  0.00    -0.237 OA
ATOM     83  O   UNL A   1      32.427  35.857  29.805  1.00  0.00    -0.237 OA
ATOM     84  O   UNL A   1      33.903  36.260  27.872  1.00  0.00    -0.744 OA
ENDBRANCH  80  81
ENDBRANCH  48  73
BRANCH  60  85
ATOM     85  C   UNL A   1      39.938  34.294  37.018  1.00  0.00     0.058 A 
ATOM     86  C   UNL A   1      40.530  35.561  36.912  1.00  0.00     0.135 A 
ATOM     87  C   UNL A   1      39.132  34.039  38.140  1.00  0.00     0.135 A 
ATOM     88  F   UNL A   1      41.316  35.855  35.863  1.00  0.00    -0.206 F 
ATOM     89  C   UNL A   1      40.351  36.532  37.893  1.00  0.00     0.059 A 
ATOM     90  C   UNL A   1      38.913  35.005  39.117  1.00  0.00     0.059 A 
ATOM     91  F   UNL A   1      38.533  32.846  38.287  1.00  0.00    -0.206 F 
ATOM     92  C   UNL A   1      39.536  36.245  38.989  1.00  0.00     0.060 A 
BRANCH  92  93
ATOM     93  S   UNL A   1      39.281  37.527  40.234  1.00  0.00     0.124 S 
ATOM     94  O   UNL A   1      38.872  36.738  41.391  1.00  0.00    -0.237 OA
ATOM     95  O   UNL A   1      40.601  38.144  40.322  1.00  0.00    -0.237 OA
ATOM     96  O   UNL A   1      38.241  38.368  39.649  1.00  0.00    -0.744 OA
ENDBRANCH  92  93
ENDBRANCH  60  85
ENDBRANCH  34  35
ENDBRANCH  26  29
ENDBRANCH  24  25
ENDBRANCH  23  24
ENDBRANCH   1  23
TORSDOF 17
ENDMDL
