MODEL 1
REMARK VINA RESULT:      -9.4      0.000      0.000
REMARK SMILES O=C(NCCCNC(=O)c1ccc(-c2c3nc(c(-c4c(F)cc(S(=O)(=O)[O-])cc4F)c4ccc([nH]4)c(-c4c(F)cc(S(=O)(=O)[O-])cc4F)c4nc(c(-c5c(F)cc(S(=O)(=O)[O-])cc5F)c5ccc2[nH]5)C=C4)C=C3)cc1)c1ccc(/[NH+]=C2\S[C@@H](Cc3ccc(F)cc3)C(=O)N2Cc2ccccc2)cc1
REMARK SMILES IDX 5 1 4 2 3 3 1 4 2 5 76 7 77 8 103 9 78 10 102 11 79 12 80 13
REMARK SMILES IDX 81 14 82 16 94 17 83 18 92 19 93 20 95 21 96 22 97 23 101 24
REMARK SMILES IDX 98 25 100 26 99 27 84 28 85 29 86 30 91 31 87 32 90 33 88 34
REMARK SMILES IDX 89 35 6 36 7 37 8 38 9 40 10 41 11 42 75 43 12 44 74 45
REMARK SMILES IDX 13 46 14 47 15 48 68 49 16 50 73 51 67 52 69 53 17 54 72 55
REMARK SMILES IDX 66 56 65 57 18 59 52 60 31 61 51 62 32 63 35 64 50 65 70 66
REMARK SMILES IDX 33 67 34 68 49 70 71 71 36 72 19 73 20 74 29 75 21 76 22 77
REMARK SMILES IDX 28 78 30 79 23 80 24 81 25 82 26 83 27 84 53 85 54 86 63 87
REMARK SMILES IDX 55 88 56 89 62 90 64 91 57 92 58 93 59 94 60 95 61 96 37 97
REMARK SMILES IDX 38 98 47 99 39 100 40 101 46 102 48 103 41 104 42 105 43 106
REMARK SMILES IDX 44 107 45 108
REMARK H PARENT 3 6 80 15 7 39 69 58 35 69
REMARK Flexibility Score: inf
ROOT
ATOM      1  C   UNL A   1      34.595  32.846  30.172  1.00  0.00     0.042 C 
ENDROOT
BRANCH   1   2
ATOM      2  C   UNL A   1      35.449  34.018  30.621  1.00  0.00     0.118 C 
BRANCH   2   3
ATOM      3  N   UNL A   1      36.580  34.265  29.735  1.00  0.00    -0.352 N 
ATOM      4  O   UNL A   1      38.734  34.623  29.156  1.00  0.00    -0.269 OA
ATOM      5  C   UNL A   1      37.928  34.205  29.987  1.00  0.00     0.251 C 
ATOM      6  H   UNL A   1      36.340  34.515  28.814  1.00  0.00     0.163 HD
BRANCH   5   7
ATOM      7  C   UNL A   1      38.419  33.642  31.259  1.00  0.00     0.040 A 
ATOM      8  C   UNL A   1      39.354  34.340  32.021  1.00  0.00     0.018 A 
ATOM      9  C   UNL A   1      37.917  32.417  31.716  1.00  0.00     0.018 A 
ATOM     10  C   UNL A   1      39.887  33.750  33.158  1.00  0.00     0.052 A 
ATOM     11  C   UNL A   1      38.416  31.857  32.897  1.00  0.00     0.052 A 
ATOM     12  C   UNL A   1      39.435  32.503  33.599  1.00  0.00     0.125 A 
BRANCH  12  13
ATOM     13  N   UNL A   1      39.960  32.027  34.800  1.00  0.00    -0.235 N 
ATOM     14  C   UNL A   1      40.874  31.120  34.852  1.00  0.00     0.320 C 
ATOM     15  H   UNL A   1      39.617  32.399  35.645  1.00  0.00     0.313 HD
ATOM     16  S   UNL A   1      41.492  30.149  33.548  1.00  0.00    -0.022 SA
ATOM     17  N   UNL A   1      41.514  30.823  36.025  1.00  0.00    -0.186 N 
ATOM     18  C   UNL A   1      42.274  28.970  34.699  1.00  0.00     0.178 C 
ATOM     19  C   UNL A   1      42.366  29.738  36.014  1.00  0.00     0.324 C 
ATOM     20  O   UNL A   1      43.030  29.377  36.979  1.00  0.00    -0.245 OA
BRANCH  17  21
ATOM     21  C   UNL A   1      41.304  31.598  37.247  1.00  0.00     0.283 C 
BRANCH  21  22
ATOM     22  C   UNL A   1      41.885  33.002  37.213  1.00  0.00    -0.006 A 
ATOM     23  C   UNL A   1      43.124  33.263  36.612  1.00  0.00     0.008 A 
ATOM     24  C   UNL A   1      41.217  34.069  37.829  1.00  0.00     0.008 A 
ATOM     25  C   UNL A   1      43.666  34.554  36.630  1.00  0.00     0.000 A 
ATOM     26  C   UNL A   1      41.734  35.366  37.812  1.00  0.00     0.000 A 
ATOM     27  C   UNL A   1      42.966  35.607  37.218  1.00  0.00     0.000 A 
ENDBRANCH  21  22
ENDBRANCH  17  21
BRANCH  18  28
ATOM     28  C   UNL A   1      43.604  28.457  34.149  1.00  0.00     0.063 C 
BRANCH  28  29
ATOM     29  C   UNL A   1      43.645  26.954  33.966  1.00  0.00    -0.046 A 
ATOM     30  C   UNL A   1      44.125  26.412  32.764  1.00  0.00     0.007 A 
ATOM     31  C   UNL A   1      43.228  26.087  34.988  1.00  0.00     0.007 A 
ATOM     32  C   UNL A   1      44.221  25.029  32.600  1.00  0.00     0.039 A 
ATOM     33  C   UNL A   1      43.328  24.704  34.822  1.00  0.00     0.039 A 
ATOM     34  C   UNL A   1      43.830  24.189  33.633  1.00  0.00     0.123 A 
ATOM     35  F   UNL A   1      43.941  22.862  33.483  1.00  0.00    -0.207 F 
ENDBRANCH  28  29
ENDBRANCH  18  28
ENDBRANCH  12  13
ENDBRANCH   5   7
ENDBRANCH   2   3
ENDBRANCH   1   2
BRANCH   1  36
ATOM     36  C   UNL A   1      34.607  32.610  28.670  1.00  0.00     0.118 C 
BRANCH  36  37
ATOM     37  N   UNL A   1      33.950  31.367  28.291  1.00  0.00    -0.352 N 
ATOM     38  C   UNL A   1      34.478  30.135  27.994  1.00  0.00     0.251 C 
ATOM     39  H   UNL A   1      32.969  31.417  28.239  1.00  0.00     0.163 HD
ATOM     40  O   UNL A   1      33.746  29.271  27.516  1.00  0.00    -0.269 OA
BRANCH  38  41
ATOM     41  C   UNL A   1      35.912  29.848  28.225  1.00  0.00     0.039 A 
ATOM     42  C   UNL A   1      36.310  29.372  29.477  1.00  0.00     0.014 A 
ATOM     43  C   UNL A   1      36.868  30.076  27.233  1.00  0.00     0.014 A 
ATOM     44  C   UNL A   1      37.657  29.081  29.714  1.00  0.00     0.010 A 
ATOM     45  C   UNL A   1      38.190  29.687  27.435  1.00  0.00     0.010 A 
ATOM     46  C   UNL A   1      38.604  29.210  28.685  1.00  0.00    -0.014 A 
BRANCH  46  47
ATOM     47  C   UNL A   1      40.038  28.892  28.913  1.00  0.00     0.031 A 
ATOM     48  C   UNL A   1      40.961  29.942  29.477  1.00  0.00     0.074 A 
ATOM     49  C   UNL A   1      40.518  27.681  28.573  1.00  0.00     0.049 A 
ATOM     50  N   UNL A   1      42.247  29.873  29.711  1.00  0.00    -0.248 NA
ATOM     51  C   UNL A   1      40.369  31.253  29.789  1.00  0.00     0.031 C 
ATOM     52  C   UNL A   1      39.739  26.599  27.965  1.00  0.00     0.029 A 
ATOM     53  N   UNL A   1      41.780  27.155  28.686  1.00  0.00    -0.354 N 
ATOM     54  C   UNL A   1      42.615  31.129  30.181  1.00  0.00     0.074 A 
ATOM     55  C   UNL A   1      41.434  31.961  30.134  1.00  0.00     0.031 C 
ATOM     56  C   UNL A   1      40.531  25.530  27.790  1.00  0.00     0.029 A 
ATOM     57  C   UNL A   1      41.881  25.858  28.237  1.00  0.00     0.049 A 
ATOM     58  H   UNL A   1      42.543  27.657  29.054  1.00  0.00     0.167 HD
ATOM     59  C   UNL A   1      43.821  31.546  30.638  1.00  0.00     0.037 A 
ATOM     60  C   UNL A   1      42.941  25.028  28.193  1.00  0.00     0.037 A 
ATOM     61  C   UNL A   1      44.986  30.703  30.710  1.00  0.00     0.049 A 
ATOM     62  C   UNL A   1      44.266  25.507  28.725  1.00  0.00     0.074 A 
ATOM     63  C   UNL A   1      46.242  31.010  31.206  1.00  0.00     0.029 A 
ATOM     64  N   UNL A   1      45.041  29.387  30.273  1.00  0.00    -0.354 N 
ATOM     65  N   UNL A   1      44.582  26.679  29.223  1.00  0.00    -0.248 NA
ATOM     66  C   UNL A   1      45.374  24.543  28.704  1.00  0.00     0.031 C 
ATOM     67  C   UNL A   1      47.066  29.894  31.031  1.00  0.00     0.029 A 
ATOM     68  C   UNL A   1      46.311  28.873  30.477  1.00  0.00     0.049 A 
ATOM     69  H   UNL A   1      44.287  28.892  29.878  1.00  0.00     0.167 HD
ATOM     70  C   UNL A   1      45.916  26.583  29.604  1.00  0.00     0.074 A 
ATOM     71  C   UNL A   1      46.341  25.233  29.293  1.00  0.00     0.031 C 
ATOM     72  C   UNL A   1      46.717  27.525  30.164  1.00  0.00     0.037 A 
BRANCH  59  73
ATOM     73  C   UNL A   1      43.934  32.973  31.103  1.00  0.00     0.058 A 
ATOM     74  C   UNL A   1      44.199  34.024  30.210  1.00  0.00     0.135 A 
ATOM     75  C   UNL A   1      43.751  33.300  32.457  1.00  0.00     0.135 A 
ATOM     76  F   UNL A   1      44.401  33.769  28.907  1.00  0.00    -0.206 F 
ATOM     77  C   UNL A   1      44.315  35.340  30.644  1.00  0.00     0.059 A 
ATOM     78  C   UNL A   1      43.829  34.614  32.909  1.00  0.00     0.059 A 
ATOM     79  F   UNL A   1      43.495  32.337  33.356  1.00  0.00    -0.206 F 
ATOM     80  C   UNL A   1      44.128  35.625  31.997  1.00  0.00     0.060 A 
BRANCH  80  81
ATOM     81  S   UNL A   1      44.279  37.339  32.545  1.00  0.00     0.124 S 
ATOM     82  O   UNL A   1      43.870  38.064  31.346  1.00  0.00    -0.237 OA
ATOM     83  O   UNL A   1      43.345  37.391  33.666  1.00  0.00    -0.237 OA
ATOM     84  O   UNL A   1      45.688  37.460  32.901  1.00  0.00    -0.744 OA
ENDBRANCH  80  81
ENDBRANCH  59  73
BRANCH  60  85
ATOM     85  C   UNL A   1      42.784  23.648  27.660  1.00  0.00     0.058 A 
ATOM     86  C   UNL A   1      42.542  22.565  28.519  1.00  0.00     0.135 A 
ATOM     87  C   UNL A   1      42.863  23.385  26.284  1.00  0.00     0.135 A 
ATOM     88  F   UNL A   1      42.463  22.764  29.843  1.00  0.00    -0.206 F 
ATOM     89  C   UNL A   1      42.405  21.269  28.036  1.00  0.00     0.059 A 
ATOM     90  C   UNL A   1      42.702  22.101  25.774  1.00  0.00     0.059 A 
ATOM     91  F   UNL A   1      43.074  24.389  25.417  1.00  0.00    -0.206 F 
ATOM     92  C   UNL A   1      42.483  21.047  26.660  1.00  0.00     0.060 A 
BRANCH  92  93
ATOM     93  S   UNL A   1      42.257  19.365  26.040  1.00  0.00     0.124 S 
ATOM     94  O   UNL A   1      43.116  19.368  24.862  1.00  0.00    -0.237 OA
ATOM     95  O   UNL A   1      42.717  18.559  27.166  1.00  0.00    -0.237 OA
ATOM     96  O   UNL A   1      40.822  19.297  25.776  1.00  0.00    -0.744 OA
ENDBRANCH  92  93
ENDBRANCH  60  85
BRANCH  72  97
ATOM     97  C   UNL A   1      48.120  27.111  30.517  1.00  0.00     0.058 A 
ATOM     98  C   UNL A   1      49.208  27.372  29.670  1.00  0.00     0.135 A 
ATOM     99  C   UNL A   1      48.379  26.456  31.733  1.00  0.00     0.135 A 
ATOM    100  F   UNL A   1      49.016  27.993  28.495  1.00  0.00    -0.206 F 
ATOM    101  C   UNL A   1      50.496  26.958  29.993  1.00  0.00     0.059 A 
ATOM    102  C   UNL A   1      49.664  26.063  32.091  1.00  0.00     0.059 A 
ATOM    103  F   UNL A   1      47.377  26.196  32.588  1.00  0.00    -0.206 F 
ATOM    104  C   UNL A   1      50.713  26.298  31.205  1.00  0.00     0.060 A 
BRANCH 104 105
ATOM    105  S   UNL A   1      52.387  25.759  31.611  1.00  0.00     0.124 S 
ATOM    106  O   UNL A   1      53.054  25.879  30.319  1.00  0.00    -0.237 OA
ATOM    107  O   UNL A   1      52.791  26.727  32.626  1.00  0.00    -0.237 OA
ATOM    108  O   UNL A   1      52.196  24.395  32.096  1.00  0.00    -0.744 OA
ENDBRANCH 104 105
ENDBRANCH  72  97
ENDBRANCH  46  47
ENDBRANCH  38  41
ENDBRANCH  36  37
ENDBRANCH   1  36
TORSDOF 18
ENDMDL
MODEL 2
REMARK VINA RESULT:      -9.4      2.937      3.862
REMARK SMILES O=C(NCCCNC(=O)c1ccc(-c2c3nc(c(-c4c(F)cc(S(=O)(=O)[O-])cc4F)c4ccc([nH]4)c(-c4c(F)cc(S(=O)(=O)[O-])cc4F)c4nc(c(-c5c(F)cc(S(=O)(=O)[O-])cc5F)c5ccc2[nH]5)C=C4)C=C3)cc1)c1ccc(/[NH+]=C2\S[C@@H](Cc3ccc(F)cc3)C(=O)N2Cc2ccccc2)cc1
REMARK SMILES IDX 5 1 4 2 3 3 1 4 2 5 76 7 77 8 103 9 78 10 102 11 79 12 80 13
REMARK SMILES IDX 81 14 82 16 94 17 83 18 92 19 93 20 95 21 96 22 97 23 101 24
REMARK SMILES IDX 98 25 100 26 99 27 84 28 85 29 86 30 91 31 87 32 90 33 88 34
REMARK SMILES IDX 89 35 6 36 7 37 8 38 9 40 10 41 11 42 75 43 12 44 74 45
REMARK SMILES IDX 13 46 14 47 15 48 68 49 16 50 73 51 67 52 69 53 17 54 72 55
REMARK SMILES IDX 66 56 65 57 18 59 52 60 31 61 51 62 32 63 35 64 50 65 70 66
REMARK SMILES IDX 33 67 34 68 49 70 71 71 36 72 19 73 20 74 29 75 21 76 22 77
REMARK SMILES IDX 28 78 30 79 23 80 24 81 25 82 26 83 27 84 53 85 54 86 63 87
REMARK SMILES IDX 55 88 56 89 62 90 64 91 57 92 58 93 59 94 60 95 61 96 37 97
REMARK SMILES IDX 38 98 47 99 39 100 40 101 46 102 48 103 41 104 42 105 43 106
REMARK SMILES IDX 44 107 45 108
REMARK H PARENT 3 6 80 15 7 39 69 58 35 69
REMARK Flexibility Score: inf
ROOT
ATOM      1  C   UNL A   1      35.919  33.689  28.957  1.00  0.00     0.042 C 
ENDROOT
BRANCH   1   2
ATOM      2  C   UNL A   1      34.458  33.367  29.221  1.00  0.00     0.118 C 
BRANCH   2   3
ATOM      3  N   UNL A   1      33.682  34.540  29.606  1.00  0.00    -0.352 N 
ATOM      4  O   UNL A   1      32.672  36.005  30.997  1.00  0.00    -0.269 OA
ATOM      5  C   UNL A   1      33.512  35.120  30.837  1.00  0.00     0.251 C 
ATOM      6  H   UNL A   1      33.204  34.983  28.868  1.00  0.00     0.163 HD
BRANCH   5   7
ATOM      7  C   UNL A   1      34.336  34.684  31.981  1.00  0.00     0.040 A 
ATOM      8  C   UNL A   1      33.980  33.551  32.711  1.00  0.00     0.018 A 
ATOM      9  C   UNL A   1      35.498  35.392  32.311  1.00  0.00     0.018 A 
ATOM     10  C   UNL A   1      34.701  33.215  33.847  1.00  0.00     0.052 A 
ATOM     11  C   UNL A   1      36.254  35.010  33.424  1.00  0.00     0.052 A 
ATOM     12  C   UNL A   1      35.833  33.945  34.222  1.00  0.00     0.125 A 
BRANCH  12  13
ATOM     13  N   UNL A   1      36.549  33.482  35.325  1.00  0.00    -0.235 N 
ATOM     14  C   UNL A   1      37.715  32.944  35.226  1.00  0.00     0.320 C 
ATOM     15  H   UNL A   1      36.145  33.569  36.219  1.00  0.00     0.313 HD
ATOM     16  S   UNL A   1      38.556  32.473  33.777  1.00  0.00    -0.022 SA
ATOM     17  N   UNL A   1      38.477  32.690  36.334  1.00  0.00    -0.186 N 
ATOM     18  C   UNL A   1      39.746  31.455  34.711  1.00  0.00     0.178 C 
ATOM     19  C   UNL A   1      39.643  31.976  36.140  1.00  0.00     0.324 C 
ATOM     20  O   UNL A   1      40.438  31.706  37.033  1.00  0.00    -0.245 OA
BRANCH  17  21
ATOM     21  C   UNL A   1      38.083  33.131  37.670  1.00  0.00     0.283 C 
BRANCH  21  22
ATOM     22  C   UNL A   1      38.735  34.426  38.127  1.00  0.00    -0.006 A 
ATOM     23  C   UNL A   1      39.325  35.306  37.211  1.00  0.00     0.008 A 
ATOM     24  C   UNL A   1      38.808  34.750  39.489  1.00  0.00     0.008 A 
ATOM     25  C   UNL A   1      39.963  36.472  37.653  1.00  0.00     0.000 A 
ATOM     26  C   UNL A   1      39.405  35.932  39.930  1.00  0.00     0.000 A 
ATOM     27  C   UNL A   1      39.991  36.791  39.010  1.00  0.00     0.000 A 
ENDBRANCH  21  22
ENDBRANCH  17  21
BRANCH  18  28
ATOM     28  C   UNL A   1      41.141  31.524  34.091  1.00  0.00     0.063 C 
BRANCH  28  29
ATOM     29  C   UNL A   1      41.711  30.168  33.729  1.00  0.00    -0.046 A 
ATOM     30  C   UNL A   1      42.799  30.083  32.846  1.00  0.00     0.007 A 
ATOM     31  C   UNL A   1      41.182  28.988  34.276  1.00  0.00     0.007 A 
ATOM     32  C   UNL A   1      43.370  28.846  32.545  1.00  0.00     0.039 A 
ATOM     33  C   UNL A   1      41.758  27.752  33.975  1.00  0.00     0.039 A 
ATOM     34  C   UNL A   1      42.851  27.694  33.119  1.00  0.00     0.123 A 
ATOM     35  F   UNL A   1      43.413  26.509  32.845  1.00  0.00    -0.207 F 
ENDBRANCH  28  29
ENDBRANCH  18  28
ENDBRANCH  12  13
ENDBRANCH   5   7
ENDBRANCH   2   3
ENDBRANCH   1   2
BRANCH   1  36
ATOM     36  C   UNL A   1      36.883  33.043  29.938  1.00  0.00     0.118 C 
BRANCH  36  37
ATOM     37  N   UNL A   1      36.279  31.945  30.680  1.00  0.00    -0.352 N 
ATOM     38  C   UNL A   1      36.676  30.637  30.817  1.00  0.00     0.251 C 
ATOM     39  H   UNL A   1      35.453  32.177  31.162  1.00  0.00     0.163 HD
ATOM     40  O   UNL A   1      35.910  29.834  31.343  1.00  0.00    -0.269 OA
BRANCH  38  41
ATOM     41  C   UNL A   1      37.998  30.190  30.324  1.00  0.00     0.039 A 
ATOM     42  C   UNL A   1      38.245  30.205  28.949  1.00  0.00     0.014 A 
ATOM     43  C   UNL A   1      38.981  29.724  31.200  1.00  0.00     0.014 A 
ATOM     44  C   UNL A   1      39.490  29.800  28.462  1.00  0.00     0.010 A 
ATOM     45  C   UNL A   1      40.254  29.422  30.724  1.00  0.00     0.010 A 
ATOM     46  C   UNL A   1      40.516  29.431  29.348  1.00  0.00    -0.014 A 
BRANCH  46  47
ATOM     47  C   UNL A   1      41.851  29.010  28.850  1.00  0.00     0.031 A 
ATOM     48  C   UNL A   1      42.966  30.020  28.741  1.00  0.00     0.074 A 
ATOM     49  C   UNL A   1      42.049  27.738  28.455  1.00  0.00     0.049 A 
ATOM     50  N   UNL A   1      44.186  29.859  28.294  1.00  0.00    -0.248 NA
ATOM     51  C   UNL A   1      42.662  31.398  29.157  1.00  0.00     0.031 C 
ATOM     52  C   UNL A   1      41.033  26.682  28.457  1.00  0.00     0.029 A 
ATOM     53  N   UNL A   1      43.170  27.116  27.969  1.00  0.00    -0.354 N 
ATOM     54  C   UNL A   1      44.783  31.112  28.363  1.00  0.00     0.074 A 
ATOM     55  C   UNL A   1      43.774  32.036  28.829  1.00  0.00     0.031 C 
ATOM     56  C   UNL A   1      41.587  25.538  28.027  1.00  0.00     0.029 A 
ATOM     57  C   UNL A   1      42.984  25.783  27.684  1.00  0.00     0.049 A 
ATOM     58  H   UNL A   1      44.029  27.579  27.838  1.00  0.00     0.167 HD
ATOM     59  C   UNL A   1      46.065  31.459  28.091  1.00  0.00     0.037 A 
ATOM     60  C   UNL A   1      43.842  24.863  27.202  1.00  0.00     0.037 A 
ATOM     61  C   UNL A   1      47.073  30.528  27.656  1.00  0.00     0.049 A 
ATOM     62  C   UNL A   1      45.267  25.268  26.926  1.00  0.00     0.074 A 
ATOM     63  C   UNL A   1      48.413  30.764  27.406  1.00  0.00     0.029 A 
ATOM     64  N   UNL A   1      46.852  29.180  27.407  1.00  0.00    -0.354 N 
ATOM     65  N   UNL A   1      45.831  26.445  27.056  1.00  0.00    -0.248 NA
ATOM     66  C   UNL A   1      46.174  24.214  26.456  1.00  0.00     0.031 C 
ATOM     67  C   UNL A   1      48.993  29.571  26.965  1.00  0.00     0.029 A 
ATOM     68  C   UNL A   1      48.028  28.577  26.994  1.00  0.00     0.049 A 
ATOM     69  H   UNL A   1      45.987  28.721  27.511  1.00  0.00     0.167 HD
ATOM     70  C   UNL A   1      47.168  26.266  26.713  1.00  0.00     0.074 A 
ATOM     71  C   UNL A   1      47.327  24.863  26.386  1.00  0.00     0.031 C 
ATOM     72  C   UNL A   1      48.171  27.177  26.675  1.00  0.00     0.037 A 
BRANCH  59  73
ATOM     73  C   UNL A   1      46.447  32.905  28.267  1.00  0.00     0.058 A 
ATOM     74  C   UNL A   1      46.235  33.854  27.254  1.00  0.00     0.135 A 
ATOM     75  C   UNL A   1      47.011  33.353  29.473  1.00  0.00     0.135 A 
ATOM     76  F   UNL A   1      45.715  33.480  26.074  1.00  0.00    -0.206 F 
ATOM     77  C   UNL A   1      46.600  35.187  27.415  1.00  0.00     0.059 A 
ATOM     78  C   UNL A   1      47.353  34.689  29.668  1.00  0.00     0.059 A 
ATOM     79  F   UNL A   1      47.236  32.491  30.476  1.00  0.00    -0.206 F 
ATOM     80  C   UNL A   1      47.160  35.594  28.626  1.00  0.00     0.060 A 
BRANCH  80  81
ATOM     81  S   UNL A   1      47.625  37.328  28.820  1.00  0.00     0.124 S 
ATOM     82  O   UNL A   1      46.324  37.958  29.021  1.00  0.00    -0.237 OA
ATOM     83  O   UNL A   1      48.497  37.288  29.990  1.00  0.00    -0.237 OA
ATOM     84  O   UNL A   1      48.288  37.645  27.559  1.00  0.00    -0.744 OA
ENDBRANCH  80  81
ENDBRANCH  59  73
BRANCH  60  85
ATOM     85  C   UNL A   1      43.389  23.464  26.986  1.00  0.00     0.058 A 
ATOM     86  C   UNL A   1      43.055  23.002  25.704  1.00  0.00     0.135 A 
ATOM     87  C   UNL A   1      43.291  22.556  28.052  1.00  0.00     0.135 A 
ATOM     88  F   UNL A   1      43.128  23.832  24.652  1.00  0.00    -0.206 F 
ATOM     89  C   UNL A   1      42.618  21.699  25.489  1.00  0.00     0.059 A 
ATOM     90  C   UNL A   1      42.884  21.240  27.859  1.00  0.00     0.059 A 
ATOM     91  F   UNL A   1      43.618  22.942  29.296  1.00  0.00    -0.206 F 
ATOM     92  C   UNL A   1      42.539  20.824  26.573  1.00  0.00     0.060 A 
BRANCH  92  93
ATOM     93  S   UNL A   1      42.017  19.121  26.275  1.00  0.00     0.124 S 
ATOM     94  O   UNL A   1      42.203  18.522  27.591  1.00  0.00    -0.237 OA
ATOM     95  O   UNL A   1      40.635  19.296  25.841  1.00  0.00    -0.237 OA
ATOM     96  O   UNL A   1      42.938  18.666  25.237  1.00  0.00    -0.744 OA
ENDBRANCH  92  93
ENDBRANCH  60  85
BRANCH  72  97
ATOM     97  C   UNL A   1      49.542  26.674  26.310  1.00  0.00     0.058 A 
ATOM     98  C   UNL A   1      50.062  26.806  25.013  1.00  0.00     0.135 A 
ATOM     99  C   UNL A   1      50.353  26.064  27.282  1.00  0.00     0.135 A 
ATOM    100  F   UNL A   1      49.328  27.380  24.046  1.00  0.00    -0.206 F 
ATOM    101  C   UNL A   1      51.318  26.310  24.680  1.00  0.00     0.059 A 
ATOM    102  C   UNL A   1      51.625  25.590  26.978  1.00  0.00     0.059 A 
ATOM    103  F   UNL A   1      49.912  25.926  28.542  1.00  0.00    -0.206 F 
ATOM    104  C   UNL A   1      52.091  25.698  25.669  1.00  0.00     0.060 A 
BRANCH 104 105
ATOM    105  S   UNL A   1      53.715  25.051  25.224  1.00  0.00     0.124 S 
ATOM    106  O   UNL A   1      53.494  23.613  25.321  1.00  0.00    -0.237 OA
ATOM    107  O   UNL A   1      53.903  25.575  23.874  1.00  0.00    -0.237 OA
ATOM    108  O   UNL A   1      54.598  25.622  26.239  1.00  0.00    -0.744 OA
ENDBRANCH 104 105
ENDBRANCH  72  97
ENDBRANCH  46  47
ENDBRANCH  38  41
ENDBRANCH  36  37
ENDBRANCH   1  36
TORSDOF 18
ENDMDL
MODEL 3
REMARK VINA RESULT:      -9.3      3.501     10.203
REMARK SMILES O=C(NCCCNC(=O)c1ccc(-c2c3nc(c(-c4c(F)cc(S(=O)(=O)[O-])cc4F)c4ccc([nH]4)c(-c4c(F)cc(S(=O)(=O)[O-])cc4F)c4nc(c(-c5c(F)cc(S(=O)(=O)[O-])cc5F)c5ccc2[nH]5)C=C4)C=C3)cc1)c1ccc(/[NH+]=C2\S[C@@H](Cc3ccc(F)cc3)C(=O)N2Cc2ccccc2)cc1
REMARK SMILES IDX 5 1 4 2 3 3 1 4 2 5 76 7 77 8 103 9 78 10 102 11 79 12 80 13
REMARK SMILES IDX 81 14 82 16 94 17 83 18 92 19 93 20 95 21 96 22 97 23 101 24
REMARK SMILES IDX 98 25 100 26 99 27 84 28 85 29 86 30 91 31 87 32 90 33 88 34
REMARK SMILES IDX 89 35 6 36 7 37 8 38 9 40 10 41 11 42 75 43 12 44 74 45
REMARK SMILES IDX 13 46 14 47 15 48 68 49 16 50 73 51 67 52 69 53 17 54 72 55
REMARK SMILES IDX 66 56 65 57 18 59 52 60 31 61 51 62 32 63 35 64 50 65 70 66
REMARK SMILES IDX 33 67 34 68 49 70 71 71 36 72 19 73 20 74 29 75 21 76 22 77
REMARK SMILES IDX 28 78 30 79 23 80 24 81 25 82 26 83 27 84 53 85 54 86 63 87
REMARK SMILES IDX 55 88 56 89 62 90 64 91 57 92 58 93 59 94 60 95 61 96 37 97
REMARK SMILES IDX 38 98 47 99 39 100 40 101 46 102 48 103 41 104 42 105 43 106
REMARK SMILES IDX 44 107 45 108
REMARK H PARENT 3 6 80 15 7 39 69 58 35 69
REMARK Flexibility Score: inf
ROOT
ATOM      1  C   UNL A   1      41.128  20.179  26.117  1.00  0.00     0.042 C 
ENDROOT
BRANCH   1   2
ATOM      2  C   UNL A   1      42.627  20.423  26.110  1.00  0.00     0.118 C 
BRANCH   2   3
ATOM      3  N   UNL A   1      43.001  21.626  25.376  1.00  0.00    -0.352 N 
ATOM      4  O   UNL A   1      43.434  23.819  25.053  1.00  0.00    -0.269 OA
ATOM      5  C   UNL A   1      43.318  22.879  25.838  1.00  0.00     0.251 C 
ATOM      6  H   UNL A   1      43.028  21.525  24.397  1.00  0.00     0.163 HD
BRANCH   5   7
ATOM      7  C   UNL A   1      43.518  23.107  27.282  1.00  0.00     0.040 A 
ATOM      8  C   UNL A   1      44.806  23.222  27.802  1.00  0.00     0.018 A 
ATOM      9  C   UNL A   1      42.408  23.241  28.124  1.00  0.00     0.018 A 
ATOM     10  C   UNL A   1      44.982  23.328  29.174  1.00  0.00     0.052 A 
ATOM     11  C   UNL A   1      42.594  23.408  29.500  1.00  0.00     0.052 A 
ATOM     12  C   UNL A   1      43.883  23.409  30.036  1.00  0.00     0.125 A 
BRANCH  12  13
ATOM     13  N   UNL A   1      44.153  23.604  31.390  1.00  0.00    -0.235 N 
ATOM     14  C   UNL A   1      44.381  24.767  31.895  1.00  0.00     0.320 C 
ATOM     15  H   UNL A   1      44.171  22.820  31.985  1.00  0.00     0.313 HD
ATOM     16  S   UNL A   1      44.625  26.271  31.054  1.00  0.00    -0.022 SA
ATOM     17  N   UNL A   1      44.437  24.954  33.250  1.00  0.00    -0.186 N 
ATOM     18  C   UNL A   1      45.313  27.074  32.539  1.00  0.00     0.178 C 
ATOM     19  C   UNL A   1      44.836  26.199  33.692  1.00  0.00     0.324 C 
ATOM     20  O   UNL A   1      44.898  26.519  34.874  1.00  0.00    -0.245 OA
BRANCH  17  21
ATOM     21  C   UNL A   1      44.110  23.891  34.199  1.00  0.00     0.283 C 
BRANCH  21  22
ATOM     22  C   UNL A   1      45.248  22.924  34.481  1.00  0.00    -0.006 A 
ATOM     23  C   UNL A   1      46.578  23.361  34.536  1.00  0.00     0.008 A 
ATOM     24  C   UNL A   1      44.999  21.554  34.646  1.00  0.00     0.008 A 
ATOM     25  C   UNL A   1      47.619  22.448  34.751  1.00  0.00     0.000 A 
ATOM     26  C   UNL A   1      46.030  20.648  34.903  1.00  0.00     0.000 A 
ATOM     27  C   UNL A   1      47.344  21.096  34.948  1.00  0.00     0.000 A 
ENDBRANCH  21  22
ENDBRANCH  17  21
BRANCH  18  28
ATOM     28  C   UNL A   1      44.897  28.542  32.618  1.00  0.00     0.063 C 
BRANCH  28  29
ATOM     29  C   UNL A   1      46.065  29.507  32.589  1.00  0.00    -0.046 A 
ATOM     30  C   UNL A   1      47.355  29.031  32.310  1.00  0.00     0.007 A 
ATOM     31  C   UNL A   1      45.878  30.880  32.819  1.00  0.00     0.007 A 
ATOM     32  C   UNL A   1      48.432  29.913  32.226  1.00  0.00     0.039 A 
ATOM     33  C   UNL A   1      46.958  31.761  32.730  1.00  0.00     0.039 A 
ATOM     34  C   UNL A   1      48.222  31.271  32.428  1.00  0.00     0.123 A 
ATOM     35  F   UNL A   1      49.253  32.120  32.326  1.00  0.00    -0.207 F 
ENDBRANCH  28  29
ENDBRANCH  18  28
ENDBRANCH  12  13
ENDBRANCH   5   7
ENDBRANCH   2   3
ENDBRANCH   1   2
BRANCH   1  36
ATOM     36  C   UNL A   1      40.334  21.222  26.886  1.00  0.00     0.118 C 
BRANCH  36  37
ATOM     37  N   UNL A   1      39.079  21.568  26.233  1.00  0.00    -0.352 N 
ATOM     38  C   UNL A   1      38.421  22.770  26.147  1.00  0.00     0.251 C 
ATOM     39  H   UNL A   1      38.630  20.820  25.778  1.00  0.00     0.163 HD
ATOM     40  O   UNL A   1      37.276  22.793  25.702  1.00  0.00    -0.269 OA
BRANCH  38  41
ATOM     41  C   UNL A   1      39.066  24.023  26.601  1.00  0.00     0.039 A 
ATOM     42  C   UNL A   1      38.905  24.421  27.930  1.00  0.00     0.014 A 
ATOM     43  C   UNL A   1      39.797  24.824  25.721  1.00  0.00     0.014 A 
ATOM     44  C   UNL A   1      39.516  25.593  28.385  1.00  0.00     0.010 A 
ATOM     45  C   UNL A   1      40.492  25.932  26.199  1.00  0.00     0.010 A 
ATOM     46  C   UNL A   1      40.339  26.344  27.529  1.00  0.00    -0.014 A 
BRANCH  46  47
ATOM     47  C   UNL A   1      41.008  27.585  27.997  1.00  0.00     0.031 A 
ATOM     48  C   UNL A   1      42.504  27.726  27.873  1.00  0.00     0.074 A 
ATOM     49  C   UNL A   1      40.282  28.562  28.572  1.00  0.00     0.049 A 
ATOM     50  N   UNL A   1      43.276  28.710  28.257  1.00  0.00    -0.248 NA
ATOM     51  C   UNL A   1      43.233  26.600  27.267  1.00  0.00     0.031 C 
ATOM     52  C   UNL A   1      38.836  28.520  28.803  1.00  0.00     0.029 A 
ATOM     53  N   UNL A   1      40.660  29.781  29.074  1.00  0.00    -0.354 N 
ATOM     54  C   UNL A   1      44.574  28.315  27.954  1.00  0.00     0.074 A 
ATOM     55  C   UNL A   1      44.494  26.976  27.417  1.00  0.00     0.031 C 
ATOM     56  C   UNL A   1      38.446  29.673  29.369  1.00  0.00     0.029 A 
ATOM     57  C   UNL A   1      39.615  30.521  29.575  1.00  0.00     0.049 A 
ATOM     58  H   UNL A   1      41.592  30.099  29.074  1.00  0.00     0.167 HD
ATOM     59  C   UNL A   1      45.728  29.015  28.082  1.00  0.00     0.037 A 
ATOM     60  C   UNL A   1      39.601  31.746  30.138  1.00  0.00     0.037 A 
ATOM     61  C   UNL A   1      45.798  30.360  28.589  1.00  0.00     0.049 A 
ATOM     62  C   UNL A   1      40.892  32.512  30.251  1.00  0.00     0.074 A 
ATOM     63  C   UNL A   1      46.908  31.179  28.710  1.00  0.00     0.029 A 
ATOM     64  N   UNL A   1      44.713  31.087  29.060  1.00  0.00    -0.354 N 
ATOM     65  N   UNL A   1      42.103  32.147  29.902  1.00  0.00    -0.248 NA
ATOM     66  C   UNL A   1      40.811  33.864  30.820  1.00  0.00     0.031 C 
ATOM     67  C   UNL A   1      46.502  32.383  29.293  1.00  0.00     0.029 A 
ATOM     68  C   UNL A   1      45.130  32.338  29.484  1.00  0.00     0.049 A 
ATOM     69  H   UNL A   1      43.785  30.761  29.088  1.00  0.00     0.167 HD
ATOM     70  C   UNL A   1      42.923  33.236  30.179  1.00  0.00     0.074 A 
ATOM     71  C   UNL A   1      42.066  34.277  30.710  1.00  0.00     0.031 C 
ATOM     72  C   UNL A   1      44.263  33.365  30.008  1.00  0.00     0.037 A 
BRANCH  59  73
ATOM     73  C   UNL A   1      47.004  28.337  27.658  1.00  0.00     0.058 A 
ATOM     74  C   UNL A   1      47.762  27.562  28.550  1.00  0.00     0.135 A 
ATOM     75  C   UNL A   1      47.463  28.444  26.334  1.00  0.00     0.135 A 
ATOM     76  F   UNL A   1      47.381  27.439  29.831  1.00  0.00    -0.206 F 
ATOM     77  C   UNL A   1      48.947  26.947  28.158  1.00  0.00     0.059 A 
ATOM     78  C   UNL A   1      48.629  27.810  25.911  1.00  0.00     0.059 A 
ATOM     79  F   UNL A   1      46.780  29.172  25.438  1.00  0.00    -0.206 F 
ATOM     80  C   UNL A   1      49.372  27.078  26.835  1.00  0.00     0.060 A 
BRANCH  80  81
ATOM     81  S   UNL A   1      50.911  26.271  26.341  1.00  0.00     0.124 S 
ATOM     82  O   UNL A   1      50.816  26.333  24.886  1.00  0.00    -0.237 OA
ATOM     83  O   UNL A   1      51.922  27.132  26.947  1.00  0.00    -0.237 OA
ATOM     84  O   UNL A   1      50.797  24.938  26.922  1.00  0.00    -0.744 OA
ENDBRANCH  80  81
ENDBRANCH  59  73
BRANCH  60  85
ATOM     85  C   UNL A   1      38.317  32.338  30.600  1.00  0.00     0.058 A 
ATOM     86  C   UNL A   1      37.536  33.130  29.744  1.00  0.00     0.135 A 
ATOM     87  C   UNL A   1      37.839  32.117  31.901  1.00  0.00     0.135 A 
ATOM     88  F   UNL A   1      37.952  33.374  28.492  1.00  0.00    -0.206 F 
ATOM     89  C   UNL A   1      36.340  33.699  30.166  1.00  0.00     0.059 A 
ATOM     90  C   UNL A   1      36.631  32.653  32.338  1.00  0.00     0.059 A 
ATOM     91  F   UNL A   1      38.537  31.350  32.754  1.00  0.00    -0.206 F 
ATOM     92  C   UNL A   1      35.894  33.452  31.465  1.00  0.00     0.060 A 
BRANCH  92  93
ATOM     93  S   UNL A   1      34.316  34.158  31.988  1.00  0.00     0.124 S 
ATOM     94  O   UNL A   1      34.751  35.340  32.721  1.00  0.00    -0.237 OA
ATOM     95  O   UNL A   1      33.653  34.404  30.711  1.00  0.00    -0.237 OA
ATOM     96  O   UNL A   1      33.725  33.094  32.795  1.00  0.00    -0.744 OA
ENDBRANCH  92  93
ENDBRANCH  60  85
BRANCH  72  97
ATOM     97  C   UNL A   1      44.875  34.695  30.355  1.00  0.00     0.058 A 
ATOM     98  C   UNL A   1      45.203  35.041  31.675  1.00  0.00     0.135 A 
ATOM     99  C   UNL A   1      45.151  35.632  29.345  1.00  0.00     0.135 A 
ATOM    100  F   UNL A   1      44.958  34.183  32.679  1.00  0.00    -0.206 F 
ATOM    101  C   UNL A   1      45.740  36.285  31.989  1.00  0.00     0.059 A 
ATOM    102  C   UNL A   1      45.718  36.869  29.632  1.00  0.00     0.059 A 
ATOM    103  F   UNL A   1      44.872  35.347  28.063  1.00  0.00    -0.206 F 
ATOM    104  C   UNL A   1      45.989  37.195  30.959  1.00  0.00     0.060 A 
BRANCH 104 105
ATOM    105  S   UNL A   1      46.679  38.809  31.377  1.00  0.00     0.124 S 
ATOM    106  O   UNL A   1      45.640  39.708  30.888  1.00  0.00    -0.237 OA
ATOM    107  O   UNL A   1      46.815  38.727  32.829  1.00  0.00    -0.237 OA
ATOM    108  O   UNL A   1      47.938  38.843  30.637  1.00  0.00    -0.744 OA
ENDBRANCH 104 105
ENDBRANCH  72  97
ENDBRANCH  46  47
ENDBRANCH  38  41
ENDBRANCH  36  37
ENDBRANCH   1  36
TORSDOF 18
ENDMDL
