MODEL 1
REMARK VINA RESULT:     -12.6      0.000      0.000
REMARK SMILES Cc1ccc2nc(CC3(CC(=O)NCCCNC(=O)c4ccc(-c5c6nc(c(-c7c(F)cc(S(=O)(=O)[O-])cc7F)c7ccc([nH]7)c(-c7c(F)cc(S(=O)(=O)[O-])cc7F)c7nc(c(-c8c(F)cc(S(=O)(=O)[O-])cc8F)c8ccc5[nH]8)C=C7)C=C6)cc4)CCCCC3)sc2c1
REMARK SMILES IDX 15 1 14 2 13 3 11 4 12 5 10 7 9 8 86 9 90 10 87 11 89 12
REMARK SMILES IDX 88 13 8 14 7 15 1 16 2 17 3 18 93 19 4 20 92 21 5 22 91 23
REMARK SMILES IDX 6 24 16 25 17 26 18 27 19 29 20 30 21 31 85 32 22 33 84 34
REMARK SMILES IDX 23 35 24 36 25 37 78 38 26 39 83 40 77 41 79 42 27 43 82 44
REMARK SMILES IDX 76 45 75 46 28 48 62 49 41 50 61 51 42 52 45 53 60 54 80 55
REMARK SMILES IDX 43 56 44 57 59 59 81 60 46 61 29 62 30 63 39 64 31 65 32 66
REMARK SMILES IDX 38 67 40 68 33 69 34 70 35 71 36 72 37 73 63 74 64 75 73 76
REMARK SMILES IDX 65 77 66 78 72 79 74 80 67 81 68 82 69 83 70 84 71 85 47 86
REMARK SMILES IDX 48 87 57 88 49 89 50 90 56 91 58 92 51 93 52 94 53 95 54 96
REMARK SMILES IDX 55 97
REMARK H PARENT 13 6 17 28 79 47 45 58
REMARK Flexibility Score: inf
ROOT
ATOM      1  C   UNL A   1      38.957  22.431  26.260  1.00  0.00     0.042 C 
ENDROOT
BRANCH   1   2
ATOM      2  C   UNL A   1      37.831  23.438  26.053  1.00  0.00     0.117 C 
BRANCH   2   3
ATOM      3  N   UNL A   1      37.437  23.523  24.659  1.00  0.00    -0.356 N 
ATOM      4  C   UNL A   1      36.484  22.843  23.969  1.00  0.00     0.220 C 
ATOM      5  O   UNL A   1      36.350  23.099  22.768  1.00  0.00    -0.275 OA
ATOM      6  H   UNL A   1      37.943  24.179  24.126  1.00  0.00     0.163 HD
BRANCH   4   7
ATOM      7  C   UNL A   1      35.588  21.802  24.633  1.00  0.00     0.107 C 
BRANCH   7   8
ATOM      8  C   UNL A   1      34.203  22.276  25.202  1.00  0.00    -0.015 C 
ATOM      9  C   UNL A   1      33.617  21.136  26.094  1.00  0.00     0.008 C 
ATOM     10  C   UNL A   1      33.153  22.501  24.083  1.00  0.00     0.008 C 
ATOM     11  C   UNL A   1      33.247  19.870  25.308  1.00  0.00     0.001 C 
ATOM     12  C   UNL A   1      32.822  21.266  23.252  1.00  0.00     0.001 C 
ATOM     13  C   UNL A   1      32.298  20.155  24.147  1.00  0.00     0.000 C 
BRANCH   8  14
ATOM     14  C   UNL A   1      34.427  23.557  26.087  1.00  0.00     0.075 C 
BRANCH  14  15
ATOM     15  C   UNL A   1      33.721  24.794  25.612  1.00  0.00     0.094 A 
ATOM     16  C   UNL A   1      30.262  29.504  23.604  1.00  0.00     0.044 C 
ATOM     17  C   UNL A   1      31.341  28.498  23.889  1.00  0.00    -0.050 A 
ATOM     18  C   UNL A   1      32.544  28.538  23.181  1.00  0.00     0.006 A 
ATOM     19  C   UNL A   1      31.133  27.518  24.874  1.00  0.00     0.024 A 
ATOM     20  C   UNL A   1      33.557  27.610  23.441  1.00  0.00     0.030 A 
ATOM     21  C   UNL A   1      32.147  26.573  25.106  1.00  0.00     0.055 A 
ATOM     22  C   UNL A   1      33.357  26.613  24.414  1.00  0.00     0.082 A 
ATOM     23  S   UNL A   1      32.166  25.227  26.187  1.00  0.00    -0.119 S 
ATOM     24  N   UNL A   1      34.263  25.628  24.753  1.00  0.00    -0.241 NA
ENDBRANCH  14  15
ENDBRANCH   8  14
ENDBRANCH   7   8
ENDBRANCH   4   7
ENDBRANCH   2   3
ENDBRANCH   1   2
BRANCH   1  25
ATOM     25  C   UNL A   1      40.161  22.971  27.012  1.00  0.00     0.118 C 
BRANCH  25  26
ATOM     26  N   UNL A   1      41.149  23.569  26.128  1.00  0.00    -0.352 N 
ATOM     27  C   UNL A   1      41.723  24.818  26.138  1.00  0.00     0.251 C 
ATOM     28  H   UNL A   1      41.458  22.982  25.401  1.00  0.00     0.163 HD
ATOM     29  O   UNL A   1      42.396  25.163  25.170  1.00  0.00    -0.269 OA
BRANCH  27  30
ATOM     30  C   UNL A   1      41.535  25.756  27.275  1.00  0.00     0.039 A 
ATOM     31  C   UNL A   1      42.458  26.795  27.448  1.00  0.00     0.014 A 
ATOM     32  C   UNL A   1      40.504  25.599  28.203  1.00  0.00     0.014 A 
ATOM     33  C   UNL A   1      42.313  27.696  28.509  1.00  0.00     0.010 A 
ATOM     34  C   UNL A   1      40.299  26.557  29.195  1.00  0.00     0.010 A 
ATOM     35  C   UNL A   1      41.213  27.604  29.376  1.00  0.00    -0.014 A 
BRANCH  35  36
ATOM     36  C   UNL A   1      41.020  28.564  30.495  1.00  0.00     0.031 A 
ATOM     37  C   UNL A   1      41.872  28.462  31.735  1.00  0.00     0.074 A 
ATOM     38  C   UNL A   1      40.036  29.482  30.431  1.00  0.00     0.049 A 
ATOM     39  N   UNL A   1      41.811  29.157  32.842  1.00  0.00    -0.248 NA
ATOM     40  C   UNL A   1      42.907  27.416  31.744  1.00  0.00     0.031 C 
ATOM     41  C   UNL A   1      39.103  29.644  29.315  1.00  0.00     0.029 A 
ATOM     42  N   UNL A   1      39.649  30.444  31.330  1.00  0.00    -0.354 N 
ATOM     43  C   UNL A   1      42.774  28.614  33.686  1.00  0.00     0.074 A 
ATOM     44  C   UNL A   1      43.367  27.498  32.984  1.00  0.00     0.031 C 
ATOM     45  C   UNL A   1      38.265  30.657  29.585  1.00  0.00     0.029 A 
ATOM     46  C   UNL A   1      38.575  31.194  30.908  1.00  0.00     0.049 A 
ATOM     47  H   UNL A   1      40.095  30.585  32.196  1.00  0.00     0.167 HD
ATOM     48  C   UNL A   1      43.148  29.021  34.923  1.00  0.00     0.037 A 
ATOM     49  C   UNL A   1      37.912  32.196  31.516  1.00  0.00     0.037 A 
ATOM     50  C   UNL A   1      42.579  30.155  35.602  1.00  0.00     0.049 A 
ATOM     51  C   UNL A   1      38.364  32.659  32.874  1.00  0.00     0.074 A 
ATOM     52  C   UNL A   1      42.942  30.702  36.820  1.00  0.00     0.029 A 
ATOM     53  N   UNL A   1      41.522  30.915  35.122  1.00  0.00    -0.354 N 
ATOM     54  N   UNL A   1      39.331  32.185  33.624  1.00  0.00    -0.248 NA
ATOM     55  C   UNL A   1      37.647  33.797  33.463  1.00  0.00     0.031 C 
ATOM     56  C   UNL A   1      42.076  31.766  37.097  1.00  0.00     0.029 A 
ATOM     57  C   UNL A   1      41.204  31.912  36.029  1.00  0.00     0.049 A 
ATOM     58  H   UNL A   1      41.064  30.767  34.263  1.00  0.00     0.167 HD
ATOM     59  C   UNL A   1      39.349  32.977  34.767  1.00  0.00     0.074 A 
ATOM     60  C   UNL A   1      38.306  33.970  34.602  1.00  0.00     0.031 C 
ATOM     61  C   UNL A   1      40.158  32.891  35.852  1.00  0.00     0.037 A 
BRANCH  48  62
ATOM     62  C   UNL A   1      44.222  28.225  35.618  1.00  0.00     0.058 A 
ATOM     63  C   UNL A   1      43.914  27.173  36.498  1.00  0.00     0.135 A 
ATOM     64  C   UNL A   1      45.578  28.522  35.408  1.00  0.00     0.135 A 
ATOM     65  F   UNL A   1      42.634  26.852  36.746  1.00  0.00    -0.206 F 
ATOM     66  C   UNL A   1      44.908  26.482  37.184  1.00  0.00     0.059 A 
ATOM     67  C   UNL A   1      46.591  27.822  36.060  1.00  0.00     0.059 A 
ATOM     68  F   UNL A   1      45.932  29.511  34.573  1.00  0.00    -0.206 F 
ATOM     69  C   UNL A   1      46.243  26.821  36.966  1.00  0.00     0.060 A 
BRANCH  69  70
ATOM     70  S   UNL A   1      47.520  25.940  37.889  1.00  0.00     0.124 S 
ATOM     71  O   UNL A   1      46.775  25.501  39.065  1.00  0.00    -0.237 OA
ATOM     72  O   UNL A   1      47.912  24.887  36.959  1.00  0.00    -0.237 OA
ATOM     73  O   UNL A   1      48.531  26.965  38.133  1.00  0.00    -0.744 OA
ENDBRANCH  69  70
ENDBRANCH  48  62
BRANCH  49  74
ATOM     74  C   UNL A   1      36.771  32.844  30.817  1.00  0.00     0.058 A 
ATOM     75  C   UNL A   1      35.449  32.600  31.217  1.00  0.00     0.135 A 
ATOM     76  C   UNL A   1      36.982  33.768  29.782  1.00  0.00     0.135 A 
ATOM     77  F   UNL A   1      35.197  31.720  32.197  1.00  0.00    -0.206 F 
ATOM     78  C   UNL A   1      34.375  33.252  30.619  1.00  0.00     0.059 A 
ATOM     79  C   UNL A   1      35.927  34.449  29.184  1.00  0.00     0.059 A 
ATOM     80  F   UNL A   1      38.230  34.050  29.375  1.00  0.00    -0.206 F 
ATOM     81  C   UNL A   1      34.625  34.184  29.609  1.00  0.00     0.060 A 
BRANCH  81  82
ATOM     82  S   UNL A   1      33.232  35.093  28.906  1.00  0.00     0.124 S 
ATOM     83  O   UNL A   1      33.902  36.239  28.304  1.00  0.00    -0.237 OA
ATOM     84  O   UNL A   1      32.669  34.120  27.975  1.00  0.00    -0.237 OA
ATOM     85  O   UNL A   1      32.403  35.387  30.071  1.00  0.00    -0.744 OA
ENDBRANCH  81  82
ENDBRANCH  49  74
BRANCH  61  86
ATOM     86  C   UNL A   1      39.963  33.908  36.944  1.00  0.00     0.058 A 
ATOM     87  C   UNL A   1      40.510  35.196  36.855  1.00  0.00     0.135 A 
ATOM     88  C   UNL A   1      39.172  33.605  38.063  1.00  0.00     0.135 A 
ATOM     89  F   UNL A   1      41.279  35.534  35.808  1.00  0.00    -0.206 F 
ATOM     90  C   UNL A   1      40.296  36.146  37.849  1.00  0.00     0.059 A 
ATOM     91  C   UNL A   1      38.923  34.547  39.057  1.00  0.00     0.059 A 
ATOM     92  F   UNL A   1      38.617  32.390  38.191  1.00  0.00    -0.206 F 
ATOM     93  C   UNL A   1      39.499  35.812  38.947  1.00  0.00     0.060 A 
BRANCH  93  94
ATOM     94  S   UNL A   1      39.200  37.062  40.213  1.00  0.00     0.124 S 
ATOM     95  O   UNL A   1      38.350  36.334  41.150  1.00  0.00    -0.237 OA
ATOM     96  O   UNL A   1      40.549  37.363  40.683  1.00  0.00    -0.237 OA
ATOM     97  O   UNL A   1      38.545  38.140  39.479  1.00  0.00    -0.744 OA
ENDBRANCH  93  94
ENDBRANCH  61  86
ENDBRANCH  35  36
ENDBRANCH  27  30
ENDBRANCH  25  26
ENDBRANCH   1  25
TORSDOF 16
ENDMDL
MODEL 2
REMARK VINA RESULT:     -12.6      6.337     11.985
REMARK SMILES Cc1ccc2nc(CC3(CC(=O)NCCCNC(=O)c4ccc(-c5c6nc(c(-c7c(F)cc(S(=O)(=O)[O-])cc7F)c7ccc([nH]7)c(-c7c(F)cc(S(=O)(=O)[O-])cc7F)c7nc(c(-c8c(F)cc(S(=O)(=O)[O-])cc8F)c8ccc5[nH]8)C=C7)C=C6)cc4)CCCCC3)sc2c1
REMARK SMILES IDX 15 1 14 2 13 3 11 4 12 5 10 7 9 8 86 9 90 10 87 11 89 12
REMARK SMILES IDX 88 13 8 14 7 15 1 16 2 17 3 18 93 19 4 20 92 21 5 22 91 23
REMARK SMILES IDX 6 24 16 25 17 26 18 27 19 29 20 30 21 31 85 32 22 33 84 34
REMARK SMILES IDX 23 35 24 36 25 37 78 38 26 39 83 40 77 41 79 42 27 43 82 44
REMARK SMILES IDX 76 45 75 46 28 48 62 49 41 50 61 51 42 52 45 53 60 54 80 55
REMARK SMILES IDX 43 56 44 57 59 59 81 60 46 61 29 62 30 63 39 64 31 65 32 66
REMARK SMILES IDX 38 67 40 68 33 69 34 70 35 71 36 72 37 73 63 74 64 75 73 76
REMARK SMILES IDX 65 77 66 78 72 79 74 80 67 81 68 82 69 83 70 84 71 85 47 86
REMARK SMILES IDX 48 87 57 88 49 89 50 90 56 91 58 92 51 93 52 94 53 95 54 96
REMARK SMILES IDX 55 97
REMARK H PARENT 13 6 17 28 79 47 45 58
REMARK Flexibility Score: inf
ROOT
ATOM      1  C   UNL A   1      34.216  31.341  27.662  1.00  0.00     0.042 C 
ENDROOT
BRANCH   1   2
ATOM      2  C   UNL A   1      34.003  30.038  26.898  1.00  0.00     0.117 C 
BRANCH   2   3
ATOM      3  N   UNL A   1      33.106  29.143  27.605  1.00  0.00    -0.356 N 
ATOM      4  C   UNL A   1      31.960  28.538  27.195  1.00  0.00     0.220 C 
ATOM      5  O   UNL A   1      31.368  27.818  28.006  1.00  0.00    -0.275 OA
ATOM      6  H   UNL A   1      33.369  28.943  28.533  1.00  0.00     0.163 HD
BRANCH   4   7
ATOM      7  C   UNL A   1      31.409  28.714  25.784  1.00  0.00     0.107 C 
BRANCH   7   8
ATOM      8  C   UNL A   1      31.434  27.474  24.821  1.00  0.00    -0.015 C 
ATOM      9  C   UNL A   1      32.888  26.906  24.781  1.00  0.00     0.008 C 
ATOM     10  C   UNL A   1      31.104  27.861  23.355  1.00  0.00     0.008 C 
ATOM     11  C   UNL A   1      33.902  27.860  24.134  1.00  0.00     0.001 C 
ATOM     12  C   UNL A   1      32.068  28.857  22.720  1.00  0.00     0.001 C 
ATOM     13  C   UNL A   1      33.484  28.303  22.734  1.00  0.00     0.000 C 
BRANCH   8  14
ATOM     14  C   UNL A   1      30.467  26.370  25.386  1.00  0.00     0.075 C 
BRANCH  14  15
ATOM     15  C   UNL A   1      30.915  24.954  25.167  1.00  0.00     0.094 A 
ATOM     16  C   UNL A   1      33.258  19.255  24.695  1.00  0.00     0.044 C 
ATOM     17  C   UNL A   1      32.640  20.607  24.472  1.00  0.00    -0.050 A 
ATOM     18  C   UNL A   1      32.358  21.046  23.177  1.00  0.00     0.006 A 
ATOM     19  C   UNL A   1      32.346  21.426  25.575  1.00  0.00     0.024 A 
ATOM     20  C   UNL A   1      31.779  22.300  22.958  1.00  0.00     0.030 A 
ATOM     21  C   UNL A   1      31.792  22.696  25.341  1.00  0.00     0.055 A 
ATOM     22  C   UNL A   1      31.494  23.137  24.052  1.00  0.00     0.082 A 
ATOM     23  S   UNL A   1      31.386  23.941  26.466  1.00  0.00    -0.119 S 
ATOM     24  N   UNL A   1      30.944  24.401  23.975  1.00  0.00    -0.241 NA
ENDBRANCH  14  15
ENDBRANCH   8  14
ENDBRANCH   7   8
ENDBRANCH   4   7
ENDBRANCH   2   3
ENDBRANCH   1   2
BRANCH   1  25
ATOM     25  C   UNL A   1      35.565  31.460  28.349  1.00  0.00     0.118 C 
BRANCH  25  26
ATOM     26  N   UNL A   1      35.491  31.187  29.775  1.00  0.00    -0.352 N 
ATOM     27  C   UNL A   1      36.368  30.538  30.612  1.00  0.00     0.251 C 
ATOM     28  H   UNL A   1      34.676  31.522  30.215  1.00  0.00     0.163 HD
ATOM     29  O   UNL A   1      35.998  30.260  31.750  1.00  0.00    -0.269 OA
BRANCH  27  30
ATOM     30  C   UNL A   1      37.732  30.154  30.168  1.00  0.00     0.039 A 
ATOM     31  C   UNL A   1      38.690  29.836  31.138  1.00  0.00     0.014 A 
ATOM     32  C   UNL A   1      38.101  30.153  28.821  1.00  0.00     0.014 A 
ATOM     33  C   UNL A   1      39.986  29.471  30.756  1.00  0.00     0.010 A 
ATOM     34  C   UNL A   1      39.358  29.688  28.437  1.00  0.00     0.010 A 
ATOM     35  C   UNL A   1      40.324  29.363  29.399  1.00  0.00    -0.014 A 
BRANCH  35  36
ATOM     36  C   UNL A   1      41.686  28.952  28.964  1.00  0.00     0.031 A 
ATOM     37  C   UNL A   1      42.801  29.965  28.910  1.00  0.00     0.074 A 
ATOM     38  C   UNL A   1      41.907  27.688  28.552  1.00  0.00     0.049 A 
ATOM     39  N   UNL A   1      44.033  29.820  28.494  1.00  0.00    -0.248 NA
ATOM     40  C   UNL A   1      42.477  31.332  29.348  1.00  0.00     0.031 C 
ATOM     41  C   UNL A   1      40.898  26.629  28.497  1.00  0.00     0.029 A 
ATOM     42  N   UNL A   1      43.049  27.084  28.089  1.00  0.00    -0.354 N 
ATOM     43  C   UNL A   1      44.619  31.078  28.593  1.00  0.00     0.074 A 
ATOM     44  C   UNL A   1      43.592  31.984  29.055  1.00  0.00     0.031 C 
ATOM     45  C   UNL A   1      41.469  25.501  28.048  1.00  0.00     0.029 A 
ATOM     46  C   UNL A   1      42.874  25.763  27.747  1.00  0.00     0.049 A 
ATOM     47  H   UNL A   1      43.911  27.550  28.009  1.00  0.00     0.167 HD
ATOM     48  C   UNL A   1      45.900  31.441  28.343  1.00  0.00     0.037 A 
ATOM     49  C   UNL A   1      43.743  24.865  27.244  1.00  0.00     0.037 A 
ATOM     50  C   UNL A   1      46.927  30.526  27.919  1.00  0.00     0.049 A 
ATOM     51  C   UNL A   1      45.170  25.276  27.008  1.00  0.00     0.074 A 
ATOM     52  C   UNL A   1      48.273  30.773  27.720  1.00  0.00     0.029 A 
ATOM     53  N   UNL A   1      46.719  29.186  27.624  1.00  0.00    -0.354 N 
ATOM     54  N   UNL A   1      45.727  26.451  27.183  1.00  0.00    -0.248 NA
ATOM     55  C   UNL A   1      46.090  24.240  26.520  1.00  0.00     0.031 C 
ATOM     56  C   UNL A   1      48.871  29.593  27.261  1.00  0.00     0.029 A 
ATOM     57  C   UNL A   1      47.907  28.598  27.222  1.00  0.00     0.049 A 
ATOM     58  H   UNL A   1      45.854  28.721  27.690  1.00  0.00     0.167 HD
ATOM     59  C   UNL A   1      47.066  26.293  26.842  1.00  0.00     0.074 A 
ATOM     60  C   UNL A   1      47.237  24.904  26.465  1.00  0.00     0.031 C 
ATOM     61  C   UNL A   1      48.061  27.215  26.844  1.00  0.00     0.037 A 
BRANCH  48  62
ATOM     62  C   UNL A   1      46.254  32.894  28.523  1.00  0.00     0.058 A 
ATOM     63  C   UNL A   1      46.179  33.812  27.462  1.00  0.00     0.135 A 
ATOM     64  C   UNL A   1      46.684  33.375  29.771  1.00  0.00     0.135 A 
ATOM     65  F   UNL A   1      45.785  33.407  26.243  1.00  0.00    -0.206 F 
ATOM     66  C   UNL A   1      46.565  35.140  27.617  1.00  0.00     0.059 A 
ATOM     67  C   UNL A   1      47.046  34.707  29.957  1.00  0.00     0.059 A 
ATOM     68  F   UNL A   1      46.769  32.545  30.822  1.00  0.00    -0.206 F 
ATOM     69  C   UNL A   1      47.007  35.575  28.867  1.00  0.00     0.060 A 
BRANCH  69  70
ATOM     70  S   UNL A   1      47.539  37.291  29.045  1.00  0.00     0.124 S 
ATOM     71  O   UNL A   1      46.374  38.009  28.537  1.00  0.00    -0.237 OA
ATOM     72  O   UNL A   1      47.774  37.401  30.481  1.00  0.00    -0.237 OA
ATOM     73  O   UNL A   1      48.735  37.364  28.210  1.00  0.00    -0.744 OA
ENDBRANCH  69  70
ENDBRANCH  48  62
BRANCH  49  74
ATOM     74  C   UNL A   1      43.279  23.480  26.966  1.00  0.00     0.058 A 
ATOM     75  C   UNL A   1      43.121  23.024  25.649  1.00  0.00     0.135 A 
ATOM     76  C   UNL A   1      43.050  22.567  28.006  1.00  0.00     0.135 A 
ATOM     77  F   UNL A   1      43.323  23.862  24.621  1.00  0.00    -0.206 F 
ATOM     78  C   UNL A   1      42.757  21.710  25.372  1.00  0.00     0.059 A 
ATOM     79  C   UNL A   1      42.705  21.243  27.754  1.00  0.00     0.059 A 
ATOM     80  F   UNL A   1      43.205  22.949  29.284  1.00  0.00    -0.206 F 
ATOM     81  C   UNL A   1      42.561  20.823  26.432  1.00  0.00     0.060 A 
BRANCH  81  82
ATOM     82  S   UNL A   1      42.180  19.098  26.059  1.00  0.00     0.124 S 
ATOM     83  O   UNL A   1      40.738  19.153  25.848  1.00  0.00    -0.237 OA
ATOM     84  O   UNL A   1      42.991  18.855  24.871  1.00  0.00    -0.237 OA
ATOM     85  O   UNL A   1      42.615  18.392  27.261  1.00  0.00    -0.744 OA
ENDBRANCH  81  82
ENDBRANCH  49  74
BRANCH  61  86
ATOM     86  C   UNL A   1      49.435  26.750  26.442  1.00  0.00     0.058 A 
ATOM     87  C   UNL A   1      50.291  26.112  27.352  1.00  0.00     0.135 A 
ATOM     88  C   UNL A   1      49.875  26.896  25.117  1.00  0.00     0.135 A 
ATOM     89  F   UNL A   1      49.920  25.953  28.632  1.00  0.00    -0.206 F 
ATOM     90  C   UNL A   1      51.546  25.650  26.967  1.00  0.00     0.059 A 
ATOM     91  C   UNL A   1      51.115  26.419  24.703  1.00  0.00     0.059 A 
ATOM     92  F   UNL A   1      49.090  27.491  24.205  1.00  0.00    -0.206 F 
ATOM     93  C   UNL A   1      51.949  25.808  25.639  1.00  0.00     0.060 A 
BRANCH  93  94
ATOM     94  S   UNL A   1      53.564  25.174  25.142  1.00  0.00     0.124 S 
ATOM     95  O   UNL A   1      54.447  25.847  26.090  1.00  0.00    -0.237 OA
ATOM     96  O   UNL A   1      53.409  23.735  25.333  1.00  0.00    -0.237 OA
ATOM     97  O   UNL A   1      53.687  25.605  23.754  1.00  0.00    -0.744 OA
ENDBRANCH  93  94
ENDBRANCH  61  86
ENDBRANCH  35  36
ENDBRANCH  27  30
ENDBRANCH  25  26
ENDBRANCH   1  25
TORSDOF 16
ENDMDL
MODEL 3
REMARK VINA RESULT:     -12.6      0.981      1.812
REMARK SMILES Cc1ccc2nc(CC3(CC(=O)NCCCNC(=O)c4ccc(-c5c6nc(c(-c7c(F)cc(S(=O)(=O)[O-])cc7F)c7ccc([nH]7)c(-c7c(F)cc(S(=O)(=O)[O-])cc7F)c7nc(c(-c8c(F)cc(S(=O)(=O)[O-])cc8F)c8ccc5[nH]8)C=C7)C=C6)cc4)CCCCC3)sc2c1
REMARK SMILES IDX 15 1 14 2 13 3 11 4 12 5 10 7 9 8 86 9 90 10 87 11 89 12
REMARK SMILES IDX 88 13 8 14 7 15 1 16 2 17 3 18 93 19 4 20 92 21 5 22 91 23
REMARK SMILES IDX 6 24 16 25 17 26 18 27 19 29 20 30 21 31 85 32 22 33 84 34
REMARK SMILES IDX 23 35 24 36 25 37 78 38 26 39 83 40 77 41 79 42 27 43 82 44
REMARK SMILES IDX 76 45 75 46 28 48 62 49 41 50 61 51 42 52 45 53 60 54 80 55
REMARK SMILES IDX 43 56 44 57 59 59 81 60 46 61 29 62 30 63 39 64 31 65 32 66
REMARK SMILES IDX 38 67 40 68 33 69 34 70 35 71 36 72 37 73 63 74 64 75 73 76
REMARK SMILES IDX 65 77 66 78 72 79 74 80 67 81 68 82 69 83 70 84 71 85 47 86
REMARK SMILES IDX 48 87 57 88 49 89 50 90 56 91 58 92 51 93 52 94 53 95 54 96
REMARK SMILES IDX 55 97
REMARK H PARENT 13 6 17 28 79 47 45 58
REMARK Flexibility Score: inf
ROOT
ATOM      1  C   UNL A   1      38.514  23.421  26.508  1.00  0.00     0.042 C 
ENDROOT
BRANCH   1   2
ATOM      2  C   UNL A   1      37.982  22.298  25.624  1.00  0.00     0.117 C 
BRANCH   2   3
ATOM      3  N   UNL A   1      37.443  22.806  24.377  1.00  0.00    -0.356 N 
ATOM      4  C   UNL A   1      36.264  22.545  23.753  1.00  0.00     0.220 C 
ATOM      5  O   UNL A   1      36.045  23.111  22.677  1.00  0.00    -0.275 OA
ATOM      6  H   UNL A   1      38.028  23.444  23.905  1.00  0.00     0.163 HD
BRANCH   4   7
ATOM      7  C   UNL A   1      35.225  21.599  24.345  1.00  0.00     0.107 C 
BRANCH   7   8
ATOM      8  C   UNL A   1      33.797  22.172  24.657  1.00  0.00    -0.015 C 
ATOM      9  C   UNL A   1      33.958  23.593  25.284  1.00  0.00     0.008 C 
ATOM     10  C   UNL A   1      33.048  21.335  25.727  1.00  0.00     0.008 C 
ATOM     11  C   UNL A   1      34.629  23.583  26.665  1.00  0.00     0.001 C 
ATOM     12  C   UNL A   1      33.735  21.263  27.086  1.00  0.00     0.001 C 
ATOM     13  C   UNL A   1      33.923  22.661  27.655  1.00  0.00     0.000 C 
BRANCH   8  14
ATOM     14  C   UNL A   1      32.991  22.293  23.311  1.00  0.00     0.075 C 
BRANCH  14  15
ATOM     15  C   UNL A   1      32.255  23.588  23.121  1.00  0.00     0.094 A 
ATOM     16  C   UNL A   1      29.820  29.222  22.404  1.00  0.00     0.044 C 
ATOM     17  C   UNL A   1      30.128  27.795  22.760  1.00  0.00    -0.050 A 
ATOM     18  C   UNL A   1      29.303  27.098  23.647  1.00  0.00     0.006 A 
ATOM     19  C   UNL A   1      31.250  27.165  22.196  1.00  0.00     0.024 A 
ATOM     20  C   UNL A   1      29.577  25.768  23.982  1.00  0.00     0.030 A 
ATOM     21  C   UNL A   1      31.532  25.838  22.564  1.00  0.00     0.055 A 
ATOM     22  C   UNL A   1      30.706  25.129  23.437  1.00  0.00     0.082 A 
ATOM     23  S   UNL A   1      32.852  24.828  22.100  1.00  0.00    -0.119 S 
ATOM     24  N   UNL A   1      31.100  23.833  23.699  1.00  0.00    -0.241 NA
ENDBRANCH  14  15
ENDBRANCH   8  14
ENDBRANCH   7   8
ENDBRANCH   4   7
ENDBRANCH   2   3
ENDBRANCH   1   2
BRANCH   1  25
ATOM     25  C   UNL A   1      39.904  23.181  27.071  1.00  0.00     0.118 C 
BRANCH  25  26
ATOM     26  N   UNL A   1      40.952  23.694  26.205  1.00  0.00    -0.352 N 
ATOM     27  C   UNL A   1      41.591  24.911  26.193  1.00  0.00     0.251 C 
ATOM     28  H   UNL A   1      41.256  23.065  25.511  1.00  0.00     0.163 HD
ATOM     29  O   UNL A   1      42.315  25.186  25.238  1.00  0.00    -0.269 OA
BRANCH  27  30
ATOM     30  C   UNL A   1      41.411  25.899  27.287  1.00  0.00     0.039 A 
ATOM     31  C   UNL A   1      40.378  25.699  28.210  1.00  0.00     0.014 A 
ATOM     32  C   UNL A   1      42.203  27.044  27.391  1.00  0.00     0.014 A 
ATOM     33  C   UNL A   1      40.179  26.610  29.254  1.00  0.00     0.010 A 
ATOM     34  C   UNL A   1      42.073  27.893  28.489  1.00  0.00     0.010 A 
ATOM     35  C   UNL A   1      41.045  27.701  29.421  1.00  0.00    -0.014 A 
BRANCH  35  36
ATOM     36  C   UNL A   1      40.873  28.670  30.537  1.00  0.00     0.031 A 
ATOM     37  C   UNL A   1      41.728  28.561  31.773  1.00  0.00     0.074 A 
ATOM     38  C   UNL A   1      39.903  29.604  30.472  1.00  0.00     0.049 A 
ATOM     39  N   UNL A   1      41.683  29.262  32.877  1.00  0.00    -0.248 NA
ATOM     40  C   UNL A   1      42.747  27.498  31.783  1.00  0.00     0.031 C 
ATOM     41  C   UNL A   1      38.967  29.774  29.359  1.00  0.00     0.029 A 
ATOM     42  N   UNL A   1      39.535  30.576  31.368  1.00  0.00    -0.354 N 
ATOM     43  C   UNL A   1      42.642  28.708  33.719  1.00  0.00     0.074 A 
ATOM     44  C   UNL A   1      43.214  27.579  33.020  1.00  0.00     0.031 C 
ATOM     45  C   UNL A   1      38.148  30.802  29.628  1.00  0.00     0.029 A 
ATOM     46  C   UNL A   1      38.472  31.341  30.946  1.00  0.00     0.049 A 
ATOM     47  H   UNL A   1      39.988  30.714  32.231  1.00  0.00     0.167 HD
ATOM     48  C   UNL A   1      43.028  29.115  34.952  1.00  0.00     0.037 A 
ATOM     49  C   UNL A   1      37.828  32.357  31.553  1.00  0.00     0.037 A 
ATOM     50  C   UNL A   1      42.481  30.262  35.627  1.00  0.00     0.049 A 
ATOM     51  C   UNL A   1      38.294  32.819  32.906  1.00  0.00     0.074 A 
ATOM     52  C   UNL A   1      42.858  30.810  36.841  1.00  0.00     0.029 A 
ATOM     53  N   UNL A   1      41.434  31.036  35.149  1.00  0.00    -0.354 N 
ATOM     54  N   UNL A   1      39.256  32.334  33.654  1.00  0.00    -0.248 NA
ATOM     55  C   UNL A   1      37.598  33.972  33.492  1.00  0.00     0.031 C 
ATOM     56  C   UNL A   1      42.010  31.889  37.116  1.00  0.00     0.029 A 
ATOM     57  C   UNL A   1      41.136  32.044  36.051  1.00  0.00     0.049 A 
ATOM     58  H   UNL A   1      40.970  30.892  34.292  1.00  0.00     0.167 HD
ATOM     59  C   UNL A   1      39.293  33.131  34.793  1.00  0.00     0.074 A 
ATOM     60  C   UNL A   1      38.265  34.140  34.627  1.00  0.00     0.031 C 
ATOM     61  C   UNL A   1      40.105  33.038  35.874  1.00  0.00     0.037 A 
BRANCH  48  62
ATOM     62  C   UNL A   1      44.092  28.306  35.646  1.00  0.00     0.058 A 
ATOM     63  C   UNL A   1      45.461  28.529  35.418  1.00  0.00     0.135 A 
ATOM     64  C   UNL A   1      43.740  27.287  36.546  1.00  0.00     0.135 A 
ATOM     65  F   UNL A   1      45.857  29.483  34.560  1.00  0.00    -0.206 F 
ATOM     66  C   UNL A   1      46.438  27.738  36.014  1.00  0.00     0.059 A 
ATOM     67  C   UNL A   1      44.702  26.503  37.178  1.00  0.00     0.059 A 
ATOM     68  F   UNL A   1      42.449  27.032  36.808  1.00  0.00    -0.206 F 
ATOM     69  C   UNL A   1      46.048  26.721  36.886  1.00  0.00     0.060 A 
BRANCH  69  70
ATOM     70  S   UNL A   1      47.324  25.680  37.625  1.00  0.00     0.124 S 
ATOM     71  O   UNL A   1      46.672  24.374  37.619  1.00  0.00    -0.237 OA
ATOM     72  O   UNL A   1      48.437  25.836  36.694  1.00  0.00    -0.237 OA
ATOM     73  O   UNL A   1      47.527  26.275  38.943  1.00  0.00    -0.744 OA
ENDBRANCH  69  70
ENDBRANCH  48  62
BRANCH  49  74
ATOM     74  C   UNL A   1      36.694  33.019  30.855  1.00  0.00     0.058 A 
ATOM     75  C   UNL A   1      35.373  32.832  31.288  1.00  0.00     0.135 A 
ATOM     76  C   UNL A   1      36.914  33.902  29.787  1.00  0.00     0.135 A 
ATOM     77  F   UNL A   1      35.113  31.992  32.302  1.00  0.00    -0.206 F 
ATOM     78  C   UNL A   1      34.310  33.500  30.691  1.00  0.00     0.059 A 
ATOM     79  C   UNL A   1      35.869  34.598  29.187  1.00  0.00     0.059 A 
ATOM     80  F   UNL A   1      38.161  34.130  29.346  1.00  0.00    -0.206 F 
ATOM     81  C   UNL A   1      34.568  34.390  29.647  1.00  0.00     0.060 A 
BRANCH  81  82
ATOM     82  S   UNL A   1      33.191  35.322  28.942  1.00  0.00     0.124 S 
ATOM     83  O   UNL A   1      33.885  36.428  28.294  1.00  0.00    -0.237 OA
ATOM     84  O   UNL A   1      32.581  34.340  28.051  1.00  0.00    -0.237 OA
ATOM     85  O   UNL A   1      32.393  35.676  30.113  1.00  0.00    -0.744 OA
ENDBRANCH  81  82
ENDBRANCH  49  74
BRANCH  61  86
ATOM     86  C   UNL A   1      39.932  34.063  36.961  1.00  0.00     0.058 A 
ATOM     87  C   UNL A   1      40.545  35.323  36.889  1.00  0.00     0.135 A 
ATOM     88  C   UNL A   1      39.096  33.801  38.059  1.00  0.00     0.135 A 
ATOM     89  F   UNL A   1      41.358  35.622  35.864  1.00  0.00    -0.206 F 
ATOM     90  C   UNL A   1      40.351  36.282  37.879  1.00  0.00     0.059 A 
ATOM     91  C   UNL A   1      38.868  34.754  39.047  1.00  0.00     0.059 A 
ATOM     92  F   UNL A   1      38.478  32.615  38.170  1.00  0.00    -0.206 F 
ATOM     93  C   UNL A   1      39.509  35.988  38.954  1.00  0.00     0.060 A 
BRANCH  93  94
ATOM     94  S   UNL A   1      39.238  37.253  40.213  1.00  0.00     0.124 S 
ATOM     95  O   UNL A   1      40.607  37.634  40.545  1.00  0.00    -0.237 OA
ATOM     96  O   UNL A   1      38.459  38.254  39.490  1.00  0.00    -0.237 OA
ATOM     97  O   UNL A   1      38.512  36.541  41.259  1.00  0.00    -0.744 OA
ENDBRANCH  93  94
ENDBRANCH  61  86
ENDBRANCH  35  36
ENDBRANCH  27  30
ENDBRANCH  25  26
ENDBRANCH   1  25
TORSDOF 16
ENDMDL
