MODEL 1
REMARK VINA RESULT:     -10.3      0.000      0.000
REMARK SMILES COc1cccc([C@H]2[NH2+][C@@](CC(C)C)(C(=O)NCCCNC(=O)c3ccc(-c4c5nc(c(-c6c(F)cc(S(=O)(=O)[O-])cc6F)c6ccc([nH]6)c(-c6c(F)cc(S(=O)(=O)[O-])cc6F)c6nc(c(-c7c(F)cc(S(=O)(=O)[O-])cc7F)c7ccc4[nH]7)C=C6)C=C5)cc3)[C@H]3C(=O)N(C(C)C)C(=O)[C@H]23)c1O
REMARK SMILES IDX 19 1 18 2 17 3 15 4 16 5 10 7 8 8 9 9 99 10 90 13 97 14
REMARK SMILES IDX 91 15 93 16 98 17 92 18 7 19 3 20 4 21 100 22 5 23 6 24 2 25
REMARK SMILES IDX 1 26 101 27 11 29 12 30 13 31 14 32 94 33 95 34 96 35 20 36
REMARK SMILES IDX 21 37 22 38 23 40 24 41 25 42 89 43 26 44 88 45 27 46 28 47
REMARK SMILES IDX 29 48 82 49 30 50 87 51 81 52 83 53 31 54 86 55 80 56 79 57
REMARK SMILES IDX 32 59 66 60 45 61 65 62 46 63 49 64 64 65 84 66 47 67 48 68
REMARK SMILES IDX 63 70 85 71 50 72 33 73 34 74 43 75 35 76 36 77 42 78 44 79
REMARK SMILES IDX 37 80 38 81 39 82 40 83 41 84 67 85 68 86 77 87 69 88 70 89
REMARK SMILES IDX 76 90 78 91 71 92 72 93 73 94 74 95 75 96 51 97 52 98 61 99
REMARK SMILES IDX 53 100 54 101 60 102 62 103 55 104 56 105 57 106 58 107
REMARK SMILES IDX 59 108
REMARK H PARENT 17 6 9 11 9 12 101 28 21 39 83 58 49 69
REMARK Flexibility Score: inf
ROOT
ATOM      1  C   UNL A   1      48.401  24.870  33.980  1.00  0.00     0.042 C 
ENDROOT
BRANCH   1   2
ATOM      2  C   UNL A   1      49.020  23.514  34.223  1.00  0.00     0.118 C 
BRANCH   2   3
ATOM      3  N   UNL A   1      49.671  23.350  35.510  1.00  0.00    -0.351 N 
ATOM      4  C   UNL A   1      50.096  22.198  36.123  1.00  0.00     0.282 C 
ATOM      5  O   UNL A   1      50.827  22.326  37.110  1.00  0.00    -0.268 OA
ATOM      6  H   UNL A   1      49.829  24.181  36.014  1.00  0.00     0.163 HD
BRANCH   4   7
ATOM      7  C   UNL A   1      49.626  20.792  35.618  1.00  0.00     0.189 C 
ATOM      8  C   UNL A   1      47.204  20.717  36.235  1.00  0.00     0.232 C 
ATOM      9  N   UNL A   1      48.189  20.980  35.094  1.00  0.00    -0.326 N 
ATOM     10  C   UNL A   1      48.116  20.449  37.382  1.00  0.00     0.161 C 
ATOM     11  H   UNL A   1      48.071  21.934  34.755  1.00  0.00     0.347 HD
ATOM     12  H   UNL A   1      48.013  20.329  34.329  1.00  0.00     0.347 HD
ATOM     13  C   UNL A   1      49.316  19.819  36.748  1.00  0.00     0.169 C 
ATOM     14  C   UNL A   1      47.866  19.475  38.474  1.00  0.00     0.240 C 
ATOM     15  C   UNL A   1      50.100  19.510  37.996  1.00  0.00     0.240 C 
ATOM     16  N   UNL A   1      49.137  19.202  38.949  1.00  0.00    -0.279 N 
ATOM     17  O   UNL A   1      46.795  19.044  38.859  1.00  0.00    -0.274 OA
ATOM     18  O   UNL A   1      51.308  19.378  38.077  1.00  0.00    -0.274 OA
BRANCH   8  19
ATOM     19  C   UNL A   1      46.147  21.803  36.473  1.00  0.00     0.056 A 
ATOM     20  C   UNL A   1      44.310  23.311  35.749  1.00  0.00     0.161 A 
ATOM     21  C   UNL A   1      44.465  24.039  36.928  1.00  0.00     0.050 A 
ATOM     22  C   UNL A   1      45.150  22.203  35.537  1.00  0.00     0.166 A 
ATOM     23  C   UNL A   1      45.414  23.665  37.878  1.00  0.00     0.005 A 
ATOM     24  C   UNL A   1      46.244  22.561  37.652  1.00  0.00     0.014 A 
BRANCH  20  25
ATOM     25  O   UNL A   1      43.334  23.820  34.934  1.00  0.00    -0.493 OA
ATOM     26  C   UNL A   1      42.162  24.395  35.490  1.00  0.00     0.278 C 
ENDBRANCH  20  25
BRANCH  22  27
ATOM     27  O   UNL A   1      44.985  21.488  34.384  1.00  0.00    -0.504 OA
ATOM     28  H   UNL A   1      44.256  21.664  33.824  1.00  0.00     0.293 HD
ENDBRANCH  22  27
ENDBRANCH   8  19
BRANCH   7  29
ATOM     29  C   UNL A   1      50.650  20.027  34.698  1.00  0.00     0.083 C 
BRANCH  29  30
ATOM     30  C   UNL A   1      52.012  20.603  34.266  1.00  0.00    -0.011 C 
ATOM     31  C   UNL A   1      53.134  19.554  34.197  1.00  0.00     0.007 C 
ATOM     32  C   UNL A   1      51.934  21.262  32.881  1.00  0.00     0.007 C 
ENDBRANCH  29  30
ENDBRANCH   7  29
BRANCH  16  33
ATOM     33  C   UNL A   1      49.415  18.672  40.276  1.00  0.00     0.087 C 
ATOM     34  C   UNL A   1      50.597  17.700  40.215  1.00  0.00     0.031 C 
ATOM     35  C   UNL A   1      49.673  19.779  41.298  1.00  0.00     0.031 C 
ENDBRANCH  16  33
ENDBRANCH   4   7
ENDBRANCH   2   3
ENDBRANCH   1   2
BRANCH   1  36
ATOM     36  C   UNL A   1      47.366  25.233  35.034  1.00  0.00     0.118 C 
BRANCH  36  37
ATOM     37  N   UNL A   1      47.926  25.632  36.332  1.00  0.00    -0.352 N 
ATOM     38  C   UNL A   1      47.602  26.688  37.158  1.00  0.00     0.251 C 
ATOM     39  H   UNL A   1      48.648  25.053  36.665  1.00  0.00     0.163 HD
ATOM     40  O   UNL A   1      48.245  26.898  38.180  1.00  0.00    -0.269 OA
BRANCH  38  41
ATOM     41  C   UNL A   1      46.503  27.591  36.765  1.00  0.00     0.039 A 
ATOM     42  C   UNL A   1      46.741  28.618  35.850  1.00  0.00     0.014 A 
ATOM     43  C   UNL A   1      45.212  27.332  37.212  1.00  0.00     0.014 A 
ATOM     44  C   UNL A   1      45.657  29.289  35.277  1.00  0.00     0.010 A 
ATOM     45  C   UNL A   1      44.141  27.877  36.524  1.00  0.00     0.010 A 
ATOM     46  C   UNL A   1      44.346  28.870  35.554  1.00  0.00    -0.014 A 
BRANCH  46  47
ATOM     47  C   UNL A   1      43.152  29.454  34.889  1.00  0.00     0.031 A 
ATOM     48  C   UNL A   1      42.751  28.938  33.531  1.00  0.00     0.074 A 
ATOM     49  C   UNL A   1      42.511  30.508  35.431  1.00  0.00     0.049 A 
ATOM     50  N   UNL A   1      41.883  29.423  32.684  1.00  0.00    -0.248 NA
ATOM     51  C   UNL A   1      43.468  27.748  33.040  1.00  0.00     0.031 C 
ATOM     52  C   UNL A   1      42.828  31.133  36.718  1.00  0.00     0.029 A 
ATOM     53  N   UNL A   1      41.462  31.257  34.955  1.00  0.00    -0.354 N 
ATOM     54  C   UNL A   1      41.980  28.621  31.552  1.00  0.00     0.074 A 
ATOM     55  C   UNL A   1      43.049  27.678  31.787  1.00  0.00     0.031 C 
ATOM     56  C   UNL A   1      41.971  32.142  36.944  1.00  0.00     0.029 A 
ATOM     57  C   UNL A   1      41.079  32.276  35.796  1.00  0.00     0.049 A 
ATOM     58  H   UNL A   1      41.024  31.078  34.092  1.00  0.00     0.167 HD
ATOM     59  C   UNL A   1      41.222  28.640  30.431  1.00  0.00     0.037 A 
ATOM     60  C   UNL A   1      40.127  33.219  35.652  1.00  0.00     0.037 A 
ATOM     61  C   UNL A   1      40.132  29.553  30.224  1.00  0.00     0.049 A 
ATOM     62  C   UNL A   1      39.297  33.231  34.394  1.00  0.00     0.074 A 
ATOM     63  C   UNL A   1      39.264  29.629  29.152  1.00  0.00     0.029 A 
ATOM     64  N   UNL A   1      39.756  30.548  31.118  1.00  0.00    -0.354 N 
ATOM     65  N   UNL A   1      39.372  32.440  33.349  1.00  0.00    -0.248 NA
ATOM     66  C   UNL A   1      38.254  34.261  34.293  1.00  0.00     0.031 C 
ATOM     67  C   UNL A   1      38.393  30.699  29.373  1.00  0.00     0.029 A 
ATOM     68  C   UNL A   1      38.676  31.250  30.614  1.00  0.00     0.049 A 
ATOM     69  H   UNL A   1      40.193  30.725  31.982  1.00  0.00     0.167 HD
ATOM     70  C   UNL A   1      38.356  32.845  32.490  1.00  0.00     0.074 A 
ATOM     71  C   UNL A   1      37.685  33.957  33.133  1.00  0.00     0.031 C 
ATOM     72  C   UNL A   1      38.004  32.335  31.285  1.00  0.00     0.037 A 
BRANCH  59  73
ATOM     73  C   UNL A   1      41.551  27.638  29.356  1.00  0.00     0.058 A 
ATOM     74  C   UNL A   1      40.715  26.540  29.088  1.00  0.00     0.135 A 
ATOM     75  C   UNL A   1      42.720  27.769  28.591  1.00  0.00     0.135 A 
ATOM     76  F   UNL A   1      39.591  26.354  29.799  1.00  0.00    -0.206 F 
ATOM     77  C   UNL A   1      41.054  25.580  28.141  1.00  0.00     0.059 A 
ATOM     78  C   UNL A   1      43.060  26.842  27.610  1.00  0.00     0.059 A 
ATOM     79  F   UNL A   1      43.556  28.798  28.802  1.00  0.00    -0.206 F 
ATOM     80  C   UNL A   1      42.233  25.738  27.409  1.00  0.00     0.060 A 
BRANCH  80  81
ATOM     81  S   UNL A   1      42.670  24.472  26.201  1.00  0.00     0.124 S 
ATOM     82  O   UNL A   1      41.650  23.459  26.462  1.00  0.00    -0.237 OA
ATOM     83  O   UNL A   1      42.539  25.190  24.936  1.00  0.00    -0.237 OA
ATOM     84  O   UNL A   1      44.031  24.102  26.573  1.00  0.00    -0.744 OA
ENDBRANCH  80  81
ENDBRANCH  59  73
BRANCH  60  85
ATOM     85  C   UNL A   1      39.875  34.199  36.745  1.00  0.00     0.058 A 
ATOM     86  C   UNL A   1      39.115  33.839  37.868  1.00  0.00     0.135 A 
ATOM     87  C   UNL A   1      40.402  35.499  36.706  1.00  0.00     0.135 A 
ATOM     88  F   UNL A   1      38.582  32.611  37.950  1.00  0.00    -0.206 F 
ATOM     89  C   UNL A   1      38.877  34.732  38.907  1.00  0.00     0.059 A 
ATOM     90  C   UNL A   1      40.200  36.404  37.745  1.00  0.00     0.059 A 
ATOM     91  F   UNL A   1      41.149  35.891  35.661  1.00  0.00    -0.206 F 
ATOM     92  C   UNL A   1      39.429  36.012  38.839  1.00  0.00     0.060 A 
BRANCH  92  93
ATOM     93  S   UNL A   1      39.163  37.141  40.224  1.00  0.00     0.124 S 
ATOM     94  O   UNL A   1      38.372  36.317  41.130  1.00  0.00    -0.237 OA
ATOM     95  O   UNL A   1      40.529  37.429  40.649  1.00  0.00    -0.237 OA
ATOM     96  O   UNL A   1      38.457  38.263  39.611  1.00  0.00    -0.744 OA
ENDBRANCH  92  93
ENDBRANCH  60  85
BRANCH  72  97
ATOM     97  C   UNL A   1      36.797  32.916  30.600  1.00  0.00     0.058 A 
ATOM     98  C   UNL A   1      35.490  32.592  30.991  1.00  0.00     0.135 A 
ATOM     99  C   UNL A   1      36.963  33.892  29.602  1.00  0.00     0.135 A 
ATOM    100  F   UNL A   1      35.276  31.662  31.934  1.00  0.00    -0.206 F 
ATOM    101  C   UNL A   1      34.387  33.211  30.411  1.00  0.00     0.059 A 
ATOM    102  C   UNL A   1      35.877  34.545  29.031  1.00  0.00     0.059 A 
ATOM    103  F   UNL A   1      38.194  34.244  29.199  1.00  0.00    -0.206 F 
ATOM    104  C   UNL A   1      34.591  34.194  29.440  1.00  0.00     0.060 A 
BRANCH 104 105
ATOM    105  S   UNL A   1      33.154  35.040  28.750  1.00  0.00     0.124 S 
ATOM    106  O   UNL A   1      32.415  35.396  29.957  1.00  0.00    -0.237 OA
ATOM    107  O   UNL A   1      33.766  36.152  28.029  1.00  0.00    -0.237 OA
ATOM    108  O   UNL A   1      32.530  34.024  27.909  1.00  0.00    -0.744 OA
ENDBRANCH 104 105
ENDBRANCH  72  97
ENDBRANCH  46  47
ENDBRANCH  38  41
ENDBRANCH  36  37
ENDBRANCH   1  36
TORSDOF 19
ENDMDL
MODEL 2
REMARK VINA RESULT:     -10.2      4.593     10.798
REMARK SMILES COc1cccc([C@H]2[NH2+][C@@](CC(C)C)(C(=O)NCCCNC(=O)c3ccc(-c4c5nc(c(-c6c(F)cc(S(=O)(=O)[O-])cc6F)c6ccc([nH]6)c(-c6c(F)cc(S(=O)(=O)[O-])cc6F)c6nc(c(-c7c(F)cc(S(=O)(=O)[O-])cc7F)c7ccc4[nH]7)C=C6)C=C5)cc3)[C@H]3C(=O)N(C(C)C)C(=O)[C@H]23)c1O
REMARK SMILES IDX 19 1 18 2 17 3 15 4 16 5 10 7 8 8 9 9 99 10 90 13 97 14
REMARK SMILES IDX 91 15 93 16 98 17 92 18 7 19 3 20 4 21 100 22 5 23 6 24 2 25
REMARK SMILES IDX 1 26 101 27 11 29 12 30 13 31 14 32 94 33 95 34 96 35 20 36
REMARK SMILES IDX 21 37 22 38 23 40 24 41 25 42 89 43 26 44 88 45 27 46 28 47
REMARK SMILES IDX 29 48 82 49 30 50 87 51 81 52 83 53 31 54 86 55 80 56 79 57
REMARK SMILES IDX 32 59 66 60 45 61 65 62 46 63 49 64 64 65 84 66 47 67 48 68
REMARK SMILES IDX 63 70 85 71 50 72 33 73 34 74 43 75 35 76 36 77 42 78 44 79
REMARK SMILES IDX 37 80 38 81 39 82 40 83 41 84 67 85 68 86 77 87 69 88 70 89
REMARK SMILES IDX 76 90 78 91 71 92 72 93 73 94 74 95 75 96 51 97 52 98 61 99
REMARK SMILES IDX 53 100 54 101 60 102 62 103 55 104 56 105 57 106 58 107
REMARK SMILES IDX 59 108
REMARK H PARENT 17 6 9 11 9 12 101 28 21 39 83 58 49 69
REMARK Flexibility Score: inf
ROOT
ATOM      1  C   UNL A   1      43.695  23.808  28.462  1.00  0.00     0.042 C 
ENDROOT
BRANCH   1   2
ATOM      2  C   UNL A   1      44.168  25.225  28.687  1.00  0.00     0.118 C 
BRANCH   2   3
ATOM      3  N   UNL A   1      45.606  25.392  28.786  1.00  0.00    -0.351 N 
ATOM      4  C   UNL A   1      46.401  26.376  28.255  1.00  0.00     0.282 C 
ATOM      5  O   UNL A   1      47.565  26.438  28.662  1.00  0.00    -0.268 OA
ATOM      6  H   UNL A   1      46.078  24.702  29.307  1.00  0.00     0.163 HD
BRANCH   4   7
ATOM      7  C   UNL A   1      45.862  27.340  27.144  1.00  0.00     0.189 C 
ATOM      8  C   UNL A   1      45.532  25.844  25.168  1.00  0.00     0.232 C 
ATOM      9  N   UNL A   1      44.826  26.532  26.338  1.00  0.00    -0.326 N 
ATOM     10  C   UNL A   1      46.954  26.234  25.385  1.00  0.00     0.161 C 
ATOM     11  H   UNL A   1      44.399  25.828  26.939  1.00  0.00     0.347 HD
ATOM     12  H   UNL A   1      44.101  27.156  25.984  1.00  0.00     0.347 HD
ATOM     13  C   UNL A   1      46.862  27.585  26.022  1.00  0.00     0.169 C 
ATOM     14  C   UNL A   1      47.942  26.525  24.316  1.00  0.00     0.240 C 
ATOM     15  C   UNL A   1      48.332  27.905  26.094  1.00  0.00     0.240 C 
ATOM     16  N   UNL A   1      48.876  27.318  24.959  1.00  0.00    -0.279 N 
ATOM     17  O   UNL A   1      47.929  26.137  23.162  1.00  0.00    -0.274 OA
ATOM     18  O   UNL A   1      48.868  28.668  26.878  1.00  0.00    -0.274 OA
BRANCH   8  19
ATOM     19  C   UNL A   1      45.278  24.338  25.022  1.00  0.00     0.056 A 
ATOM     20  C   UNL A   1      43.834  22.317  25.052  1.00  0.00     0.161 A 
ATOM     21  C   UNL A   1      44.977  21.520  25.061  1.00  0.00     0.050 A 
ATOM     22  C   UNL A   1      43.997  23.714  25.030  1.00  0.00     0.166 A 
ATOM     23  C   UNL A   1      46.247  22.094  25.031  1.00  0.00     0.005 A 
ATOM     24  C   UNL A   1      46.395  23.485  25.011  1.00  0.00     0.014 A 
BRANCH  20  25
ATOM     25  O   UNL A   1      42.676  21.586  25.086  1.00  0.00    -0.493 OA
ATOM     26  C   UNL A   1      42.618  20.362  25.802  1.00  0.00     0.278 C 
ENDBRANCH  20  25
BRANCH  22  27
ATOM     27  O   UNL A   1      42.872  24.488  25.011  1.00  0.00    -0.504 OA
ATOM     28  H   UNL A   1      42.078  24.172  25.396  1.00  0.00     0.293 HD
ENDBRANCH  22  27
ENDBRANCH   8  19
BRANCH   7  29
ATOM     29  C   UNL A   1      45.450  28.778  27.637  1.00  0.00     0.083 C 
BRANCH  29  30
ATOM     30  C   UNL A   1      45.412  29.199  29.119  1.00  0.00    -0.011 C 
ATOM     31  C   UNL A   1      46.673  29.949  29.581  1.00  0.00     0.007 C 
ATOM     32  C   UNL A   1      44.216  30.115  29.416  1.00  0.00     0.007 C 
ENDBRANCH  29  30
ENDBRANCH   7  29
BRANCH  16  33
ATOM     33  C   UNL A   1      50.246  27.499  24.500  1.00  0.00     0.087 C 
ATOM     34  C   UNL A   1      51.090  26.278  24.878  1.00  0.00     0.031 C 
ATOM     35  C   UNL A   1      50.321  27.768  22.998  1.00  0.00     0.031 C 
ENDBRANCH  16  33
ENDBRANCH   4   7
ENDBRANCH   2   3
ENDBRANCH   1   2
BRANCH   1  36
ATOM     36  C   UNL A   1      42.185  23.672  28.593  1.00  0.00     0.118 C 
BRANCH  36  37
ATOM     37  N   UNL A   1      41.445  23.826  27.335  1.00  0.00    -0.352 N 
ATOM     38  C   UNL A   1      40.515  24.773  26.955  1.00  0.00     0.251 C 
ATOM     39  H   UNL A   1      41.642  23.145  26.653  1.00  0.00     0.163 HD
ATOM     40  O   UNL A   1      39.945  24.686  25.874  1.00  0.00    -0.269 OA
BRANCH  38  41
ATOM     41  C   UNL A   1      40.181  25.861  27.894  1.00  0.00     0.039 A 
ATOM     42  C   UNL A   1      39.132  25.699  28.800  1.00  0.00     0.014 A 
ATOM     43  C   UNL A   1      40.995  26.987  27.952  1.00  0.00     0.014 A 
ATOM     44  C   UNL A   1      38.995  26.604  29.857  1.00  0.00     0.010 A 
ATOM     45  C   UNL A   1      40.962  27.781  29.087  1.00  0.00     0.010 A 
ATOM     46  C   UNL A   1      39.956  27.609  30.050  1.00  0.00    -0.014 A 
BRANCH  46  47
ATOM     47  C   UNL A   1      39.943  28.527  31.218  1.00  0.00     0.031 A 
ATOM     48  C   UNL A   1      38.996  29.700  31.212  1.00  0.00     0.074 A 
ATOM     49  C   UNL A   1      40.843  28.388  32.212  1.00  0.00     0.049 A 
ATOM     50  N   UNL A   1      38.948  30.731  32.012  1.00  0.00    -0.248 NA
ATOM     51  C   UNL A   1      38.009  29.744  30.118  1.00  0.00     0.031 C 
ATOM     52  C   UNL A   1      41.845  27.323  32.316  1.00  0.00     0.029 A 
ATOM     53  N   UNL A   1      41.074  29.162  33.323  1.00  0.00    -0.354 N 
ATOM     54  C   UNL A   1      37.956  31.557  31.497  1.00  0.00     0.074 A 
ATOM     55  C   UNL A   1      37.491  30.951  30.270  1.00  0.00     0.031 C 
ATOM     56  C   UNL A   1      42.554  27.490  33.444  1.00  0.00     0.029 A 
ATOM     57  C   UNL A   1      42.101  28.704  34.116  1.00  0.00     0.049 A 
ATOM     58  H   UNL A   1      40.552  29.969  33.533  1.00  0.00     0.167 HD
ATOM     59  C   UNL A   1      37.446  32.698  32.017  1.00  0.00     0.037 A 
ATOM     60  C   UNL A   1      42.626  29.212  35.249  1.00  0.00     0.037 A 
ATOM     61  C   UNL A   1      37.884  33.269  33.260  1.00  0.00     0.049 A 
ATOM     62  C   UNL A   1      42.052  30.488  35.810  1.00  0.00     0.074 A 
ATOM     63  C   UNL A   1      37.405  34.392  33.908  1.00  0.00     0.029 A 
ATOM     64  N   UNL A   1      38.904  32.753  34.049  1.00  0.00    -0.354 N 
ATOM     65  N   UNL A   1      41.085  31.236  35.333  1.00  0.00    -0.248 NA
ATOM     66  C   UNL A   1      42.638  30.989  37.061  1.00  0.00     0.031 C 
ATOM     67  C   UNL A   1      38.165  34.584  35.064  1.00  0.00     0.029 A 
ATOM     68  C   UNL A   1      39.076  33.543  35.172  1.00  0.00     0.049 A 
ATOM     69  H   UNL A   1      39.425  31.945  33.841  1.00  0.00     0.167 HD
ATOM     70  C   UNL A   1      40.914  32.268  36.250  1.00  0.00     0.074 A 
ATOM     71  C   UNL A   1      41.883  32.053  37.305  1.00  0.00     0.031 C 
ATOM     72  C   UNL A   1      40.028  33.294  36.226  1.00  0.00     0.037 A 
BRANCH  59  73
ATOM     73  C   UNL A   1      36.359  33.388  31.237  1.00  0.00     0.058 A 
ATOM     74  C   UNL A   1      36.632  34.094  30.052  1.00  0.00     0.135 A 
ATOM     75  C   UNL A   1      35.028  33.354  31.683  1.00  0.00     0.135 A 
ATOM     76  F   UNL A   1      37.889  34.176  29.587  1.00  0.00    -0.206 F 
ATOM     77  C   UNL A   1      35.637  34.786  29.371  1.00  0.00     0.059 A 
ATOM     78  C   UNL A   1      34.009  34.006  30.994  1.00  0.00     0.059 A 
ATOM     79  F   UNL A   1      34.708  32.694  32.806  1.00  0.00    -0.206 F 
ATOM     80  C   UNL A   1      34.328  34.739  29.853  1.00  0.00     0.060 A 
BRANCH  80  81
ATOM     81  S   UNL A   1      33.053  35.661  28.969  1.00  0.00     0.124 S 
ATOM     82  O   UNL A   1      33.839  36.730  28.359  1.00  0.00    -0.237 OA
ATOM     83  O   UNL A   1      32.526  34.658  28.048  1.00  0.00    -0.237 OA
ATOM     84  O   UNL A   1      32.140  36.078  30.028  1.00  0.00    -0.744 OA
ENDBRANCH  80  81
ENDBRANCH  59  73
BRANCH  60  85
ATOM     85  C   UNL A   1      43.722  28.491  35.953  1.00  0.00     0.058 A 
ATOM     86  C   UNL A   1      45.060  28.871  35.772  1.00  0.00     0.135 A 
ATOM     87  C   UNL A   1      43.461  27.430  36.835  1.00  0.00     0.135 A 
ATOM     88  F   UNL A   1      45.364  29.874  34.934  1.00  0.00    -0.206 F 
ATOM     89  C   UNL A   1      46.100  28.221  36.428  1.00  0.00     0.059 A 
ATOM     90  C   UNL A   1      44.482  26.782  37.524  1.00  0.00     0.059 A 
ATOM     91  F   UNL A   1      42.196  27.036  37.057  1.00  0.00    -0.206 F 
ATOM     92  C   UNL A   1      45.800  27.181  37.308  1.00  0.00     0.060 A 
BRANCH  92  93
ATOM     93  S   UNL A   1      47.156  26.387  38.200  1.00  0.00     0.124 S 
ATOM     94  O   UNL A   1      48.201  27.400  38.112  1.00  0.00    -0.237 OA
ATOM     95  O   UNL A   1      46.573  26.183  39.522  1.00  0.00    -0.237 OA
ATOM     96  O   UNL A   1      47.393  25.166  37.434  1.00  0.00    -0.744 OA
ENDBRANCH  92  93
ENDBRANCH  60  85
BRANCH  72  97
ATOM     97  C   UNL A   1      40.002  34.230  37.402  1.00  0.00     0.058 A 
ATOM     98  C   UNL A   1      39.218  33.981  38.537  1.00  0.00     0.135 A 
ATOM     99  C   UNL A   1      40.860  35.344  37.427  1.00  0.00     0.135 A 
ATOM    100  F   UNL A   1      38.377  32.935  38.563  1.00  0.00    -0.206 F 
ATOM    101  C   UNL A   1      39.280  34.807  39.656  1.00  0.00     0.059 A 
ATOM    102  C   UNL A   1      40.960  36.165  38.544  1.00  0.00     0.059 A 
ATOM    103  F   UNL A   1      41.638  35.621  36.368  1.00  0.00    -0.206 F 
ATOM    104  C   UNL A   1      40.161  35.890  39.653  1.00  0.00     0.060 A 
BRANCH 104 105
ATOM    105  S   UNL A   1      40.284  36.909  41.138  1.00  0.00     0.124 S 
ATOM    106  O   UNL A   1      40.866  38.136  40.605  1.00  0.00    -0.237 OA
ATOM    107  O   UNL A   1      38.892  37.001  41.567  1.00  0.00    -0.237 OA
ATOM    108  O   UNL A   1      41.154  36.131  42.015  1.00  0.00    -0.744 OA
ENDBRANCH 104 105
ENDBRANCH  72  97
ENDBRANCH  46  47
ENDBRANCH  38  41
ENDBRANCH  36  37
ENDBRANCH   1  36
TORSDOF 19
ENDMDL
MODEL 3
REMARK VINA RESULT:     -10.1      4.214      9.436
REMARK SMILES COc1cccc([C@H]2[NH2+][C@@](CC(C)C)(C(=O)NCCCNC(=O)c3ccc(-c4c5nc(c(-c6c(F)cc(S(=O)(=O)[O-])cc6F)c6ccc([nH]6)c(-c6c(F)cc(S(=O)(=O)[O-])cc6F)c6nc(c(-c7c(F)cc(S(=O)(=O)[O-])cc7F)c7ccc4[nH]7)C=C6)C=C5)cc3)[C@H]3C(=O)N(C(C)C)C(=O)[C@H]23)c1O
REMARK SMILES IDX 19 1 18 2 17 3 15 4 16 5 10 7 8 8 9 9 99 10 90 13 97 14
REMARK SMILES IDX 91 15 93 16 98 17 92 18 7 19 3 20 4 21 100 22 5 23 6 24 2 25
REMARK SMILES IDX 1 26 101 27 11 29 12 30 13 31 14 32 94 33 95 34 96 35 20 36
REMARK SMILES IDX 21 37 22 38 23 40 24 41 25 42 89 43 26 44 88 45 27 46 28 47
REMARK SMILES IDX 29 48 82 49 30 50 87 51 81 52 83 53 31 54 86 55 80 56 79 57
REMARK SMILES IDX 32 59 66 60 45 61 65 62 46 63 49 64 64 65 84 66 47 67 48 68
REMARK SMILES IDX 63 70 85 71 50 72 33 73 34 74 43 75 35 76 36 77 42 78 44 79
REMARK SMILES IDX 37 80 38 81 39 82 40 83 41 84 67 85 68 86 77 87 69 88 70 89
REMARK SMILES IDX 76 90 78 91 71 92 72 93 73 94 74 95 75 96 51 97 52 98 61 99
REMARK SMILES IDX 53 100 54 101 60 102 62 103 55 104 56 105 57 106 58 107
REMARK SMILES IDX 59 108
REMARK H PARENT 17 6 9 11 9 12 101 28 21 39 83 58 49 69
REMARK Flexibility Score: inf
ROOT
ATOM      1  C   UNL A   1      45.676  24.406  25.698  1.00  0.00     0.042 C 
ENDROOT
BRANCH   1   2
ATOM      2  C   UNL A   1      46.707  25.328  26.303  1.00  0.00     0.118 C 
BRANCH   2   3
ATOM      3  N   UNL A   1      46.212  26.627  26.719  1.00  0.00    -0.351 N 
ATOM      4  C   UNL A   1      46.873  27.635  27.374  1.00  0.00     0.282 C 
ATOM      5  O   UNL A   1      46.314  28.735  27.419  1.00  0.00    -0.268 OA
ATOM      6  H   UNL A   1      45.270  26.811  26.501  1.00  0.00     0.163 HD
BRANCH   4   7
ATOM      7  C   UNL A   1      48.249  27.378  28.077  1.00  0.00     0.189 C 
ATOM      8  C   UNL A   1      47.612  26.515  30.335  1.00  0.00     0.232 C 
ATOM      9  N   UNL A   1      48.066  26.109  28.932  1.00  0.00    -0.326 N 
ATOM     10  C   UNL A   1      47.493  27.995  30.211  1.00  0.00     0.161 C 
ATOM     11  H   UNL A   1      47.361  25.508  28.506  1.00  0.00     0.347 HD
ATOM     12  H   UNL A   1      48.948  25.601  28.989  1.00  0.00     0.347 HD
ATOM     13  C   UNL A   1      48.541  28.356  29.206  1.00  0.00     0.169 C 
ATOM     14  C   UNL A   1      47.814  28.979  31.276  1.00  0.00     0.240 C 
ATOM     15  C   UNL A   1      48.391  29.854  29.246  1.00  0.00     0.240 C 
ATOM     16  N   UNL A   1      48.064  30.140  30.567  1.00  0.00    -0.279 N 
ATOM     17  O   UNL A   1      47.830  28.797  32.479  1.00  0.00    -0.274 OA
ATOM     18  O   UNL A   1      48.683  30.635  28.358  1.00  0.00    -0.274 OA
BRANCH   8  19
ATOM     19  C   UNL A   1      46.367  25.797  30.872  1.00  0.00     0.056 A 
ATOM     20  C   UNL A   1      45.057  24.648  32.643  1.00  0.00     0.161 A 
ATOM     21  C   UNL A   1      44.169  24.195  31.668  1.00  0.00     0.050 A 
ATOM     22  C   UNL A   1      46.141  25.444  32.234  1.00  0.00     0.166 A 
ATOM     23  C   UNL A   1      44.344  24.538  30.329  1.00  0.00     0.005 A 
ATOM     24  C   UNL A   1      45.429  25.329  29.937  1.00  0.00     0.014 A 
BRANCH  20  25
ATOM     25  O   UNL A   1      44.732  24.214  33.901  1.00  0.00    -0.493 OA
ATOM     26  C   UNL A   1      43.491  24.573  34.487  1.00  0.00     0.278 C 
ENDBRANCH  20  25
BRANCH  22  27
ATOM     27  O   UNL A   1      47.002  25.893  33.196  1.00  0.00    -0.504 OA
ATOM     28  H   UNL A   1      47.382  25.291  33.804  1.00  0.00     0.293 HD
ENDBRANCH  22  27
ENDBRANCH   8  19
BRANCH   7  29
ATOM     29  C   UNL A   1      49.512  27.457  27.140  1.00  0.00     0.083 C 
BRANCH  29  30
ATOM     30  C   UNL A   1      50.001  26.291  26.257  1.00  0.00    -0.011 C 
ATOM     31  C   UNL A   1      49.938  26.587  24.750  1.00  0.00     0.007 C 
ATOM     32  C   UNL A   1      51.454  25.911  26.576  1.00  0.00     0.007 C 
ENDBRANCH  29  30
ENDBRANCH   7  29
BRANCH  16  33
ATOM     33  C   UNL A   1      47.983  31.477  31.136  1.00  0.00     0.087 C 
ATOM     34  C   UNL A   1      46.598  31.703  31.748  1.00  0.00     0.031 C 
ATOM     35  C   UNL A   1      49.081  31.732  32.167  1.00  0.00     0.031 C 
ENDBRANCH  16  33
ENDBRANCH   4   7
ENDBRANCH   2   3
ENDBRANCH   1   2
BRANCH   1  36
ATOM     36  C   UNL A   1      44.366  24.411  26.472  1.00  0.00     0.118 C 
BRANCH  36  37
ATOM     37  N   UNL A   1      43.190  24.802  25.685  1.00  0.00    -0.352 N 
ATOM     38  C   UNL A   1      42.198  25.721  25.958  1.00  0.00     0.251 C 
ATOM     39  H   UNL A   1      43.094  24.333  24.825  1.00  0.00     0.163 HD
ATOM     40  O   UNL A   1      41.246  25.853  25.198  1.00  0.00    -0.269 OA
BRANCH  38  41
ATOM     41  C   UNL A   1      42.276  26.506  27.205  1.00  0.00     0.039 A 
ATOM     42  C   UNL A   1      42.936  27.736  27.212  1.00  0.00     0.014 A 
ATOM     43  C   UNL A   1      41.582  26.073  28.330  1.00  0.00     0.014 A 
ATOM     44  C   UNL A   1      42.774  28.593  28.305  1.00  0.00     0.010 A 
ATOM     45  C   UNL A   1      41.287  26.984  29.330  1.00  0.00     0.010 A 
ATOM     46  C   UNL A   1      41.886  28.253  29.338  1.00  0.00    -0.014 A 
BRANCH  46  47
ATOM     47  C   UNL A   1      41.571  29.167  30.467  1.00  0.00     0.031 A 
ATOM     48  C   UNL A   1      42.397  29.081  31.725  1.00  0.00     0.074 A 
ATOM     49  C   UNL A   1      40.493  29.974  30.417  1.00  0.00     0.049 A 
ATOM     50  N   UNL A   1      42.185  29.625  32.894  1.00  0.00    -0.248 NA
ATOM     51  C   UNL A   1      43.590  28.217  31.673  1.00  0.00     0.031 C 
ATOM     52  C   UNL A   1      39.584  30.119  29.277  1.00  0.00     0.029 A 
ATOM     53  N   UNL A   1      39.964  30.819  31.363  1.00  0.00    -0.354 N 
ATOM     54  C   UNL A   1      43.194  29.139  33.718  1.00  0.00     0.074 A 
ATOM     55  C   UNL A   1      43.960  28.192  32.942  1.00  0.00     0.031 C 
ATOM     56  C   UNL A   1      38.637  31.022  29.576  1.00  0.00     0.029 A 
ATOM     57  C   UNL A   1      38.832  31.481  30.948  1.00  0.00     0.049 A 
ATOM     58  H   UNL A   1      40.361  30.939  32.256  1.00  0.00     0.167 HD
ATOM     59  C   UNL A   1      43.483  29.479  34.996  1.00  0.00     0.037 A 
ATOM     60  C   UNL A   1      38.036  32.349  31.603  1.00  0.00     0.037 A 
ATOM     61  C   UNL A   1      42.742  30.455  35.746  1.00  0.00     0.049 A 
ATOM     62  C   UNL A   1      38.368  32.710  33.028  1.00  0.00     0.074 A 
ATOM     63  C   UNL A   1      42.976  30.916  37.027  1.00  0.00     0.029 A 
ATOM     64  N   UNL A   1      41.623  31.128  35.274  1.00  0.00    -0.354 N 
ATOM     65  N   UNL A   1      39.350  32.274  33.781  1.00  0.00    -0.248 NA
ATOM     66  C   UNL A   1      37.486  33.680  33.691  1.00  0.00     0.031 C 
ATOM     67  C   UNL A   1      41.971  31.832  37.350  1.00  0.00     0.029 A 
ATOM     68  C   UNL A   1      41.148  31.991  36.245  1.00  0.00     0.049 A 
ATOM     69  H   UNL A   1      41.227  31.009  34.381  1.00  0.00     0.167 HD
ATOM     70  C   UNL A   1      39.232  32.953  34.990  1.00  0.00     0.074 A 
ATOM     71  C   UNL A   1      38.080  33.822  34.870  1.00  0.00     0.031 C 
ATOM     72  C   UNL A   1      40.015  32.871  36.094  1.00  0.00     0.037 A 
BRANCH  59  73
ATOM     73  C   UNL A   1      44.652  28.790  35.648  1.00  0.00     0.058 A 
ATOM     74  C   UNL A   1      44.483  27.654  36.460  1.00  0.00     0.135 A 
ATOM     75  C   UNL A   1      45.958  29.274  35.469  1.00  0.00     0.135 A 
ATOM     76  F   UNL A   1      43.256  27.157  36.681  1.00  0.00    -0.206 F 
ATOM     77  C   UNL A   1      45.556  27.060  37.114  1.00  0.00     0.059 A 
ATOM     78  C   UNL A   1      47.052  28.670  36.082  1.00  0.00     0.059 A 
ATOM     79  F   UNL A   1      46.180  30.353  34.704  1.00  0.00    -0.206 F 
ATOM     80  C   UNL A   1      46.838  27.579  36.921  1.00  0.00     0.060 A 
BRANCH  80  81
ATOM     81  S   UNL A   1      48.216  26.809  37.795  1.00  0.00     0.124 S 
ATOM     82  O   UNL A   1      48.631  25.786  36.838  1.00  0.00    -0.237 OA
ATOM     83  O   UNL A   1      49.139  27.926  37.967  1.00  0.00    -0.237 OA
ATOM     84  O   UNL A   1      47.604  26.309  39.021  1.00  0.00    -0.744 OA
ENDBRANCH  80  81
ENDBRANCH  59  73
BRANCH  60  85
ATOM     85  C   UNL A   1      36.877  32.972  30.905  1.00  0.00     0.058 A 
ATOM     86  C   UNL A   1      35.565  32.576  31.204  1.00  0.00     0.135 A 
ATOM     87  C   UNL A   1      37.049  33.985  29.948  1.00  0.00     0.135 A 
ATOM     88  F   UNL A   1      35.346  31.606  32.105  1.00  0.00    -0.206 F 
ATOM     89  C   UNL A   1      34.466  33.151  30.575  1.00  0.00     0.059 A 
ATOM     90  C   UNL A   1      35.964  34.595  29.324  1.00  0.00     0.059 A 
ATOM     91  F   UNL A   1      38.283  34.412  29.636  1.00  0.00    -0.206 F 
ATOM     92  C   UNL A   1      34.676  34.166  29.640  1.00  0.00     0.060 A 
BRANCH  92  93
ATOM     93  S   UNL A   1      33.237  34.947  28.876  1.00  0.00     0.124 S 
ATOM     94  O   UNL A   1      33.837  36.114  28.241  1.00  0.00    -0.237 OA
ATOM     95  O   UNL A   1      32.765  33.901  27.974  1.00  0.00    -0.237 OA
ATOM     96  O   UNL A   1      32.363  35.225  30.012  1.00  0.00    -0.744 OA
ENDBRANCH  92  93
ENDBRANCH  60  85
BRANCH  72  97
ATOM     97  C   UNL A   1      39.709  33.791  37.243  1.00  0.00     0.058 A 
ATOM     98  C   UNL A   1      38.870  33.410  38.300  1.00  0.00     0.135 A 
ATOM     99  C   UNL A   1      40.353  35.038  37.331  1.00  0.00     0.135 A 
ATOM    100  F   UNL A   1      38.226  32.233  38.263  1.00  0.00    -0.206 F 
ATOM    101  C   UNL A   1      38.674  34.237  39.403  1.00  0.00     0.059 A 
ATOM    102  C   UNL A   1      40.196  35.865  38.437  1.00  0.00     0.059 A 
ATOM    103  F   UNL A   1      41.173  35.444  36.349  1.00  0.00    -0.206 F 
ATOM    104  C   UNL A   1      39.350  35.457  39.466  1.00  0.00     0.060 A 
BRANCH 104 105
ATOM    105  S   UNL A   1      39.144  36.485  40.936  1.00  0.00     0.124 S 
ATOM    106  O   UNL A   1      38.202  35.692  41.719  1.00  0.00    -0.237 OA
ATOM    107  O   UNL A   1      40.505  36.553  41.459  1.00  0.00    -0.237 OA
ATOM    108  O   UNL A   1      38.619  37.739  40.405  1.00  0.00    -0.744 OA
ENDBRANCH 104 105
ENDBRANCH  72  97
ENDBRANCH  46  47
ENDBRANCH  38  41
ENDBRANCH  36  37
ENDBRANCH   1  36
TORSDOF 19
ENDMDL
