MODEL 1
REMARK VINA RESULT:     -12.4      0.000      0.000
REMARK SMILES CCn1cccc1C(=O)N(C)c1snc(C)c1C(=O)NCCCNC(=O)c1ccc(-c2c3nc(c(-c4c(F)cc(S(=O)(=O)[O-])cc4F)c4ccc([nH]4)c(-c4c(F)cc(S(=O)(=O)[O-])cc4F)c4nc(c(-c5c(F)cc(S(=O)(=O)[O-])cc5F)c5ccc2[nH]5)C=C4)C=C3)cc1
REMARK SMILES IDX 21 1 20 2 18 3 19 4 17 6 12 7 13 8 14 9 15 10 16 11 10 12
REMARK SMILES IDX 11 13 8 14 9 15 7 16 3 17 4 18 5 19 6 20 2 21 1 22 22 23
REMARK SMILES IDX 23 24 24 25 25 26 26 28 27 29 28 30 92 31 29 32 91 33 30 34
REMARK SMILES IDX 31 35 32 36 85 37 33 38 90 39 84 40 86 41 34 42 89 43 83 44
REMARK SMILES IDX 82 45 35 47 69 48 48 49 68 50 49 51 52 52 67 53 87 54 50 55
REMARK SMILES IDX 51 56 66 58 88 59 53 60 36 61 37 62 46 63 38 64 39 65 45 66
REMARK SMILES IDX 47 67 40 68 41 69 42 70 43 71 44 72 70 73 71 74 80 75 72 76
REMARK SMILES IDX 73 77 79 78 81 79 74 80 75 81 76 82 77 83 78 84 54 85 55 86
REMARK SMILES IDX 64 87 56 88 57 89 63 90 65 91 58 92 59 93 60 94 61 95 62 96
REMARK H PARENT 20 5 24 27 86 46 52 57
REMARK Flexibility Score: inf
ROOT
ATOM      1  C   UNL A   1      32.476  27.513  26.774  1.00  0.00     0.118 C 
ENDROOT
BRANCH   1   2
ATOM      2  N   UNL A   1      31.119  27.060  26.775  1.00  0.00    -0.352 N 
ATOM      3  C   UNL A   1      30.614  25.953  26.123  1.00  0.00     0.256 C 
ATOM      4  O   UNL A   1      29.512  25.559  26.509  1.00  0.00    -0.269 OA
ATOM      5  H   UNL A   1      30.478  27.593  27.298  1.00  0.00     0.163 HD
BRANCH   3   6
ATOM      6  C   UNL A   1      31.255  25.337  24.949  1.00  0.00     0.097 A 
ATOM      7  C   UNL A   1      32.224  24.337  24.817  1.00  0.00     0.131 A 
ATOM      8  S   UNL A   1      32.448  23.990  23.148  1.00  0.00    -0.017 S 
ATOM      9  N   UNL A   1      31.518  25.207  22.573  1.00  0.00    -0.195 NA
ATOM     10  C   UNL A   1      30.955  25.843  23.600  1.00  0.00     0.066 A 
ATOM     11  C   UNL A   1      30.138  27.047  23.243  1.00  0.00     0.069 C 
BRANCH   7  12
ATOM     12  N   UNL A   1      33.039  23.572  25.690  1.00  0.00    -0.300 N 
ATOM     13  C   UNL A   1      32.382  22.863  26.777  1.00  0.00     0.154 C 
BRANCH  12  14
ATOM     14  C   UNL A   1      34.428  23.624  25.461  1.00  0.00     0.275 C 
ATOM     15  O   UNL A   1      34.913  24.742  25.238  1.00  0.00    -0.267 OA
BRANCH  14  16
ATOM     16  C   UNL A   1      35.350  22.444  25.368  1.00  0.00     0.107 A 
ATOM     17  N   UNL A   1      35.274  21.052  25.170  1.00  0.00    -0.344 N 
ATOM     18  C   UNL A   1      36.545  20.537  25.001  1.00  0.00     0.086 A 
ATOM     19  C   UNL A   1      37.466  21.537  25.111  1.00  0.00     0.020 A 
ATOM     20  C   UNL A   1      36.735  22.704  25.355  1.00  0.00     0.033 A 
BRANCH  17  21
ATOM     21  C   UNL A   1      34.117  20.176  25.081  1.00  0.00     0.119 C 
ATOM     22  C   UNL A   1      33.061  20.460  24.008  1.00  0.00     0.027 C 
ENDBRANCH  17  21
ENDBRANCH  14  16
ENDBRANCH  12  14
ENDBRANCH   7  12
ENDBRANCH   3   6
ENDBRANCH   1   2
BRANCH   1  23
ATOM     23  C   UNL A   1      32.782  28.974  27.032  1.00  0.00     0.042 C 
BRANCH  23  24
ATOM     24  C   UNL A   1      34.243  29.321  26.848  1.00  0.00     0.118 C 
BRANCH  24  25
ATOM     25  N   UNL A   1      34.593  30.679  27.261  1.00  0.00    -0.352 N 
ATOM     26  C   UNL A   1      35.690  31.106  27.988  1.00  0.00     0.251 C 
ATOM     27  H   UNL A   1      33.963  31.383  26.986  1.00  0.00     0.163 HD
ATOM     28  O   UNL A   1      35.747  32.228  28.444  1.00  0.00    -0.269 OA
BRANCH  26  29
ATOM     29  C   UNL A   1      36.782  30.149  28.254  1.00  0.00     0.039 A 
ATOM     30  C   UNL A   1      37.871  30.107  27.374  1.00  0.00     0.014 A 
ATOM     31  C   UNL A   1      36.739  29.333  29.383  1.00  0.00     0.014 A 
ATOM     32  C   UNL A   1      38.979  29.339  27.706  1.00  0.00     0.010 A 
ATOM     33  C   UNL A   1      37.868  28.655  29.772  1.00  0.00     0.010 A 
ATOM     34  C   UNL A   1      38.986  28.671  28.934  1.00  0.00    -0.014 A 
BRANCH  34  35
ATOM     35  C   UNL A   1      40.201  28.019  29.436  1.00  0.00     0.031 A 
ATOM     36  C   UNL A   1      40.525  26.714  28.667  1.00  0.00     0.074 A 
ATOM     37  C   UNL A   1      40.828  28.741  30.409  1.00  0.00     0.049 A 
ATOM     38  N   UNL A   1      41.160  25.638  29.029  1.00  0.00    -0.248 NA
ATOM     39  C   UNL A   1      39.948  26.556  27.298  1.00  0.00     0.031 C 
ATOM     40  C   UNL A   1      40.309  29.991  31.022  1.00  0.00     0.029 A 
ATOM     41  N   UNL A   1      42.014  28.600  31.072  1.00  0.00    -0.354 N 
ATOM     42  C   UNL A   1      41.200  24.768  27.909  1.00  0.00     0.074 A 
ATOM     43  C   UNL A   1      40.331  25.333  26.922  1.00  0.00     0.031 C 
ATOM     44  C   UNL A   1      41.120  30.419  32.012  1.00  0.00     0.029 A 
ATOM     45  C   UNL A   1      42.226  29.501  32.144  1.00  0.00     0.049 A 
ATOM     46  H   UNL A   1      42.677  27.918  30.822  1.00  0.00     0.167 HD
ATOM     47  C   UNL A   1      42.059  23.711  27.785  1.00  0.00     0.037 A 
ATOM     48  C   UNL A   1      43.165  29.419  33.138  1.00  0.00     0.037 A 
ATOM     49  C   UNL A   1      42.961  23.661  28.887  1.00  0.00     0.049 A 
ATOM     50  C   UNL A   1      43.870  28.157  32.840  1.00  0.00     0.074 A 
ATOM     51  C   UNL A   1      43.080  22.985  30.074  1.00  0.00     0.029 A 
ATOM     52  N   UNL A   1      44.007  24.545  28.803  1.00  0.00    -0.354 N 
ATOM     53  N   UNL A   1      44.716  27.974  31.872  1.00  0.00    -0.248 NA
ATOM     54  C   UNL A   1      43.295  26.953  33.443  1.00  0.00     0.031 C 
ATOM     55  C   UNL A   1      44.125  23.633  30.785  1.00  0.00     0.029 A 
ATOM     56  C   UNL A   1      44.440  24.789  30.075  1.00  0.00     0.049 A 
ATOM     57  H   UNL A   1      44.377  24.932  27.976  1.00  0.00     0.167 HD
ATOM     58  C   UNL A   1      44.613  26.630  31.582  1.00  0.00     0.074 A 
ATOM     59  C   UNL A   1      43.772  26.037  32.611  1.00  0.00     0.031 C 
ATOM     60  C   UNL A   1      44.919  26.111  30.365  1.00  0.00     0.037 A 
BRANCH  47  61
ATOM     61  C   UNL A   1      42.452  22.841  26.600  1.00  0.00     0.058 A 
ATOM     62  C   UNL A   1      42.051  21.480  26.628  1.00  0.00     0.135 A 
ATOM     63  C   UNL A   1      43.492  23.148  25.708  1.00  0.00     0.135 A 
ATOM     64  F   UNL A   1      41.002  21.091  27.371  1.00  0.00    -0.206 F 
ATOM     65  C   UNL A   1      42.751  20.471  25.970  1.00  0.00     0.059 A 
ATOM     66  C   UNL A   1      44.174  22.154  24.990  1.00  0.00     0.059 A 
ATOM     67  F   UNL A   1      43.931  24.406  25.570  1.00  0.00    -0.206 F 
ATOM     68  C   UNL A   1      43.841  20.814  25.183  1.00  0.00     0.060 A 
BRANCH  68  69
ATOM     69  S   UNL A   1      44.828  19.485  24.457  1.00  0.00     0.124 S 
ATOM     70  O   UNL A   1      44.598  19.686  23.031  1.00  0.00    -0.237 OA
ATOM     71  O   UNL A   1      46.174  19.801  24.929  1.00  0.00    -0.237 OA
ATOM     72  O   UNL A   1      44.242  18.279  25.033  1.00  0.00    -0.744 OA
ENDBRANCH  68  69
ENDBRANCH  47  61
BRANCH  48  73
ATOM     73  C   UNL A   1      43.319  30.049  34.497  1.00  0.00     0.058 A 
ATOM     74  C   UNL A   1      44.313  30.963  34.875  1.00  0.00     0.135 A 
ATOM     75  C   UNL A   1      42.341  29.800  35.498  1.00  0.00     0.135 A 
ATOM     76  F   UNL A   1      45.394  31.161  34.109  1.00  0.00    -0.206 F 
ATOM     77  C   UNL A   1      44.237  31.708  36.064  1.00  0.00     0.059 A 
ATOM     78  C   UNL A   1      42.231  30.537  36.672  1.00  0.00     0.059 A 
ATOM     79  F   UNL A   1      41.417  28.839  35.349  1.00  0.00    -0.206 F 
ATOM     80  C   UNL A   1      43.165  31.523  36.933  1.00  0.00     0.060 A 
BRANCH  80  81
ATOM     81  S   UNL A   1      42.915  32.628  38.340  1.00  0.00     0.124 S 
ATOM     82  O   UNL A   1      44.245  32.670  38.934  1.00  0.00    -0.237 OA
ATOM     83  O   UNL A   1      42.464  33.860  37.696  1.00  0.00    -0.237 OA
ATOM     84  O   UNL A   1      41.893  31.940  39.126  1.00  0.00    -0.744 OA
ENDBRANCH  80  81
ENDBRANCH  48  73
BRANCH  60  85
ATOM     85  C   UNL A   1      45.355  27.116  29.320  1.00  0.00     0.058 A 
ATOM     86  C   UNL A   1      46.684  27.530  29.209  1.00  0.00     0.135 A 
ATOM     87  C   UNL A   1      44.437  27.726  28.437  1.00  0.00     0.135 A 
ATOM     88  F   UNL A   1      47.615  27.011  30.024  1.00  0.00    -0.206 F 
ATOM     89  C   UNL A   1      47.084  28.471  28.253  1.00  0.00     0.059 A 
ATOM     90  C   UNL A   1      44.807  28.654  27.467  1.00  0.00     0.059 A 
ATOM     91  F   UNL A   1      43.142  27.405  28.485  1.00  0.00    -0.206 F 
ATOM     92  C   UNL A   1      46.142  29.022  27.379  1.00  0.00     0.060 A 
BRANCH  92  93
ATOM     93  S   UNL A   1      46.680  30.204  26.122  1.00  0.00     0.124 S 
ATOM     94  O   UNL A   1      46.452  29.465  24.886  1.00  0.00    -0.237 OA
ATOM     95  O   UNL A   1      45.787  31.333  26.361  1.00  0.00    -0.237 OA
ATOM     96  O   UNL A   1      48.084  30.443  26.452  1.00  0.00    -0.744 OA
ENDBRANCH  92  93
ENDBRANCH  60  85
ENDBRANCH  34  35
ENDBRANCH  26  29
ENDBRANCH  24  25
ENDBRANCH  23  24
ENDBRANCH   1  23
TORSDOF 17
ENDMDL
MODEL 2
REMARK VINA RESULT:     -12.0      1.144      2.059
REMARK SMILES CCn1cccc1C(=O)N(C)c1snc(C)c1C(=O)NCCCNC(=O)c1ccc(-c2c3nc(c(-c4c(F)cc(S(=O)(=O)[O-])cc4F)c4ccc([nH]4)c(-c4c(F)cc(S(=O)(=O)[O-])cc4F)c4nc(c(-c5c(F)cc(S(=O)(=O)[O-])cc5F)c5ccc2[nH]5)C=C4)C=C3)cc1
REMARK SMILES IDX 21 1 20 2 18 3 19 4 17 6 12 7 13 8 14 9 15 10 16 11 10 12
REMARK SMILES IDX 11 13 8 14 9 15 7 16 3 17 4 18 5 19 6 20 2 21 1 22 22 23
REMARK SMILES IDX 23 24 24 25 25 26 26 28 27 29 28 30 92 31 29 32 91 33 30 34
REMARK SMILES IDX 31 35 32 36 85 37 33 38 90 39 84 40 86 41 34 42 89 43 83 44
REMARK SMILES IDX 82 45 35 47 69 48 48 49 68 50 49 51 52 52 67 53 87 54 50 55
REMARK SMILES IDX 51 56 66 58 88 59 53 60 36 61 37 62 46 63 38 64 39 65 45 66
REMARK SMILES IDX 47 67 40 68 41 69 42 70 43 71 44 72 70 73 71 74 80 75 72 76
REMARK SMILES IDX 73 77 79 78 81 79 74 80 75 81 76 82 77 83 78 84 54 85 55 86
REMARK SMILES IDX 64 87 56 88 57 89 63 90 65 91 58 92 59 93 60 94 61 95 62 96
REMARK H PARENT 20 5 24 27 86 46 52 57
REMARK Flexibility Score: inf
ROOT
ATOM      1  C   UNL A   1      32.549  27.484  26.352  1.00  0.00     0.118 C 
ENDROOT
BRANCH   1   2
ATOM      2  N   UNL A   1      31.204  26.997  26.346  1.00  0.00    -0.352 N 
ATOM      3  C   UNL A   1      30.577  26.304  25.330  1.00  0.00     0.256 C 
ATOM      4  O   UNL A   1      29.550  25.702  25.646  1.00  0.00    -0.269 OA
ATOM      5  H   UNL A   1      30.669  27.174  27.153  1.00  0.00     0.163 HD
BRANCH   3   6
ATOM      6  C   UNL A   1      31.002  26.364  23.922  1.00  0.00     0.097 A 
ATOM      7  C   UNL A   1      31.847  25.556  23.153  1.00  0.00     0.131 A 
ATOM      8  S   UNL A   1      31.822  26.108  21.525  1.00  0.00    -0.017 S 
ATOM      9  N   UNL A   1      30.947  27.463  21.795  1.00  0.00    -0.195 NA
ATOM     10  C   UNL A   1      30.582  27.494  23.077  1.00  0.00     0.066 A 
ATOM     11  C   UNL A   1      29.844  28.724  23.508  1.00  0.00     0.069 C 
BRANCH   7  12
ATOM     12  N   UNL A   1      32.690  24.439  23.381  1.00  0.00    -0.300 N 
ATOM     13  C   UNL A   1      34.126  24.661  23.351  1.00  0.00     0.154 C 
BRANCH  12  14
ATOM     14  C   UNL A   1      32.053  23.194  23.549  1.00  0.00     0.275 C 
ATOM     15  O   UNL A   1      30.892  23.101  23.127  1.00  0.00    -0.267 OA
BRANCH  14  16
ATOM     16  C   UNL A   1      32.615  22.008  24.277  1.00  0.00     0.107 A 
ATOM     17  N   UNL A   1      33.262  21.720  25.494  1.00  0.00    -0.344 N 
ATOM     18  C   UNL A   1      33.363  20.351  25.654  1.00  0.00     0.086 A 
ATOM     19  C   UNL A   1      32.831  19.720  24.567  1.00  0.00     0.020 A 
ATOM     20  C   UNL A   1      32.389  20.736  23.714  1.00  0.00     0.033 A 
BRANCH  17  21
ATOM     21  C   UNL A   1      33.751  22.611  26.534  1.00  0.00     0.119 C 
ATOM     22  C   UNL A   1      33.649  22.161  27.995  1.00  0.00     0.027 C 
ENDBRANCH  17  21
ENDBRANCH  14  16
ENDBRANCH  12  14
ENDBRANCH   7  12
ENDBRANCH   3   6
ENDBRANCH   1   2
BRANCH   1  23
ATOM     23  C   UNL A   1      32.823  28.935  26.691  1.00  0.00     0.042 C 
BRANCH  23  24
ATOM     24  C   UNL A   1      34.297  29.272  26.731  1.00  0.00     0.118 C 
BRANCH  24  25
ATOM     25  N   UNL A   1      34.591  30.614  27.231  1.00  0.00    -0.352 N 
ATOM     26  C   UNL A   1      35.648  31.030  28.022  1.00  0.00     0.251 C 
ATOM     27  H   UNL A   1      33.951  31.315  26.971  1.00  0.00     0.163 HD
ATOM     28  O   UNL A   1      35.655  32.126  28.540  1.00  0.00    -0.269 OA
BRANCH  26  29
ATOM     29  C   UNL A   1      36.757  30.090  28.276  1.00  0.00     0.039 A 
ATOM     30  C   UNL A   1      37.844  30.073  27.392  1.00  0.00     0.014 A 
ATOM     31  C   UNL A   1      36.732  29.265  29.400  1.00  0.00     0.014 A 
ATOM     32  C   UNL A   1      38.965  29.323  27.715  1.00  0.00     0.010 A 
ATOM     33  C   UNL A   1      37.874  28.604  29.780  1.00  0.00     0.010 A 
ATOM     34  C   UNL A   1      38.989  28.646  28.938  1.00  0.00    -0.014 A 
BRANCH  34  35
ATOM     35  C   UNL A   1      40.217  28.011  29.430  1.00  0.00     0.031 A 
ATOM     36  C   UNL A   1      40.544  26.702  28.670  1.00  0.00     0.074 A 
ATOM     37  C   UNL A   1      40.848  28.749  30.389  1.00  0.00     0.049 A 
ATOM     38  N   UNL A   1      41.195  25.636  29.034  1.00  0.00    -0.248 NA
ATOM     39  C   UNL A   1      39.952  26.524  27.310  1.00  0.00     0.031 C 
ATOM     40  C   UNL A   1      40.325  30.000  30.996  1.00  0.00     0.029 A 
ATOM     41  N   UNL A   1      42.044  28.627  31.038  1.00  0.00    -0.354 N 
ATOM     42  C   UNL A   1      41.230  24.755  27.923  1.00  0.00     0.074 A 
ATOM     43  C   UNL A   1      40.343  25.302  26.941  1.00  0.00     0.031 C 
ATOM     44  C   UNL A   1      41.143  30.446  31.971  1.00  0.00     0.029 A 
ATOM     45  C   UNL A   1      42.261  29.541  32.098  1.00  0.00     0.049 A 
ATOM     46  H   UNL A   1      42.711  27.949  30.785  1.00  0.00     0.167 HD
ATOM     47  C   UNL A   1      42.098  23.706  27.798  1.00  0.00     0.037 A 
ATOM     48  C   UNL A   1      43.212  29.478  33.080  1.00  0.00     0.037 A 
ATOM     49  C   UNL A   1      43.015  23.676  28.888  1.00  0.00     0.049 A 
ATOM     50  C   UNL A   1      43.927  28.220  32.786  1.00  0.00     0.074 A 
ATOM     51  C   UNL A   1      43.156  23.014  30.081  1.00  0.00     0.029 A 
ATOM     52  N   UNL A   1      44.050  24.570  28.782  1.00  0.00    -0.354 N 
ATOM     53  N   UNL A   1      44.762  28.037  31.809  1.00  0.00    -0.248 NA
ATOM     54  C   UNL A   1      43.372  27.016  33.408  1.00  0.00     0.031 C 
ATOM     55  C   UNL A   1      44.202  23.679  30.772  1.00  0.00     0.029 A 
ATOM     56  C   UNL A   1      44.497  24.831  30.047  1.00  0.00     0.049 A 
ATOM     57  H   UNL A   1      44.406  24.953  27.948  1.00  0.00     0.167 HD
ATOM     58  C   UNL A   1      44.669  26.688  31.533  1.00  0.00     0.074 A 
ATOM     59  C   UNL A   1      43.847  26.097  32.579  1.00  0.00     0.031 C 
ATOM     60  C   UNL A   1      44.965  26.161  30.318  1.00  0.00     0.037 A 
BRANCH  47  61
ATOM     61  C   UNL A   1      42.485  22.828  26.617  1.00  0.00     0.058 A 
ATOM     62  C   UNL A   1      42.089  21.466  26.657  1.00  0.00     0.135 A 
ATOM     63  C   UNL A   1      43.518  23.132  25.715  1.00  0.00     0.135 A 
ATOM     64  F   UNL A   1      41.046  21.080  27.412  1.00  0.00    -0.206 F 
ATOM     65  C   UNL A   1      42.786  20.455  26.002  1.00  0.00     0.059 A 
ATOM     66  C   UNL A   1      44.198  22.135  24.999  1.00  0.00     0.059 A 
ATOM     67  F   UNL A   1      43.952  24.391  25.564  1.00  0.00    -0.206 F 
ATOM     68  C   UNL A   1      43.870  20.795  25.205  1.00  0.00     0.060 A 
BRANCH  68  69
ATOM     69  S   UNL A   1      44.856  19.464  24.482  1.00  0.00     0.124 S 
ATOM     70  O   UNL A   1      44.568  18.354  25.384  1.00  0.00    -0.237 OA
ATOM     71  O   UNL A   1      44.290  19.348  23.140  1.00  0.00    -0.237 OA
ATOM     72  O   UNL A   1      46.216  19.988  24.532  1.00  0.00    -0.744 OA
ENDBRANCH  68  69
ENDBRANCH  47  61
BRANCH  48  73
ATOM     73  C   UNL A   1      43.377  30.123  34.432  1.00  0.00     0.058 A 
ATOM     74  C   UNL A   1      42.471  30.043  35.499  1.00  0.00     0.135 A 
ATOM     75  C   UNL A   1      44.583  30.809  34.736  1.00  0.00     0.135 A 
ATOM     76  F   UNL A   1      41.227  29.585  35.315  1.00  0.00    -0.206 F 
ATOM     77  C   UNL A   1      42.811  30.438  36.805  1.00  0.00     0.059 A 
ATOM     78  C   UNL A   1      44.952  31.191  36.022  1.00  0.00     0.059 A 
ATOM     79  F   UNL A   1      45.480  31.105  33.783  1.00  0.00    -0.206 F 
ATOM     80  C   UNL A   1      44.073  30.966  37.065  1.00  0.00     0.060 A 
BRANCH  80  81
ATOM     81  S   UNL A   1      44.620  31.256  38.762  1.00  0.00     0.124 S 
ATOM     82  O   UNL A   1      45.287  30.001  39.085  1.00  0.00    -0.237 OA
ATOM     83  O   UNL A   1      45.488  32.422  38.617  1.00  0.00    -0.237 OA
ATOM     84  O   UNL A   1      43.370  31.509  39.475  1.00  0.00    -0.744 OA
ENDBRANCH  80  81
ENDBRANCH  48  73
BRANCH  60  85
ATOM     85  C   UNL A   1      45.378  27.160  29.258  1.00  0.00     0.058 A 
ATOM     86  C   UNL A   1      44.438  27.805  28.451  1.00  0.00     0.135 A 
ATOM     87  C   UNL A   1      46.733  27.456  28.994  1.00  0.00     0.135 A 
ATOM     88  F   UNL A   1      43.130  27.563  28.627  1.00  0.00    -0.206 F 
ATOM     89  C   UNL A   1      44.821  28.716  27.460  1.00  0.00     0.059 A 
ATOM     90  C   UNL A   1      47.144  28.369  28.025  1.00  0.00     0.059 A 
ATOM     91  F   UNL A   1      47.701  26.871  29.704  1.00  0.00    -0.206 F 
ATOM     92  C   UNL A   1      46.176  29.000  27.259  1.00  0.00     0.060 A 
BRANCH  92  93
ATOM     93  S   UNL A   1      46.652  30.211  26.005  1.00  0.00     0.124 S 
ATOM     94  O   UNL A   1      45.530  31.143  26.033  1.00  0.00    -0.237 OA
ATOM     95  O   UNL A   1      47.913  30.719  26.534  1.00  0.00    -0.237 OA
ATOM     96  O   UNL A   1      46.767  29.416  24.783  1.00  0.00    -0.744 OA
ENDBRANCH  92  93
ENDBRANCH  60  85
ENDBRANCH  34  35
ENDBRANCH  26  29
ENDBRANCH  24  25
ENDBRANCH  23  24
ENDBRANCH   1  23
TORSDOF 17
ENDMDL
MODEL 3
REMARK VINA RESULT:     -11.6      3.704      9.673
REMARK SMILES CCn1cccc1C(=O)N(C)c1snc(C)c1C(=O)NCCCNC(=O)c1ccc(-c2c3nc(c(-c4c(F)cc(S(=O)(=O)[O-])cc4F)c4ccc([nH]4)c(-c4c(F)cc(S(=O)(=O)[O-])cc4F)c4nc(c(-c5c(F)cc(S(=O)(=O)[O-])cc5F)c5ccc2[nH]5)C=C4)C=C3)cc1
REMARK SMILES IDX 21 1 20 2 18 3 19 4 17 6 12 7 13 8 14 9 15 10 16 11 10 12
REMARK SMILES IDX 11 13 8 14 9 15 7 16 3 17 4 18 5 19 6 20 2 21 1 22 22 23
REMARK SMILES IDX 23 24 24 25 25 26 26 28 27 29 28 30 92 31 29 32 91 33 30 34
REMARK SMILES IDX 31 35 32 36 85 37 33 38 90 39 84 40 86 41 34 42 89 43 83 44
REMARK SMILES IDX 82 45 35 47 69 48 48 49 68 50 49 51 52 52 67 53 87 54 50 55
REMARK SMILES IDX 51 56 66 58 88 59 53 60 36 61 37 62 46 63 38 64 39 65 45 66
REMARK SMILES IDX 47 67 40 68 41 69 42 70 43 71 44 72 70 73 71 74 80 75 72 76
REMARK SMILES IDX 73 77 79 78 81 79 74 80 75 81 76 82 77 83 78 84 54 85 55 86
REMARK SMILES IDX 64 87 56 88 57 89 63 90 65 91 58 92 59 93 60 94 61 95 62 96
REMARK H PARENT 20 5 24 27 86 46 52 57
REMARK Flexibility Score: inf
ROOT
ATOM      1  C   UNL A   1      35.584  23.444  24.236  1.00  0.00     0.118 C 
ENDROOT
BRANCH   1   2
ATOM      2  N   UNL A   1      35.150  24.730  24.688  1.00  0.00    -0.352 N 
ATOM      3  C   UNL A   1      34.111  24.997  25.557  1.00  0.00     0.256 C 
ATOM      4  O   UNL A   1      34.110  26.120  26.064  1.00  0.00    -0.269 OA
ATOM      5  H   UNL A   1      35.645  25.508  24.343  1.00  0.00     0.163 HD
BRANCH   3   6
ATOM      6  C   UNL A   1      32.986  24.076  25.787  1.00  0.00     0.097 A 
ATOM      7  C   UNL A   1      31.680  24.033  25.285  1.00  0.00     0.131 A 
ATOM      8  S   UNL A   1      30.903  22.613  25.862  1.00  0.00    -0.017 S 
ATOM      9  N   UNL A   1      32.085  22.155  26.896  1.00  0.00    -0.195 NA
ATOM     10  C   UNL A   1      33.114  22.993  26.776  1.00  0.00     0.066 A 
ATOM     11  C   UNL A   1      34.250  22.761  27.724  1.00  0.00     0.069 C 
BRANCH   7  12
ATOM     12  N   UNL A   1      30.871  24.847  24.451  1.00  0.00    -0.300 N 
ATOM     13  C   UNL A   1      30.422  24.283  23.189  1.00  0.00     0.154 C 
BRANCH  12  14
ATOM     14  C   UNL A   1      30.633  26.162  24.896  1.00  0.00     0.275 C 
ATOM     15  O   UNL A   1      29.628  26.338  25.599  1.00  0.00    -0.267 OA
BRANCH  14  16
ATOM     16  C   UNL A   1      31.427  27.378  24.516  1.00  0.00     0.107 A 
ATOM     17  N   UNL A   1      31.919  28.553  25.116  1.00  0.00    -0.344 N 
ATOM     18  C   UNL A   1      32.764  29.204  24.237  1.00  0.00     0.086 A 
ATOM     19  C   UNL A   1      32.825  28.515  23.061  1.00  0.00     0.020 A 
ATOM     20  C   UNL A   1      31.991  27.405  23.225  1.00  0.00     0.033 A 
BRANCH  17  21
ATOM     21  C   UNL A   1      31.701  29.091  26.449  1.00  0.00     0.119 C 
ATOM     22  C   UNL A   1      31.692  28.126  27.639  1.00  0.00     0.027 C 
ENDBRANCH  17  21
ENDBRANCH  14  16
ENDBRANCH  12  14
ENDBRANCH   7  12
ENDBRANCH   3   6
ENDBRANCH   1   2
BRANCH   1  23
ATOM     23  C   UNL A   1      36.997  22.982  24.526  1.00  0.00     0.042 C 
BRANCH  23  24
ATOM     24  C   UNL A   1      37.503  23.418  25.883  1.00  0.00     0.118 C 
BRANCH  24  25
ATOM     25  N   UNL A   1      38.765  22.796  26.280  1.00  0.00    -0.352 N 
ATOM     26  C   UNL A   1      39.901  23.396  26.794  1.00  0.00     0.251 C 
ATOM     27  H   UNL A   1      38.812  21.819  26.166  1.00  0.00     0.163 HD
ATOM     28  O   UNL A   1      40.950  22.792  26.879  1.00  0.00    -0.269 OA
BRANCH  26  29
ATOM     29  C   UNL A   1      39.836  24.816  27.192  1.00  0.00     0.039 A 
ATOM     30  C   UNL A   1      39.469  25.132  28.506  1.00  0.00     0.014 A 
ATOM     31  C   UNL A   1      40.173  25.814  26.280  1.00  0.00     0.014 A 
ATOM     32  C   UNL A   1      39.572  26.446  28.939  1.00  0.00     0.010 A 
ATOM     33  C   UNL A   1      40.378  27.097  26.725  1.00  0.00     0.010 A 
ATOM     34  C   UNL A   1      40.086  27.402  28.058  1.00  0.00    -0.014 A 
BRANCH  34  35
ATOM     35  C   UNL A   1      40.416  28.757  28.516  1.00  0.00     0.031 A 
ATOM     36  C   UNL A   1      39.153  29.634  28.706  1.00  0.00     0.074 A 
ATOM     37  C   UNL A   1      41.748  28.927  28.755  1.00  0.00     0.049 A 
ATOM     38  N   UNL A   1      38.982  30.922  28.635  1.00  0.00    -0.248 NA
ATOM     39  C   UNL A   1      37.849  28.935  28.909  1.00  0.00     0.031 C 
ATOM     40  C   UNL A   1      42.808  27.924  28.474  1.00  0.00     0.029 A 
ATOM     41  N   UNL A   1      42.489  29.944  29.288  1.00  0.00    -0.354 N 
ATOM     42  C   UNL A   1      37.623  31.190  28.938  1.00  0.00     0.074 A 
ATOM     43  C   UNL A   1      36.955  29.924  28.971  1.00  0.00     0.031 C 
ATOM     44  C   UNL A   1      44.032  28.421  28.745  1.00  0.00     0.029 A 
ATOM     45  C   UNL A   1      43.894  29.779  29.216  1.00  0.00     0.049 A 
ATOM     46  H   UNL A   1      42.074  30.738  29.693  1.00  0.00     0.167 HD
ATOM     47  C   UNL A   1      37.143  32.419  29.300  1.00  0.00     0.037 A 
ATOM     48  C   UNL A   1      44.862  30.729  29.405  1.00  0.00     0.037 A 
ATOM     49  C   UNL A   1      38.204  33.362  29.417  1.00  0.00     0.049 A 
ATOM     50  C   UNL A   1      44.089  31.960  29.664  1.00  0.00     0.074 A 
ATOM     51  C   UNL A   1      38.772  34.352  28.656  1.00  0.00     0.029 A 
ATOM     52  N   UNL A   1      38.914  33.274  30.587  1.00  0.00    -0.354 N 
ATOM     53  N   UNL A   1      43.449  32.233  30.760  1.00  0.00    -0.248 NA
ATOM     54  C   UNL A   1      43.721  32.737  28.479  1.00  0.00     0.031 C 
ATOM     55  C   UNL A   1      39.965  34.722  29.332  1.00  0.00     0.029 A 
ATOM     56  C   UNL A   1      40.155  33.794  30.352  1.00  0.00     0.049 A 
ATOM     57  H   UNL A   1      38.588  32.905  31.440  1.00  0.00     0.167 HD
ATOM     58  C   UNL A   1      42.426  33.066  30.356  1.00  0.00     0.074 A 
ATOM     59  C   UNL A   1      42.672  33.391  28.958  1.00  0.00     0.031 C 
ATOM     60  C   UNL A   1      41.262  33.191  31.041  1.00  0.00     0.037 A 
BRANCH  47  61
ATOM     61  C   UNL A   1      35.823  32.865  29.913  1.00  0.00     0.058 A 
ATOM     62  C   UNL A   1      35.030  33.773  29.165  1.00  0.00     0.135 A 
ATOM     63  C   UNL A   1      35.524  32.784  31.283  1.00  0.00     0.135 A 
ATOM     64  F   UNL A   1      35.163  33.860  27.831  1.00  0.00    -0.206 F 
ATOM     65  C   UNL A   1      34.144  34.670  29.758  1.00  0.00     0.059 A 
ATOM     66  C   UNL A   1      34.593  33.639  31.892  1.00  0.00     0.059 A 
ATOM     67  F   UNL A   1      36.183  31.936  32.083  1.00  0.00    -0.206 F 
ATOM     68  C   UNL A   1      33.962  34.624  31.133  1.00  0.00     0.060 A 
BRANCH  68  69
ATOM     69  S   UNL A   1      32.926  35.889  31.904  1.00  0.00     0.124 S 
ATOM     70  O   UNL A   1      32.591  36.736  30.766  1.00  0.00    -0.237 OA
ATOM     71  O   UNL A   1      31.823  35.100  32.449  1.00  0.00    -0.237 OA
ATOM     72  O   UNL A   1      33.809  36.483  32.902  1.00  0.00    -0.744 OA
ENDBRANCH  68  69
ENDBRANCH  47  61
BRANCH  48  73
ATOM     73  C   UNL A   1      46.320  30.834  29.043  1.00  0.00     0.058 A 
ATOM     74  C   UNL A   1      46.860  30.734  27.753  1.00  0.00     0.135 A 
ATOM     75  C   UNL A   1      47.269  31.155  30.052  1.00  0.00     0.135 A 
ATOM     76  F   UNL A   1      46.127  30.266  26.734  1.00  0.00    -0.206 F 
ATOM     77  C   UNL A   1      48.182  31.107  27.459  1.00  0.00     0.059 A 
ATOM     78  C   UNL A   1      48.577  31.549  29.786  1.00  0.00     0.059 A 
ATOM     79  F   UNL A   1      46.942  31.135  31.352  1.00  0.00    -0.206 F 
ATOM     80  C   UNL A   1      49.018  31.561  28.476  1.00  0.00     0.060 A 
BRANCH  80  81
ATOM     81  S   UNL A   1      50.635  32.272  28.094  1.00  0.00     0.124 S 
ATOM     82  O   UNL A   1      51.504  31.104  28.158  1.00  0.00    -0.237 OA
ATOM     83  O   UNL A   1      50.423  32.839  26.765  1.00  0.00    -0.237 OA
ATOM     84  O   UNL A   1      50.823  33.258  29.156  1.00  0.00    -0.744 OA
ENDBRANCH  80  81
ENDBRANCH  48  73
BRANCH  60  85
ATOM     85  C   UNL A   1      41.136  32.325  32.276  1.00  0.00     0.058 A 
ATOM     86  C   UNL A   1      41.590  32.755  33.525  1.00  0.00     0.135 A 
ATOM     87  C   UNL A   1      40.601  31.019  32.225  1.00  0.00     0.135 A 
ATOM     88  F   UNL A   1      42.128  33.977  33.654  1.00  0.00    -0.206 F 
ATOM     89  C   UNL A   1      41.488  31.947  34.663  1.00  0.00     0.059 A 
ATOM     90  C   UNL A   1      40.474  30.197  33.342  1.00  0.00     0.059 A 
ATOM     91  F   UNL A   1      40.160  30.517  31.069  1.00  0.00    -0.206 F 
ATOM     92  C   UNL A   1      40.921  30.673  34.566  1.00  0.00     0.060 A 
BRANCH  92  93
ATOM     93  S   UNL A   1      40.758  29.657  36.053  1.00  0.00     0.124 S 
ATOM     94  O   UNL A   1      41.732  30.267  36.951  1.00  0.00    -0.237 OA
ATOM     95  O   UNL A   1      39.357  29.856  36.406  1.00  0.00    -0.237 OA
ATOM     96  O   UNL A   1      41.097  28.312  35.591  1.00  0.00    -0.744 OA
ENDBRANCH  92  93
ENDBRANCH  60  85
ENDBRANCH  34  35
ENDBRANCH  26  29
ENDBRANCH  24  25
ENDBRANCH  23  24
ENDBRANCH   1  23
TORSDOF 17
ENDMDL
