MODEL 1
REMARK VINA RESULT:     -11.9      0.000      0.000
REMARK SMILES O=C(NCCCNC(=O)[C@H]1[C@H]2C[C@@H]3[C@@H](OC(=O)[C@@H]31)[C@@H]2Sc1ccccc1)c1ccc(-c2c3nc(c(-c4c(F)cc(S(=O)(=O)[O-])cc4F)c4ccc([nH]4)c(-c4c(F)cc(S(=O)(=O)[O-])cc4F)c4nc(c(-c5c(F)cc(S(=O)(=O)[O-])cc5F)c5ccc2[nH]5)C=C4)C=C3)cc1
REMARK SMILES IDX 4 1 3 2 1 3 2 4 27 6 28 7 92 8 29 9 91 10 30 11 31 12 32 13
REMARK SMILES IDX 85 14 33 15 90 16 84 17 86 18 34 19 89 20 83 21 82 22 35 24
REMARK SMILES IDX 69 25 48 26 68 27 49 28 52 29 67 30 87 31 50 32 51 33 66 35
REMARK SMILES IDX 88 36 53 37 36 38 37 39 46 40 38 41 39 42 45 43 47 44 40 45
REMARK SMILES IDX 41 46 42 47 43 48 44 49 70 50 71 51 80 52 72 53 73 54 79 55
REMARK SMILES IDX 81 56 74 57 75 58 76 59 77 60 78 61 54 62 55 63 64 64 56 65
REMARK SMILES IDX 57 66 63 67 65 68 58 69 59 70 60 71 61 72 62 73 5 74 6 75
REMARK SMILES IDX 7 76 8 77 9 79 10 80 11 81 18 82 12 83 19 84 13 85 16 86
REMARK SMILES IDX 14 87 15 88 17 89 20 90 21 91 22 92 26 93 23 94 25 95 24 96
REMARK H PARENT 3 5 86 23 52 34 7 78
REMARK Flexibility Score: inf
ROOT
ATOM      1  C   UNL A   1      33.882  28.580  27.253  1.00  0.00     0.118 C 
ENDROOT
BRANCH   1   2
ATOM      2  N   UNL A   1      33.744  29.965  27.706  1.00  0.00    -0.352 N 
ATOM      3  O   UNL A   1      34.266  31.834  28.847  1.00  0.00    -0.269 OA
ATOM      4  C   UNL A   1      34.632  30.758  28.388  1.00  0.00     0.251 C 
ATOM      5  H   UNL A   1      32.884  30.392  27.489  1.00  0.00     0.163 HD
BRANCH   4   6
ATOM      6  C   UNL A   1      36.015  30.284  28.570  1.00  0.00     0.039 A 
ATOM      7  C   UNL A   1      36.934  30.442  27.533  1.00  0.00     0.014 A 
ATOM      8  C   UNL A   1      36.390  29.665  29.764  1.00  0.00     0.014 A 
ATOM      9  C   UNL A   1      38.160  29.814  27.604  1.00  0.00     0.010 A 
ATOM     10  C   UNL A   1      37.691  29.177  29.898  1.00  0.00     0.010 A 
ATOM     11  C   UNL A   1      38.578  29.242  28.813  1.00  0.00    -0.014 A 
BRANCH  11  12
ATOM     12  C   UNL A   1      40.009  28.898  28.949  1.00  0.00     0.031 A 
ATOM     13  C   UNL A   1      40.543  27.570  28.511  1.00  0.00     0.074 A 
ATOM     14  C   UNL A   1      40.818  29.844  29.472  1.00  0.00     0.049 A 
ATOM     15  N   UNL A   1      41.766  27.121  28.598  1.00  0.00    -0.248 NA
ATOM     16  C   UNL A   1      39.595  26.620  27.909  1.00  0.00     0.031 C 
ATOM     17  C   UNL A   1      40.375  31.166  29.939  1.00  0.00     0.029 A 
ATOM     18  N   UNL A   1      42.168  29.860  29.689  1.00  0.00    -0.354 N 
ATOM     19  C   UNL A   1      41.735  25.827  28.095  1.00  0.00     0.074 A 
ATOM     20  C   UNL A   1      40.367  25.559  27.703  1.00  0.00     0.031 C 
ATOM     21  C   UNL A   1      41.435  31.877  30.338  1.00  0.00     0.029 A 
ATOM     22  C   UNL A   1      42.613  31.029  30.262  1.00  0.00     0.049 A 
ATOM     23  H   UNL A   1      42.762  29.111  29.458  1.00  0.00     0.167 HD
ATOM     24  C   UNL A   1      42.762  24.953  27.985  1.00  0.00     0.037 A 
ATOM     25  C   UNL A   1      43.826  31.364  30.733  1.00  0.00     0.037 A 
ATOM     26  C   UNL A   1      44.118  25.262  28.365  1.00  0.00     0.049 A 
ATOM     27  C   UNL A   1      44.929  30.355  30.626  1.00  0.00     0.074 A 
ATOM     28  C   UNL A   1      45.246  24.472  28.227  1.00  0.00     0.029 A 
ATOM     29  N   UNL A   1      44.528  26.442  28.969  1.00  0.00    -0.354 N 
ATOM     30  N   UNL A   1      44.895  29.160  30.087  1.00  0.00    -0.248 NA
ATOM     31  C   UNL A   1      46.226  30.727  31.199  1.00  0.00     0.031 C 
ATOM     32  C   UNL A   1      46.323  25.145  28.810  1.00  0.00     0.029 A 
ATOM     33  C   UNL A   1      45.883  26.381  29.254  1.00  0.00     0.049 A 
ATOM     34  H   UNL A   1      43.943  27.210  29.164  1.00  0.00     0.167 HD
ATOM     35  C   UNL A   1      46.170  28.638  30.252  1.00  0.00     0.074 A 
ATOM     36  C   UNL A   1      46.958  29.663  30.906  1.00  0.00     0.031 C 
ATOM     37  C   UNL A   1      46.644  27.416  29.907  1.00  0.00     0.037 A 
BRANCH  24  38
ATOM     38  C   UNL A   1      42.482  23.571  27.464  1.00  0.00     0.058 A 
ATOM     39  C   UNL A   1      42.513  23.271  26.095  1.00  0.00     0.135 A 
ATOM     40  C   UNL A   1      42.302  22.507  28.366  1.00  0.00     0.135 A 
ATOM     41  F   UNL A   1      42.662  24.250  25.190  1.00  0.00    -0.206 F 
ATOM     42  C   UNL A   1      42.384  21.963  25.637  1.00  0.00     0.059 A 
ATOM     43  C   UNL A   1      42.195  21.190  27.932  1.00  0.00     0.059 A 
ATOM     44  F   UNL A   1      42.257  22.742  29.686  1.00  0.00    -0.206 F 
ATOM     45  C   UNL A   1      42.240  20.927  26.564  1.00  0.00     0.060 A 
BRANCH  45  46
ATOM     46  S   UNL A   1      42.143  19.231  25.954  1.00  0.00     0.124 S 
ATOM     47  O   UNL A   1      43.027  19.287  24.794  1.00  0.00    -0.237 OA
ATOM     48  O   UNL A   1      42.638  18.463  27.092  1.00  0.00    -0.237 OA
ATOM     49  O   UNL A   1      40.725  19.056  25.652  1.00  0.00    -0.744 OA
ENDBRANCH  45  46
ENDBRANCH  24  38
BRANCH  25  50
ATOM     50  C   UNL A   1      44.029  32.671  31.413  1.00  0.00     0.058 A 
ATOM     51  C   UNL A   1      43.826  32.812  32.791  1.00  0.00     0.135 A 
ATOM     52  C   UNL A   1      44.423  33.809  30.688  1.00  0.00     0.135 A 
ATOM     53  F   UNL A   1      43.454  31.755  33.527  1.00  0.00    -0.206 F 
ATOM     54  C   UNL A   1      43.965  34.044  33.422  1.00  0.00     0.059 A 
ATOM     55  C   UNL A   1      44.606  35.041  31.303  1.00  0.00     0.059 A 
ATOM     56  F   UNL A   1      44.656  33.723  29.369  1.00  0.00    -0.206 F 
ATOM     57  C   UNL A   1      44.351  35.154  32.667  1.00  0.00     0.060 A 
BRANCH  57  58
ATOM     58  S   UNL A   1      44.519  36.749  33.491  1.00  0.00     0.124 S 
ATOM     59  O   UNL A   1      43.218  36.879  34.138  1.00  0.00    -0.237 OA
ATOM     60  O   UNL A   1      45.655  36.517  34.378  1.00  0.00    -0.237 OA
ATOM     61  O   UNL A   1      44.773  37.672  32.388  1.00  0.00    -0.744 OA
ENDBRANCH  57  58
ENDBRANCH  25  50
BRANCH  37  62
ATOM     62  C   UNL A   1      48.083  27.131  30.226  1.00  0.00     0.058 A 
ATOM     63  C   UNL A   1      49.113  27.501  29.347  1.00  0.00     0.135 A 
ATOM     64  C   UNL A   1      48.438  26.525  31.442  1.00  0.00     0.135 A 
ATOM     65  F   UNL A   1      48.823  28.067  28.166  1.00  0.00    -0.206 F 
ATOM     66  C   UNL A   1      50.447  27.263  29.656  1.00  0.00     0.059 A 
ATOM     67  C   UNL A   1      49.766  26.309  31.786  1.00  0.00     0.059 A 
ATOM     68  F   UNL A   1      47.488  26.157  32.317  1.00  0.00    -0.206 F 
ATOM     69  C   UNL A   1      50.763  26.674  30.882  1.00  0.00     0.060 A 
BRANCH  69  70
ATOM     70  S   UNL A   1      52.502  26.419  31.289  1.00  0.00     0.124 S 
ATOM     71  O   UNL A   1      53.106  26.333  29.964  1.00  0.00    -0.237 OA
ATOM     72  O   UNL A   1      52.820  27.622  32.054  1.00  0.00    -0.237 OA
ATOM     73  O   UNL A   1      52.493  25.178  32.056  1.00  0.00    -0.744 OA
ENDBRANCH  69  70
ENDBRANCH  37  62
ENDBRANCH  11  12
ENDBRANCH   4   6
ENDBRANCH   1   2
BRANCH   1  74
ATOM     74  C   UNL A   1      34.026  28.491  25.747  1.00  0.00     0.042 C 
BRANCH  74  75
ATOM     75  C   UNL A   1      32.668  28.628  25.089  1.00  0.00     0.117 C 
BRANCH  75  76
ATOM     76  N   UNL A   1      31.671  27.787  25.676  1.00  0.00    -0.356 N 
ATOM     77  C   UNL A   1      31.528  26.449  25.650  1.00  0.00     0.224 C 
ATOM     78  H   UNL A   1      30.975  28.265  26.182  1.00  0.00     0.163 HD
ATOM     79  O   UNL A   1      30.739  25.980  26.477  1.00  0.00    -0.275 OA
BRANCH  77  80
ATOM     80  C   UNL A   1      32.268  25.497  24.716  1.00  0.00     0.097 C 
ATOM     81  C   UNL A   1      32.318  23.948  24.884  1.00  0.00     0.020 C 
ATOM     82  C   UNL A   1      31.942  25.648  23.218  1.00  0.00     0.119 C 
ATOM     83  C   UNL A   1      31.314  23.425  23.845  1.00  0.00     0.014 C 
ATOM     84  C   UNL A   1      33.675  23.547  24.207  1.00  0.00     0.097 C 
ATOM     85  C   UNL A   1      31.889  24.208  22.705  1.00  0.00     0.047 C 
ATOM     86  C   UNL A   1      33.155  26.120  22.467  1.00  0.00     0.310 C 
ATOM     87  C   UNL A   1      33.370  23.841  22.704  1.00  0.00     0.194 C 
ATOM     88  O   UNL A   1      33.994  25.050  22.243  1.00  0.00    -0.461 OA
ATOM     89  O   UNL A   1      33.389  27.262  22.129  1.00  0.00    -0.252 OA
BRANCH  84  90
ATOM     90  S   UNL A   1      34.429  21.896  24.556  1.00  0.00    -0.119 SA
BRANCH  90  91
ATOM     91  C   UNL A   1      36.064  22.240  25.161  1.00  0.00     0.008 A 
ATOM     92  C   UNL A   1      37.029  21.226  25.182  1.00  0.00     0.015 A 
ATOM     93  C   UNL A   1      36.396  23.506  25.656  1.00  0.00     0.015 A 
ATOM     94  C   UNL A   1      38.329  21.499  25.615  1.00  0.00     0.001 A 
ATOM     95  C   UNL A   1      37.705  23.787  26.055  1.00  0.00     0.001 A 
ATOM     96  C   UNL A   1      38.673  22.785  26.027  1.00  0.00     0.000 A 
ENDBRANCH  90  91
ENDBRANCH  84  90
ENDBRANCH  77  80
ENDBRANCH  75  76
ENDBRANCH  74  75
ENDBRANCH   1  74
TORSDOF 15
ENDMDL
MODEL 2
REMARK VINA RESULT:     -11.7      0.706      8.204
REMARK SMILES O=C(NCCCNC(=O)[C@H]1[C@H]2C[C@@H]3[C@@H](OC(=O)[C@@H]31)[C@@H]2Sc1ccccc1)c1ccc(-c2c3nc(c(-c4c(F)cc(S(=O)(=O)[O-])cc4F)c4ccc([nH]4)c(-c4c(F)cc(S(=O)(=O)[O-])cc4F)c4nc(c(-c5c(F)cc(S(=O)(=O)[O-])cc5F)c5ccc2[nH]5)C=C4)C=C3)cc1
REMARK SMILES IDX 4 1 3 2 1 3 2 4 27 6 28 7 92 8 29 9 91 10 30 11 31 12 32 13
REMARK SMILES IDX 85 14 33 15 90 16 84 17 86 18 34 19 89 20 83 21 82 22 35 24
REMARK SMILES IDX 69 25 48 26 68 27 49 28 52 29 67 30 87 31 50 32 51 33 66 35
REMARK SMILES IDX 88 36 53 37 36 38 37 39 46 40 38 41 39 42 45 43 47 44 40 45
REMARK SMILES IDX 41 46 42 47 43 48 44 49 70 50 71 51 80 52 72 53 73 54 79 55
REMARK SMILES IDX 81 56 74 57 75 58 76 59 77 60 78 61 54 62 55 63 64 64 56 65
REMARK SMILES IDX 57 66 63 67 65 68 58 69 59 70 60 71 61 72 62 73 5 74 6 75
REMARK SMILES IDX 7 76 8 77 9 79 10 80 11 81 18 82 12 83 19 84 13 85 16 86
REMARK SMILES IDX 14 87 15 88 17 89 20 90 21 91 22 92 26 93 23 94 25 95 24 96
REMARK H PARENT 3 5 86 23 52 34 7 78
REMARK Flexibility Score: inf
ROOT
ATOM      1  C   UNL A   1      34.009  28.319  27.185  1.00  0.00     0.118 C 
ENDROOT
BRANCH   1   2
ATOM      2  N   UNL A   1      33.767  29.703  27.597  1.00  0.00    -0.352 N 
ATOM      3  O   UNL A   1      34.135  31.631  28.699  1.00  0.00    -0.269 OA
ATOM      4  C   UNL A   1      34.583  30.570  28.278  1.00  0.00     0.251 C 
ATOM      5  H   UNL A   1      32.888  30.066  27.347  1.00  0.00     0.163 HD
BRANCH   4   6
ATOM      6  C   UNL A   1      35.989  30.194  28.507  1.00  0.00     0.039 A 
ATOM      7  C   UNL A   1      36.904  30.297  27.459  1.00  0.00     0.014 A 
ATOM      8  C   UNL A   1      36.392  29.721  29.758  1.00  0.00     0.014 A 
ATOM      9  C   UNL A   1      38.162  29.748  27.593  1.00  0.00     0.010 A 
ATOM     10  C   UNL A   1      37.716  29.322  29.940  1.00  0.00     0.010 A 
ATOM     11  C   UNL A   1      38.605  29.326  28.854  1.00  0.00    -0.014 A 
BRANCH  11  12
ATOM     12  C   UNL A   1      40.052  29.078  29.024  1.00  0.00     0.031 A 
ATOM     13  C   UNL A   1      40.982  30.149  29.502  1.00  0.00     0.074 A 
ATOM     14  C   UNL A   1      40.495  27.834  28.744  1.00  0.00     0.049 A 
ATOM     15  N   UNL A   1      42.275  30.082  29.668  1.00  0.00    -0.248 NA
ATOM     16  C   UNL A   1      40.400  31.460  29.828  1.00  0.00     0.031 C 
ATOM     17  C   UNL A   1      39.654  26.730  28.257  1.00  0.00     0.029 A 
ATOM     18  N   UNL A   1      41.740  27.276  28.836  1.00  0.00    -0.354 N 
ATOM     19  C   UNL A   1      42.672  31.346  30.085  1.00  0.00     0.074 A 
ATOM     20  C   UNL A   1      41.480  32.164  30.147  1.00  0.00     0.031 C 
ATOM     21  C   UNL A   1      40.395  25.622  28.143  1.00  0.00     0.029 A 
ATOM     22  C   UNL A   1      41.777  25.960  28.438  1.00  0.00     0.049 A 
ATOM     23  H   UNL A   1      42.531  27.766  29.156  1.00  0.00     0.167 HD
ATOM     24  C   UNL A   1      43.924  31.769  30.378  1.00  0.00     0.037 A 
ATOM     25  C   UNL A   1      42.819  25.127  28.267  1.00  0.00     0.037 A 
ATOM     26  C   UNL A   1      45.087  30.919  30.328  1.00  0.00     0.049 A 
ATOM     27  C   UNL A   1      44.193  25.646  28.567  1.00  0.00     0.074 A 
ATOM     28  C   UNL A   1      46.390  31.230  30.674  1.00  0.00     0.029 A 
ATOM     29  N   UNL A   1      45.094  29.601  29.892  1.00  0.00    -0.354 N 
ATOM     30  N   UNL A   1      44.542  26.824  29.024  1.00  0.00    -0.248 NA
ATOM     31  C   UNL A   1      45.313  24.733  28.318  1.00  0.00     0.031 C 
ATOM     32  C   UNL A   1      47.195  30.126  30.381  1.00  0.00     0.029 A 
ATOM     33  C   UNL A   1      46.387  29.103  29.914  1.00  0.00     0.049 A 
ATOM     34  H   UNL A   1      44.298  29.095  29.610  1.00  0.00     0.167 HD
ATOM     35  C   UNL A   1      45.925  26.794  29.121  1.00  0.00     0.074 A 
ATOM     36  C   UNL A   1      46.343  25.468  28.713  1.00  0.00     0.031 C 
ATOM     37  C   UNL A   1      46.776  27.778  29.501  1.00  0.00     0.037 A 
BRANCH  24  38
ATOM     38  C   UNL A   1      44.130  33.210  30.752  1.00  0.00     0.058 A 
ATOM     39  C   UNL A   1      44.382  34.200  29.791  1.00  0.00     0.135 A 
ATOM     40  C   UNL A   1      43.946  33.620  32.084  1.00  0.00     0.135 A 
ATOM     41  F   UNL A   1      44.584  33.863  28.508  1.00  0.00    -0.206 F 
ATOM     42  C   UNL A   1      44.437  35.548  30.136  1.00  0.00     0.059 A 
ATOM     43  C   UNL A   1      43.974  34.963  32.447  1.00  0.00     0.059 A 
ATOM     44  F   UNL A   1      43.710  32.712  33.043  1.00  0.00    -0.206 F 
ATOM     45  C   UNL A   1      44.218  35.920  31.465  1.00  0.00     0.060 A 
BRANCH  45  46
ATOM     46  S   UNL A   1      44.227  37.677  31.880  1.00  0.00     0.124 S 
ATOM     47  O   UNL A   1      43.676  38.267  30.664  1.00  0.00    -0.237 OA
ATOM     48  O   UNL A   1      43.361  37.722  33.055  1.00  0.00    -0.237 OA
ATOM     49  O   UNL A   1      45.636  37.962  32.131  1.00  0.00    -0.744 OA
ENDBRANCH  45  46
ENDBRANCH  24  38
BRANCH  25  50
ATOM     50  C   UNL A   1      42.603  23.763  27.718  1.00  0.00     0.058 A 
ATOM     51  C   UNL A   1      42.474  22.652  28.561  1.00  0.00     0.135 A 
ATOM     52  C   UNL A   1      42.531  23.545  26.331  1.00  0.00     0.135 A 
ATOM     53  F   UNL A   1      42.532  22.808  29.891  1.00  0.00    -0.206 F 
ATOM     54  C   UNL A   1      42.323  21.367  28.049  1.00  0.00     0.059 A 
ATOM     55  C   UNL A   1      42.341  22.277  25.798  1.00  0.00     0.059 A 
ATOM     56  F   UNL A   1      42.622  24.580  25.479  1.00  0.00    -0.206 F 
ATOM     57  C   UNL A   1      42.263  21.191  26.665  1.00  0.00     0.060 A 
BRANCH  57  58
ATOM     58  S   UNL A   1      42.076  19.521  26.010  1.00  0.00     0.124 S 
ATOM     59  O   UNL A   1      42.565  18.717  27.124  1.00  0.00    -0.237 OA
ATOM     60  O   UNL A   1      40.641  19.451  25.752  1.00  0.00    -0.237 OA
ATOM     61  O   UNL A   1      42.920  19.531  24.818  1.00  0.00    -0.744 OA
ENDBRANCH  57  58
ENDBRANCH  25  50
BRANCH  37  62
ATOM     62  C   UNL A   1      48.240  27.448  29.499  1.00  0.00     0.058 A 
ATOM     63  C   UNL A   1      49.067  27.801  28.421  1.00  0.00     0.135 A 
ATOM     64  C   UNL A   1      48.830  26.815  30.604  1.00  0.00     0.135 A 
ATOM     65  F   UNL A   1      48.547  28.392  27.335  1.00  0.00    -0.206 F 
ATOM     66  C   UNL A   1      50.429  27.521  28.433  1.00  0.00     0.059 A 
ATOM     67  C   UNL A   1      50.194  26.556  30.652  1.00  0.00     0.059 A 
ATOM     68  F   UNL A   1      48.081  26.461  31.661  1.00  0.00    -0.206 F 
ATOM     69  C   UNL A   1      50.984  26.906  29.557  1.00  0.00     0.060 A 
BRANCH  69  70
ATOM     70  S   UNL A   1      52.761  26.596  29.576  1.00  0.00     0.124 S 
ATOM     71  O   UNL A   1      53.296  27.952  29.612  1.00  0.00    -0.237 OA
ATOM     72  O   UNL A   1      52.926  25.816  30.800  1.00  0.00    -0.237 OA
ATOM     73  O   UNL A   1      52.991  25.863  28.335  1.00  0.00    -0.744 OA
ENDBRANCH  69  70
ENDBRANCH  37  62
ENDBRANCH  11  12
ENDBRANCH   4   6
ENDBRANCH   1   2
BRANCH   1  74
ATOM     74  C   UNL A   1      33.857  28.141  25.687  1.00  0.00     0.042 C 
BRANCH  74  75
ATOM     75  C   UNL A   1      32.480  28.596  25.250  1.00  0.00     0.117 C 
BRANCH  75  76
ATOM     76  N   UNL A   1      31.432  27.739  25.713  1.00  0.00    -0.356 N 
ATOM     77  C   UNL A   1      31.285  26.404  25.618  1.00  0.00     0.224 C 
ATOM     78  H   UNL A   1      30.697  28.201  26.177  1.00  0.00     0.163 HD
ATOM     79  O   UNL A   1      30.425  25.908  26.354  1.00  0.00    -0.275 OA
BRANCH  77  80
ATOM     80  C   UNL A   1      32.098  25.486  24.712  1.00  0.00     0.097 C 
ATOM     81  C   UNL A   1      32.208  23.940  24.881  1.00  0.00     0.020 C 
ATOM     82  C   UNL A   1      31.821  25.626  23.202  1.00  0.00     0.119 C 
ATOM     83  C   UNL A   1      31.265  23.377  23.806  1.00  0.00     0.014 C 
ATOM     84  C   UNL A   1      33.604  23.598  24.255  1.00  0.00     0.097 C 
ATOM     85  C   UNL A   1      31.847  24.185  22.688  1.00  0.00     0.047 C 
ATOM     86  C   UNL A   1      33.040  26.149  22.497  1.00  0.00     0.310 C 
ATOM     87  C   UNL A   1      33.342  23.881  22.742  1.00  0.00     0.194 C 
ATOM     88  O   UNL A   1      33.931  25.116  22.304  1.00  0.00    -0.461 OA
ATOM     89  O   UNL A   1      33.238  27.300  22.168  1.00  0.00    -0.252 OA
BRANCH  84  90
ATOM     90  S   UNL A   1      34.413  21.979  24.631  1.00  0.00    -0.119 SA
BRANCH  90  91
ATOM     91  C   UNL A   1      36.028  22.390  25.252  1.00  0.00     0.008 A 
ATOM     92  C   UNL A   1      37.036  21.420  25.268  1.00  0.00     0.015 A 
ATOM     93  C   UNL A   1      36.298  23.664  25.762  1.00  0.00     0.015 A 
ATOM     94  C   UNL A   1      38.320  21.746  25.714  1.00  0.00     0.001 A 
ATOM     95  C   UNL A   1      37.591  23.999  26.173  1.00  0.00     0.001 A 
ATOM     96  C   UNL A   1      38.603  23.041  26.142  1.00  0.00     0.000 A 
ENDBRANCH  90  91
ENDBRANCH  84  90
ENDBRANCH  77  80
ENDBRANCH  75  76
ENDBRANCH  74  75
ENDBRANCH   1  74
TORSDOF 15
ENDMDL
MODEL 3
REMARK VINA RESULT:     -11.6      3.107      9.424
REMARK SMILES O=C(NCCCNC(=O)[C@H]1[C@H]2C[C@@H]3[C@@H](OC(=O)[C@@H]31)[C@@H]2Sc1ccccc1)c1ccc(-c2c3nc(c(-c4c(F)cc(S(=O)(=O)[O-])cc4F)c4ccc([nH]4)c(-c4c(F)cc(S(=O)(=O)[O-])cc4F)c4nc(c(-c5c(F)cc(S(=O)(=O)[O-])cc5F)c5ccc2[nH]5)C=C4)C=C3)cc1
REMARK SMILES IDX 4 1 3 2 1 3 2 4 27 6 28 7 92 8 29 9 91 10 30 11 31 12 32 13
REMARK SMILES IDX 85 14 33 15 90 16 84 17 86 18 34 19 89 20 83 21 82 22 35 24
REMARK SMILES IDX 69 25 48 26 68 27 49 28 52 29 67 30 87 31 50 32 51 33 66 35
REMARK SMILES IDX 88 36 53 37 36 38 37 39 46 40 38 41 39 42 45 43 47 44 40 45
REMARK SMILES IDX 41 46 42 47 43 48 44 49 70 50 71 51 80 52 72 53 73 54 79 55
REMARK SMILES IDX 81 56 74 57 75 58 76 59 77 60 78 61 54 62 55 63 64 64 56 65
REMARK SMILES IDX 57 66 63 67 65 68 58 69 59 70 60 71 61 72 62 73 5 74 6 75
REMARK SMILES IDX 7 76 8 77 9 79 10 80 11 81 18 82 12 83 19 84 13 85 16 86
REMARK SMILES IDX 14 87 15 88 17 89 20 90 21 91 22 92 26 93 23 94 25 95 24 96
REMARK H PARENT 3 5 86 23 52 34 7 78
REMARK Flexibility Score: inf
ROOT
ATOM      1  C   UNL A   1      35.356  29.533  27.786  1.00  0.00     0.118 C 
ENDROOT
BRANCH   1   2
ATOM      2  N   UNL A   1      35.297  30.414  28.954  1.00  0.00    -0.352 N 
ATOM      3  O   UNL A   1      35.969  31.322  30.901  1.00  0.00    -0.269 OA
ATOM      4  C   UNL A   1      36.263  30.703  29.884  1.00  0.00     0.251 C 
ATOM      5  H   UNL A   1      34.435  30.868  29.091  1.00  0.00     0.163 HD
BRANCH   4   6
ATOM      6  C   UNL A   1      37.642  30.243  29.645  1.00  0.00     0.039 A 
ATOM      7  C   UNL A   1      38.170  30.306  28.356  1.00  0.00     0.014 A 
ATOM      8  C   UNL A   1      38.401  29.731  30.700  1.00  0.00     0.014 A 
ATOM      9  C   UNL A   1      39.369  29.684  28.077  1.00  0.00     0.010 A 
ATOM     10  C   UNL A   1      39.686  29.253  30.444  1.00  0.00     0.010 A 
ATOM     11  C   UNL A   1      40.172  29.220  29.128  1.00  0.00    -0.014 A 
BRANCH  11  12
ATOM     12  C   UNL A   1      41.578  28.885  28.819  1.00  0.00     0.031 A 
ATOM     13  C   UNL A   1      42.661  29.917  28.875  1.00  0.00     0.074 A 
ATOM     14  C   UNL A   1      41.845  27.601  28.501  1.00  0.00     0.049 A 
ATOM     15  N   UNL A   1      43.930  29.774  28.601  1.00  0.00    -0.248 NA
ATOM     16  C   UNL A   1      42.283  31.281  29.278  1.00  0.00     0.031 C 
ATOM     17  C   UNL A   1      40.841  26.530  28.410  1.00  0.00     0.029 A 
ATOM     18  N   UNL A   1      43.021  26.967  28.210  1.00  0.00    -0.354 N 
ATOM     19  C   UNL A   1      44.500  31.030  28.764  1.00  0.00     0.074 A 
ATOM     20  C   UNL A   1      43.437  31.928  29.161  1.00  0.00     0.031 C 
ATOM     21  C   UNL A   1      41.449  25.371  28.137  1.00  0.00     0.029 A 
ATOM     22  C   UNL A   1      42.863  25.631  27.923  1.00  0.00     0.049 A 
ATOM     23  H   UNL A   1      43.894  27.421  28.208  1.00  0.00     0.167 HD
ATOM     24  C   UNL A   1      45.793  31.384  28.585  1.00  0.00     0.037 A 
ATOM     25  C   UNL A   1      43.747  24.723  27.475  1.00  0.00     0.037 A 
ATOM     26  C   UNL A   1      46.832  30.457  28.211  1.00  0.00     0.049 A 
ATOM     27  C   UNL A   1      45.162  25.165  27.255  1.00  0.00     0.074 A 
ATOM     28  C   UNL A   1      48.187  30.700  28.074  1.00  0.00     0.029 A 
ATOM     29  N   UNL A   1      46.633  29.120  27.898  1.00  0.00    -0.354 N 
ATOM     30  N   UNL A   1      45.697  26.341  27.478  1.00  0.00    -0.248 NA
ATOM     31  C   UNL A   1      46.091  24.168  26.713  1.00  0.00     0.031 C 
ATOM     32  C   UNL A   1      48.796  29.530  27.612  1.00  0.00     0.029 A 
ATOM     33  C   UNL A   1      47.833  28.538  27.522  1.00  0.00     0.049 A 
ATOM     34  H   UNL A   1      45.766  28.653  27.939  1.00  0.00     0.167 HD
ATOM     35  C   UNL A   1      47.028  26.225  27.106  1.00  0.00     0.074 A 
ATOM     36  C   UNL A   1      47.224  24.853  26.682  1.00  0.00     0.031 C 
ATOM     37  C   UNL A   1      48.000  27.169  27.103  1.00  0.00     0.037 A 
BRANCH  24  38
ATOM     38  C   UNL A   1      46.177  32.827  28.759  1.00  0.00     0.058 A 
ATOM     39  C   UNL A   1      46.651  33.331  29.979  1.00  0.00     0.135 A 
ATOM     40  C   UNL A   1      46.186  33.687  27.646  1.00  0.00     0.135 A 
ATOM     41  F   UNL A   1      46.646  32.559  31.077  1.00  0.00    -0.206 F 
ATOM     42  C   UNL A   1      47.128  34.633  30.089  1.00  0.00     0.059 A 
ATOM     43  C   UNL A   1      46.680  34.985  27.728  1.00  0.00     0.059 A 
ATOM     44  F   UNL A   1      45.736  33.257  26.458  1.00  0.00    -0.206 F 
ATOM     45  C   UNL A   1      47.151  35.448  28.954  1.00  0.00     0.060 A 
BRANCH  45  46
ATOM     46  S   UNL A   1      47.837  37.112  29.102  1.00  0.00     0.124 S 
ATOM     47  O   UNL A   1      49.254  36.827  29.305  1.00  0.00    -0.237 OA
ATOM     48  O   UNL A   1      47.488  37.706  27.815  1.00  0.00    -0.237 OA
ATOM     49  O   UNL A   1      47.139  37.668  30.257  1.00  0.00    -0.744 OA
ENDBRANCH  45  46
ENDBRANCH  24  38
BRANCH  25  50
ATOM     50  C   UNL A   1      43.298  23.348  27.134  1.00  0.00     0.058 A 
ATOM     51  C   UNL A   1      43.118  22.375  28.126  1.00  0.00     0.135 A 
ATOM     52  C   UNL A   1      43.047  22.979  25.802  1.00  0.00     0.135 A 
ATOM     53  F   UNL A   1      43.340  22.680  29.413  1.00  0.00    -0.206 F 
ATOM     54  C   UNL A   1      42.748  21.073  27.806  1.00  0.00     0.059 A 
ATOM     55  C   UNL A   1      42.637  21.696  25.461  1.00  0.00     0.059 A 
ATOM     56  F   UNL A   1      43.178  23.880  24.815  1.00  0.00    -0.206 F 
ATOM     57  C   UNL A   1      42.514  20.743  26.469  1.00  0.00     0.060 A 
BRANCH  57  58
ATOM     58  S   UNL A   1      42.043  19.051  26.063  1.00  0.00     0.124 S 
ATOM     59  O   UNL A   1      42.445  18.340  27.270  1.00  0.00    -0.237 OA
ATOM     60  O   UNL A   1      40.605  19.177  25.843  1.00  0.00    -0.237 OA
ATOM     61  O   UNL A   1      42.829  18.761  24.866  1.00  0.00    -0.744 OA
ENDBRANCH  57  58
ENDBRANCH  25  50
BRANCH  37  62
ATOM     62  C   UNL A   1      49.360  26.743  26.633  1.00  0.00     0.058 A 
ATOM     63  C   UNL A   1      50.283  26.151  27.508  1.00  0.00     0.135 A 
ATOM     64  C   UNL A   1      49.726  26.885  25.284  1.00  0.00     0.135 A 
ATOM     65  F   UNL A   1      49.987  26.009  28.809  1.00  0.00    -0.206 F 
ATOM     66  C   UNL A   1      51.532  25.729  27.065  1.00  0.00     0.059 A 
ATOM     67  C   UNL A   1      50.955  26.439  24.814  1.00  0.00     0.059 A 
ATOM     68  F   UNL A   1      48.875  27.442  24.408  1.00  0.00    -0.206 F 
ATOM     69  C   UNL A   1      51.854  25.871  25.714  1.00  0.00     0.060 A 
BRANCH  69  70
ATOM     70  S   UNL A   1      53.458  25.272  25.147  1.00  0.00     0.124 S 
ATOM     71  O   UNL A   1      54.366  25.931  26.079  1.00  0.00    -0.237 OA
ATOM     72  O   UNL A   1      53.324  23.826  25.308  1.00  0.00    -0.237 OA
ATOM     73  O   UNL A   1      53.527  25.740  23.766  1.00  0.00    -0.744 OA
ENDBRANCH  69  70
ENDBRANCH  37  62
ENDBRANCH  11  12
ENDBRANCH   4   6
ENDBRANCH   1   2
BRANCH   1  74
ATOM     74  C   UNL A   1      33.994  28.968  27.436  1.00  0.00     0.042 C 
BRANCH  74  75
ATOM     75  C   UNL A   1      33.400  29.735  26.273  1.00  0.00     0.117 C 
BRANCH  75  76
ATOM     76  N   UNL A   1      33.953  29.359  25.009  1.00  0.00    -0.356 N 
ATOM     77  C   UNL A   1      33.390  28.739  23.956  1.00  0.00     0.224 C 
ATOM     78  H   UNL A   1      34.903  29.592  24.890  1.00  0.00     0.163 HD
ATOM     79  O   UNL A   1      34.026  28.799  22.898  1.00  0.00    -0.275 OA
BRANCH  77  80
ATOM     80  C   UNL A   1      32.051  28.010  23.969  1.00  0.00     0.097 C 
ATOM     81  C   UNL A   1      30.951  28.152  22.873  1.00  0.00     0.020 C 
ATOM     82  C   UNL A   1      32.126  26.482  24.155  1.00  0.00     0.119 C 
ATOM     83  C   UNL A   1      31.095  26.874  22.030  1.00  0.00     0.014 C 
ATOM     84  C   UNL A   1      29.619  27.844  23.644  1.00  0.00     0.097 C 
ATOM     85  C   UNL A   1      31.059  25.942  23.201  1.00  0.00     0.047 C 
ATOM     86  C   UNL A   1      31.497  26.086  25.460  1.00  0.00     0.310 C 
ATOM     87  C   UNL A   1      29.781  26.321  23.945  1.00  0.00     0.194 C 
ATOM     88  O   UNL A   1      30.127  26.066  25.315  1.00  0.00    -0.461 OA
ATOM     89  O   UNL A   1      32.085  25.846  26.494  1.00  0.00    -0.252 OA
BRANCH  84  90
ATOM     90  S   UNL A   1      27.996  28.343  22.916  1.00  0.00    -0.119 SA
BRANCH  90  91
ATOM     91  C   UNL A   1      28.169  30.063  22.504  1.00  0.00     0.008 A 
ATOM     92  C   UNL A   1      28.040  30.479  21.174  1.00  0.00     0.015 A 
ATOM     93  C   UNL A   1      28.471  31.010  23.488  1.00  0.00     0.015 A 
ATOM     94  C   UNL A   1      28.132  31.834  20.847  1.00  0.00     0.001 A 
ATOM     95  C   UNL A   1      28.526  32.369  23.166  1.00  0.00     0.001 A 
ATOM     96  C   UNL A   1      28.349  32.781  21.846  1.00  0.00     0.000 A 
ENDBRANCH  90  91
ENDBRANCH  84  90
ENDBRANCH  77  80
ENDBRANCH  75  76
ENDBRANCH  74  75
ENDBRANCH   1  74
TORSDOF 15
ENDMDL
