MODEL 1
REMARK VINA RESULT:     -10.7      0.000      0.000
REMARK SMILES C[C@H]1[NH2+]CC[C@H]1C(=O)N1CCC(C(=O)NCCCNC(=O)c2ccc(-c3c4nc(c(-c5c(F)cc(S(=O)(=O)[O-])cc5F)c5ccc([nH]5)c(-c5c(F)cc(S(=O)(=O)[O-])cc5F)c5nc(c(-c6c(F)cc(S(=O)(=O)[O-])cc6F)c6ccc3[nH]6)C=C5)C=C4)cc2)CC1
REMARK SMILES IDX 18 1 17 2 16 3 15 4 13 5 14 6 12 8 7 9 8 10 9 11 10 12 89 13
REMARK SMILES IDX 11 14 88 15 6 16 1 17 2 18 3 19 4 20 5 23 19 24 20 25 21 27
REMARK SMILES IDX 22 28 23 29 87 30 24 31 86 32 25 33 26 34 27 35 80 36 28 37
REMARK SMILES IDX 85 38 79 39 81 40 29 41 84 42 78 43 77 44 30 46 64 47 43 48
REMARK SMILES IDX 63 49 44 50 47 51 62 52 82 53 45 54 46 55 61 57 83 58 48 59
REMARK SMILES IDX 31 60 32 61 41 62 33 63 34 64 40 65 42 66 35 67 36 68 37 69
REMARK SMILES IDX 38 70 39 71 65 72 66 73 75 74 67 75 68 76 74 77 76 78 69 79
REMARK SMILES IDX 70 80 71 81 72 82 73 83 49 84 50 85 59 86 51 87 52 88 58 89
REMARK SMILES IDX 60 90 53 91 54 92 55 93 56 94 57 95
REMARK H PARENT 15 7 3 21 3 22 19 26 81 45 47 56
REMARK Flexibility Score: inf
ROOT
ATOM      1  C   UNL A   1      34.290  32.442  28.040  1.00  0.00     0.118 C 
ENDROOT
BRANCH   1   2
ATOM      2  C   UNL A   1      33.245  33.547  28.042  1.00  0.00     0.042 C 
BRANCH   2   3
ATOM      3  C   UNL A   1      33.700  34.810  28.760  1.00  0.00     0.117 C 
BRANCH   3   4
ATOM      4  N   UNL A   1      33.218  34.855  30.135  1.00  0.00    -0.356 N 
ATOM      5  C   UNL A   1      33.841  34.581  31.310  1.00  0.00     0.223 C 
ATOM      6  O   UNL A   1      33.178  34.662  32.348  1.00  0.00    -0.275 OA
ATOM      7  H   UNL A   1      32.277  35.131  30.227  1.00  0.00     0.163 HD
BRANCH   5   8
ATOM      8  C   UNL A   1      35.326  34.255  31.375  1.00  0.00     0.082 C 
ATOM      9  C   UNL A   1      37.466  32.365  34.049  1.00  0.00     0.231 C 
ATOM     10  O   UNL A   1      36.550  32.574  34.844  1.00  0.00    -0.274 OA
ATOM     11  N   UNL A   1      37.500  32.992  32.810  1.00  0.00    -0.342 N 
ATOM     12  C   UNL A   1      37.465  34.448  32.756  1.00  0.00     0.120 C 
ATOM     13  C   UNL A   1      36.953  32.340  31.638  1.00  0.00     0.120 C 
ATOM     14  C   UNL A   1      36.067  35.002  32.491  1.00  0.00     0.035 C 
ATOM     15  C   UNL A   1      35.514  32.737  31.378  1.00  0.00     0.035 C 
BRANCH   9  16
ATOM     16  C   UNL A   1      38.684  31.517  34.440  1.00  0.00     0.142 C 
ATOM     17  C   UNL A   1      37.943  29.327  33.177  1.00  0.00     0.076 C 
ATOM     18  C   UNL A   1      38.657  29.988  34.346  1.00  0.00     0.192 C 
ATOM     19  N   UNL A   1      40.078  29.575  34.310  1.00  0.00    -0.343 N 
ATOM     20  C   UNL A   1      40.906  30.742  34.010  1.00  0.00     0.261 C 
ATOM     21  H   UNL A   1      40.210  28.867  33.588  1.00  0.00     0.346 HD
ATOM     22  H   UNL A   1      40.347  29.186  35.214  1.00  0.00     0.346 HD
ATOM     23  C   UNL A   1      39.976  31.909  33.745  1.00  0.00     0.081 C 
ENDBRANCH   9  16
ENDBRANCH   5   8
ENDBRANCH   3   4
ENDBRANCH   2   3
ENDBRANCH   1   2
BRANCH   1  24
ATOM     24  N   UNL A   1      33.701  31.117  27.906  1.00  0.00    -0.352 N 
ATOM     25  C   UNL A   1      34.310  29.887  27.872  1.00  0.00     0.251 C 
ATOM     26  H   UNL A   1      32.720  31.100  27.830  1.00  0.00     0.163 HD
ATOM     27  O   UNL A   1      33.657  28.894  27.553  1.00  0.00    -0.269 OA
BRANCH  25  28
ATOM     28  C   UNL A   1      35.745  29.761  28.196  1.00  0.00     0.039 A 
ATOM     29  C   UNL A   1      36.118  29.363  29.482  1.00  0.00     0.014 A 
ATOM     30  C   UNL A   1      36.723  30.026  27.234  1.00  0.00     0.014 A 
ATOM     31  C   UNL A   1      37.467  29.159  29.778  1.00  0.00     0.010 A 
ATOM     32  C   UNL A   1      38.056  29.729  27.500  1.00  0.00     0.010 A 
ATOM     33  C   UNL A   1      38.443  29.296  28.776  1.00  0.00    -0.014 A 
BRANCH  33  34
ATOM     34  C   UNL A   1      39.871  28.979  29.041  1.00  0.00     0.031 A 
ATOM     35  C   UNL A   1      40.788  30.029  29.607  1.00  0.00     0.074 A 
ATOM     36  C   UNL A   1      40.353  27.765  28.708  1.00  0.00     0.049 A 
ATOM     37  N   UNL A   1      42.072  29.961  29.848  1.00  0.00    -0.248 NA
ATOM     38  C   UNL A   1      40.191  31.339  29.918  1.00  0.00     0.031 C 
ATOM     39  C   UNL A   1      39.574  26.683  28.100  1.00  0.00     0.029 A 
ATOM     40  N   UNL A   1      41.615  27.238  28.823  1.00  0.00    -0.354 N 
ATOM     41  C   UNL A   1      42.438  31.214  30.324  1.00  0.00     0.074 A 
ATOM     42  C   UNL A   1      41.253  32.043  30.284  1.00  0.00     0.031 C 
ATOM     43  C   UNL A   1      40.368  25.615  27.922  1.00  0.00     0.029 A 
ATOM     44  C   UNL A   1      41.720  25.948  28.358  1.00  0.00     0.049 A 
ATOM     45  H   UNL A   1      42.375  27.737  29.202  1.00  0.00     0.167 HD
ATOM     46  C   UNL A   1      43.645  31.629  30.777  1.00  0.00     0.037 A 
ATOM     47  C   UNL A   1      42.787  25.129  28.279  1.00  0.00     0.037 A 
ATOM     48  C   UNL A   1      44.814  30.790  30.830  1.00  0.00     0.049 A 
ATOM     49  C   UNL A   1      44.120  25.616  28.780  1.00  0.00     0.074 A 
ATOM     50  C   UNL A   1      46.068  31.095  31.330  1.00  0.00     0.029 A 
ATOM     51  N   UNL A   1      44.878  29.485  30.363  1.00  0.00    -0.354 N 
ATOM     52  N   UNL A   1      44.430  26.781  29.297  1.00  0.00    -0.248 NA
ATOM     53  C   UNL A   1      45.246  24.677  28.692  1.00  0.00     0.031 C 
ATOM     54  C   UNL A   1      46.904  29.996  31.113  1.00  0.00     0.029 A 
ATOM     55  C   UNL A   1      46.156  28.982  30.535  1.00  0.00     0.049 A 
ATOM     56  H   UNL A   1      44.124  28.990  29.968  1.00  0.00     0.167 HD
ATOM     57  C   UNL A   1      45.781  26.707  29.619  1.00  0.00     0.074 A 
ATOM     58  C   UNL A   1      46.223  25.376  29.253  1.00  0.00     0.031 C 
ATOM     59  C   UNL A   1      46.582  27.654  30.167  1.00  0.00     0.037 A 
BRANCH  46  60
ATOM     60  C   UNL A   1      43.764  33.054  31.251  1.00  0.00     0.058 A 
ATOM     61  C   UNL A   1      43.714  33.386  32.615  1.00  0.00     0.135 A 
ATOM     62  C   UNL A   1      43.971  34.097  30.334  1.00  0.00     0.135 A 
ATOM     63  F   UNL A   1      43.503  32.433  33.537  1.00  0.00    -0.206 F 
ATOM     64  C   UNL A   1      43.836  34.702  33.050  1.00  0.00     0.059 A 
ATOM     65  C   UNL A   1      44.127  35.416  30.748  1.00  0.00     0.059 A 
ATOM     66  F   UNL A   1      44.026  33.839  29.017  1.00  0.00    -0.206 F 
ATOM     67  C   UNL A   1      44.044  35.711  32.107  1.00  0.00     0.060 A 
BRANCH  67  68
ATOM     68  S   UNL A   1      44.211  37.411  32.691  1.00  0.00     0.124 S 
ATOM     69  O   UNL A   1      44.027  38.163  31.453  1.00  0.00    -0.237 OA
ATOM     70  O   UNL A   1      43.126  37.515  33.662  1.00  0.00    -0.237 OA
ATOM     71  O   UNL A   1      45.557  37.449  33.252  1.00  0.00    -0.744 OA
ENDBRANCH  67  68
ENDBRANCH  46  60
BRANCH  47  72
ATOM     72  C   UNL A   1      42.632  23.760  27.717  1.00  0.00     0.058 A 
ATOM     73  C   UNL A   1      42.467  22.647  28.555  1.00  0.00     0.135 A 
ATOM     74  C   UNL A   1      42.631  23.537  26.330  1.00  0.00     0.135 A 
ATOM     75  F   UNL A   1      42.469  22.805  29.888  1.00  0.00    -0.206 F 
ATOM     76  C   UNL A   1      42.325  21.362  28.043  1.00  0.00     0.059 A 
ATOM     77  C   UNL A   1      42.460  22.265  25.794  1.00  0.00     0.059 A 
ATOM     78  F   UNL A   1      42.767  24.569  25.483  1.00  0.00    -0.206 F 
ATOM     79  C   UNL A   1      42.319  21.181  26.659  1.00  0.00     0.060 A 
BRANCH  79  80
ATOM     80  S   UNL A   1      42.089  19.514  26.004  1.00  0.00     0.124 S 
ATOM     81  O   UNL A   1      40.649  19.484  25.775  1.00  0.00    -0.237 OA
ATOM     82  O   UNL A   1      42.926  19.536  24.809  1.00  0.00    -0.237 OA
ATOM     83  O   UNL A   1      42.574  18.659  27.084  1.00  0.00    -0.744 OA
ENDBRANCH  79  80
ENDBRANCH  47  72
BRANCH  59  84
ATOM     84  C   UNL A   1      48.015  27.279  30.434  1.00  0.00     0.058 A 
ATOM     85  C   UNL A   1      49.051  27.649  29.562  1.00  0.00     0.135 A 
ATOM     86  C   UNL A   1      48.361  26.583  31.604  1.00  0.00     0.135 A 
ATOM     87  F   UNL A   1      48.776  28.308  28.426  1.00  0.00    -0.206 F 
ATOM     88  C   UNL A   1      50.376  27.320  29.828  1.00  0.00     0.059 A 
ATOM     89  C   UNL A   1      49.683  26.272  31.906  1.00  0.00     0.059 A 
ATOM     90  F   UNL A   1      47.411  26.215  32.479  1.00  0.00    -0.206 F 
ATOM     91  C   UNL A   1      50.683  26.635  31.005  1.00  0.00     0.060 A 
BRANCH  91  92
ATOM     92  S   UNL A   1      52.410  26.244  31.353  1.00  0.00     0.124 S 
ATOM     93  O   UNL A   1      52.819  27.398  32.148  1.00  0.00    -0.237 OA
ATOM     94  O   UNL A   1      52.304  24.982  32.079  1.00  0.00    -0.237 OA
ATOM     95  O   UNL A   1      53.013  26.150  30.028  1.00  0.00    -0.744 OA
ENDBRANCH  91  92
ENDBRANCH  59  84
ENDBRANCH  33  34
ENDBRANCH  25  28
ENDBRANCH   1  24
TORSDOF 14
ENDMDL
MODEL 2
REMARK VINA RESULT:     -10.6      2.879      5.539
REMARK SMILES C[C@H]1[NH2+]CC[C@H]1C(=O)N1CCC(C(=O)NCCCNC(=O)c2ccc(-c3c4nc(c(-c5c(F)cc(S(=O)(=O)[O-])cc5F)c5ccc([nH]5)c(-c5c(F)cc(S(=O)(=O)[O-])cc5F)c5nc(c(-c6c(F)cc(S(=O)(=O)[O-])cc6F)c6ccc3[nH]6)C=C5)C=C4)cc2)CC1
REMARK SMILES IDX 18 1 17 2 16 3 15 4 13 5 14 6 12 8 7 9 8 10 9 11 10 12 89 13
REMARK SMILES IDX 11 14 88 15 6 16 1 17 2 18 3 19 4 20 5 23 19 24 20 25 21 27
REMARK SMILES IDX 22 28 23 29 87 30 24 31 86 32 25 33 26 34 27 35 80 36 28 37
REMARK SMILES IDX 85 38 79 39 81 40 29 41 84 42 78 43 77 44 30 46 64 47 43 48
REMARK SMILES IDX 63 49 44 50 47 51 62 52 82 53 45 54 46 55 61 57 83 58 48 59
REMARK SMILES IDX 31 60 32 61 41 62 33 63 34 64 40 65 42 66 35 67 36 68 37 69
REMARK SMILES IDX 38 70 39 71 65 72 66 73 75 74 67 75 68 76 74 77 76 78 69 79
REMARK SMILES IDX 70 80 71 81 72 82 73 83 49 84 50 85 59 86 51 87 52 88 58 89
REMARK SMILES IDX 60 90 53 91 54 92 55 93 56 94 57 95
REMARK H PARENT 15 7 3 21 3 22 19 26 81 45 47 56
REMARK Flexibility Score: inf
ROOT
ATOM      1  C   UNL A   1      33.542  28.559  27.163  1.00  0.00     0.118 C 
ENDROOT
BRANCH   1   2
ATOM      2  C   UNL A   1      32.223  27.841  27.402  1.00  0.00     0.042 C 
BRANCH   2   3
ATOM      3  C   UNL A   1      31.857  26.861  26.297  1.00  0.00     0.117 C 
BRANCH   3   4
ATOM      4  N   UNL A   1      30.545  26.266  26.513  1.00  0.00    -0.356 N 
ATOM      5  C   UNL A   1      30.109  24.987  26.375  1.00  0.00     0.223 C 
ATOM      6  O   UNL A   1      28.915  24.757  26.588  1.00  0.00    -0.275 OA
ATOM      7  H   UNL A   1      29.854  26.901  26.810  1.00  0.00     0.163 HD
BRANCH   5   8
ATOM      8  C   UNL A   1      31.059  23.847  26.039  1.00  0.00     0.082 C 
ATOM      9  C   UNL A   1      34.960  23.690  25.794  1.00  0.00     0.231 C 
ATOM     10  O   UNL A   1      34.943  24.917  25.687  1.00  0.00    -0.274 OA
ATOM     11  N   UNL A   1      33.790  22.946  25.711  1.00  0.00    -0.342 N 
ATOM     12  C   UNL A   1      32.960  23.069  24.521  1.00  0.00     0.120 C 
ATOM     13  C   UNL A   1      33.064  22.579  26.909  1.00  0.00     0.120 C 
ATOM     14  C   UNL A   1      31.792  24.036  24.705  1.00  0.00     0.035 C 
ATOM     15  C   UNL A   1      31.964  23.568  27.240  1.00  0.00     0.035 C 
BRANCH   9  16
ATOM     16  C   UNL A   1      36.281  22.915  25.882  1.00  0.00     0.142 C 
ATOM     17  C   UNL A   1      36.687  22.714  23.288  1.00  0.00     0.076 C 
ATOM     18  C   UNL A   1      36.832  22.133  24.685  1.00  0.00     0.192 C 
ATOM     19  N   UNL A   1      38.275  21.959  24.965  1.00  0.00    -0.343 N 
ATOM     20  C   UNL A   1      38.669  22.880  26.030  1.00  0.00     0.261 C 
ATOM     21  H   UNL A   1      38.813  22.162  24.122  1.00  0.00     0.346 HD
ATOM     22  H   UNL A   1      38.457  20.999  25.255  1.00  0.00     0.346 HD
ATOM     23  C   UNL A   1      37.464  23.736  26.365  1.00  0.00     0.081 C 
ENDBRANCH   9  16
ENDBRANCH   5   8
ENDBRANCH   3   4
ENDBRANCH   2   3
ENDBRANCH   1   2
BRANCH   1  24
ATOM     24  N   UNL A   1      33.495  29.961  27.554  1.00  0.00    -0.352 N 
ATOM     25  C   UNL A   1      34.435  30.723  28.201  1.00  0.00     0.251 C 
ATOM     26  H   UNL A   1      32.664  30.434  27.317  1.00  0.00     0.163 HD
ATOM     27  O   UNL A   1      34.130  31.839  28.621  1.00  0.00    -0.269 OA
BRANCH  25  28
ATOM     28  C   UNL A   1      35.799  30.196  28.412  1.00  0.00     0.039 A 
ATOM     29  C   UNL A   1      36.708  30.222  27.352  1.00  0.00     0.014 A 
ATOM     30  C   UNL A   1      36.186  29.685  29.653  1.00  0.00     0.014 A 
ATOM     31  C   UNL A   1      38.023  29.805  27.560  1.00  0.00     0.010 A 
ATOM     32  C   UNL A   1      37.519  29.362  29.885  1.00  0.00     0.010 A 
ATOM     33  C   UNL A   1      38.452  29.415  28.840  1.00  0.00    -0.014 A 
BRANCH  33  34
ATOM     34  C   UNL A   1      39.872  29.071  29.107  1.00  0.00     0.031 A 
ATOM     35  C   UNL A   1      40.808  30.102  29.679  1.00  0.00     0.074 A 
ATOM     36  C   UNL A   1      40.332  27.849  28.772  1.00  0.00     0.049 A 
ATOM     37  N   UNL A   1      42.090  30.008  29.922  1.00  0.00    -0.248 NA
ATOM     38  C   UNL A   1      40.236  31.421  29.992  1.00  0.00     0.031 C 
ATOM     39  C   UNL A   1      39.535  26.783  28.159  1.00  0.00     0.029 A 
ATOM     40  N   UNL A   1      41.584  27.298  28.888  1.00  0.00    -0.354 N 
ATOM     41  C   UNL A   1      42.479  31.253  30.403  1.00  0.00     0.074 A 
ATOM     42  C   UNL A   1      41.310  32.104  30.362  1.00  0.00     0.031 C 
ATOM     43  C   UNL A   1      40.309  25.701  27.979  1.00  0.00     0.029 A 
ATOM     44  C   UNL A   1      41.665  26.007  28.419  1.00  0.00     0.049 A 
ATOM     45  H   UNL A   1      42.352  27.781  29.270  1.00  0.00     0.167 HD
ATOM     46  C   UNL A   1      43.692  31.644  30.859  1.00  0.00     0.037 A 
ATOM     47  C   UNL A   1      42.717  25.168  28.340  1.00  0.00     0.037 A 
ATOM     48  C   UNL A   1      44.845  30.783  30.912  1.00  0.00     0.049 A 
ATOM     49  C   UNL A   1      44.058  25.628  28.844  1.00  0.00     0.074 A 
ATOM     50  C   UNL A   1      46.104  31.063  31.415  1.00  0.00     0.029 A 
ATOM     51  N   UNL A   1      44.885  29.478  30.441  1.00  0.00    -0.354 N 
ATOM     52  N   UNL A   1      44.389  26.786  29.366  1.00  0.00    -0.248 NA
ATOM     53  C   UNL A   1      45.167  24.668  28.756  1.00  0.00     0.031 C 
ATOM     54  C   UNL A   1      46.920  29.948  31.197  1.00  0.00     0.029 A 
ATOM     55  C   UNL A   1      46.154  28.950  30.614  1.00  0.00     0.049 A 
ATOM     56  H   UNL A   1      44.123  28.998  30.043  1.00  0.00     0.167 HD
ATOM     57  C   UNL A   1      45.737  26.685  29.690  1.00  0.00     0.074 A 
ATOM     58  C   UNL A   1      46.155  25.347  29.322  1.00  0.00     0.031 C 
ATOM     59  C   UNL A   1      46.555  27.615  30.243  1.00  0.00     0.037 A 
BRANCH  46  60
ATOM     60  C   UNL A   1      43.837  33.064  31.338  1.00  0.00     0.058 A 
ATOM     61  C   UNL A   1      43.628  33.417  32.681  1.00  0.00     0.135 A 
ATOM     62  C   UNL A   1      44.230  34.080  30.451  1.00  0.00     0.135 A 
ATOM     63  F   UNL A   1      43.237  32.492  33.571  1.00  0.00    -0.206 F 
ATOM     64  C   UNL A   1      43.774  34.729  33.122  1.00  0.00     0.059 A 
ATOM     65  C   UNL A   1      44.413  35.393  30.876  1.00  0.00     0.059 A 
ATOM     66  F   UNL A   1      44.444  33.802  29.155  1.00  0.00    -0.206 F 
ATOM     67  C   UNL A   1      44.169  35.710  32.210  1.00  0.00     0.060 A 
BRANCH  67  68
ATOM     68  S   UNL A   1      44.364  37.404  32.802  1.00  0.00     0.124 S 
ATOM     69  O   UNL A   1      43.311  37.483  33.810  1.00  0.00    -0.237 OA
ATOM     70  O   UNL A   1      45.731  37.400  33.314  1.00  0.00    -0.237 OA
ATOM     71  O   UNL A   1      44.148  38.211  31.606  1.00  0.00    -0.744 OA
ENDBRANCH  67  68
ENDBRANCH  46  60
BRANCH  47  72
ATOM     72  C   UNL A   1      42.537  23.804  27.773  1.00  0.00     0.058 A 
ATOM     73  C   UNL A   1      42.383  22.687  28.608  1.00  0.00     0.135 A 
ATOM     74  C   UNL A   1      42.502  23.590  26.386  1.00  0.00     0.135 A 
ATOM     75  F   UNL A   1      42.417  22.838  29.942  1.00  0.00    -0.206 F 
ATOM     76  C   UNL A   1      42.218  21.407  28.092  1.00  0.00     0.059 A 
ATOM     77  C   UNL A   1      42.308  22.323  25.846  1.00  0.00     0.059 A 
ATOM     78  F   UNL A   1      42.627  24.626  25.542  1.00  0.00    -0.206 F 
ATOM     79  C   UNL A   1      42.178  21.235  26.707  1.00  0.00     0.060 A 
BRANCH  79  80
ATOM     80  S   UNL A   1      41.918  19.574  26.048  1.00  0.00     0.124 S 
ATOM     81  O   UNL A   1      42.316  18.743  27.178  1.00  0.00    -0.237 OA
ATOM     82  O   UNL A   1      40.493  19.588  25.736  1.00  0.00    -0.237 OA
ATOM     83  O   UNL A   1      42.806  19.529  24.889  1.00  0.00    -0.744 OA
ENDBRANCH  79  80
ENDBRANCH  47  72
BRANCH  59  84
ATOM     84  C   UNL A   1      47.980  27.213  30.512  1.00  0.00     0.058 A 
ATOM     85  C   UNL A   1      48.994  27.400  29.559  1.00  0.00     0.135 A 
ATOM     86  C   UNL A   1      48.344  26.678  31.759  1.00  0.00     0.135 A 
ATOM     87  F   UNL A   1      48.701  27.900  28.349  1.00  0.00    -0.206 F 
ATOM     88  C   UNL A   1      50.314  27.048  29.824  1.00  0.00     0.059 A 
ATOM     89  C   UNL A   1      49.662  26.349  32.057  1.00  0.00     0.059 A 
ATOM     90  F   UNL A   1      47.416  26.488  32.711  1.00  0.00    -0.206 F 
ATOM     91  C   UNL A   1      50.639  26.527  31.078  1.00  0.00     0.060 A 
BRANCH  91  92
ATOM     92  S   UNL A   1      52.361  26.106  31.419  1.00  0.00     0.124 S 
ATOM     93  O   UNL A   1      52.233  24.752  31.951  1.00  0.00    -0.237 OA
ATOM     94  O   UNL A   1      52.974  26.212  30.099  1.00  0.00    -0.237 OA
ATOM     95  O   UNL A   1      52.776  27.121  32.382  1.00  0.00    -0.744 OA
ENDBRANCH  91  92
ENDBRANCH  59  84
ENDBRANCH  33  34
ENDBRANCH  25  28
ENDBRANCH   1  24
TORSDOF 14
ENDMDL
MODEL 3
REMARK VINA RESULT:     -10.6      4.944     11.741
REMARK SMILES C[C@H]1[NH2+]CC[C@H]1C(=O)N1CCC(C(=O)NCCCNC(=O)c2ccc(-c3c4nc(c(-c5c(F)cc(S(=O)(=O)[O-])cc5F)c5ccc([nH]5)c(-c5c(F)cc(S(=O)(=O)[O-])cc5F)c5nc(c(-c6c(F)cc(S(=O)(=O)[O-])cc6F)c6ccc3[nH]6)C=C5)C=C4)cc2)CC1
REMARK SMILES IDX 18 1 17 2 16 3 15 4 13 5 14 6 12 8 7 9 8 10 9 11 10 12 89 13
REMARK SMILES IDX 11 14 88 15 6 16 1 17 2 18 3 19 4 20 5 23 19 24 20 25 21 27
REMARK SMILES IDX 22 28 23 29 87 30 24 31 86 32 25 33 26 34 27 35 80 36 28 37
REMARK SMILES IDX 85 38 79 39 81 40 29 41 84 42 78 43 77 44 30 46 64 47 43 48
REMARK SMILES IDX 63 49 44 50 47 51 62 52 82 53 45 54 46 55 61 57 83 58 48 59
REMARK SMILES IDX 31 60 32 61 41 62 33 63 34 64 40 65 42 66 35 67 36 68 37 69
REMARK SMILES IDX 38 70 39 71 65 72 66 73 75 74 67 75 68 76 74 77 76 78 69 79
REMARK SMILES IDX 70 80 71 81 72 82 73 83 49 84 50 85 59 86 51 87 52 88 58 89
REMARK SMILES IDX 60 90 53 91 54 92 55 93 56 94 57 95
REMARK H PARENT 15 7 3 21 3 22 19 26 81 45 47 56
REMARK Flexibility Score: inf
ROOT
ATOM      1  C   UNL A   1      39.026  23.612  26.870  1.00  0.00     0.118 C 
ENDROOT
BRANCH   1   2
ATOM      2  C   UNL A   1      37.898  23.872  25.883  1.00  0.00     0.042 C 
BRANCH   2   3
ATOM      3  C   UNL A   1      37.018  22.655  25.634  1.00  0.00     0.117 C 
BRANCH   3   4
ATOM      4  N   UNL A   1      35.993  22.510  26.660  1.00  0.00    -0.356 N 
ATOM      5  C   UNL A   1      34.708  22.948  26.708  1.00  0.00     0.223 C 
ATOM      6  O   UNL A   1      34.057  22.717  27.731  1.00  0.00    -0.275 OA
ATOM      7  H   UNL A   1      36.282  22.007  27.455  1.00  0.00     0.163 HD
BRANCH   5   8
ATOM      8  C   UNL A   1      34.051  23.639  25.523  1.00  0.00     0.082 C 
ATOM      9  C   UNL A   1      31.387  26.497  25.320  1.00  0.00     0.231 C 
ATOM     10  O   UNL A   1      31.099  26.230  26.487  1.00  0.00    -0.274 OA
ATOM     11  N   UNL A   1      32.211  25.663  24.575  1.00  0.00    -0.342 N 
ATOM     12  C   UNL A   1      31.837  24.264  24.414  1.00  0.00     0.120 C 
ATOM     13  C   UNL A   1      33.636  25.911  24.498  1.00  0.00     0.120 C 
ATOM     14  C   UNL A   1      32.552  23.338  25.395  1.00  0.00     0.035 C 
ATOM     15  C   UNL A   1      34.413  25.126  25.535  1.00  0.00     0.035 C 
BRANCH   9  16
ATOM     16  C   UNL A   1      30.742  27.682  24.589  1.00  0.00     0.142 C 
ATOM     17  C   UNL A   1      32.741  29.364  24.918  1.00  0.00     0.076 C 
ATOM     18  C   UNL A   1      31.247  29.115  24.786  1.00  0.00     0.192 C 
ATOM     19  N   UNL A   1      30.757  29.865  23.607  1.00  0.00    -0.343 N 
ATOM     20  C   UNL A   1      30.330  28.915  22.581  1.00  0.00     0.261 C 
ATOM     21  H   UNL A   1      31.506  30.451  23.240  1.00  0.00     0.346 HD
ATOM     22  H   UNL A   1      29.971  30.457  23.877  1.00  0.00     0.346 HD
ATOM     23  C   UNL A   1      30.654  27.522  23.081  1.00  0.00     0.081 C 
ENDBRANCH   9  16
ENDBRANCH   5   8
ENDBRANCH   3   4
ENDBRANCH   2   3
ENDBRANCH   1   2
BRANCH   1  24
ATOM     24  N   UNL A   1      40.343  23.796  26.275  1.00  0.00    -0.352 N 
ATOM     25  C   UNL A   1      41.221  24.842  26.397  1.00  0.00     0.251 C 
ATOM     26  H   UNL A   1      40.649  23.058  25.699  1.00  0.00     0.163 HD
ATOM     27  O   UNL A   1      42.202  24.904  25.656  1.00  0.00    -0.269 OA
BRANCH  25  28
ATOM     28  C   UNL A   1      40.979  25.901  27.399  1.00  0.00     0.039 A 
ATOM     29  C   UNL A   1      40.024  25.686  28.395  1.00  0.00     0.014 A 
ATOM     30  C   UNL A   1      41.697  27.099  27.363  1.00  0.00     0.014 A 
ATOM     31  C   UNL A   1      39.844  26.642  29.396  1.00  0.00     0.010 A 
ATOM     32  C   UNL A   1      41.586  28.005  28.413  1.00  0.00     0.010 A 
ATOM     33  C   UNL A   1      40.656  27.788  29.439  1.00  0.00    -0.014 A 
BRANCH  33  34
ATOM     34  C   UNL A   1      40.555  28.764  30.555  1.00  0.00     0.031 A 
ATOM     35  C   UNL A   1      41.434  28.623  31.768  1.00  0.00     0.074 A 
ATOM     36  C   UNL A   1      39.624  29.738  30.502  1.00  0.00     0.049 A 
ATOM     37  N   UNL A   1      41.448  29.337  32.864  1.00  0.00    -0.248 NA
ATOM     38  C   UNL A   1      42.406  27.518  31.763  1.00  0.00     0.031 C 
ATOM     39  C   UNL A   1      38.675  29.942  29.403  1.00  0.00     0.029 A 
ATOM     40  N   UNL A   1      39.312  30.732  31.394  1.00  0.00    -0.354 N 
ATOM     41  C   UNL A   1      42.416  28.763  33.680  1.00  0.00     0.074 A 
ATOM     42  C   UNL A   1      42.927  27.606  32.978  1.00  0.00     0.031 C 
ATOM     43  C   UNL A   1      37.909  31.010  29.675  1.00  0.00     0.029 A 
ATOM     44  C   UNL A   1      38.277  31.540  30.984  1.00  0.00     0.049 A 
ATOM     45  H   UNL A   1      39.784  30.856  32.249  1.00  0.00     0.167 HD
ATOM     46  C   UNL A   1      42.855  29.176  34.893  1.00  0.00     0.037 A 
ATOM     47  C   UNL A   1      37.682  32.582  31.597  1.00  0.00     0.037 A 
ATOM     48  C   UNL A   1      42.353  30.340  35.575  1.00  0.00     0.049 A 
ATOM     49  C   UNL A   1      38.181  33.016  32.948  1.00  0.00     0.074 A 
ATOM     50  C   UNL A   1      42.775  30.880  36.777  1.00  0.00     0.029 A 
ATOM     51  N   UNL A   1      41.314  31.141  35.121  1.00  0.00    -0.354 N 
ATOM     52  N   UNL A   1      39.150  32.506  33.672  1.00  0.00    -0.248 NA
ATOM     53  C   UNL A   1      37.514  34.171  33.564  1.00  0.00     0.031 C 
ATOM     54  C   UNL A   1      41.955  31.972  37.078  1.00  0.00     0.029 A 
ATOM     55  C   UNL A   1      41.062  32.151  36.033  1.00  0.00     0.049 A 
ATOM     56  H   UNL A   1      40.829  31.009  34.275  1.00  0.00     0.167 HD
ATOM     57  C   UNL A   1      39.223  33.291  34.817  1.00  0.00     0.074 A 
ATOM     58  C   UNL A   1      38.213  34.321  34.680  1.00  0.00     0.031 C 
ATOM     59  C   UNL A   1      40.052  33.172  35.883  1.00  0.00     0.037 A 
BRANCH  46  60
ATOM     60  C   UNL A   1      43.935  28.366  35.561  1.00  0.00     0.058 A 
ATOM     61  C   UNL A   1      45.297  28.596  35.309  1.00  0.00     0.135 A 
ATOM     62  C   UNL A   1      43.605  27.371  36.496  1.00  0.00     0.135 A 
ATOM     63  F   UNL A   1      45.672  29.523  34.414  1.00  0.00    -0.206 F 
ATOM     64  C   UNL A   1      46.291  27.853  35.937  1.00  0.00     0.059 A 
ATOM     65  C   UNL A   1      44.583  26.636  37.160  1.00  0.00     0.059 A 
ATOM     66  F   UNL A   1      42.319  27.106  36.777  1.00  0.00    -0.206 F 
ATOM     67  C   UNL A   1      45.924  26.875  36.864  1.00  0.00     0.060 A 
BRANCH  67  68
ATOM     68  S   UNL A   1      47.227  25.928  37.677  1.00  0.00     0.124 S 
ATOM     69  O   UNL A   1      48.427  26.581  37.159  1.00  0.00    -0.237 OA
ATOM     70  O   UNL A   1      46.943  26.155  39.090  1.00  0.00    -0.237 OA
ATOM     71  O   UNL A   1      47.004  24.566  37.205  1.00  0.00    -0.744 OA
ENDBRANCH  67  68
ENDBRANCH  46  60
BRANCH  47  72
ATOM     72  C   UNL A   1      36.557  33.292  30.930  1.00  0.00     0.058 A 
ATOM     73  C   UNL A   1      36.782  34.124  29.823  1.00  0.00     0.135 A 
ATOM     74  C   UNL A   1      35.234  33.144  31.375  1.00  0.00     0.135 A 
ATOM     75  F   UNL A   1      38.030  34.306  29.363  1.00  0.00    -0.206 F 
ATOM     76  C   UNL A   1      35.740  34.797  29.192  1.00  0.00     0.059 A 
ATOM     77  C   UNL A   1      34.172  33.782  30.743  1.00  0.00     0.059 A 
ATOM     78  F   UNL A   1      34.961  32.345  32.419  1.00  0.00    -0.206 F 
ATOM     79  C   UNL A   1      34.437  34.616  29.658  1.00  0.00     0.060 A 
BRANCH  79  80
ATOM     80  S   UNL A   1      33.088  35.459  28.803  1.00  0.00     0.124 S 
ATOM     81  O   UNL A   1      33.811  36.454  28.020  1.00  0.00    -0.237 OA
ATOM     82  O   UNL A   1      32.478  34.370  28.047  1.00  0.00    -0.237 OA
ATOM     83  O   UNL A   1      32.274  35.985  29.896  1.00  0.00    -0.744 OA
ENDBRANCH  79  80
ENDBRANCH  47  72
BRANCH  59  84
ATOM     84  C   UNL A   1      39.924  34.195  36.979  1.00  0.00     0.058 A 
ATOM     85  C   UNL A   1      40.582  35.434  36.917  1.00  0.00     0.135 A 
ATOM     86  C   UNL A   1      39.090  33.952  38.084  1.00  0.00     0.135 A 
ATOM     87  F   UNL A   1      41.396  35.715  35.888  1.00  0.00    -0.206 F 
ATOM     88  C   UNL A   1      40.439  36.384  37.923  1.00  0.00     0.059 A 
ATOM     89  C   UNL A   1      38.906  34.900  39.084  1.00  0.00     0.059 A 
ATOM     90  F   UNL A   1      38.427  32.788  38.188  1.00  0.00    -0.206 F 
ATOM     91  C   UNL A   1      39.595  36.109  39.001  1.00  0.00     0.060 A 
BRANCH  91  92
ATOM     92  S   UNL A   1      39.393  37.365  40.282  1.00  0.00     0.124 S 
ATOM     93  O   UNL A   1      38.572  38.357  39.594  1.00  0.00    -0.237 OA
ATOM     94  O   UNL A   1      38.728  36.620  41.346  1.00  0.00    -0.237 OA
ATOM     95  O   UNL A   1      40.762  37.779  40.574  1.00  0.00    -0.744 OA
ENDBRANCH  91  92
ENDBRANCH  59  84
ENDBRANCH  33  34
ENDBRANCH  25  28
ENDBRANCH   1  24
TORSDOF 14
ENDMDL
