MODEL 1
REMARK VINA RESULT:     -12.5      0.000      0.000
REMARK SMILES O=C(NCCCNC(=O)c1c[nH]c(=O)c(-c2cccc([N+](=O)[O-])c2)c1)c1ccc(-c2c3nc(c(-c4c(F)cc(S(=O)(=O)[O-])cc4F)c4ccc([nH]4)c(-c4c(F)cc(S(=O)(=O)[O-])cc4F)c4nc(c(-c5c(F)cc(S(=O)(=O)[O-])cc5F)c5ccc2[nH]5)C=C4)C=C3)cc1
REMARK SMILES IDX 4 1 3 2 1 3 2 4 26 6 27 7 91 8 28 9 90 10 29 11 30 12 31 13
REMARK SMILES IDX 84 14 32 15 89 16 83 17 85 18 33 19 88 20 82 21 81 22 34 24
REMARK SMILES IDX 68 25 47 26 67 27 48 28 51 29 66 30 86 31 49 32 50 33 65 35
REMARK SMILES IDX 87 36 52 37 35 38 36 39 45 40 37 41 38 42 44 43 46 44 39 45
REMARK SMILES IDX 40 46 41 47 42 48 43 49 69 50 70 51 79 52 71 53 72 54 78 55
REMARK SMILES IDX 80 56 73 57 74 58 75 59 76 60 77 61 53 62 54 63 63 64 55 65
REMARK SMILES IDX 56 66 62 67 64 68 57 69 58 70 59 71 60 72 61 73 5 74 6 75
REMARK SMILES IDX 7 76 8 77 9 79 10 80 11 81 25 82 12 83 15 84 13 85 14 87
REMARK SMILES IDX 16 88 17 89 24 90 18 91 20 92 19 93 21 94 22 95 23 96
REMARK H PARENT 3 5 85 23 51 34 7 78 12 86
REMARK Flexibility Score: inf
ROOT
ATOM      1  C   UNL A   1      40.022  23.362  27.078  1.00  0.00     0.118 C 
ENDROOT
BRANCH   1   2
ATOM      2  N   UNL A   1      40.784  24.141  26.106  1.00  0.00    -0.352 N 
ATOM      3  O   UNL A   1      41.619  25.961  25.085  1.00  0.00    -0.269 OA
ATOM      4  C   UNL A   1      41.121  25.474  26.098  1.00  0.00     0.251 C 
ATOM      5  H   UNL A   1      41.109  23.628  25.331  1.00  0.00     0.163 HD
BRANCH   4   6
ATOM      6  C   UNL A   1      40.873  26.321  27.285  1.00  0.00     0.039 A 
ATOM      7  C   UNL A   1      41.599  27.494  27.485  1.00  0.00     0.014 A 
ATOM      8  C   UNL A   1      39.885  25.953  28.206  1.00  0.00     0.014 A 
ATOM      9  C   UNL A   1      41.477  28.187  28.681  1.00  0.00     0.010 A 
ATOM     10  C   UNL A   1      39.676  26.724  29.357  1.00  0.00     0.010 A 
ATOM     11  C   UNL A   1      40.498  27.829  29.622  1.00  0.00    -0.014 A 
BRANCH  11  12
ATOM     12  C   UNL A   1      40.328  28.690  30.822  1.00  0.00     0.031 A 
ATOM     13  C   UNL A   1      41.241  28.579  32.011  1.00  0.00     0.074 A 
ATOM     14  C   UNL A   1      39.374  29.644  30.785  1.00  0.00     0.049 A 
ATOM     15  N   UNL A   1      41.276  29.322  33.089  1.00  0.00    -0.248 NA
ATOM     16  C   UNL A   1      42.237  27.496  32.002  1.00  0.00     0.031 C 
ATOM     17  C   UNL A   1      38.407  29.824  29.696  1.00  0.00     0.029 A 
ATOM     18  N   UNL A   1      39.083  30.663  31.654  1.00  0.00    -0.354 N 
ATOM     19  C   UNL A   1      42.282  28.795  33.888  1.00  0.00     0.074 A 
ATOM     20  C   UNL A   1      42.819  27.650  33.185  1.00  0.00     0.031 C 
ATOM     21  C   UNL A   1      37.684  30.929  29.925  1.00  0.00     0.029 A 
ATOM     22  C   UNL A   1      38.087  31.498  31.205  1.00  0.00     0.049 A 
ATOM     23  H   UNL A   1      39.543  30.786  32.516  1.00  0.00     0.167 HD
ATOM     24  C   UNL A   1      42.723  29.234  35.093  1.00  0.00     0.037 A 
ATOM     25  C   UNL A   1      37.548  32.599  31.761  1.00  0.00     0.037 A 
ATOM     26  C   UNL A   1      42.193  30.385  35.780  1.00  0.00     0.049 A 
ATOM     27  C   UNL A   1      38.073  33.073  33.083  1.00  0.00     0.074 A 
ATOM     28  C   UNL A   1      42.577  30.913  37.002  1.00  0.00     0.029 A 
ATOM     29  N   UNL A   1      41.171  31.194  35.304  1.00  0.00    -0.354 N 
ATOM     30  N   UNL A   1      39.032  32.562  33.816  1.00  0.00    -0.248 NA
ATOM     31  C   UNL A   1      37.442  34.269  33.655  1.00  0.00     0.031 C 
ATOM     32  C   UNL A   1      41.768  32.022  37.276  1.00  0.00     0.029 A 
ATOM     33  C   UNL A   1      40.906  32.209  36.209  1.00  0.00     0.049 A 
ATOM     34  H   UNL A   1      40.702  31.065  34.448  1.00  0.00     0.167 HD
ATOM     35  C   UNL A   1      39.114  33.369  34.943  1.00  0.00     0.074 A 
ATOM     36  C   UNL A   1      38.137  34.425  34.773  1.00  0.00     0.031 C 
ATOM     37  C   UNL A   1      39.918  33.241  36.028  1.00  0.00     0.037 A 
BRANCH  24  38
ATOM     38  C   UNL A   1      43.836  28.469  35.756  1.00  0.00     0.058 A 
ATOM     39  C   UNL A   1      43.574  27.397  36.624  1.00  0.00     0.135 A 
ATOM     40  C   UNL A   1      45.179  28.763  35.464  1.00  0.00     0.135 A 
ATOM     41  F   UNL A   1      42.311  27.084  36.950  1.00  0.00    -0.206 F 
ATOM     42  C   UNL A   1      44.605  26.649  37.187  1.00  0.00     0.059 A 
ATOM     43  C   UNL A   1      46.224  28.015  35.999  1.00  0.00     0.059 A 
ATOM     44  F   UNL A   1      45.484  29.778  34.641  1.00  0.00    -0.206 F 
ATOM     45  C   UNL A   1      45.927  26.964  36.867  1.00  0.00     0.060 A 
BRANCH  45  46
ATOM     46  S   UNL A   1      47.251  25.963  37.579  1.00  0.00     0.124 S 
ATOM     47  O   UNL A   1      48.402  26.848  37.418  1.00  0.00    -0.237 OA
ATOM     48  O   UNL A   1      46.791  25.765  38.949  1.00  0.00    -0.237 OA
ATOM     49  O   UNL A   1      47.258  24.766  36.744  1.00  0.00    -0.744 OA
ENDBRANCH  45  46
ENDBRANCH  24  38
BRANCH  25  50
ATOM     50  C   UNL A   1      36.439  33.307  31.071  1.00  0.00     0.058 A 
ATOM     51  C   UNL A   1      35.121  33.235  31.542  1.00  0.00     0.135 A 
ATOM     52  C   UNL A   1      36.686  34.091  29.932  1.00  0.00     0.135 A 
ATOM     53  F   UNL A   1      34.836  32.498  32.626  1.00  0.00    -0.206 F 
ATOM     54  C   UNL A   1      34.082  33.899  30.900  1.00  0.00     0.059 A 
ATOM     55  C   UNL A   1      35.669  34.787  29.290  1.00  0.00     0.059 A 
ATOM     56  F   UNL A   1      37.936  34.211  29.456  1.00  0.00    -0.206 F 
ATOM     57  C   UNL A   1      34.367  34.672  29.772  1.00  0.00     0.060 A 
BRANCH  57  58
ATOM     58  S   UNL A   1      33.025  35.570  28.964  1.00  0.00     0.124 S 
ATOM     59  O   UNL A   1      33.758  36.605  28.246  1.00  0.00    -0.237 OA
ATOM     60  O   UNL A   1      32.408  34.535  28.140  1.00  0.00    -0.237 OA
ATOM     61  O   UNL A   1      32.212  36.031  30.087  1.00  0.00    -0.744 OA
ENDBRANCH  57  58
ENDBRANCH  25  50
BRANCH  37  62
ATOM     62  C   UNL A   1      39.759  34.272  37.107  1.00  0.00     0.058 A 
ATOM     63  C   UNL A   1      40.386  35.525  37.017  1.00  0.00     0.135 A 
ATOM     64  C   UNL A   1      38.976  34.007  38.242  1.00  0.00     0.135 A 
ATOM     65  F   UNL A   1      41.151  35.822  35.954  1.00  0.00    -0.206 F 
ATOM     66  C   UNL A   1      40.276  36.466  38.033  1.00  0.00     0.059 A 
ATOM     67  C   UNL A   1      38.832  34.943  39.260  1.00  0.00     0.059 A 
ATOM     68  F   UNL A   1      38.349  32.827  38.370  1.00  0.00    -0.206 F 
ATOM     69  C   UNL A   1      39.502  36.162  39.155  1.00  0.00     0.060 A 
BRANCH  69  70
ATOM     70  S   UNL A   1      39.369  37.386  40.475  1.00  0.00     0.124 S 
ATOM     71  O   UNL A   1      40.715  37.950  40.487  1.00  0.00    -0.237 OA
ATOM     72  O   UNL A   1      38.316  38.269  39.983  1.00  0.00    -0.237 OA
ATOM     73  O   UNL A   1      39.012  36.586  41.643  1.00  0.00    -0.744 OA
ENDBRANCH  69  70
ENDBRANCH  37  62
ENDBRANCH  11  12
ENDBRANCH   4   6
ENDBRANCH   1   2
BRANCH   1  74
ATOM     74  C   UNL A   1      38.795  22.702  26.471  1.00  0.00     0.042 C 
BRANCH  74  75
ATOM     75  C   UNL A   1      37.749  23.692  25.987  1.00  0.00     0.118 C 
BRANCH  75  76
ATOM     76  N   UNL A   1      37.416  23.511  24.577  1.00  0.00    -0.352 N 
ATOM     77  C   UNL A   1      36.206  23.444  23.948  1.00  0.00     0.252 C 
ATOM     78  H   UNL A   1      38.194  23.425  23.979  1.00  0.00     0.163 HD
ATOM     79  O   UNL A   1      36.150  23.139  22.760  1.00  0.00    -0.269 OA
BRANCH  77  80
ATOM     80  C   UNL A   1      34.973  23.729  24.726  1.00  0.00     0.056 A 
ATOM     81  C   UNL A   1      34.441  22.743  25.462  1.00  0.00     0.099 A 
ATOM     82  C   UNL A   1      34.345  25.034  24.725  1.00  0.00     0.029 A 
ATOM     83  N   UNL A   1      33.348  22.990  26.260  1.00  0.00    -0.328 N 
ATOM     84  C   UNL A   1      33.333  25.333  25.558  1.00  0.00     0.048 A 
ATOM     85  C   UNL A   1      32.751  24.226  26.394  1.00  0.00     0.255 A 
ATOM     86  H   UNL A   1      32.969  22.237  26.768  1.00  0.00     0.169 HD
ATOM     87  O   UNL A   1      31.796  24.401  27.143  1.00  0.00    -0.269 OA
BRANCH  84  88
ATOM     88  C   UNL A   1      32.931  26.742  25.711  1.00  0.00    -0.006 A 
ATOM     89  C   UNL A   1      31.806  27.257  25.049  1.00  0.00     0.009 A 
ATOM     90  C   UNL A   1      33.748  27.614  26.447  1.00  0.00     0.094 A 
ATOM     91  C   UNL A   1      31.503  28.621  25.107  1.00  0.00     0.008 A 
ATOM     92  C   UNL A   1      33.441  28.979  26.502  1.00  0.00     0.270 A 
ATOM     93  C   UNL A   1      32.322  29.487  25.830  1.00  0.00     0.085 A 
BRANCH  92  94
ATOM     94  N   UNL A   1      34.316  29.893  27.246  1.00  0.00     0.062 N 
ATOM     95  O   UNL A   1      35.415  29.456  27.620  1.00  0.00    -0.258 OA
ATOM     96  O   UNL A   1      33.903  31.040  27.462  1.00  0.00    -0.258 OA
ENDBRANCH  92  94
ENDBRANCH  84  88
ENDBRANCH  77  80
ENDBRANCH  75  76
ENDBRANCH  74  75
ENDBRANCH   1  74
TORSDOF 15
ENDMDL
MODEL 2
REMARK VINA RESULT:     -12.5      0.217      1.650
REMARK SMILES O=C(NCCCNC(=O)c1c[nH]c(=O)c(-c2cccc([N+](=O)[O-])c2)c1)c1ccc(-c2c3nc(c(-c4c(F)cc(S(=O)(=O)[O-])cc4F)c4ccc([nH]4)c(-c4c(F)cc(S(=O)(=O)[O-])cc4F)c4nc(c(-c5c(F)cc(S(=O)(=O)[O-])cc5F)c5ccc2[nH]5)C=C4)C=C3)cc1
REMARK SMILES IDX 4 1 3 2 1 3 2 4 26 6 27 7 91 8 28 9 90 10 29 11 30 12 31 13
REMARK SMILES IDX 84 14 32 15 89 16 83 17 85 18 33 19 88 20 82 21 81 22 34 24
REMARK SMILES IDX 68 25 47 26 67 27 48 28 51 29 66 30 86 31 49 32 50 33 65 35
REMARK SMILES IDX 87 36 52 37 35 38 36 39 45 40 37 41 38 42 44 43 46 44 39 45
REMARK SMILES IDX 40 46 41 47 42 48 43 49 69 50 70 51 79 52 71 53 72 54 78 55
REMARK SMILES IDX 80 56 73 57 74 58 75 59 76 60 77 61 53 62 54 63 63 64 55 65
REMARK SMILES IDX 56 66 62 67 64 68 57 69 58 70 59 71 60 72 61 73 5 74 6 75
REMARK SMILES IDX 7 76 8 77 9 79 10 80 11 81 25 82 12 83 15 84 13 85 14 87
REMARK SMILES IDX 16 88 17 89 24 90 18 91 20 92 19 93 21 94 22 95 23 96
REMARK H PARENT 3 5 85 23 51 34 7 78 12 86
REMARK Flexibility Score: inf
ROOT
ATOM      1  C   UNL A   1      39.945  23.303  27.099  1.00  0.00     0.118 C 
ENDROOT
BRANCH   1   2
ATOM      2  N   UNL A   1      40.748  24.046  26.133  1.00  0.00    -0.352 N 
ATOM      3  O   UNL A   1      41.661  25.826  25.108  1.00  0.00    -0.269 OA
ATOM      4  C   UNL A   1      41.131  25.366  26.118  1.00  0.00     0.251 C 
ATOM      5  H   UNL A   1      41.067  23.515  25.367  1.00  0.00     0.163 HD
BRANCH   4   6
ATOM      6  C   UNL A   1      40.894  26.233  27.294  1.00  0.00     0.039 A 
ATOM      7  C   UNL A   1      41.683  27.360  27.515  1.00  0.00     0.014 A 
ATOM      8  C   UNL A   1      39.854  25.930  28.181  1.00  0.00     0.014 A 
ATOM      9  C   UNL A   1      41.563  28.065  28.704  1.00  0.00     0.010 A 
ATOM     10  C   UNL A   1      39.654  26.718  29.321  1.00  0.00     0.010 A 
ATOM     11  C   UNL A   1      40.532  27.772  29.611  1.00  0.00    -0.014 A 
BRANCH  11  12
ATOM     12  C   UNL A   1      40.374  28.648  30.803  1.00  0.00     0.031 A 
ATOM     13  C   UNL A   1      41.290  28.542  31.990  1.00  0.00     0.074 A 
ATOM     14  C   UNL A   1      39.428  29.610  30.759  1.00  0.00     0.049 A 
ATOM     15  N   UNL A   1      41.335  29.296  33.059  1.00  0.00    -0.248 NA
ATOM     16  C   UNL A   1      42.276  27.449  31.989  1.00  0.00     0.031 C 
ATOM     17  C   UNL A   1      38.459  29.787  29.670  1.00  0.00     0.029 A 
ATOM     18  N   UNL A   1      39.150  30.641  31.617  1.00  0.00    -0.354 N 
ATOM     19  C   UNL A   1      42.340  28.769  33.861  1.00  0.00     0.074 A 
ATOM     20  C   UNL A   1      42.864  27.611  33.169  1.00  0.00     0.031 C 
ATOM     21  C   UNL A   1      37.747  30.900  29.890  1.00  0.00     0.029 A 
ATOM     22  C   UNL A   1      38.160  31.480  31.161  1.00  0.00     0.049 A 
ATOM     23  H   UNL A   1      39.614  30.769  32.476  1.00  0.00     0.167 HD
ATOM     24  C   UNL A   1      42.788  29.217  35.060  1.00  0.00     0.037 A 
ATOM     25  C   UNL A   1      37.633  32.591  31.707  1.00  0.00     0.037 A 
ATOM     26  C   UNL A   1      42.271  30.380  35.736  1.00  0.00     0.049 A 
ATOM     27  C   UNL A   1      38.166  33.076  33.022  1.00  0.00     0.074 A 
ATOM     28  C   UNL A   1      42.664  30.917  36.951  1.00  0.00     0.029 A 
ATOM     29  N   UNL A   1      41.255  31.192  35.254  1.00  0.00    -0.354 N 
ATOM     30  N   UNL A   1      39.124  32.564  33.758  1.00  0.00    -0.248 NA
ATOM     31  C   UNL A   1      37.548  34.283  33.584  1.00  0.00     0.031 C 
ATOM     32  C   UNL A   1      41.866  32.037  37.215  1.00  0.00     0.029 A 
ATOM     33  C   UNL A   1      41.002  32.220  36.148  1.00  0.00     0.049 A 
ATOM     34  H   UNL A   1      40.782  31.058  34.401  1.00  0.00     0.167 HD
ATOM     35  C   UNL A   1      39.217  33.383  34.876  1.00  0.00     0.074 A 
ATOM     36  C   UNL A   1      38.248  34.445  34.698  1.00  0.00     0.031 C 
ATOM     37  C   UNL A   1      40.022  33.259  35.960  1.00  0.00     0.037 A 
BRANCH  24  38
ATOM     38  C   UNL A   1      43.896  28.449  35.727  1.00  0.00     0.058 A 
ATOM     39  C   UNL A   1      45.242  28.818  35.569  1.00  0.00     0.135 A 
ATOM     40  C   UNL A   1      43.608  27.380  36.591  1.00  0.00     0.135 A 
ATOM     41  F   UNL A   1      45.576  29.821  34.743  1.00  0.00    -0.206 F 
ATOM     42  C   UNL A   1      46.263  28.147  36.237  1.00  0.00     0.059 A 
ATOM     43  C   UNL A   1      44.611  26.709  37.286  1.00  0.00     0.059 A 
ATOM     44  F   UNL A   1      42.338  26.986  36.777  1.00  0.00    -0.206 F 
ATOM     45  C   UNL A   1      45.937  27.095  37.096  1.00  0.00     0.060 A 
BRANCH  45  46
ATOM     46  S   UNL A   1      47.270  26.257  37.980  1.00  0.00     0.124 S 
ATOM     47  O   UNL A   1      48.123  27.381  38.352  1.00  0.00    -0.237 OA
ATOM     48  O   UNL A   1      46.559  25.611  39.078  1.00  0.00    -0.237 OA
ATOM     49  O   UNL A   1      47.825  25.351  36.979  1.00  0.00    -0.744 OA
ENDBRANCH  45  46
ENDBRANCH  24  38
BRANCH  25  50
ATOM     50  C   UNL A   1      36.528  33.303  31.014  1.00  0.00     0.058 A 
ATOM     51  C   UNL A   1      36.772  34.125  29.904  1.00  0.00     0.135 A 
ATOM     52  C   UNL A   1      35.198  33.154  31.440  1.00  0.00     0.135 A 
ATOM     53  F   UNL A   1      38.026  34.298  29.461  1.00  0.00    -0.206 F 
ATOM     54  C   UNL A   1      35.740  34.790  29.252  1.00  0.00     0.059 A 
ATOM     55  C   UNL A   1      34.147  33.786  30.787  1.00  0.00     0.059 A 
ATOM     56  F   UNL A   1      34.911  32.360  32.483  1.00  0.00    -0.206 F 
ATOM     57  C   UNL A   1      34.430  34.615  29.703  1.00  0.00     0.060 A 
BRANCH  57  58
ATOM     58  S   UNL A   1      33.084  35.444  28.828  1.00  0.00     0.124 S 
ATOM     59  O   UNL A   1      32.465  34.329  28.124  1.00  0.00    -0.237 OA
ATOM     60  O   UNL A   1      32.309  36.019  29.923  1.00  0.00    -0.237 OA
ATOM     61  O   UNL A   1      33.783  36.414  27.989  1.00  0.00    -0.744 OA
ENDBRANCH  57  58
ENDBRANCH  25  50
BRANCH  37  62
ATOM     62  C   UNL A   1      39.876  34.303  37.028  1.00  0.00     0.058 A 
ATOM     63  C   UNL A   1      39.042  34.100  38.138  1.00  0.00     0.135 A 
ATOM     64  C   UNL A   1      40.573  35.519  36.941  1.00  0.00     0.135 A 
ATOM     65  F   UNL A   1      38.349  32.956  38.261  1.00  0.00    -0.206 F 
ATOM     66  C   UNL A   1      38.871  35.081  39.106  1.00  0.00     0.059 A 
ATOM     67  C   UNL A   1      40.436  36.505  37.911  1.00  0.00     0.059 A 
ATOM     68  F   UNL A   1      41.390  35.757  35.903  1.00  0.00    -0.206 F 
ATOM     69  C   UNL A   1      39.567  36.285  38.980  1.00  0.00     0.060 A 
BRANCH  69  70
ATOM     70  S   UNL A   1      39.335  37.558  40.238  1.00  0.00     0.124 S 
ATOM     71  O   UNL A   1      38.871  36.766  41.373  1.00  0.00    -0.237 OA
ATOM     72  O   UNL A   1      40.675  38.124  40.366  1.00  0.00    -0.237 OA
ATOM     73  O   UNL A   1      38.341  38.445  39.642  1.00  0.00    -0.744 OA
ENDBRANCH  69  70
ENDBRANCH  37  62
ENDBRANCH  11  12
ENDBRANCH   4   6
ENDBRANCH   1   2
BRANCH   1  74
ATOM     74  C   UNL A   1      38.655  22.765  26.503  1.00  0.00     0.042 C 
BRANCH  74  75
ATOM     75  C   UNL A   1      37.771  23.840  25.895  1.00  0.00     0.118 C 
BRANCH  75  76
ATOM     76  N   UNL A   1      37.406  23.549  24.511  1.00  0.00    -0.352 N 
ATOM     77  C   UNL A   1      36.182  23.390  23.927  1.00  0.00     0.252 C 
ATOM     78  H   UNL A   1      38.169  23.453  23.897  1.00  0.00     0.163 HD
ATOM     79  O   UNL A   1      36.105  23.001  22.765  1.00  0.00    -0.269 OA
BRANCH  77  80
ATOM     80  C   UNL A   1      34.961  23.678  24.723  1.00  0.00     0.056 A 
ATOM     81  C   UNL A   1      34.435  22.692  25.465  1.00  0.00     0.099 A 
ATOM     82  C   UNL A   1      34.338  24.985  24.732  1.00  0.00     0.029 A 
ATOM     83  N   UNL A   1      33.355  22.943  26.277  1.00  0.00    -0.328 N 
ATOM     84  C   UNL A   1      33.338  25.286  25.579  1.00  0.00     0.048 A 
ATOM     85  C   UNL A   1      32.764  24.180  26.422  1.00  0.00     0.255 A 
ATOM     86  H   UNL A   1      32.980  22.190  26.790  1.00  0.00     0.169 HD
ATOM     87  O   UNL A   1      31.820  24.357  27.184  1.00  0.00    -0.269 OA
BRANCH  84  88
ATOM     88  C   UNL A   1      32.943  26.696  25.740  1.00  0.00    -0.006 A 
ATOM     89  C   UNL A   1      31.766  27.196  25.162  1.00  0.00     0.009 A 
ATOM     90  C   UNL A   1      33.813  27.583  26.393  1.00  0.00     0.094 A 
ATOM     91  C   UNL A   1      31.463  28.560  25.221  1.00  0.00     0.008 A 
ATOM     92  C   UNL A   1      33.505  28.949  26.449  1.00  0.00     0.270 A 
ATOM     93  C   UNL A   1      32.333  29.441  25.860  1.00  0.00     0.085 A 
BRANCH  92  94
ATOM     94  N   UNL A   1      34.433  29.878  27.104  1.00  0.00     0.062 N 
ATOM     95  O   UNL A   1      35.530  29.430  27.468  1.00  0.00    -0.258 OA
ATOM     96  O   UNL A   1      34.062  31.048  27.262  1.00  0.00    -0.258 OA
ENDBRANCH  92  94
ENDBRANCH  84  88
ENDBRANCH  77  80
ENDBRANCH  75  76
ENDBRANCH  74  75
ENDBRANCH   1  74
TORSDOF 15
ENDMDL
MODEL 3
REMARK VINA RESULT:     -12.4      6.714     12.260
REMARK SMILES O=C(NCCCNC(=O)c1c[nH]c(=O)c(-c2cccc([N+](=O)[O-])c2)c1)c1ccc(-c2c3nc(c(-c4c(F)cc(S(=O)(=O)[O-])cc4F)c4ccc([nH]4)c(-c4c(F)cc(S(=O)(=O)[O-])cc4F)c4nc(c(-c5c(F)cc(S(=O)(=O)[O-])cc5F)c5ccc2[nH]5)C=C4)C=C3)cc1
REMARK SMILES IDX 4 1 3 2 1 3 2 4 26 6 27 7 91 8 28 9 90 10 29 11 30 12 31 13
REMARK SMILES IDX 84 14 32 15 89 16 83 17 85 18 33 19 88 20 82 21 81 22 34 24
REMARK SMILES IDX 68 25 47 26 67 27 48 28 51 29 66 30 86 31 49 32 50 33 65 35
REMARK SMILES IDX 87 36 52 37 35 38 36 39 45 40 37 41 38 42 44 43 46 44 39 45
REMARK SMILES IDX 40 46 41 47 42 48 43 49 69 50 70 51 79 52 71 53 72 54 78 55
REMARK SMILES IDX 80 56 73 57 74 58 75 59 76 60 77 61 53 62 54 63 63 64 55 65
REMARK SMILES IDX 56 66 62 67 64 68 57 69 58 70 59 71 60 72 61 73 5 74 6 75
REMARK SMILES IDX 7 76 8 77 9 79 10 80 11 81 25 82 12 83 15 84 13 85 14 87
REMARK SMILES IDX 16 88 17 89 24 90 18 91 20 92 19 93 21 94 22 95 23 96
REMARK H PARENT 3 5 85 23 51 34 7 78 12 86
REMARK Flexibility Score: inf
ROOT
ATOM      1  C   UNL A   1      35.581  31.203  28.044  1.00  0.00     0.118 C 
ENDROOT
BRANCH   1   2
ATOM      2  N   UNL A   1      35.530  30.854  29.460  1.00  0.00    -0.352 N 
ATOM      3  O   UNL A   1      36.092  29.824  31.377  1.00  0.00    -0.269 OA
ATOM      4  C   UNL A   1      36.421  30.157  30.241  1.00  0.00     0.251 C 
ATOM      5  H   UNL A   1      34.727  31.171  29.934  1.00  0.00     0.163 HD
BRANCH   4   6
ATOM      6  C   UNL A   1      37.757  29.792  29.718  1.00  0.00     0.039 A 
ATOM      7  C   UNL A   1      38.754  29.334  30.575  1.00  0.00     0.014 A 
ATOM      8  C   UNL A   1      38.014  29.889  28.345  1.00  0.00     0.014 A 
ATOM      9  C   UNL A   1      40.047  29.158  30.101  1.00  0.00     0.010 A 
ATOM     10  C   UNL A   1      39.289  29.592  27.848  1.00  0.00     0.010 A 
ATOM     11  C   UNL A   1      40.328  29.258  28.729  1.00  0.00    -0.014 A 
BRANCH  11  12
ATOM     12  C   UNL A   1      41.702  28.929  28.267  1.00  0.00     0.031 A 
ATOM     13  C   UNL A   1      42.808  29.947  28.284  1.00  0.00     0.074 A 
ATOM     14  C   UNL A   1      41.958  27.654  27.905  1.00  0.00     0.049 A 
ATOM     15  N   UNL A   1      44.076  29.783  28.001  1.00  0.00    -0.248 NA
ATOM     16  C   UNL A   1      42.454  31.326  28.656  1.00  0.00     0.031 C 
ATOM     17  C   UNL A   1      40.954  26.587  27.818  1.00  0.00     0.029 A 
ATOM     18  N   UNL A   1      43.133  27.025  27.586  1.00  0.00    -0.354 N 
ATOM     19  C   UNL A   1      44.668  31.031  28.148  1.00  0.00     0.074 A 
ATOM     20  C   UNL A   1      43.616  31.953  28.520  1.00  0.00     0.031 C 
ATOM     21  C   UNL A   1      41.565  25.426  27.544  1.00  0.00     0.029 A 
ATOM     22  C   UNL A   1      42.991  25.675  27.370  1.00  0.00     0.049 A 
ATOM     23  H   UNL A   1      43.996  27.495  27.519  1.00  0.00     0.167 HD
ATOM     24  C   UNL A   1      45.972  31.372  27.996  1.00  0.00     0.037 A 
ATOM     25  C   UNL A   1      43.903  24.735  27.059  1.00  0.00     0.037 A 
ATOM     26  C   UNL A   1      47.016  30.445  27.640  1.00  0.00     0.049 A 
ATOM     27  C   UNL A   1      45.340  25.139  26.921  1.00  0.00     0.074 A 
ATOM     28  C   UNL A   1      48.368  30.694  27.468  1.00  0.00     0.029 A 
ATOM     29  N   UNL A   1      46.831  29.090  27.410  1.00  0.00    -0.354 N 
ATOM     30  N   UNL A   1      45.878  26.326  27.074  1.00  0.00    -0.248 NA
ATOM     31  C   UNL A   1      46.294  24.082  26.567  1.00  0.00     0.031 C 
ATOM     32  C   UNL A   1      48.993  29.494  27.106  1.00  0.00     0.029 A 
ATOM     33  C   UNL A   1      48.039  28.491  27.089  1.00  0.00     0.049 A 
ATOM     34  H   UNL A   1      45.967  28.621  27.466  1.00  0.00     0.167 HD
ATOM     35  C   UNL A   1      47.234  26.159  26.824  1.00  0.00     0.074 A 
ATOM     36  C   UNL A   1      47.438  24.751  26.552  1.00  0.00     0.031 C 
ATOM     37  C   UNL A   1      48.219  27.091  26.807  1.00  0.00     0.037 A 
BRANCH  24  38
ATOM     38  C   UNL A   1      46.351  32.812  28.212  1.00  0.00     0.058 A 
ATOM     39  C   UNL A   1      46.836  33.265  29.449  1.00  0.00     0.135 A 
ATOM     40  C   UNL A   1      46.299  33.733  27.152  1.00  0.00     0.135 A 
ATOM     41  F   UNL A   1      46.892  32.432  30.499  1.00  0.00    -0.206 F 
ATOM     42  C   UNL A   1      47.248  34.583  29.630  1.00  0.00     0.059 A 
ATOM     43  C   UNL A   1      46.724  35.050  27.305  1.00  0.00     0.059 A 
ATOM     44  F   UNL A   1      45.842  33.352  25.948  1.00  0.00    -0.206 F 
ATOM     45  C   UNL A   1      47.190  35.467  28.551  1.00  0.00     0.060 A 
BRANCH  45  46
ATOM     46  S   UNL A   1      47.759  37.164  28.794  1.00  0.00     0.124 S 
ATOM     47  O   UNL A   1      46.711  37.700  29.659  1.00  0.00    -0.237 OA
ATOM     48  O   UNL A   1      49.061  36.972  29.422  1.00  0.00    -0.237 OA
ATOM     49  O   UNL A   1      47.793  37.708  27.439  1.00  0.00    -0.744 OA
ENDBRANCH  45  46
ENDBRANCH  24  38
BRANCH  25  50
ATOM     50  C   UNL A   1      43.472  23.330  26.842  1.00  0.00     0.058 A 
ATOM     51  C   UNL A   1      43.358  22.793  25.551  1.00  0.00     0.135 A 
ATOM     52  C   UNL A   1      43.183  22.491  27.930  1.00  0.00     0.135 A 
ATOM     53  F   UNL A   1      43.623  23.557  24.481  1.00  0.00    -0.206 F 
ATOM     54  C   UNL A   1      42.956  21.478  25.345  1.00  0.00     0.059 A 
ATOM     55  C   UNL A   1      42.807  21.165  27.749  1.00  0.00     0.059 A 
ATOM     56  F   UNL A   1      43.299  22.952  29.185  1.00  0.00    -0.206 F 
ATOM     57  C   UNL A   1      42.682  20.672  26.452  1.00  0.00     0.060 A 
BRANCH  57  58
ATOM     58  S   UNL A   1      42.203  18.951  26.185  1.00  0.00     0.124 S 
ATOM     59  O   UNL A   1      43.151  18.541  25.157  1.00  0.00    -0.237 OA
ATOM     60  O   UNL A   1      42.400  18.364  27.507  1.00  0.00    -0.237 OA
ATOM     61  O   UNL A   1      40.811  19.057  25.758  1.00  0.00    -0.744 OA
ENDBRANCH  57  58
ENDBRANCH  25  50
BRANCH  37  62
ATOM     62  C   UNL A   1      49.600  26.601  26.480  1.00  0.00     0.058 A 
ATOM     63  C   UNL A   1      50.097  26.643  25.168  1.00  0.00     0.135 A 
ATOM     64  C   UNL A   1      50.432  26.083  27.484  1.00  0.00     0.135 A 
ATOM     65  F   UNL A   1      49.335  27.122  24.172  1.00  0.00    -0.206 F 
ATOM     66  C   UNL A   1      51.358  26.152  24.854  1.00  0.00     0.059 A 
ATOM     67  C   UNL A   1      51.707  25.608  27.197  1.00  0.00     0.059 A 
ATOM     68  F   UNL A   1      50.006  26.030  28.756  1.00  0.00    -0.206 F 
ATOM     69  C   UNL A   1      52.154  25.629  25.875  1.00  0.00     0.060 A 
BRANCH  69  70
ATOM     70  S   UNL A   1      53.788  24.986  25.460  1.00  0.00     0.124 S 
ATOM     71  O   UNL A   1      54.555  25.347  26.648  1.00  0.00    -0.237 OA
ATOM     72  O   UNL A   1      53.531  23.560  25.281  1.00  0.00    -0.237 OA
ATOM     73  O   UNL A   1      54.137  25.711  24.242  1.00  0.00    -0.744 OA
ENDBRANCH  69  70
ENDBRANCH  37  62
ENDBRANCH  11  12
ENDBRANCH   4   6
ENDBRANCH   1   2
BRANCH   1  74
ATOM     74  C   UNL A   1      34.420  30.622  27.253  1.00  0.00     0.042 C 
BRANCH  74  75
ATOM     75  C   UNL A   1      34.376  29.104  27.262  1.00  0.00     0.118 C 
BRANCH  75  76
ATOM     76  N   UNL A   1      33.090  28.583  27.715  1.00  0.00    -0.352 N 
ATOM     77  C   UNL A   1      32.223  27.710  27.122  1.00  0.00     0.252 C 
ATOM     78  H   UNL A   1      32.800  28.915  28.595  1.00  0.00     0.163 HD
ATOM     79  O   UNL A   1      31.116  27.517  27.616  1.00  0.00    -0.269 OA
BRANCH  77  80
ATOM     80  C   UNL A   1      32.637  27.020  25.873  1.00  0.00     0.056 A 
ATOM     81  C   UNL A   1      32.452  27.651  24.704  1.00  0.00     0.099 A 
ATOM     82  C   UNL A   1      33.244  25.706  25.883  1.00  0.00     0.029 A 
ATOM     83  N   UNL A   1      32.897  27.081  23.535  1.00  0.00    -0.328 N 
ATOM     84  C   UNL A   1      33.769  25.160  24.772  1.00  0.00     0.048 A 
ATOM     85  C   UNL A   1      33.573  25.881  23.467  1.00  0.00     0.255 A 
ATOM     86  H   UNL A   1      32.723  27.560  22.693  1.00  0.00     0.169 HD
ATOM     87  O   UNL A   1      33.976  25.429  22.400  1.00  0.00    -0.269 OA
BRANCH  84  88
ATOM     88  C   UNL A   1      34.616  23.962  24.901  1.00  0.00    -0.006 A 
ATOM     89  C   UNL A   1      34.093  22.673  24.716  1.00  0.00     0.009 A 
ATOM     90  C   UNL A   1      35.948  24.104  25.320  1.00  0.00     0.094 A 
ATOM     91  C   UNL A   1      34.877  21.540  24.958  1.00  0.00     0.008 A 
ATOM     92  C   UNL A   1      36.729  22.966  25.562  1.00  0.00     0.270 A 
ATOM     93  C   UNL A   1      36.196  21.683  25.385  1.00  0.00     0.085 A 
BRANCH  92  94
ATOM     94  N   UNL A   1      38.111  23.119  26.031  1.00  0.00     0.062 N 
ATOM     95  O   UNL A   1      38.835  22.112  26.020  1.00  0.00    -0.258 OA
ATOM     96  O   UNL A   1      38.469  24.239  26.417  1.00  0.00    -0.258 OA
ENDBRANCH  92  94
ENDBRANCH  84  88
ENDBRANCH  77  80
ENDBRANCH  75  76
ENDBRANCH  74  75
ENDBRANCH   1  74
TORSDOF 15
ENDMDL
