MODEL 1
REMARK VINA RESULT:     -12.7      0.000      0.000
REMARK SMILES Cc1ccn(CC(=O)N2CCC3(CC2)NC(=O)C[C@@H]3C(=O)NCCCNC(=O)c2ccc(-c3c4nc(c(-c5c(F)cc(S(=O)(=O)[O-])cc5F)c5ccc([nH]5)c(-c5c(F)cc(S(=O)(=O)[O-])cc5F)c5nc(c(-c6c(F)cc(S(=O)(=O)[O-])cc6F)c6ccc3[nH]6)C=C5)C=C4)cc2)n1
REMARK SMILES IDX 24 1 23 2 22 3 20 4 21 5 19 7 7 8 8 9 9 10 10 11 14 12 11 13
REMARK SMILES IDX 13 14 12 15 15 16 16 17 18 19 17 20 6 21 5 22 1 23 2 24 3 25
REMARK SMILES IDX 95 26 4 27 25 28 26 29 27 30 28 32 29 33 30 34 94 35 31 36
REMARK SMILES IDX 93 37 32 38 33 39 34 40 87 41 35 42 92 43 86 44 88 45 36 46
REMARK SMILES IDX 91 47 85 48 84 49 37 51 71 52 50 53 70 54 51 55 54 56 69 57
REMARK SMILES IDX 89 58 52 59 53 60 68 62 90 63 55 64 38 65 39 66 48 67 40 68
REMARK SMILES IDX 41 69 47 70 49 71 42 72 43 73 44 74 45 75 46 76 72 77 73 78
REMARK SMILES IDX 82 79 74 80 75 81 81 82 83 83 76 84 77 85 78 86 79 87 80 88
REMARK SMILES IDX 56 89 57 90 66 91 58 92 59 93 65 94 67 95 60 96 61 97 62 98
REMARK SMILES IDX 63 99 64 100
REMARK H PARENT 22 6 15 18 26 31 88 50 54 61
REMARK Flexibility Score: inf
ROOT
ATOM      1  C   UNL A   1      36.983  23.674  26.157  1.00  0.00     0.042 C 
ENDROOT
BRANCH   1   2
ATOM      2  C   UNL A   1      36.905  23.309  24.680  1.00  0.00     0.117 C 
BRANCH   2   3
ATOM      3  N   UNL A   1      35.781  22.440  24.279  1.00  0.00    -0.356 N 
ATOM      4  C   UNL A   1      34.573  22.863  23.765  1.00  0.00     0.226 C 
ATOM      5  O   UNL A   1      34.478  22.913  22.535  1.00  0.00    -0.275 OA
ATOM      6  H   UNL A   1      35.905  21.469  24.388  1.00  0.00     0.163 HD
BRANCH   4   7
ATOM      7  C   UNL A   1      33.274  23.036  24.615  1.00  0.00     0.113 C 
ATOM      8  C   UNL A   1      33.001  27.747  22.537  1.00  0.00     0.244 C 
ATOM      9  O   UNL A   1      33.993  27.825  21.799  1.00  0.00    -0.273 OA
ATOM     10  N   UNL A   1      32.706  26.574  23.221  1.00  0.00    -0.341 N 
ATOM     11  C   UNL A   1      33.842  25.773  23.517  1.00  0.00     0.122 C 
ATOM     12  C   UNL A   1      31.429  25.886  23.472  1.00  0.00     0.122 C 
ATOM     13  C   UNL A   1      33.789  25.499  25.021  1.00  0.00     0.051 C 
ATOM     14  C   UNL A   1      31.419  24.976  24.737  1.00  0.00     0.051 C 
ATOM     15  C   UNL A   1      32.787  24.392  25.225  1.00  0.00     0.055 C 
ATOM     16  N   UNL A   1      32.670  24.096  26.642  1.00  0.00    -0.350 N 
ATOM     17  C   UNL A   1      33.018  22.825  27.004  1.00  0.00     0.221 C 
ATOM     18  H   UNL A   1      32.361  24.763  27.297  1.00  0.00     0.164 HD
ATOM     19  C   UNL A   1      33.381  22.042  25.787  1.00  0.00     0.116 C 
ATOM     20  O   UNL A   1      33.006  22.411  28.156  1.00  0.00    -0.275 OA
BRANCH   8  21
ATOM     21  C   UNL A   1      32.307  29.021  22.920  1.00  0.00     0.244 C 
BRANCH  21  22
ATOM     22  N   UNL A   1      32.381  29.274  24.328  1.00  0.00    -0.263 N 
ATOM     23  C   UNL A   1      34.472  28.940  27.116  1.00  0.00     0.069 C 
ATOM     24  C   UNL A   1      33.341  29.173  26.195  1.00  0.00     0.059 A 
ATOM     25  C   UNL A   1      31.952  29.129  26.456  1.00  0.00     0.045 A 
ATOM     26  N   UNL A   1      33.592  29.369  24.897  1.00  0.00    -0.178 NA
ATOM     27  C   UNL A   1      31.354  29.232  25.222  1.00  0.00     0.109 A 
ENDBRANCH  21  22
ENDBRANCH   8  21
ENDBRANCH   4   7
ENDBRANCH   2   3
ENDBRANCH   1   2
BRANCH   1  28
ATOM     28  C   UNL A   1      38.424  23.981  26.550  1.00  0.00     0.118 C 
BRANCH  28  29
ATOM     29  N   UNL A   1      39.366  22.853  26.443  1.00  0.00    -0.352 N 
ATOM     30  C   UNL A   1      40.733  22.947  26.194  1.00  0.00     0.251 C 
ATOM     31  H   UNL A   1      38.994  21.949  26.556  1.00  0.00     0.163 HD
ATOM     32  O   UNL A   1      41.399  22.001  25.802  1.00  0.00    -0.269 OA
BRANCH  30  33
ATOM     33  C   UNL A   1      41.349  24.256  26.455  1.00  0.00     0.039 A 
ATOM     34  C   UNL A   1      40.864  25.420  25.851  1.00  0.00     0.014 A 
ATOM     35  C   UNL A   1      42.187  24.290  27.565  1.00  0.00     0.014 A 
ATOM     36  C   UNL A   1      41.110  26.640  26.474  1.00  0.00     0.010 A 
ATOM     37  C   UNL A   1      42.272  25.468  28.258  1.00  0.00     0.010 A 
ATOM     38  C   UNL A   1      41.760  26.652  27.717  1.00  0.00    -0.014 A 
BRANCH  38  39
ATOM     39  C   UNL A   1      41.738  27.845  28.567  1.00  0.00     0.031 A 
ATOM     40  C   UNL A   1      42.854  28.819  28.331  1.00  0.00     0.074 A 
ATOM     41  C   UNL A   1      40.638  28.173  29.283  1.00  0.00     0.049 A 
ATOM     42  N   UNL A   1      43.787  29.176  29.152  1.00  0.00    -0.248 NA
ATOM     43  C   UNL A   1      43.048  29.352  26.968  1.00  0.00     0.031 C 
ATOM     44  C   UNL A   1      39.355  27.460  29.347  1.00  0.00     0.029 A 
ATOM     45  N   UNL A   1      40.373  29.302  29.989  1.00  0.00    -0.354 N 
ATOM     46  C   UNL A   1      44.523  30.166  28.498  1.00  0.00     0.074 A 
ATOM     47  C   UNL A   1      44.171  30.063  27.108  1.00  0.00     0.031 C 
ATOM     48  C   UNL A   1      38.392  28.290  29.799  1.00  0.00     0.029 A 
ATOM     49  C   UNL A   1      39.019  29.517  30.241  1.00  0.00     0.049 A 
ATOM     50  H   UNL A   1      41.078  29.917  30.298  1.00  0.00     0.167 HD
ATOM     51  C   UNL A   1      45.154  31.159  29.193  1.00  0.00     0.037 A 
ATOM     52  C   UNL A   1      38.455  30.644  30.745  1.00  0.00     0.037 A 
ATOM     53  C   UNL A   1      45.261  30.812  30.591  1.00  0.00     0.049 A 
ATOM     54  C   UNL A   1      39.544  31.387  31.436  1.00  0.00     0.074 A 
ATOM     55  C   UNL A   1      45.806  29.749  31.286  1.00  0.00     0.029 A 
ATOM     56  N   UNL A   1      44.396  31.422  31.469  1.00  0.00    -0.354 N 
ATOM     57  N   UNL A   1      40.172  30.929  32.488  1.00  0.00    -0.248 NA
ATOM     58  C   UNL A   1      40.268  32.390  30.671  1.00  0.00     0.031 C 
ATOM     59  C   UNL A   1      44.864  29.471  32.321  1.00  0.00     0.029 A 
ATOM     60  C   UNL A   1      43.860  30.439  32.260  1.00  0.00     0.049 A 
ATOM     61  H   UNL A   1      44.198  32.386  31.519  1.00  0.00     0.167 HD
ATOM     62  C   UNL A   1      41.507  31.246  32.274  1.00  0.00     0.074 A 
ATOM     63  C   UNL A   1      41.492  32.212  31.176  1.00  0.00     0.031 C 
ATOM     64  C   UNL A   1      42.513  30.479  32.793  1.00  0.00     0.037 A 
BRANCH  51  65
ATOM     65  C   UNL A   1      45.321  32.591  28.715  1.00  0.00     0.058 A 
ATOM     66  C   UNL A   1      46.607  33.180  28.742  1.00  0.00     0.135 A 
ATOM     67  C   UNL A   1      44.255  33.496  28.514  1.00  0.00     0.135 A 
ATOM     68  F   UNL A   1      47.703  32.423  28.912  1.00  0.00    -0.206 F 
ATOM     69  C   UNL A   1      46.805  34.561  28.682  1.00  0.00     0.059 A 
ATOM     70  C   UNL A   1      44.435  34.871  28.399  1.00  0.00     0.059 A 
ATOM     71  F   UNL A   1      42.974  33.113  28.513  1.00  0.00    -0.206 F 
ATOM     72  C   UNL A   1      45.707  35.400  28.532  1.00  0.00     0.060 A 
BRANCH  72  73
ATOM     73  S   UNL A   1      45.940  37.185  28.572  1.00  0.00     0.124 S 
ATOM     74  O   UNL A   1      46.536  37.369  29.891  1.00  0.00    -0.237 OA
ATOM     75  O   UNL A   1      46.826  37.399  27.432  1.00  0.00    -0.237 OA
ATOM     76  O   UNL A   1      44.585  37.703  28.411  1.00  0.00    -0.744 OA
ENDBRANCH  72  73
ENDBRANCH  51  65
BRANCH  52  77
ATOM     77  C   UNL A   1      37.168  31.268  30.320  1.00  0.00     0.058 A 
ATOM     78  C   UNL A   1      36.299  31.853  31.256  1.00  0.00     0.135 A 
ATOM     79  C   UNL A   1      36.890  31.546  28.963  1.00  0.00     0.135 A 
ATOM     80  F   UNL A   1      36.493  31.655  32.569  1.00  0.00    -0.206 F 
ATOM     81  C   UNL A   1      35.257  32.710  30.877  1.00  0.00     0.059 A 
ATOM     82  C   UNL A   1      35.850  32.383  28.561  1.00  0.00     0.059 A 
ATOM     83  F   UNL A   1      37.680  31.087  27.981  1.00  0.00    -0.206 F 
ATOM     84  C   UNL A   1      35.056  32.989  29.525  1.00  0.00     0.060 A 
BRANCH  84  85
ATOM     85  S   UNL A   1      33.848  34.245  29.038  1.00  0.00     0.124 S 
ATOM     86  O   UNL A   1      34.702  35.278  28.461  1.00  0.00    -0.237 OA
ATOM     87  O   UNL A   1      33.008  33.513  28.095  1.00  0.00    -0.237 OA
ATOM     88  O   UNL A   1      33.201  34.600  30.298  1.00  0.00    -0.744 OA
ENDBRANCH  84  85
ENDBRANCH  52  77
BRANCH  64  89
ATOM     89  C   UNL A   1      42.177  29.439  33.835  1.00  0.00     0.058 A 
ATOM     90  C   UNL A   1      41.717  28.139  33.558  1.00  0.00     0.135 A 
ATOM     91  C   UNL A   1      42.508  29.721  35.170  1.00  0.00     0.135 A 
ATOM     92  F   UNL A   1      41.479  27.744  32.301  1.00  0.00    -0.206 F 
ATOM     93  C   UNL A   1      41.551  27.182  34.562  1.00  0.00     0.059 A 
ATOM     94  C   UNL A   1      42.384  28.774  36.182  1.00  0.00     0.059 A 
ATOM     95  F   UNL A   1      43.019  30.921  35.496  1.00  0.00    -0.206 F 
ATOM     96  C   UNL A   1      41.890  27.510  35.875  1.00  0.00     0.060 A 
BRANCH  96  97
ATOM     97  S   UNL A   1      41.736  26.256  37.165  1.00  0.00     0.124 S 
ATOM     98  O   UNL A   1      40.415  26.543  37.713  1.00  0.00    -0.237 OA
ATOM     99  O   UNL A   1      41.855  25.010  36.414  1.00  0.00    -0.237 OA
ATOM    100  O   UNL A   1      42.857  26.544  38.056  1.00  0.00    -0.744 OA
ENDBRANCH  96  97
ENDBRANCH  64  89
ENDBRANCH  38  39
ENDBRANCH  30  33
ENDBRANCH  28  29
ENDBRANCH   1  28
TORSDOF 15
ENDMDL
MODEL 2
REMARK VINA RESULT:     -12.7      1.100      1.697
REMARK SMILES Cc1ccn(CC(=O)N2CCC3(CC2)NC(=O)C[C@@H]3C(=O)NCCCNC(=O)c2ccc(-c3c4nc(c(-c5c(F)cc(S(=O)(=O)[O-])cc5F)c5ccc([nH]5)c(-c5c(F)cc(S(=O)(=O)[O-])cc5F)c5nc(c(-c6c(F)cc(S(=O)(=O)[O-])cc6F)c6ccc3[nH]6)C=C5)C=C4)cc2)n1
REMARK SMILES IDX 24 1 23 2 22 3 20 4 21 5 19 7 7 8 8 9 9 10 10 11 14 12 11 13
REMARK SMILES IDX 13 14 12 15 15 16 16 17 18 19 17 20 6 21 5 22 1 23 2 24 3 25
REMARK SMILES IDX 95 26 4 27 25 28 26 29 27 30 28 32 29 33 30 34 94 35 31 36
REMARK SMILES IDX 93 37 32 38 33 39 34 40 87 41 35 42 92 43 86 44 88 45 36 46
REMARK SMILES IDX 91 47 85 48 84 49 37 51 71 52 50 53 70 54 51 55 54 56 69 57
REMARK SMILES IDX 89 58 52 59 53 60 68 62 90 63 55 64 38 65 39 66 48 67 40 68
REMARK SMILES IDX 41 69 47 70 49 71 42 72 43 73 44 74 45 75 46 76 72 77 73 78
REMARK SMILES IDX 82 79 74 80 75 81 81 82 83 83 76 84 77 85 78 86 79 87 80 88
REMARK SMILES IDX 56 89 57 90 66 91 58 92 59 93 65 94 67 95 60 96 61 97 62 98
REMARK SMILES IDX 63 99 64 100
REMARK H PARENT 22 6 15 18 26 31 88 50 54 61
REMARK Flexibility Score: inf
ROOT
ATOM      1  C   UNL A   1      36.532  22.939  25.527  1.00  0.00     0.042 C 
ENDROOT
BRANCH   1   2
ATOM      2  C   UNL A   1      35.925  22.702  24.150  1.00  0.00     0.117 C 
BRANCH   2   3
ATOM      3  N   UNL A   1      34.672  21.922  24.112  1.00  0.00    -0.356 N 
ATOM      4  C   UNL A   1      33.437  22.393  23.718  1.00  0.00     0.226 C 
ATOM      5  O   UNL A   1      33.130  22.229  22.533  1.00  0.00    -0.275 OA
ATOM      6  H   UNL A   1      34.723  20.980  24.394  1.00  0.00     0.163 HD
BRANCH   4   7
ATOM      7  C   UNL A   1      32.331  22.880  24.708  1.00  0.00     0.113 C 
ATOM      8  C   UNL A   1      32.711  27.421  22.293  1.00  0.00     0.244 C 
ATOM      9  O   UNL A   1      33.585  27.249  21.433  1.00  0.00    -0.273 OA
ATOM     10  N   UNL A   1      32.287  26.375  23.105  1.00  0.00    -0.341 N 
ATOM     11  C   UNL A   1      33.271  25.373  23.321  1.00  0.00     0.122 C 
ATOM     12  C   UNL A   1      30.947  25.983  23.571  1.00  0.00     0.122 C 
ATOM     13  C   UNL A   1      33.377  25.200  24.838  1.00  0.00     0.051 C 
ATOM     14  C   UNL A   1      30.935  25.168  24.900  1.00  0.00     0.051 C 
ATOM     15  C   UNL A   1      32.214  24.340  25.259  1.00  0.00     0.055 C 
ATOM     16  N   UNL A   1      32.241  24.155  26.699  1.00  0.00    -0.350 N 
ATOM     17  C   UNL A   1      32.376  22.862  27.119  1.00  0.00     0.221 C 
ATOM     18  H   UNL A   1      32.165  24.908  27.329  1.00  0.00     0.164 HD
ATOM     19  C   UNL A   1      32.401  21.953  25.936  1.00  0.00     0.116 C 
ATOM     20  O   UNL A   1      32.444  22.525  28.294  1.00  0.00    -0.275 OA
BRANCH   8  21
ATOM     21  C   UNL A   1      32.345  28.830  22.653  1.00  0.00     0.244 C 
BRANCH  21  22
ATOM     22  N   UNL A   1      32.406  29.060  24.065  1.00  0.00    -0.263 N 
ATOM     23  C   UNL A   1      34.318  28.395  26.921  1.00  0.00     0.069 C 
ATOM     24  C   UNL A   1      33.270  28.803  25.964  1.00  0.00     0.059 A 
ATOM     25  C   UNL A   1      31.882  28.970  26.176  1.00  0.00     0.045 A 
ATOM     26  N   UNL A   1      33.595  28.967  24.678  1.00  0.00    -0.178 NA
ATOM     27  C   UNL A   1      31.352  29.170  24.923  1.00  0.00     0.109 A 
ENDBRANCH  21  22
ENDBRANCH   8  21
ENDBRANCH   4   7
ENDBRANCH   2   3
ENDBRANCH   1   2
BRANCH   1  28
ATOM     28  C   UNL A   1      38.054  22.889  25.450  1.00  0.00     0.118 C 
BRANCH  28  29
ATOM     29  N   UNL A   1      38.720  22.139  26.530  1.00  0.00    -0.352 N 
ATOM     30  C   UNL A   1      39.833  22.559  27.254  1.00  0.00     0.251 C 
ATOM     31  H   UNL A   1      38.344  21.259  26.760  1.00  0.00     0.163 HD
ATOM     32  O   UNL A   1      40.530  21.790  27.899  1.00  0.00    -0.269 OA
BRANCH  30  33
ATOM     33  C   UNL A   1      40.118  24.001  27.224  1.00  0.00     0.039 A 
ATOM     34  C   UNL A   1      39.090  24.945  27.310  1.00  0.00     0.014 A 
ATOM     35  C   UNL A   1      41.451  24.332  27.446  1.00  0.00     0.014 A 
ATOM     36  C   UNL A   1      39.400  26.219  27.778  1.00  0.00     0.010 A 
ATOM     37  C   UNL A   1      41.711  25.524  28.068  1.00  0.00     0.010 A 
ATOM     38  C   UNL A   1      40.705  26.484  28.219  1.00  0.00    -0.014 A 
BRANCH  38  39
ATOM     39  C   UNL A   1      41.001  27.669  29.028  1.00  0.00     0.031 A 
ATOM     40  C   UNL A   1      42.069  28.568  28.479  1.00  0.00     0.074 A 
ATOM     41  C   UNL A   1      40.169  28.066  30.018  1.00  0.00     0.049 A 
ATOM     42  N   UNL A   1      43.216  28.855  29.002  1.00  0.00    -0.248 NA
ATOM     43  C   UNL A   1      41.911  29.096  27.110  1.00  0.00     0.031 C 
ATOM     44  C   UNL A   1      38.909  27.440  30.445  1.00  0.00     0.029 A 
ATOM     45  N   UNL A   1      40.188  29.205  30.757  1.00  0.00    -0.354 N 
ATOM     46  C   UNL A   1      43.805  29.798  28.158  1.00  0.00     0.074 A 
ATOM     47  C   UNL A   1      43.073  29.729  26.923  1.00  0.00     0.031 C 
ATOM     48  C   UNL A   1      38.169  28.330  31.138  1.00  0.00     0.029 A 
ATOM     49  C   UNL A   1      38.975  29.509  31.374  1.00  0.00     0.049 A 
ATOM     50  H   UNL A   1      40.990  29.768  30.850  1.00  0.00     0.167 HD
ATOM     51  C   UNL A   1      44.670  30.741  28.638  1.00  0.00     0.037 A 
ATOM     52  C   UNL A   1      38.650  30.668  32.002  1.00  0.00     0.037 A 
ATOM     53  C   UNL A   1      45.139  30.377  29.955  1.00  0.00     0.049 A 
ATOM     54  C   UNL A   1      39.936  31.330  32.353  1.00  0.00     0.074 A 
ATOM     55  C   UNL A   1      45.784  29.274  30.483  1.00  0.00     0.029 A 
ATOM     56  N   UNL A   1      44.596  31.038  31.031  1.00  0.00    -0.354 N 
ATOM     57  N   UNL A   1      40.801  30.823  33.193  1.00  0.00    -0.248 NA
ATOM     58  C   UNL A   1      40.483  32.288  31.404  1.00  0.00     0.031 C 
ATOM     59  C   UNL A   1      45.151  29.053  31.742  1.00  0.00     0.029 A 
ATOM     60  C   UNL A   1      44.237  30.088  31.952  1.00  0.00     0.049 A 
ATOM     61  H   UNL A   1      44.485  32.012  31.123  1.00  0.00     0.167 HD
ATOM     62  C   UNL A   1      42.041  31.051  32.612  1.00  0.00     0.074 A 
ATOM     63  C   UNL A   1      41.785  32.024  31.551  1.00  0.00     0.031 C 
ATOM     64  C   UNL A   1      43.098  30.214  32.839  1.00  0.00     0.037 A 
BRANCH  51  65
ATOM     65  C   UNL A   1      44.792  32.162  28.115  1.00  0.00     0.058 A 
ATOM     66  C   UNL A   1      46.030  32.596  27.588  1.00  0.00     0.135 A 
ATOM     67  C   UNL A   1      43.860  33.191  28.373  1.00  0.00     0.135 A 
ATOM     68  F   UNL A   1      46.995  31.712  27.288  1.00  0.00    -0.206 F 
ATOM     69  C   UNL A   1      46.351  33.947  27.431  1.00  0.00     0.059 A 
ATOM     70  C   UNL A   1      44.140  34.539  28.174  1.00  0.00     0.059 A 
ATOM     71  F   UNL A   1      42.662  32.959  28.919  1.00  0.00    -0.206 F 
ATOM     72  C   UNL A   1      45.403  34.912  27.750  1.00  0.00     0.060 A 
BRANCH  72  73
ATOM     73  S   UNL A   1      45.846  36.656  27.664  1.00  0.00     0.124 S 
ATOM     74  O   UNL A   1      46.933  36.630  26.692  1.00  0.00    -0.237 OA
ATOM     75  O   UNL A   1      44.597  37.262  27.214  1.00  0.00    -0.237 OA
ATOM     76  O   UNL A   1      46.230  36.971  29.036  1.00  0.00    -0.744 OA
ENDBRANCH  72  73
ENDBRANCH  51  65
BRANCH  52  77
ATOM     77  C   UNL A   1      37.341  31.380  31.944  1.00  0.00     0.058 A 
ATOM     78  C   UNL A   1      36.687  31.797  33.117  1.00  0.00     0.135 A 
ATOM     79  C   UNL A   1      36.834  31.908  30.736  1.00  0.00     0.135 A 
ATOM     80  F   UNL A   1      37.107  31.356  34.313  1.00  0.00    -0.206 F 
ATOM     81  C   UNL A   1      35.638  32.725  33.100  1.00  0.00     0.059 A 
ATOM     82  C   UNL A   1      35.782  32.822  30.693  1.00  0.00     0.059 A 
ATOM     83  F   UNL A   1      37.408  31.625  29.557  1.00  0.00    -0.206 F 
ATOM     84  C   UNL A   1      35.208  33.252  31.882  1.00  0.00     0.060 A 
BRANCH  84  85
ATOM     85  S   UNL A   1      33.997  34.596  31.863  1.00  0.00     0.124 S 
ATOM     86  O   UNL A   1      32.995  34.114  32.807  1.00  0.00    -0.237 OA
ATOM     87  O   UNL A   1      34.795  35.735  32.306  1.00  0.00    -0.237 OA
ATOM     88  O   UNL A   1      33.568  34.646  30.468  1.00  0.00    -0.744 OA
ENDBRANCH  84  85
ENDBRANCH  52  77
BRANCH  64  89
ATOM     89  C   UNL A   1      42.997  29.192  33.946  1.00  0.00     0.058 A 
ATOM     90  C   UNL A   1      43.168  29.467  35.315  1.00  0.00     0.135 A 
ATOM     91  C   UNL A   1      42.531  27.911  33.612  1.00  0.00     0.135 A 
ATOM     92  F   UNL A   1      43.505  30.693  35.736  1.00  0.00    -0.206 F 
ATOM     93  C   UNL A   1      42.929  28.504  36.299  1.00  0.00     0.059 A 
ATOM     94  C   UNL A   1      42.255  26.946  34.576  1.00  0.00     0.059 A 
ATOM     95  F   UNL A   1      42.281  27.600  32.329  1.00  0.00    -0.206 F 
ATOM     96  C   UNL A   1      42.471  27.244  35.919  1.00  0.00     0.060 A 
BRANCH  96  97
ATOM     97  S   UNL A   1      42.103  26.017  37.192  1.00  0.00     0.124 S 
ATOM     98  O   UNL A   1      42.405  24.765  36.506  1.00  0.00    -0.237 OA
ATOM     99  O   UNL A   1      43.019  26.389  38.266  1.00  0.00    -0.237 OA
ATOM    100  O   UNL A   1      40.690  26.243  37.486  1.00  0.00    -0.744 OA
ENDBRANCH  96  97
ENDBRANCH  64  89
ENDBRANCH  38  39
ENDBRANCH  30  33
ENDBRANCH  28  29
ENDBRANCH   1  28
TORSDOF 15
ENDMDL
MODEL 3
REMARK VINA RESULT:     -12.6      2.734      9.101
REMARK SMILES Cc1ccn(CC(=O)N2CCC3(CC2)NC(=O)C[C@@H]3C(=O)NCCCNC(=O)c2ccc(-c3c4nc(c(-c5c(F)cc(S(=O)(=O)[O-])cc5F)c5ccc([nH]5)c(-c5c(F)cc(S(=O)(=O)[O-])cc5F)c5nc(c(-c6c(F)cc(S(=O)(=O)[O-])cc6F)c6ccc3[nH]6)C=C5)C=C4)cc2)n1
REMARK SMILES IDX 24 1 23 2 22 3 20 4 21 5 19 7 7 8 8 9 9 10 10 11 14 12 11 13
REMARK SMILES IDX 13 14 12 15 15 16 16 17 18 19 17 20 6 21 5 22 1 23 2 24 3 25
REMARK SMILES IDX 95 26 4 27 25 28 26 29 27 30 28 32 29 33 30 34 94 35 31 36
REMARK SMILES IDX 93 37 32 38 33 39 34 40 87 41 35 42 92 43 86 44 88 45 36 46
REMARK SMILES IDX 91 47 85 48 84 49 37 51 71 52 50 53 70 54 51 55 54 56 69 57
REMARK SMILES IDX 89 58 52 59 53 60 68 62 90 63 55 64 38 65 39 66 48 67 40 68
REMARK SMILES IDX 41 69 47 70 49 71 42 72 43 73 44 74 45 75 46 76 72 77 73 78
REMARK SMILES IDX 82 79 74 80 75 81 81 82 83 83 76 84 77 85 78 86 79 87 80 88
REMARK SMILES IDX 56 89 57 90 66 91 58 92 59 93 65 94 67 95 60 96 61 97 62 98
REMARK SMILES IDX 63 99 64 100
REMARK H PARENT 22 6 15 18 26 31 88 50 54 61
REMARK Flexibility Score: inf
ROOT
ATOM      1  C   UNL A   1      32.335  29.302  27.249  1.00  0.00     0.042 C 
ENDROOT
BRANCH   1   2
ATOM      2  C   UNL A   1      32.006  27.878  27.682  1.00  0.00     0.117 C 
BRANCH   2   3
ATOM      3  N   UNL A   1      31.028  27.150  26.850  1.00  0.00    -0.356 N 
ATOM      4  C   UNL A   1      31.282  26.013  26.111  1.00  0.00     0.226 C 
ATOM      5  O   UNL A   1      31.052  24.930  26.659  1.00  0.00    -0.275 OA
ATOM      6  H   UNL A   1      30.112  27.509  26.818  1.00  0.00     0.163 HD
BRANCH   4   7
ATOM      7  C   UNL A   1      31.593  26.016  24.580  1.00  0.00     0.113 C 
ATOM      8  C   UNL A   1      35.006  22.303  25.658  1.00  0.00     0.244 C 
ATOM      9  O   UNL A   1      34.924  22.145  26.883  1.00  0.00    -0.273 OA
ATOM     10  N   UNL A   1      34.171  23.193  24.992  1.00  0.00    -0.341 N 
ATOM     11  C   UNL A   1      33.722  24.277  25.792  1.00  0.00     0.122 C 
ATOM     12  C   UNL A   1      33.467  23.091  23.703  1.00  0.00     0.122 C 
ATOM     13  C   UNL A   1      34.061  25.550  25.015  1.00  0.00     0.051 C 
ATOM     14  C   UNL A   1      33.141  24.459  23.031  1.00  0.00     0.051 C 
ATOM     15  C   UNL A   1      32.997  25.711  23.960  1.00  0.00     0.055 C 
ATOM     16  N   UNL A   1      33.273  26.895  23.166  1.00  0.00    -0.350 N 
ATOM     17  C   UNL A   1      32.313  27.866  23.210  1.00  0.00     0.221 C 
ATOM     18  H   UNL A   1      34.095  26.992  22.631  1.00  0.00     0.164 HD
ATOM     19  C   UNL A   1      31.171  27.399  24.049  1.00  0.00     0.116 C 
ATOM     20  O   UNL A   1      32.392  28.938  22.625  1.00  0.00    -0.275 OA
BRANCH   8  21
ATOM     21  C   UNL A   1      36.216  21.760  24.958  1.00  0.00     0.244 C 
BRANCH  21  22
ATOM     22  N   UNL A   1      37.426  22.376  25.413  1.00  0.00    -0.263 N 
ATOM     23  C   UNL A   1      40.344  21.774  27.251  1.00  0.00     0.069 C 
ATOM     24  C   UNL A   1      39.231  22.376  26.490  1.00  0.00     0.059 A 
ATOM     25  C   UNL A   1      38.757  23.708  26.503  1.00  0.00     0.045 A 
ATOM     26  N   UNL A   1      38.465  21.589  25.729  1.00  0.00    -0.178 NA
ATOM     27  C   UNL A   1      37.598  23.682  25.764  1.00  0.00     0.109 A 
ENDBRANCH  21  22
ENDBRANCH   8  21
ENDBRANCH   4   7
ENDBRANCH   2   3
ENDBRANCH   1   2
BRANCH   1  28
ATOM     28  C   UNL A   1      33.845  29.503  27.196  1.00  0.00     0.118 C 
BRANCH  28  29
ATOM     29  N   UNL A   1      34.293  30.885  26.944  1.00  0.00    -0.352 N 
ATOM     30  C   UNL A   1      35.272  31.572  27.657  1.00  0.00     0.251 C 
ATOM     31  H   UNL A   1      33.859  31.366  26.203  1.00  0.00     0.163 HD
ATOM     32  O   UNL A   1      35.381  32.789  27.624  1.00  0.00    -0.269 OA
BRANCH  30  33
ATOM     33  C   UNL A   1      36.199  30.746  28.444  1.00  0.00     0.039 A 
ATOM     34  C   UNL A   1      36.558  29.461  28.026  1.00  0.00     0.014 A 
ATOM     35  C   UNL A   1      36.924  31.444  29.403  1.00  0.00     0.014 A 
ATOM     36  C   UNL A   1      37.764  28.931  28.478  1.00  0.00     0.010 A 
ATOM     37  C   UNL A   1      38.182  30.990  29.701  1.00  0.00     0.010 A 
ATOM     38  C   UNL A   1      38.606  29.730  29.266  1.00  0.00    -0.014 A 
BRANCH  38  39
ATOM     39  C   UNL A   1      40.009  29.364  29.478  1.00  0.00     0.031 A 
ATOM     40  C   UNL A   1      40.392  29.099  30.904  1.00  0.00     0.074 A 
ATOM     41  C   UNL A   1      40.802  29.004  28.443  1.00  0.00     0.049 A 
ATOM     42  N   UNL A   1      41.237  29.749  31.636  1.00  0.00    -0.248 NA
ATOM     43  C   UNL A   1      39.637  28.080  31.659  1.00  0.00     0.031 C 
ATOM     44  C   UNL A   1      40.446  28.916  27.020  1.00  0.00     0.029 A 
ATOM     45  N   UNL A   1      42.058  28.488  28.457  1.00  0.00    -0.354 N 
ATOM     46  C   UNL A   1      41.309  29.063  32.850  1.00  0.00     0.074 A 
ATOM     47  C   UNL A   1      40.156  28.205  32.884  1.00  0.00     0.031 C 
ATOM     48  C   UNL A   1      41.334  28.132  26.375  1.00  0.00     0.029 A 
ATOM     49  C   UNL A   1      42.421  27.831  27.283  1.00  0.00     0.049 A 
ATOM     50  H   UNL A   1      42.661  28.571  29.230  1.00  0.00     0.167 HD
ATOM     51  C   UNL A   1      42.451  29.063  33.600  1.00  0.00     0.037 A 
ATOM     52  C   UNL A   1      43.522  27.061  27.088  1.00  0.00     0.037 A 
ATOM     53  C   UNL A   1      43.341  30.117  33.172  1.00  0.00     0.049 A 
ATOM     54  C   UNL A   1      44.497  27.450  28.144  1.00  0.00     0.074 A 
ATOM     55  C   UNL A   1      43.226  31.488  33.043  1.00  0.00     0.029 A 
ATOM     56  N   UNL A   1      44.429  29.764  32.408  1.00  0.00    -0.354 N 
ATOM     57  N   UNL A   1      45.033  28.640  28.226  1.00  0.00    -0.248 NA
ATOM     58  C   UNL A   1      44.489  26.688  29.383  1.00  0.00     0.031 C 
ATOM     59  C   UNL A   1      43.896  31.794  31.821  1.00  0.00     0.029 A 
ATOM     60  C   UNL A   1      44.465  30.615  31.335  1.00  0.00     0.049 A 
ATOM     61  H   UNL A   1      45.063  29.035  32.598  1.00  0.00     0.167 HD
ATOM     62  C   UNL A   1      45.026  28.944  29.581  1.00  0.00     0.074 A 
ATOM     63  C   UNL A   1      44.750  27.672  30.249  1.00  0.00     0.031 C 
ATOM     64  C   UNL A   1      44.942  30.236  30.021  1.00  0.00     0.037 A 
BRANCH  51  65
ATOM     65  C   UNL A   1      42.946  27.897  34.439  1.00  0.00     0.058 A 
ATOM     66  C   UNL A   1      43.183  28.094  35.819  1.00  0.00     0.135 A 
ATOM     67  C   UNL A   1      43.472  26.698  33.909  1.00  0.00     0.135 A 
ATOM     68  F   UNL A   1      42.722  29.190  36.443  1.00  0.00    -0.206 F 
ATOM     69  C   UNL A   1      43.968  27.226  36.580  1.00  0.00     0.059 A 
ATOM     70  C   UNL A   1      44.212  25.792  34.663  1.00  0.00     0.059 A 
ATOM     71  F   UNL A   1      43.381  26.381  32.613  1.00  0.00    -0.206 F 
ATOM     72  C   UNL A   1      44.497  26.087  35.985  1.00  0.00     0.060 A 
BRANCH  72  73
ATOM     73  S   UNL A   1      45.606  25.024  36.925  1.00  0.00     0.124 S 
ATOM     74  O   UNL A   1      45.656  25.720  38.206  1.00  0.00    -0.237 OA
ATOM     75  O   UNL A   1      44.887  23.753  36.913  1.00  0.00    -0.237 OA
ATOM     76  O   UNL A   1      46.837  25.048  36.142  1.00  0.00    -0.744 OA
ENDBRANCH  72  73
ENDBRANCH  51  65
BRANCH  52  77
ATOM     77  C   UNL A   1      43.599  25.785  26.320  1.00  0.00     0.058 A 
ATOM     78  C   UNL A   1      44.626  25.557  25.389  1.00  0.00     0.135 A 
ATOM     79  C   UNL A   1      42.829  24.656  26.677  1.00  0.00     0.135 A 
ATOM     80  F   UNL A   1      45.417  26.569  24.999  1.00  0.00    -0.206 F 
ATOM     81  C   UNL A   1      44.913  24.280  24.888  1.00  0.00     0.059 A 
ATOM     82  C   UNL A   1      43.087  23.378  26.182  1.00  0.00     0.059 A 
ATOM     83  F   UNL A   1      41.855  24.738  27.596  1.00  0.00    -0.206 F 
ATOM     84  C   UNL A   1      44.152  23.191  25.311  1.00  0.00     0.060 A 
BRANCH  84  85
ATOM     85  S   UNL A   1      44.638  21.515  24.831  1.00  0.00     0.124 S 
ATOM     86  O   UNL A   1      45.988  21.424  25.376  1.00  0.00    -0.237 OA
ATOM     87  O   UNL A   1      43.626  20.700  25.496  1.00  0.00    -0.237 OA
ATOM     88  O   UNL A   1      44.552  21.542  23.373  1.00  0.00    -0.744 OA
ENDBRANCH  84  85
ENDBRANCH  52  77
BRANCH  64  89
ATOM     89  C   UNL A   1      45.138  31.359  29.031  1.00  0.00     0.058 A 
ATOM     90  C   UNL A   1      46.385  31.826  28.577  1.00  0.00     0.135 A 
ATOM     91  C   UNL A   1      44.000  31.864  28.383  1.00  0.00     0.135 A 
ATOM     92  F   UNL A   1      47.528  31.322  29.059  1.00  0.00    -0.206 F 
ATOM     93  C   UNL A   1      46.494  32.778  27.560  1.00  0.00     0.059 A 
ATOM     94  C   UNL A   1      44.085  32.788  27.346  1.00  0.00     0.059 A 
ATOM     95  F   UNL A   1      42.780  31.413  28.719  1.00  0.00    -0.206 F 
ATOM     96  C   UNL A   1      45.335  33.253  26.948  1.00  0.00     0.060 A 
BRANCH  96  97
ATOM     97  S   UNL A   1      45.475  34.438  25.593  1.00  0.00     0.124 S 
ATOM     98  O   UNL A   1      46.910  34.433  25.329  1.00  0.00    -0.237 OA
ATOM     99  O   UNL A   1      44.638  33.838  24.558  1.00  0.00    -0.237 OA
ATOM    100  O   UNL A   1      44.950  35.675  26.165  1.00  0.00    -0.744 OA
ENDBRANCH  96  97
ENDBRANCH  64  89
ENDBRANCH  38  39
ENDBRANCH  30  33
ENDBRANCH  28  29
ENDBRANCH   1  28
TORSDOF 15
ENDMDL
