MODEL 1
REMARK VINA RESULT:     -12.8      0.000      0.000
REMARK SMILES O=C(NCCCNC(=O)[C@H]1CCCCN1S(=O)(=O)c1cc[nH]c1)c1ccc(-c2c3nc(c(-c4c(F)cc(S(=O)(=O)[O-])cc4F)c4ccc([nH]4)c(-c4c(F)cc(S(=O)(=O)[O-])cc4F)c4nc(c(-c5c(F)cc(S(=O)(=O)[O-])cc5F)c5ccc2[nH]5)C=C4)C=C3)cc1
REMARK SMILES IDX 4 1 3 2 1 3 2 4 24 6 25 7 89 8 26 9 88 10 27 11 28 12 29 13
REMARK SMILES IDX 82 14 30 15 87 16 81 17 83 18 31 19 86 20 80 21 79 22 32 24
REMARK SMILES IDX 66 25 45 26 65 27 46 28 49 29 64 30 84 31 47 32 48 33 63 35
REMARK SMILES IDX 85 36 50 37 33 38 34 39 43 40 35 41 36 42 42 43 44 44 37 45
REMARK SMILES IDX 38 46 39 47 40 48 41 49 67 50 68 51 77 52 69 53 70 54 76 55
REMARK SMILES IDX 78 56 71 57 72 58 73 59 74 60 75 61 51 62 52 63 61 64 53 65
REMARK SMILES IDX 54 66 60 67 62 68 55 69 56 70 57 71 58 72 59 73 5 74 6 75
REMARK SMILES IDX 7 76 8 77 9 79 10 80 11 81 15 82 12 83 14 84 13 85 16 86
REMARK SMILES IDX 17 87 18 88 19 89 20 90 23 91 21 92 22 93
REMARK H PARENT 3 5 83 23 49 34 7 78 22 94
REMARK Flexibility Score: inf
ROOT
ATOM      1  C   UNL A   1      34.173  29.010  27.072  1.00  0.00     0.118 C 
ENDROOT
BRANCH   1   2
ATOM      2  N   UNL A   1      34.701  30.315  27.407  1.00  0.00    -0.352 N 
ATOM      3  O   UNL A   1      36.105  31.993  27.789  1.00  0.00    -0.269 OA
ATOM      4  C   UNL A   1      35.960  30.771  27.711  1.00  0.00     0.251 C 
ATOM      5  H   UNL A   1      34.016  31.023  27.418  1.00  0.00     0.163 HD
BRANCH   4   6
ATOM      6  C   UNL A   1      37.125  29.890  28.010  1.00  0.00     0.039 A 
ATOM      7  C   UNL A   1      38.294  29.829  27.245  1.00  0.00     0.014 A 
ATOM      8  C   UNL A   1      37.037  29.108  29.175  1.00  0.00     0.014 A 
ATOM      9  C   UNL A   1      39.334  28.966  27.606  1.00  0.00     0.010 A 
ATOM     10  C   UNL A   1      38.083  28.264  29.556  1.00  0.00     0.010 A 
ATOM     11  C   UNL A   1      39.244  28.201  28.776  1.00  0.00    -0.014 A 
BRANCH  11  12
ATOM     12  C   UNL A   1      40.464  27.519  29.286  1.00  0.00     0.031 A 
ATOM     13  C   UNL A   1      40.793  26.235  28.503  1.00  0.00     0.074 A 
ATOM     14  C   UNL A   1      41.118  28.073  30.349  1.00  0.00     0.049 A 
ATOM     15  N   UNL A   1      41.469  25.186  28.867  1.00  0.00    -0.248 NA
ATOM     16  C   UNL A   1      40.214  26.054  27.143  1.00  0.00     0.031 C 
ATOM     17  C   UNL A   1      40.691  29.313  31.026  1.00  0.00     0.029 A 
ATOM     18  N   UNL A   1      42.254  27.742  31.070  1.00  0.00    -0.354 N 
ATOM     19  C   UNL A   1      41.570  24.340  27.739  1.00  0.00     0.074 A 
ATOM     20  C   UNL A   1      40.673  24.862  26.756  1.00  0.00     0.031 C 
ATOM     21  C   UNL A   1      41.505  29.597  32.064  1.00  0.00     0.029 A 
ATOM     22  C   UNL A   1      42.550  28.594  32.167  1.00  0.00     0.049 A 
ATOM     23  H   UNL A   1      42.817  26.968  30.838  1.00  0.00     0.167 HD
ATOM     24  C   UNL A   1      42.488  23.335  27.623  1.00  0.00     0.037 A 
ATOM     25  C   UNL A   1      43.544  28.498  33.106  1.00  0.00     0.037 A 
ATOM     26  C   UNL A   1      43.312  23.279  28.781  1.00  0.00     0.049 A 
ATOM     27  C   UNL A   1      44.440  27.418  32.655  1.00  0.00     0.074 A 
ATOM     28  C   UNL A   1      43.115  22.828  30.057  1.00  0.00     0.029 A 
ATOM     29  N   UNL A   1      44.484  23.995  28.734  1.00  0.00    -0.354 N 
ATOM     30  N   UNL A   1      45.242  27.495  31.636  1.00  0.00    -0.248 NA
ATOM     31  C   UNL A   1      44.426  26.138  33.374  1.00  0.00     0.031 C 
ATOM     32  C   UNL A   1      43.982  23.616  30.841  1.00  0.00     0.029 A 
ATOM     33  C   UNL A   1      44.738  24.446  30.005  1.00  0.00     0.049 A 
ATOM     34  H   UNL A   1      45.039  24.155  27.937  1.00  0.00     0.167 HD
ATOM     35  C   UNL A   1      45.572  26.180  31.408  1.00  0.00     0.074 A 
ATOM     36  C   UNL A   1      45.310  25.469  32.640  1.00  0.00     0.031 C 
ATOM     37  C   UNL A   1      45.476  25.685  30.150  1.00  0.00     0.037 A 
BRANCH  24  38
ATOM     38  C   UNL A   1      42.930  22.495  26.451  1.00  0.00     0.058 A 
ATOM     39  C   UNL A   1      42.539  21.132  26.433  1.00  0.00     0.135 A 
ATOM     40  C   UNL A   1      43.977  22.848  25.588  1.00  0.00     0.135 A 
ATOM     41  F   UNL A   1      41.500  20.707  27.173  1.00  0.00    -0.206 F 
ATOM     42  C   UNL A   1      43.243  20.159  25.733  1.00  0.00     0.059 A 
ATOM     43  C   UNL A   1      44.671  21.891  24.839  1.00  0.00     0.059 A 
ATOM     44  F   UNL A   1      44.414  24.112  25.515  1.00  0.00    -0.206 F 
ATOM     45  C   UNL A   1      44.338  20.543  24.971  1.00  0.00     0.060 A 
BRANCH  45  46
ATOM     46  S   UNL A   1      45.349  19.255  24.212  1.00  0.00     0.124 S 
ATOM     47  O   UNL A   1      46.673  19.865  24.236  1.00  0.00    -0.237 OA
ATOM     48  O   UNL A   1      45.158  18.129  25.121  1.00  0.00    -0.237 OA
ATOM     49  O   UNL A   1      44.747  19.092  22.892  1.00  0.00    -0.744 OA
ENDBRANCH  45  46
ENDBRANCH  24  38
BRANCH  25  50
ATOM     50  C   UNL A   1      43.887  29.119  34.456  1.00  0.00     0.058 A 
ATOM     51  C   UNL A   1      44.697  30.243  34.667  1.00  0.00     0.135 A 
ATOM     52  C   UNL A   1      43.214  28.669  35.632  1.00  0.00     0.135 A 
ATOM     53  F   UNL A   1      45.485  30.726  33.703  1.00  0.00    -0.206 F 
ATOM     54  C   UNL A   1      44.710  30.952  35.881  1.00  0.00     0.059 A 
ATOM     55  C   UNL A   1      43.163  29.387  36.826  1.00  0.00     0.059 A 
ATOM     56  F   UNL A   1      42.526  27.518  35.654  1.00  0.00    -0.206 F 
ATOM     57  C   UNL A   1      43.889  30.554  36.932  1.00  0.00     0.060 A 
BRANCH  57  58
ATOM     58  S   UNL A   1      43.642  31.620  38.369  1.00  0.00     0.124 S 
ATOM     59  O   UNL A   1      44.236  32.875  37.922  1.00  0.00    -0.237 OA
ATOM     60  O   UNL A   1      42.190  31.620  38.521  1.00  0.00    -0.237 OA
ATOM     61  O   UNL A   1      44.367  30.916  39.424  1.00  0.00    -0.744 OA
ENDBRANCH  57  58
ENDBRANCH  25  50
BRANCH  37  62
ATOM     62  C   UNL A   1      45.733  26.707  29.059  1.00  0.00     0.058 A 
ATOM     63  C   UNL A   1      47.036  27.173  28.823  1.00  0.00     0.135 A 
ATOM     64  C   UNL A   1      44.717  27.311  28.300  1.00  0.00     0.135 A 
ATOM     65  F   UNL A   1      48.067  26.657  29.513  1.00  0.00    -0.206 F 
ATOM     66  C   UNL A   1      47.313  28.170  27.883  1.00  0.00     0.059 A 
ATOM     67  C   UNL A   1      44.963  28.297  27.343  1.00  0.00     0.059 A 
ATOM     68  F   UNL A   1      43.443  26.962  28.483  1.00  0.00    -0.206 F 
ATOM     69  C   UNL A   1      46.268  28.727  27.143  1.00  0.00     0.060 A 
BRANCH  69  70
ATOM     70  S   UNL A   1      46.642  30.004  25.919  1.00  0.00     0.124 S 
ATOM     71  O   UNL A   1      46.708  29.237  24.679  1.00  0.00    -0.237 OA
ATOM     72  O   UNL A   1      45.494  30.896  26.048  1.00  0.00    -0.237 OA
ATOM     73  O   UNL A   1      47.915  30.557  26.374  1.00  0.00    -0.744 OA
ENDBRANCH  69  70
ENDBRANCH  37  62
ENDBRANCH  11  12
ENDBRANCH   4   6
ENDBRANCH   1   2
BRANCH   1  74
ATOM     74  C   UNL A   1      32.785  28.700  27.610  1.00  0.00     0.042 C 
BRANCH  74  75
ATOM     75  C   UNL A   1      31.755  28.159  26.611  1.00  0.00     0.117 C 
BRANCH  75  76
ATOM     76  N   UNL A   1      31.486  26.757  26.864  1.00  0.00    -0.355 N 
ATOM     77  C   UNL A   1      32.010  25.599  26.386  1.00  0.00     0.238 C 
ATOM     78  H   UNL A   1      30.771  26.613  27.525  1.00  0.00     0.163 HD
ATOM     79  O   UNL A   1      31.360  24.601  26.732  1.00  0.00    -0.273 OA
BRANCH  77  80
ATOM     80  C   UNL A   1      33.314  25.467  25.549  1.00  0.00     0.162 C 
ATOM     81  C   UNL A   1      34.111  24.236  26.070  1.00  0.00     0.030 C 
ATOM     82  N   UNL A   1      33.212  25.247  24.065  1.00  0.00    -0.185 NA
ATOM     83  C   UNL A   1      33.460  22.893  25.695  1.00  0.00     0.004 C 
ATOM     84  C   UNL A   1      32.370  24.105  23.713  1.00  0.00     0.103 C 
ATOM     85  C   UNL A   1      33.052  22.828  24.225  1.00  0.00     0.017 C 
BRANCH  82  86
ATOM     86  S   UNL A   1      33.365  26.624  23.117  1.00  0.00     0.245 S 
ATOM     87  O   UNL A   1      34.146  27.564  23.873  1.00  0.00    -0.207 OA
ATOM     88  O   UNL A   1      33.823  26.186  21.813  1.00  0.00    -0.207 OA
BRANCH  86  89
ATOM     89  C   UNL A   1      31.981  27.612  22.815  1.00  0.00     0.100 A 
ATOM     90  C   UNL A   1      30.686  27.169  22.432  1.00  0.00     0.041 A 
ATOM     91  C   UNL A   1      31.831  28.896  23.314  1.00  0.00     0.104 A 
ATOM     92  C   UNL A   1      29.795  28.178  22.741  1.00  0.00     0.083 A 
ATOM     93  N   UNL A   1      30.498  29.215  23.297  1.00  0.00    -0.366 N 
ATOM     94  H   UNL A   1      30.108  30.055  23.631  1.00  0.00     0.165 HD
ENDBRANCH  86  89
ENDBRANCH  82  86
ENDBRANCH  77  80
ENDBRANCH  75  76
ENDBRANCH  74  75
ENDBRANCH   1  74
TORSDOF 15
ENDMDL
MODEL 2
REMARK VINA RESULT:     -12.6      1.614      2.789
REMARK SMILES O=C(NCCCNC(=O)[C@H]1CCCCN1S(=O)(=O)c1cc[nH]c1)c1ccc(-c2c3nc(c(-c4c(F)cc(S(=O)(=O)[O-])cc4F)c4ccc([nH]4)c(-c4c(F)cc(S(=O)(=O)[O-])cc4F)c4nc(c(-c5c(F)cc(S(=O)(=O)[O-])cc5F)c5ccc2[nH]5)C=C4)C=C3)cc1
REMARK SMILES IDX 4 1 3 2 1 3 2 4 24 6 25 7 89 8 26 9 88 10 27 11 28 12 29 13
REMARK SMILES IDX 82 14 30 15 87 16 81 17 83 18 31 19 86 20 80 21 79 22 32 24
REMARK SMILES IDX 66 25 45 26 65 27 46 28 49 29 64 30 84 31 47 32 48 33 63 35
REMARK SMILES IDX 85 36 50 37 33 38 34 39 43 40 35 41 36 42 42 43 44 44 37 45
REMARK SMILES IDX 38 46 39 47 40 48 41 49 67 50 68 51 77 52 69 53 70 54 76 55
REMARK SMILES IDX 78 56 71 57 72 58 73 59 74 60 75 61 51 62 52 63 61 64 53 65
REMARK SMILES IDX 54 66 60 67 62 68 55 69 56 70 57 71 58 72 59 73 5 74 6 75
REMARK SMILES IDX 7 76 8 77 9 79 10 80 11 81 15 82 12 83 14 84 13 85 16 86
REMARK SMILES IDX 17 87 18 88 19 89 20 90 23 91 21 92 22 93
REMARK H PARENT 3 5 83 23 49 34 7 78 22 94
REMARK Flexibility Score: inf
ROOT
ATOM      1  C   UNL A   1      34.116  28.776  26.984  1.00  0.00     0.118 C 
ENDROOT
BRANCH   1   2
ATOM      2  N   UNL A   1      34.608  30.096  27.316  1.00  0.00    -0.352 N 
ATOM      3  O   UNL A   1      35.966  31.811  27.699  1.00  0.00    -0.269 OA
ATOM      4  C   UNL A   1      35.854  30.585  27.625  1.00  0.00     0.251 C 
ATOM      5  H   UNL A   1      33.905  30.786  27.321  1.00  0.00     0.163 HD
BRANCH   4   6
ATOM      6  C   UNL A   1      37.038  29.735  27.934  1.00  0.00     0.039 A 
ATOM      7  C   UNL A   1      38.214  29.703  27.176  1.00  0.00     0.014 A 
ATOM      8  C   UNL A   1      36.964  28.953  29.100  1.00  0.00     0.014 A 
ATOM      9  C   UNL A   1      39.274  28.868  27.546  1.00  0.00     0.010 A 
ATOM     10  C   UNL A   1      38.029  28.138  29.489  1.00  0.00     0.010 A 
ATOM     11  C   UNL A   1      39.196  28.103  28.717  1.00  0.00    -0.014 A 
BRANCH  11  12
ATOM     12  C   UNL A   1      40.430  27.455  29.236  1.00  0.00     0.031 A 
ATOM     13  C   UNL A   1      40.791  26.172  28.466  1.00  0.00     0.074 A 
ATOM     14  C   UNL A   1      41.068  28.034  30.297  1.00  0.00     0.049 A 
ATOM     15  N   UNL A   1      41.491  25.143  28.841  1.00  0.00    -0.248 NA
ATOM     16  C   UNL A   1      40.220  25.965  27.106  1.00  0.00     0.031 C 
ATOM     17  C   UNL A   1      40.610  29.269  30.961  1.00  0.00     0.029 A 
ATOM     18  N   UNL A   1      42.210  27.735  31.024  1.00  0.00    -0.354 N 
ATOM     19  C   UNL A   1      41.615  24.289  27.721  1.00  0.00     0.074 A 
ATOM     20  C   UNL A   1      40.708  24.781  26.731  1.00  0.00     0.031 C 
ATOM     21  C   UNL A   1      41.414  29.582  31.998  1.00  0.00     0.029 A 
ATOM     22  C   UNL A   1      42.482  28.604  32.114  1.00  0.00     0.049 A 
ATOM     23  H   UNL A   1      42.791  26.973  30.800  1.00  0.00     0.167 HD
ATOM     24  C   UNL A   1      42.556  23.304  27.616  1.00  0.00     0.037 A 
ATOM     25  C   UNL A   1      43.475  28.540  33.056  1.00  0.00     0.037 A 
ATOM     26  C   UNL A   1      43.378  23.279  28.777  1.00  0.00     0.049 A 
ATOM     27  C   UNL A   1      44.398  27.477  32.617  1.00  0.00     0.074 A 
ATOM     28  C   UNL A   1      43.187  22.834  30.057  1.00  0.00     0.029 A 
ATOM     29  N   UNL A   1      44.533  24.021  28.727  1.00  0.00    -0.354 N 
ATOM     30  N   UNL A   1      45.200  27.563  31.599  1.00  0.00    -0.248 NA
ATOM     31  C   UNL A   1      44.411  26.203  33.347  1.00  0.00     0.031 C 
ATOM     32  C   UNL A   1      44.033  23.649  30.836  1.00  0.00     0.029 A 
ATOM     33  C   UNL A   1      44.772  24.489  29.995  1.00  0.00     0.049 A 
ATOM     34  H   UNL A   1      45.086  24.187  27.930  1.00  0.00     0.167 HD
ATOM     35  C   UNL A   1      45.562  26.254  31.385  1.00  0.00     0.074 A 
ATOM     36  C   UNL A   1      45.313  25.549  32.622  1.00  0.00     0.031 C 
ATOM     37  C   UNL A   1      45.481  25.746  30.131  1.00  0.00     0.037 A 
BRANCH  24  38
ATOM     38  C   UNL A   1      43.020  22.465  26.454  1.00  0.00     0.058 A 
ATOM     39  C   UNL A   1      42.591  21.114  26.404  1.00  0.00     0.135 A 
ATOM     40  C   UNL A   1      44.112  22.796  25.638  1.00  0.00     0.135 A 
ATOM     41  F   UNL A   1      41.511  20.712  27.095  1.00  0.00    -0.206 F 
ATOM     42  C   UNL A   1      43.294  20.128  25.721  1.00  0.00     0.059 A 
ATOM     43  C   UNL A   1      44.807  21.827  24.906  1.00  0.00     0.059 A 
ATOM     44  F   UNL A   1      44.589  24.047  25.599  1.00  0.00    -0.206 F 
ATOM     45  C   UNL A   1      44.431  20.488  25.009  1.00  0.00     0.060 A 
BRANCH  45  46
ATOM     46  S   UNL A   1      45.433  19.179  24.276  1.00  0.00     0.124 S 
ATOM     47  O   UNL A   1      46.755  19.796  24.251  1.00  0.00    -0.237 OA
ATOM     48  O   UNL A   1      45.267  18.085  25.228  1.00  0.00    -0.237 OA
ATOM     49  O   UNL A   1      44.806  18.965  22.975  1.00  0.00    -0.744 OA
ENDBRANCH  45  46
ENDBRANCH  24  38
BRANCH  25  50
ATOM     50  C   UNL A   1      43.800  29.181  34.401  1.00  0.00     0.058 A 
ATOM     51  C   UNL A   1      44.837  30.088  34.655  1.00  0.00     0.135 A 
ATOM     52  C   UNL A   1      42.899  29.018  35.497  1.00  0.00     0.135 A 
ATOM     53  F   UNL A   1      45.832  30.274  33.784  1.00  0.00    -0.206 F 
ATOM     54  C   UNL A   1      44.883  30.882  35.816  1.00  0.00     0.059 A 
ATOM     55  C   UNL A   1      42.888  29.834  36.627  1.00  0.00     0.059 A 
ATOM     56  F   UNL A   1      41.944  28.077  35.491  1.00  0.00    -0.206 F 
ATOM     57  C   UNL A   1      43.868  30.795  36.764  1.00  0.00     0.060 A 
BRANCH  57  58
ATOM     58  S   UNL A   1      43.729  32.017  38.086  1.00  0.00     0.124 S 
ATOM     59  O   UNL A   1      44.863  32.892  37.812  1.00  0.00    -0.237 OA
ATOM     60  O   UNL A   1      42.408  32.592  37.851  1.00  0.00    -0.237 OA
ATOM     61  O   UNL A   1      43.834  31.201  39.294  1.00  0.00    -0.744 OA
ENDBRANCH  57  58
ENDBRANCH  25  50
BRANCH  37  62
ATOM     62  C   UNL A   1      45.717  26.764  29.031  1.00  0.00     0.058 A 
ATOM     63  C   UNL A   1      47.010  27.257  28.794  1.00  0.00     0.135 A 
ATOM     64  C   UNL A   1      44.689  27.338  28.265  1.00  0.00     0.135 A 
ATOM     65  F   UNL A   1      48.050  26.771  29.491  1.00  0.00    -0.206 F 
ATOM     66  C   UNL A   1      47.266  28.252  27.846  1.00  0.00     0.059 A 
ATOM     67  C   UNL A   1      44.915  28.321  27.299  1.00  0.00     0.059 A 
ATOM     68  F   UNL A   1      43.423  26.962  28.448  1.00  0.00    -0.206 F 
ATOM     69  C   UNL A   1      46.211  28.778  27.098  1.00  0.00     0.060 A 
BRANCH  69  70
ATOM     70  S   UNL A   1      46.558  30.053  25.864  1.00  0.00     0.124 S 
ATOM     71  O   UNL A   1      47.845  30.577  26.312  1.00  0.00    -0.237 OA
ATOM     72  O   UNL A   1      46.589  29.280  24.627  1.00  0.00    -0.237 OA
ATOM     73  O   UNL A   1      45.434  30.976  25.995  1.00  0.00    -0.744 OA
ENDBRANCH  69  70
ENDBRANCH  37  62
ENDBRANCH  11  12
ENDBRANCH   4   6
ENDBRANCH   1   2
BRANCH   1  74
ATOM     74  C   UNL A   1      33.605  28.600  25.562  1.00  0.00     0.042 C 
BRANCH  74  75
ATOM     75  C   UNL A   1      33.701  27.195  24.955  1.00  0.00     0.117 C 
BRANCH  75  76
ATOM     76  N   UNL A   1      33.148  26.208  25.863  1.00  0.00    -0.355 N 
ATOM     77  C   UNL A   1      32.964  24.865  25.792  1.00  0.00     0.238 C 
ATOM     78  H   UNL A   1      32.839  26.595  26.715  1.00  0.00     0.163 HD
ATOM     79  O   UNL A   1      32.279  24.426  26.727  1.00  0.00    -0.273 OA
BRANCH  77  80
ATOM     80  C   UNL A   1      33.575  23.919  24.720  1.00  0.00     0.162 C 
ATOM     81  C   UNL A   1      35.037  24.373  24.438  1.00  0.00     0.030 C 
ATOM     82  N   UNL A   1      33.691  22.450  25.021  1.00  0.00    -0.185 NA
ATOM     83  C   UNL A   1      36.000  24.062  25.597  1.00  0.00     0.004 C 
ATOM     84  C   UNL A   1      34.395  22.177  26.273  1.00  0.00     0.103 C 
ATOM     85  C   UNL A   1      35.853  22.632  26.115  1.00  0.00     0.017 C 
BRANCH  82  86
ATOM     86  S   UNL A   1      32.459  21.487  24.411  1.00  0.00     0.245 S 
ATOM     87  O   UNL A   1      31.399  21.507  25.381  1.00  0.00    -0.207 OA
ATOM     88  O   UNL A   1      32.207  21.936  23.056  1.00  0.00    -0.207 OA
BRANCH  86  89
ATOM     89  C   UNL A   1      32.685  19.778  24.300  1.00  0.00     0.100 A 
ATOM     90  C   UNL A   1      32.838  18.867  25.380  1.00  0.00     0.041 A 
ATOM     91  C   UNL A   1      32.322  19.027  23.193  1.00  0.00     0.104 A 
ATOM     92  C   UNL A   1      32.531  17.607  24.906  1.00  0.00     0.083 A 
ATOM     93  N   UNL A   1      32.197  17.718  23.580  1.00  0.00    -0.366 N 
ATOM     94  H   UNL A   1      31.913  16.975  22.999  1.00  0.00     0.165 HD
ENDBRANCH  86  89
ENDBRANCH  82  86
ENDBRANCH  77  80
ENDBRANCH  75  76
ENDBRANCH  74  75
ENDBRANCH   1  74
TORSDOF 15
ENDMDL
MODEL 3
REMARK VINA RESULT:     -12.6      1.465      2.842
REMARK SMILES O=C(NCCCNC(=O)[C@H]1CCCCN1S(=O)(=O)c1cc[nH]c1)c1ccc(-c2c3nc(c(-c4c(F)cc(S(=O)(=O)[O-])cc4F)c4ccc([nH]4)c(-c4c(F)cc(S(=O)(=O)[O-])cc4F)c4nc(c(-c5c(F)cc(S(=O)(=O)[O-])cc5F)c5ccc2[nH]5)C=C4)C=C3)cc1
REMARK SMILES IDX 4 1 3 2 1 3 2 4 24 6 25 7 89 8 26 9 88 10 27 11 28 12 29 13
REMARK SMILES IDX 82 14 30 15 87 16 81 17 83 18 31 19 86 20 80 21 79 22 32 24
REMARK SMILES IDX 66 25 45 26 65 27 46 28 49 29 64 30 84 31 47 32 48 33 63 35
REMARK SMILES IDX 85 36 50 37 33 38 34 39 43 40 35 41 36 42 42 43 44 44 37 45
REMARK SMILES IDX 38 46 39 47 40 48 41 49 67 50 68 51 77 52 69 53 70 54 76 55
REMARK SMILES IDX 78 56 71 57 72 58 73 59 74 60 75 61 51 62 52 63 61 64 53 65
REMARK SMILES IDX 54 66 60 67 62 68 55 69 56 70 57 71 58 72 59 73 5 74 6 75
REMARK SMILES IDX 7 76 8 77 9 79 10 80 11 81 15 82 12 83 14 84 13 85 16 86
REMARK SMILES IDX 17 87 18 88 19 89 20 90 23 91 21 92 22 93
REMARK H PARENT 3 5 83 23 49 34 7 78 22 94
REMARK Flexibility Score: inf
ROOT
ATOM      1  C   UNL A   1      34.311  29.134  26.722  1.00  0.00     0.118 C 
ENDROOT
BRANCH   1   2
ATOM      2  N   UNL A   1      34.752  30.393  27.283  1.00  0.00    -0.352 N 
ATOM      3  O   UNL A   1      36.045  32.036  28.030  1.00  0.00    -0.269 OA
ATOM      4  C   UNL A   1      35.957  30.833  27.774  1.00  0.00     0.251 C 
ATOM      5  H   UNL A   1      34.042  31.076  27.318  1.00  0.00     0.163 HD
BRANCH   4   6
ATOM      6  C   UNL A   1      37.118  29.948  28.070  1.00  0.00     0.039 A 
ATOM      7  C   UNL A   1      38.274  29.862  27.287  1.00  0.00     0.014 A 
ATOM      8  C   UNL A   1      37.044  29.189  29.251  1.00  0.00     0.014 A 
ATOM      9  C   UNL A   1      39.313  28.997  27.648  1.00  0.00     0.010 A 
ATOM     10  C   UNL A   1      38.089  28.343  29.631  1.00  0.00     0.010 A 
ATOM     11  C   UNL A   1      39.236  28.255  28.833  1.00  0.00    -0.014 A 
BRANCH  11  12
ATOM     12  C   UNL A   1      40.459  27.573  29.335  1.00  0.00     0.031 A 
ATOM     13  C   UNL A   1      40.784  26.291  28.548  1.00  0.00     0.074 A 
ATOM     14  C   UNL A   1      41.118  28.125  30.397  1.00  0.00     0.049 A 
ATOM     15  N   UNL A   1      41.463  25.242  28.907  1.00  0.00    -0.248 NA
ATOM     16  C   UNL A   1      40.198  26.113  27.190  1.00  0.00     0.031 C 
ATOM     17  C   UNL A   1      40.693  29.363  31.078  1.00  0.00     0.029 A 
ATOM     18  N   UNL A   1      42.258  27.793  31.112  1.00  0.00    -0.354 N 
ATOM     19  C   UNL A   1      41.559  24.398  27.776  1.00  0.00     0.074 A 
ATOM     20  C   UNL A   1      40.656  24.922  26.799  1.00  0.00     0.031 C 
ATOM     21  C   UNL A   1      41.513  29.646  32.113  1.00  0.00     0.029 A 
ATOM     22  C   UNL A   1      42.558  28.643  32.209  1.00  0.00     0.049 A 
ATOM     23  H   UNL A   1      42.819  27.019  30.875  1.00  0.00     0.167 HD
ATOM     24  C   UNL A   1      42.476  23.393  27.653  1.00  0.00     0.037 A 
ATOM     25  C   UNL A   1      43.557  28.545  33.143  1.00  0.00     0.037 A 
ATOM     26  C   UNL A   1      43.306  23.336  28.807  1.00  0.00     0.049 A 
ATOM     27  C   UNL A   1      44.451  27.466  32.685  1.00  0.00     0.074 A 
ATOM     28  C   UNL A   1      43.115  22.881  30.083  1.00  0.00     0.029 A 
ATOM     29  N   UNL A   1      44.477  24.052  28.756  1.00  0.00    -0.354 N 
ATOM     30  N   UNL A   1      45.248  27.545  31.662  1.00  0.00    -0.248 NA
ATOM     31  C   UNL A   1      44.441  26.184  33.401  1.00  0.00     0.031 C 
ATOM     32  C   UNL A   1      43.986  23.668  30.865  1.00  0.00     0.029 A 
ATOM     33  C   UNL A   1      44.737  24.500  30.027  1.00  0.00     0.049 A 
ATOM     34  H   UNL A   1      45.028  24.214  27.957  1.00  0.00     0.167 HD
ATOM     35  C   UNL A   1      45.577  26.231  31.430  1.00  0.00     0.074 A 
ATOM     36  C   UNL A   1      45.322  25.518  32.661  1.00  0.00     0.031 C 
ATOM     37  C   UNL A   1      45.475  25.739  30.171  1.00  0.00     0.037 A 
BRANCH  24  38
ATOM     38  C   UNL A   1      42.912  22.556  26.478  1.00  0.00     0.058 A 
ATOM     39  C   UNL A   1      42.504  21.198  26.449  1.00  0.00     0.135 A 
ATOM     40  C   UNL A   1      43.967  22.903  25.622  1.00  0.00     0.135 A 
ATOM     41  F   UNL A   1      41.458  20.781  27.181  1.00  0.00    -0.206 F 
ATOM     42  C   UNL A   1      43.200  20.221  25.745  1.00  0.00     0.059 A 
ATOM     43  C   UNL A   1      44.652  21.942  24.868  1.00  0.00     0.059 A 
ATOM     44  F   UNL A   1      44.420  24.162  25.559  1.00  0.00    -0.206 F 
ATOM     45  C   UNL A   1      44.303  20.597  24.990  1.00  0.00     0.060 A 
BRANCH  45  46
ATOM     46  S   UNL A   1      45.301  19.302  24.226  1.00  0.00     0.124 S 
ATOM     47  O   UNL A   1      45.056  18.175  25.119  1.00  0.00    -0.237 OA
ATOM     48  O   UNL A   1      44.709  19.192  22.896  1.00  0.00    -0.237 OA
ATOM     49  O   UNL A   1      46.651  19.857  24.257  1.00  0.00    -0.744 OA
ENDBRANCH  45  46
ENDBRANCH  24  38
BRANCH  25  50
ATOM     50  C   UNL A   1      43.906  29.163  34.492  1.00  0.00     0.058 A 
ATOM     51  C   UNL A   1      43.260  28.910  35.709  1.00  0.00     0.135 A 
ATOM     52  C   UNL A   1      45.097  29.941  34.626  1.00  0.00     0.135 A 
ATOM     53  F   UNL A   1      42.074  28.297  35.756  1.00  0.00    -0.206 F 
ATOM     54  C   UNL A   1      43.823  29.249  36.953  1.00  0.00     0.059 A 
ATOM     55  C   UNL A   1      45.705  30.234  35.845  1.00  0.00     0.059 A 
ATOM     56  F   UNL A   1      45.755  30.412  33.557  1.00  0.00    -0.206 F 
ATOM     57  C   UNL A   1      45.077  29.851  37.012  1.00  0.00     0.060 A 
BRANCH  57  58
ATOM     58  S   UNL A   1      45.960  29.999  38.580  1.00  0.00     0.124 S 
ATOM     59  O   UNL A   1      46.244  31.427  38.636  1.00  0.00    -0.237 OA
ATOM     60  O   UNL A   1      44.982  29.505  39.545  1.00  0.00    -0.237 OA
ATOM     61  O   UNL A   1      47.117  29.129  38.384  1.00  0.00    -0.744 OA
ENDBRANCH  57  58
ENDBRANCH  25  50
BRANCH  37  62
ATOM     62  C   UNL A   1      45.727  26.763  29.081  1.00  0.00     0.058 A 
ATOM     63  C   UNL A   1      47.033  27.207  28.819  1.00  0.00     0.135 A 
ATOM     64  C   UNL A   1      44.705  27.391  28.349  1.00  0.00     0.135 A 
ATOM     65  F   UNL A   1      48.069  26.667  29.482  1.00  0.00    -0.206 F 
ATOM     66  C   UNL A   1      47.306  28.205  27.879  1.00  0.00     0.059 A 
ATOM     67  C   UNL A   1      44.948  28.379  27.393  1.00  0.00     0.059 A 
ATOM     68  F   UNL A   1      43.429  27.064  28.559  1.00  0.00    -0.206 F 
ATOM     69  C   UNL A   1      46.256  28.786  27.166  1.00  0.00     0.060 A 
BRANCH  69  70
ATOM     70  S   UNL A   1      46.626  30.064  25.943  1.00  0.00     0.124 S 
ATOM     71  O   UNL A   1      45.493  30.973  26.091  1.00  0.00    -0.237 OA
ATOM     72  O   UNL A   1      47.910  30.575  26.412  1.00  0.00    -0.237 OA
ATOM     73  O   UNL A   1      46.671  29.331  24.679  1.00  0.00    -0.744 OA
ENDBRANCH  69  70
ENDBRANCH  37  62
ENDBRANCH  11  12
ENDBRANCH   4   6
ENDBRANCH   1   2
BRANCH   1  74
ATOM     74  C   UNL A   1      32.833  29.047  26.373  1.00  0.00     0.042 C 
BRANCH  74  75
ATOM     75  C   UNL A   1      32.261  27.651  26.101  1.00  0.00     0.117 C 
BRANCH  75  76
ATOM     76  N   UNL A   1      33.116  26.919  25.186  1.00  0.00    -0.355 N 
ATOM     77  C   UNL A   1      33.404  25.603  25.019  1.00  0.00     0.238 C 
ATOM     78  H   UNL A   1      33.589  27.502  24.548  1.00  0.00     0.163 HD
ATOM     79  O   UNL A   1      34.340  25.415  24.228  1.00  0.00    -0.273 OA
BRANCH  77  80
ATOM     80  C   UNL A   1      32.638  24.415  25.667  1.00  0.00     0.162 C 
ATOM     81  C   UNL A   1      31.131  24.544  25.301  1.00  0.00     0.030 C 
ATOM     82  N   UNL A   1      33.000  23.009  25.273  1.00  0.00    -0.185 NA
ATOM     83  C   UNL A   1      30.839  24.229  23.824  1.00  0.00     0.004 C 
ATOM     84  C   UNL A   1      32.966  22.793  23.828  1.00  0.00     0.103 C 
ATOM     85  C   UNL A   1      31.513  22.942  23.353  1.00  0.00     0.017 C 
BRANCH  82  86
ATOM     86  S   UNL A   1      34.051  22.215  26.313  1.00  0.00     0.245 S 
ATOM     87  O   UNL A   1      34.134  23.010  27.507  1.00  0.00    -0.207 OA
ATOM     88  O   UNL A   1      33.604  20.838  26.390  1.00  0.00    -0.207 OA
BRANCH  86  89
ATOM     89  C   UNL A   1      35.734  22.135  25.931  1.00  0.00     0.100 A 
ATOM     90  C   UNL A   1      36.401  21.091  25.235  1.00  0.00     0.041 A 
ATOM     91  C   UNL A   1      36.560  23.247  25.867  1.00  0.00     0.104 A 
ATOM     92  C   UNL A   1      37.584  21.608  24.746  1.00  0.00     0.083 A 
ATOM     93  N   UNL A   1      37.661  22.926  25.117  1.00  0.00    -0.366 N 
ATOM     94  H   UNL A   1      38.391  23.544  24.882  1.00  0.00     0.165 HD
ENDBRANCH  86  89
ENDBRANCH  82  86
ENDBRANCH  77  80
ENDBRANCH  75  76
ENDBRANCH  74  75
ENDBRANCH   1  74
TORSDOF 15
ENDMDL
