MODEL 1
REMARK VINA RESULT:     -11.3      0.000      0.000
REMARK SMILES CN(CCS(C)(=O)=O)S(=O)(=O)c1cc(C(=O)NCCCNC(=O)c2ccc(-c3c4nc(c(-c5c(F)cc(S(=O)(=O)[O-])cc5F)c5ccc([nH]5)c(-c5c(F)cc(S(=O)(=O)[O-])cc5F)c5nc(c(-c6c(F)cc(S(=O)(=O)[O-])cc6F)c6ccc3[nH]6)C=C5)C=C4)cc2)ccc1F
REMARK SMILES IDX 18 1 17 2 15 3 16 4 14 6 12 7 13 8 92 9 91 10 93 11 90 12
REMARK SMILES IDX 9 13 10 14 11 15 2 16 1 17 3 18 4 19 5 20 6 21 7 22 8 23
REMARK SMILES IDX 19 24 20 25 21 26 22 27 23 29 24 30 25 31 89 32 26 33 88 34
REMARK SMILES IDX 27 35 28 36 29 37 82 38 30 39 87 40 81 41 83 42 31 43 86 44
REMARK SMILES IDX 80 45 79 46 32 48 66 49 45 50 65 51 46 52 49 53 64 54 84 55
REMARK SMILES IDX 47 56 48 57 63 59 85 60 50 61 33 62 34 63 43 64 35 65 36 66
REMARK SMILES IDX 42 67 44 68 37 69 38 70 39 71 40 72 41 73 67 74 68 75 77 76
REMARK SMILES IDX 69 77 70 78 76 79 78 80 71 81 72 82 73 83 74 84 75 85 51 86
REMARK SMILES IDX 52 87 61 88 53 89 54 90 60 91 62 92 55 93 56 94 57 95 58 96
REMARK SMILES IDX 59 97
REMARK H PARENT 17 5 21 28 83 47 49 58
REMARK Flexibility Score: inf
ROOT
ATOM      1  C   UNL A   1      36.071  22.919  24.945  1.00  0.00     0.118 C 
ENDROOT
BRANCH   1   2
ATOM      2  N   UNL A   1      35.681  22.284  26.192  1.00  0.00    -0.352 N 
ATOM      3  C   UNL A   1      34.485  22.186  26.853  1.00  0.00     0.251 C 
ATOM      4  O   UNL A   1      34.444  21.462  27.848  1.00  0.00    -0.269 OA
ATOM      5  H   UNL A   1      36.424  21.834  26.655  1.00  0.00     0.163 HD
BRANCH   3   6
ATOM      6  C   UNL A   1      33.243  22.917  26.464  1.00  0.00     0.041 A 
ATOM      7  C   UNL A   1      32.154  25.079  26.171  1.00  0.00     0.119 A 
ATOM      8  C   UNL A   1      33.214  24.311  26.674  1.00  0.00     0.038 A 
ATOM      9  C   UNL A   1      31.086  24.463  25.534  1.00  0.00     0.143 A 
ATOM     10  C   UNL A   1      31.093  23.087  25.340  1.00  0.00     0.041 A 
ATOM     11  F   UNL A   1      30.067  25.168  25.028  1.00  0.00    -0.206 F 
ATOM     12  C   UNL A   1      32.185  22.323  25.768  1.00  0.00     0.017 A 
BRANCH   7  13
ATOM     13  S   UNL A   1      32.198  26.843  26.208  1.00  0.00     0.245 S 
ATOM     14  O   UNL A   1      33.534  27.274  26.560  1.00  0.00    -0.207 OA
ATOM     15  O   UNL A   1      31.071  27.307  26.981  1.00  0.00    -0.207 OA
BRANCH  13  16
ATOM     16  N   UNL A   1      31.952  27.264  24.575  1.00  0.00    -0.200 NA
ATOM     17  C   UNL A   1      30.874  28.240  24.327  1.00  0.00     0.124 C 
BRANCH  16  18
ATOM     18  C   UNL A   1      33.091  27.303  23.613  1.00  0.00     0.118 C 
BRANCH  18  19
ATOM     19  C   UNL A   1      33.676  25.978  23.160  1.00  0.00     0.153 C 
BRANCH  19  20
ATOM     20  S   UNL A   1      32.766  25.072  21.916  1.00  0.00     0.148 S 
ATOM     21  C   UNL A   1      33.091  23.345  22.181  1.00  0.00     0.158 C 
ATOM     22  O   UNL A   1      31.357  25.278  22.209  1.00  0.00    -0.229 OA
ATOM     23  O   UNL A   1      33.284  25.416  20.611  1.00  0.00    -0.229 OA
ENDBRANCH  19  20
ENDBRANCH  18  19
ENDBRANCH  16  18
ENDBRANCH  13  16
ENDBRANCH   7  13
ENDBRANCH   3   6
ENDBRANCH   1   2
BRANCH   1  24
ATOM     24  C   UNL A   1      37.063  24.063  25.172  1.00  0.00     0.042 C 
BRANCH  24  25
ATOM     25  C   UNL A   1      37.860  23.947  26.473  1.00  0.00     0.118 C 
BRANCH  25  26
ATOM     26  N   UNL A   1      39.276  23.700  26.230  1.00  0.00    -0.352 N 
ATOM     27  C   UNL A   1      40.390  24.419  26.588  1.00  0.00     0.251 C 
ATOM     28  H   UNL A   1      39.466  22.878  25.724  1.00  0.00     0.163 HD
ATOM     29  O   UNL A   1      41.465  24.147  26.058  1.00  0.00    -0.269 OA
BRANCH  27  30
ATOM     30  C   UNL A   1      40.317  25.508  27.588  1.00  0.00     0.039 A 
ATOM     31  C   UNL A   1      39.390  25.401  28.631  1.00  0.00     0.014 A 
ATOM     32  C   UNL A   1      41.101  26.659  27.473  1.00  0.00     0.014 A 
ATOM     33  C   UNL A   1      39.298  26.413  29.590  1.00  0.00     0.010 A 
ATOM     34  C   UNL A   1      41.058  27.635  28.469  1.00  0.00     0.010 A 
ATOM     35  C   UNL A   1      40.159  27.521  29.540  1.00  0.00    -0.014 A 
BRANCH  35  36
ATOM     36  C   UNL A   1      40.155  28.550  30.614  1.00  0.00     0.031 A 
ATOM     37  C   UNL A   1      41.088  28.437  31.790  1.00  0.00     0.074 A 
ATOM     38  C   UNL A   1      39.261  29.558  30.557  1.00  0.00     0.049 A 
ATOM     39  N   UNL A   1      41.173  29.198  32.850  1.00  0.00    -0.248 NA
ATOM     40  C   UNL A   1      42.034  27.309  31.784  1.00  0.00     0.031 C 
ATOM     41  C   UNL A   1      38.282  29.756  29.486  1.00  0.00     0.029 A 
ATOM     42  N   UNL A   1      39.024  30.602  31.418  1.00  0.00    -0.354 N 
ATOM     43  C   UNL A   1      42.172  28.643  33.639  1.00  0.00     0.074 A 
ATOM     44  C   UNL A   1      42.628  27.448  32.961  1.00  0.00     0.031 C 
ATOM     45  C   UNL A   1      37.571  30.865  29.738  1.00  0.00     0.029 A 
ATOM     46  C   UNL A   1      38.007  31.434  31.010  1.00  0.00     0.049 A 
ATOM     47  H   UNL A   1      39.534  30.740  32.248  1.00  0.00     0.167 HD
ATOM     48  C   UNL A   1      42.679  29.100  34.810  1.00  0.00     0.037 A 
ATOM     49  C   UNL A   1      37.476  32.525  31.595  1.00  0.00     0.037 A 
ATOM     50  C   UNL A   1      42.231  30.300  35.469  1.00  0.00     0.049 A 
ATOM     51  C   UNL A   1      38.034  32.997  32.908  1.00  0.00     0.074 A 
ATOM     52  C   UNL A   1      42.716  30.874  36.630  1.00  0.00     0.029 A 
ATOM     53  N   UNL A   1      41.192  31.109  35.028  1.00  0.00    -0.354 N 
ATOM     54  N   UNL A   1      39.015  32.487  33.616  1.00  0.00    -0.248 NA
ATOM     55  C   UNL A   1      37.416  34.188  33.508  1.00  0.00     0.031 C 
ATOM     56  C   UNL A   1      41.936  31.996  36.923  1.00  0.00     0.029 A 
ATOM     57  C   UNL A   1      41.001  32.159  35.913  1.00  0.00     0.049 A 
ATOM     58  H   UNL A   1      40.667  30.959  34.209  1.00  0.00     0.167 HD
ATOM     59  C   UNL A   1      39.144  33.303  34.733  1.00  0.00     0.074 A 
ATOM     60  C   UNL A   1      38.151  34.351  34.601  1.00  0.00     0.031 C 
ATOM     61  C   UNL A   1      40.006  33.193  35.773  1.00  0.00     0.037 A 
BRANCH  48  62
ATOM     62  C   UNL A   1      43.785  28.308  35.457  1.00  0.00     0.058 A 
ATOM     63  C   UNL A   1      43.496  27.337  36.429  1.00  0.00     0.135 A 
ATOM     64  C   UNL A   1      45.136  28.557  35.163  1.00  0.00     0.135 A 
ATOM     65  F   UNL A   1      42.224  27.056  36.749  1.00  0.00    -0.206 F 
ATOM     66  C   UNL A   1      44.506  26.649  37.095  1.00  0.00     0.059 A 
ATOM     67  C   UNL A   1      46.162  27.859  35.796  1.00  0.00     0.059 A 
ATOM     68  F   UNL A   1      45.470  29.462  34.230  1.00  0.00    -0.206 F 
ATOM     69  C   UNL A   1      45.837  26.917  36.771  1.00  0.00     0.060 A 
BRANCH  69  70
ATOM     70  S   UNL A   1      47.134  25.989  37.617  1.00  0.00     0.124 S 
ATOM     71  O   UNL A   1      46.384  25.317  38.672  1.00  0.00    -0.237 OA
ATOM     72  O   UNL A   1      47.640  25.130  36.548  1.00  0.00    -0.237 OA
ATOM     73  O   UNL A   1      48.058  27.028  38.062  1.00  0.00    -0.744 OA
ENDBRANCH  69  70
ENDBRANCH  48  62
BRANCH  49  74
ATOM     74  C   UNL A   1      36.369  33.254  30.917  1.00  0.00     0.058 A 
ATOM     75  C   UNL A   1      36.605  34.049  29.785  1.00  0.00     0.135 A 
ATOM     76  C   UNL A   1      35.064  33.217  31.431  1.00  0.00     0.135 A 
ATOM     77  F   UNL A   1      37.838  34.127  29.260  1.00  0.00    -0.206 F 
ATOM     78  C   UNL A   1      35.596  34.810  29.207  1.00  0.00     0.059 A 
ATOM     79  C   UNL A   1      34.031  33.950  30.854  1.00  0.00     0.059 A 
ATOM     80  F   UNL A   1      34.789  32.461  32.504  1.00  0.00    -0.206 F 
ATOM     81  C   UNL A   1      34.313  34.761  29.756  1.00  0.00     0.060 A 
BRANCH  81  82
ATOM     82  S   UNL A   1      33.029  35.792  29.015  1.00  0.00     0.124 S 
ATOM     83  O   UNL A   1      33.828  36.822  28.357  1.00  0.00    -0.237 OA
ATOM     84  O   UNL A   1      32.354  34.850  28.131  1.00  0.00    -0.237 OA
ATOM     85  O   UNL A   1      32.251  36.242  30.166  1.00  0.00    -0.744 OA
ENDBRANCH  81  82
ENDBRANCH  49  74
BRANCH  61  86
ATOM     86  C   UNL A   1      39.928  34.230  36.861  1.00  0.00     0.058 A 
ATOM     87  C   UNL A   1      39.141  34.007  38.003  1.00  0.00     0.135 A 
ATOM     88  C   UNL A   1      40.555  35.478  36.731  1.00  0.00     0.135 A 
ATOM     89  F   UNL A   1      38.516  32.832  38.176  1.00  0.00    -0.206 F 
ATOM     90  C   UNL A   1      38.957  34.995  38.963  1.00  0.00     0.059 A 
ATOM     91  C   UNL A   1      40.407  36.473  37.694  1.00  0.00     0.059 A 
ATOM     92  F   UNL A   1      41.329  35.737  35.665  1.00  0.00    -0.206 F 
ATOM     93  C   UNL A   1      39.590  36.228  38.797  1.00  0.00     0.060 A 
BRANCH  93  94
ATOM     94  S   UNL A   1      39.334  37.501  40.051  1.00  0.00     0.124 S 
ATOM     95  O   UNL A   1      40.671  38.072  40.176  1.00  0.00    -0.237 OA
ATOM     96  O   UNL A   1      38.334  38.357  39.419  1.00  0.00    -0.237 OA
ATOM     97  O   UNL A   1      38.862  36.748  41.209  1.00  0.00    -0.744 OA
ENDBRANCH  93  94
ENDBRANCH  61  86
ENDBRANCH  35  36
ENDBRANCH  27  30
ENDBRANCH  25  26
ENDBRANCH  24  25
ENDBRANCH   1  24
TORSDOF 18
ENDMDL
MODEL 2
REMARK VINA RESULT:     -11.1      1.235      2.164
REMARK SMILES CN(CCS(C)(=O)=O)S(=O)(=O)c1cc(C(=O)NCCCNC(=O)c2ccc(-c3c4nc(c(-c5c(F)cc(S(=O)(=O)[O-])cc5F)c5ccc([nH]5)c(-c5c(F)cc(S(=O)(=O)[O-])cc5F)c5nc(c(-c6c(F)cc(S(=O)(=O)[O-])cc6F)c6ccc3[nH]6)C=C5)C=C4)cc2)ccc1F
REMARK SMILES IDX 18 1 17 2 15 3 16 4 14 6 12 7 13 8 92 9 91 10 93 11 90 12
REMARK SMILES IDX 9 13 10 14 11 15 2 16 1 17 3 18 4 19 5 20 6 21 7 22 8 23
REMARK SMILES IDX 19 24 20 25 21 26 22 27 23 29 24 30 25 31 89 32 26 33 88 34
REMARK SMILES IDX 27 35 28 36 29 37 82 38 30 39 87 40 81 41 83 42 31 43 86 44
REMARK SMILES IDX 80 45 79 46 32 48 66 49 45 50 65 51 46 52 49 53 64 54 84 55
REMARK SMILES IDX 47 56 48 57 63 59 85 60 50 61 33 62 34 63 43 64 35 65 36 66
REMARK SMILES IDX 42 67 44 68 37 69 38 70 39 71 40 72 41 73 67 74 68 75 77 76
REMARK SMILES IDX 69 77 70 78 76 79 78 80 71 81 72 82 73 83 74 84 75 85 51 86
REMARK SMILES IDX 52 87 61 88 53 89 54 90 60 91 62 92 55 93 56 94 57 95 58 96
REMARK SMILES IDX 59 97
REMARK H PARENT 17 5 21 28 83 47 49 58
REMARK Flexibility Score: inf
ROOT
ATOM      1  C   UNL A   1      37.495  23.793  26.266  1.00  0.00     0.118 C 
ENDROOT
BRANCH   1   2
ATOM      2  N   UNL A   1      36.381  23.038  26.813  1.00  0.00    -0.352 N 
ATOM      3  C   UNL A   1      35.119  22.773  26.350  1.00  0.00     0.251 C 
ATOM      4  O   UNL A   1      34.431  21.984  26.997  1.00  0.00    -0.269 OA
ATOM      5  H   UNL A   1      36.570  22.636  27.692  1.00  0.00     0.163 HD
BRANCH   3   6
ATOM      6  C   UNL A   1      34.517  23.398  25.135  1.00  0.00     0.041 A 
ATOM      7  C   UNL A   1      33.608  25.418  24.116  1.00  0.00     0.119 A 
ATOM      8  C   UNL A   1      34.022  24.712  25.255  1.00  0.00     0.038 A 
ATOM      9  C   UNL A   1      33.605  24.799  22.874  1.00  0.00     0.143 A 
ATOM     10  C   UNL A   1      34.071  23.496  22.747  1.00  0.00     0.041 A 
ATOM     11  F   UNL A   1      33.232  25.449  21.765  1.00  0.00    -0.206 F 
ATOM     12  C   UNL A   1      34.562  22.813  23.865  1.00  0.00     0.017 A 
BRANCH   7  13
ATOM     13  S   UNL A   1      33.205  27.134  24.194  1.00  0.00     0.245 S 
ATOM     14  O   UNL A   1      33.349  27.713  22.876  1.00  0.00    -0.207 OA
ATOM     15  O   UNL A   1      33.913  27.714  25.311  1.00  0.00    -0.207 OA
BRANCH  13  16
ATOM     16  N   UNL A   1      31.538  27.118  24.552  1.00  0.00    -0.200 NA
ATOM     17  C   UNL A   1      30.638  27.184  23.385  1.00  0.00     0.124 C 
BRANCH  16  18
ATOM     18  C   UNL A   1      31.014  26.368  25.730  1.00  0.00     0.118 C 
BRANCH  18  19
ATOM     19  C   UNL A   1      30.326  25.041  25.470  1.00  0.00     0.153 C 
BRANCH  19  20
ATOM     20  S   UNL A   1      30.581  23.743  26.673  1.00  0.00     0.148 S 
ATOM     21  C   UNL A   1      31.020  22.273  25.775  1.00  0.00     0.158 C 
ATOM     22  O   UNL A   1      31.754  24.123  27.441  1.00  0.00    -0.229 OA
ATOM     23  O   UNL A   1      29.333  23.480  27.352  1.00  0.00    -0.229 OA
ENDBRANCH  19  20
ENDBRANCH  18  19
ENDBRANCH  16  18
ENDBRANCH  13  16
ENDBRANCH   7  13
ENDBRANCH   3   6
ENDBRANCH   1   2
BRANCH   1  24
ATOM     24  C   UNL A   1      38.749  22.928  26.109  1.00  0.00     0.042 C 
BRANCH  24  25
ATOM     25  C   UNL A   1      39.976  23.469  26.846  1.00  0.00     0.118 C 
BRANCH  25  26
ATOM     26  N   UNL A   1      40.896  24.159  25.950  1.00  0.00    -0.352 N 
ATOM     27  C   UNL A   1      41.394  25.438  25.981  1.00  0.00     0.251 C 
ATOM     28  H   UNL A   1      41.214  23.615  25.193  1.00  0.00     0.163 HD
ATOM     29  O   UNL A   1      41.959  25.877  24.983  1.00  0.00    -0.269 OA
BRANCH  27  30
ATOM     30  C   UNL A   1      41.260  26.288  27.185  1.00  0.00     0.039 A 
ATOM     31  C   UNL A   1      42.196  27.306  27.397  1.00  0.00     0.014 A 
ATOM     32  C   UNL A   1      40.264  26.054  28.137  1.00  0.00     0.014 A 
ATOM     33  C   UNL A   1      42.094  28.125  28.525  1.00  0.00     0.010 A 
ATOM     34  C   UNL A   1      40.122  26.915  29.226  1.00  0.00     0.010 A 
ATOM     35  C   UNL A   1      41.032  27.962  29.429  1.00  0.00    -0.014 A 
BRANCH  35  36
ATOM     36  C   UNL A   1      40.842  28.896  30.571  1.00  0.00     0.031 A 
ATOM     37  C   UNL A   1      41.695  28.784  31.806  1.00  0.00     0.074 A 
ATOM     38  C   UNL A   1      39.852  29.811  30.516  1.00  0.00     0.049 A 
ATOM     39  N   UNL A   1      41.622  29.463  32.921  1.00  0.00    -0.248 NA
ATOM     40  C   UNL A   1      42.752  27.761  31.795  1.00  0.00     0.031 C 
ATOM     41  C   UNL A   1      38.937  29.994  29.387  1.00  0.00     0.029 A 
ATOM     42  N   UNL A   1      39.445  30.754  31.427  1.00  0.00    -0.354 N 
ATOM     43  C   UNL A   1      42.615  28.949  33.746  1.00  0.00     0.074 A 
ATOM     44  C   UNL A   1      43.242  27.864  33.023  1.00  0.00     0.031 C 
ATOM     45  C   UNL A   1      38.097  31.004  29.660  1.00  0.00     0.029 A 
ATOM     46  C   UNL A   1      38.378  31.510  31.000  1.00  0.00     0.049 A 
ATOM     47  H   UNL A   1      39.876  30.876  32.303  1.00  0.00     0.167 HD
ATOM     48  C   UNL A   1      42.985  29.360  34.983  1.00  0.00     0.037 A 
ATOM     49  C   UNL A   1      37.694  32.493  31.618  1.00  0.00     0.037 A 
ATOM     50  C   UNL A   1      42.366  30.453  35.689  1.00  0.00     0.049 A 
ATOM     51  C   UNL A   1      38.102  32.912  33.002  1.00  0.00     0.074 A 
ATOM     52  C   UNL A   1      42.703  30.978  36.923  1.00  0.00     0.029 A 
ATOM     53  N   UNL A   1      41.281  31.186  35.226  1.00  0.00    -0.354 N 
ATOM     54  N   UNL A   1      39.078  32.448  33.747  1.00  0.00    -0.248 NA
ATOM     55  C   UNL A   1      37.320  33.984  33.635  1.00  0.00     0.031 C 
ATOM     56  C   UNL A   1      41.790  31.990  37.233  1.00  0.00     0.029 A 
ATOM     57  C   UNL A   1      40.918  32.138  36.166  1.00  0.00     0.049 A 
ATOM     58  H   UNL A   1      40.836  31.050  34.359  1.00  0.00     0.167 HD
ATOM     59  C   UNL A   1      39.039  33.181  34.927  1.00  0.00     0.074 A 
ATOM     60  C   UNL A   1      37.953  34.131  34.792  1.00  0.00     0.031 C 
ATOM     61  C   UNL A   1      39.831  33.075  36.022  1.00  0.00     0.037 A 
BRANCH  48  62
ATOM     62  C   UNL A   1      44.119  28.634  35.658  1.00  0.00     0.058 A 
ATOM     63  C   UNL A   1      43.865  27.578  36.547  1.00  0.00     0.135 A 
ATOM     64  C   UNL A   1      45.456  29.027  35.476  1.00  0.00     0.135 A 
ATOM     65  F   UNL A   1      42.608  27.158  36.758  1.00  0.00    -0.206 F 
ATOM     66  C   UNL A   1      44.892  26.944  37.240  1.00  0.00     0.059 A 
ATOM     67  C   UNL A   1      46.502  28.388  36.136  1.00  0.00     0.059 A 
ATOM     68  F   UNL A   1      45.758  30.020  34.625  1.00  0.00    -0.206 F 
ATOM     69  C   UNL A   1      46.209  27.357  37.028  1.00  0.00     0.060 A 
BRANCH  69  70
ATOM     70  S   UNL A   1      47.533  26.499  37.905  1.00  0.00     0.124 S 
ATOM     71  O   UNL A   1      46.799  25.816  38.964  1.00  0.00    -0.237 OA
ATOM     72  O   UNL A   1      48.087  25.644  36.859  1.00  0.00    -0.237 OA
ATOM     73  O   UNL A   1      48.407  27.585  38.342  1.00  0.00    -0.744 OA
ENDBRANCH  69  70
ENDBRANCH  48  62
BRANCH  49  74
ATOM     74  C   UNL A   1      36.567  33.158  30.908  1.00  0.00     0.058 A 
ATOM     75  C   UNL A   1      36.798  34.062  29.860  1.00  0.00     0.135 A 
ATOM     76  C   UNL A   1      35.240  32.949  31.310  1.00  0.00     0.135 A 
ATOM     77  F   UNL A   1      38.050  34.307  29.443  1.00  0.00    -0.206 F 
ATOM     78  C   UNL A   1      35.758  34.762  29.260  1.00  0.00     0.059 A 
ATOM     79  C   UNL A   1      34.178  33.618  30.708  1.00  0.00     0.059 A 
ATOM     80  F   UNL A   1      34.969  32.084  32.300  1.00  0.00    -0.206 F 
ATOM     81  C   UNL A   1      34.451  34.540  29.698  1.00  0.00     0.060 A 
BRANCH  81  82
ATOM     82  S   UNL A   1      33.122  35.493  28.934  1.00  0.00     0.124 S 
ATOM     83  O   UNL A   1      33.876  36.498  28.190  1.00  0.00    -0.237 OA
ATOM     84  O   UNL A   1      32.446  34.482  28.128  1.00  0.00    -0.237 OA
ATOM     85  O   UNL A   1      32.365  35.994  30.077  1.00  0.00    -0.744 OA
ENDBRANCH  81  82
ENDBRANCH  49  74
BRANCH  61  86
ATOM     86  C   UNL A   1      39.566  34.009  37.172  1.00  0.00     0.058 A 
ATOM     87  C   UNL A   1      40.178  35.272  37.220  1.00  0.00     0.135 A 
ATOM     88  C   UNL A   1      38.784  33.618  38.269  1.00  0.00     0.135 A 
ATOM     89  F   UNL A   1      40.941  35.694  36.199  1.00  0.00    -0.206 F 
ATOM     90  C   UNL A   1      40.046  36.103  38.327  1.00  0.00     0.059 A 
ATOM     91  C   UNL A   1      38.614  34.445  39.376  1.00  0.00     0.059 A 
ATOM     92  F   UNL A   1      38.166  32.426  38.267  1.00  0.00    -0.206 F 
ATOM     93  C   UNL A   1      39.265  35.678  39.402  1.00  0.00     0.060 A 
BRANCH  93  94
ATOM     94  S   UNL A   1      39.109  36.768  40.834  1.00  0.00     0.124 S 
ATOM     95  O   UNL A   1      38.405  37.912  40.264  1.00  0.00    -0.237 OA
ATOM     96  O   UNL A   1      38.339  35.945  41.762  1.00  0.00    -0.237 OA
ATOM     97  O   UNL A   1      40.494  37.013  41.226  1.00  0.00    -0.744 OA
ENDBRANCH  93  94
ENDBRANCH  61  86
ENDBRANCH  35  36
ENDBRANCH  27  30
ENDBRANCH  25  26
ENDBRANCH  24  25
ENDBRANCH   1  24
TORSDOF 18
ENDMDL
MODEL 3
REMARK VINA RESULT:     -11.0      6.661     11.943
REMARK SMILES CN(CCS(C)(=O)=O)S(=O)(=O)c1cc(C(=O)NCCCNC(=O)c2ccc(-c3c4nc(c(-c5c(F)cc(S(=O)(=O)[O-])cc5F)c5ccc([nH]5)c(-c5c(F)cc(S(=O)(=O)[O-])cc5F)c5nc(c(-c6c(F)cc(S(=O)(=O)[O-])cc6F)c6ccc3[nH]6)C=C5)C=C4)cc2)ccc1F
REMARK SMILES IDX 18 1 17 2 15 3 16 4 14 6 12 7 13 8 92 9 91 10 93 11 90 12
REMARK SMILES IDX 9 13 10 14 11 15 2 16 1 17 3 18 4 19 5 20 6 21 7 22 8 23
REMARK SMILES IDX 19 24 20 25 21 26 22 27 23 29 24 30 25 31 89 32 26 33 88 34
REMARK SMILES IDX 27 35 28 36 29 37 82 38 30 39 87 40 81 41 83 42 31 43 86 44
REMARK SMILES IDX 80 45 79 46 32 48 66 49 45 50 65 51 46 52 49 53 64 54 84 55
REMARK SMILES IDX 47 56 48 57 63 59 85 60 50 61 33 62 34 63 43 64 35 65 36 66
REMARK SMILES IDX 42 67 44 68 37 69 38 70 39 71 40 72 41 73 67 74 68 75 77 76
REMARK SMILES IDX 69 77 70 78 76 79 78 80 71 81 72 82 73 83 74 84 75 85 51 86
REMARK SMILES IDX 52 87 61 88 53 89 54 90 60 91 62 92 55 93 56 94 57 95 58 96
REMARK SMILES IDX 59 97
REMARK H PARENT 17 5 21 28 83 47 49 58
REMARK Flexibility Score: inf
ROOT
ATOM      1  C   UNL A   1      33.299  30.309  26.620  1.00  0.00     0.118 C 
ENDROOT
BRANCH   1   2
ATOM      2  N   UNL A   1      32.248  29.551  27.278  1.00  0.00    -0.352 N 
ATOM      3  C   UNL A   1      31.927  28.219  27.285  1.00  0.00     0.251 C 
ATOM      4  O   UNL A   1      31.036  27.855  28.053  1.00  0.00    -0.269 OA
ATOM      5  H   UNL A   1      31.648  30.104  27.829  1.00  0.00     0.163 HD
BRANCH   3   6
ATOM      6  C   UNL A   1      32.560  27.192  26.406  1.00  0.00     0.041 A 
ATOM      7  C   UNL A   1      32.715  24.834  25.805  1.00  0.00     0.119 A 
ATOM      8  C   UNL A   1      32.298  25.837  26.692  1.00  0.00     0.038 A 
ATOM      9  C   UNL A   1      33.460  25.162  24.681  1.00  0.00     0.143 A 
ATOM     10  C   UNL A   1      33.743  26.493  24.400  1.00  0.00     0.041 A 
ATOM     11  F   UNL A   1      33.860  24.231  23.806  1.00  0.00    -0.206 F 
ATOM     12  C   UNL A   1      33.262  27.506  25.237  1.00  0.00     0.017 A 
BRANCH   7  13
ATOM     13  S   UNL A   1      32.205  23.157  26.008  1.00  0.00     0.245 S 
ATOM     14  O   UNL A   1      31.754  22.643  24.733  1.00  0.00    -0.207 OA
ATOM     15  O   UNL A   1      31.332  23.086  27.156  1.00  0.00    -0.207 OA
BRANCH  13  16
ATOM     16  N   UNL A   1      33.664  22.358  26.381  1.00  0.00    -0.200 NA
ATOM     17  C   UNL A   1      33.832  21.969  27.794  1.00  0.00     0.124 C 
BRANCH  16  18
ATOM     18  C   UNL A   1      34.328  21.470  25.383  1.00  0.00     0.118 C 
BRANCH  18  19
ATOM     19  C   UNL A   1      35.796  21.149  25.593  1.00  0.00     0.153 C 
BRANCH  19  20
ATOM     20  S   UNL A   1      36.969  22.456  25.256  1.00  0.00     0.148 S 
ATOM     21  C   UNL A   1      38.575  21.854  25.723  1.00  0.00     0.158 C 
ATOM     22  O   UNL A   1      36.993  22.622  23.813  1.00  0.00    -0.229 OA
ATOM     23  O   UNL A   1      36.667  23.588  26.104  1.00  0.00    -0.229 OA
ENDBRANCH  19  20
ENDBRANCH  18  19
ENDBRANCH  16  18
ENDBRANCH  13  16
ENDBRANCH   7  13
ENDBRANCH   3   6
ENDBRANCH   1   2
BRANCH   1  24
ATOM     24  C   UNL A   1      34.036  31.230  27.597  1.00  0.00     0.042 C 
BRANCH  24  25
ATOM     25  C   UNL A   1      35.267  30.593  28.246  1.00  0.00     0.118 C 
BRANCH  25  26
ATOM     26  N   UNL A   1      35.388  30.943  29.655  1.00  0.00    -0.352 N 
ATOM     27  C   UNL A   1      36.376  30.671  30.569  1.00  0.00     0.251 C 
ATOM     28  H   UNL A   1      34.633  31.464  30.013  1.00  0.00     0.163 HD
ATOM     29  O   UNL A   1      36.145  30.853  31.762  1.00  0.00    -0.269 OA
BRANCH  27  30
ATOM     30  C   UNL A   1      37.699  30.162  30.145  1.00  0.00     0.039 A 
ATOM     31  C   UNL A   1      38.030  30.201  28.786  1.00  0.00     0.014 A 
ATOM     32  C   UNL A   1      38.589  29.590  31.058  1.00  0.00     0.014 A 
ATOM     33  C   UNL A   1      39.273  29.727  28.356  1.00  0.00     0.010 A 
ATOM     34  C   UNL A   1      39.855  29.183  30.638  1.00  0.00     0.010 A 
ATOM     35  C   UNL A   1      40.213  29.251  29.284  1.00  0.00    -0.014 A 
BRANCH  35  36
ATOM     36  C   UNL A   1      41.581  28.852  28.859  1.00  0.00     0.031 A 
ATOM     37  C   UNL A   1      42.693  29.864  28.799  1.00  0.00     0.074 A 
ATOM     38  C   UNL A   1      41.804  27.581  28.467  1.00  0.00     0.049 A 
ATOM     39  N   UNL A   1      43.925  29.711  28.386  1.00  0.00    -0.248 NA
ATOM     40  C   UNL A   1      42.374  31.231  29.241  1.00  0.00     0.031 C 
ATOM     41  C   UNL A   1      40.798  26.517  28.447  1.00  0.00     0.029 A 
ATOM     42  N   UNL A   1      42.942  26.968  28.004  1.00  0.00    -0.354 N 
ATOM     43  C   UNL A   1      44.526  30.957  28.510  1.00  0.00     0.074 A 
ATOM     44  C   UNL A   1      43.508  31.869  28.987  1.00  0.00     0.031 C 
ATOM     45  C   UNL A   1      41.368  25.378  28.024  1.00  0.00     0.029 A 
ATOM     46  C   UNL A   1      42.767  25.638  27.696  1.00  0.00     0.049 A 
ATOM     47  H   UNL A   1      43.802  27.435  27.902  1.00  0.00     0.167 HD
ATOM     48  C   UNL A   1      45.814  31.304  28.271  1.00  0.00     0.037 A 
ATOM     49  C   UNL A   1      43.629  24.730  27.196  1.00  0.00     0.037 A 
ATOM     50  C   UNL A   1      46.824  30.384  27.813  1.00  0.00     0.049 A 
ATOM     51  C   UNL A   1      45.045  25.144  26.910  1.00  0.00     0.074 A 
ATOM     52  C   UNL A   1      48.168  30.627  27.592  1.00  0.00     0.029 A 
ATOM     53  N   UNL A   1      46.604  29.049  27.503  1.00  0.00    -0.354 N 
ATOM     54  N   UNL A   1      45.609  26.316  27.082  1.00  0.00    -0.248 NA
ATOM     55  C   UNL A   1      45.943  24.119  26.360  1.00  0.00     0.031 C 
ATOM     56  C   UNL A   1      48.749  29.457  27.095  1.00  0.00     0.029 A 
ATOM     57  C   UNL A   1      47.781  28.465  27.062  1.00  0.00     0.049 A 
ATOM     58  H   UNL A   1      45.740  28.586  27.584  1.00  0.00     0.167 HD
ATOM     59  C   UNL A   1      46.931  26.166  26.679  1.00  0.00     0.074 A 
ATOM     60  C   UNL A   1      47.087  24.785  26.270  1.00  0.00     0.031 C 
ATOM     61  C   UNL A   1      47.923  27.090  26.652  1.00  0.00     0.037 A 
BRANCH  48  62
ATOM     62  C   UNL A   1      46.215  32.736  28.507  1.00  0.00     0.058 A 
ATOM     63  C   UNL A   1      46.214  33.663  27.452  1.00  0.00     0.135 A 
ATOM     64  C   UNL A   1      46.664  33.177  29.763  1.00  0.00     0.135 A 
ATOM     65  F   UNL A   1      45.794  33.299  26.231  1.00  0.00    -0.206 F 
ATOM     66  C   UNL A   1      46.654  34.971  27.631  1.00  0.00     0.059 A 
ATOM     67  C   UNL A   1      47.081  34.489  29.972  1.00  0.00     0.059 A 
ATOM     68  F   UNL A   1      46.670  32.338  30.811  1.00  0.00    -0.206 F 
ATOM     69  C   UNL A   1      47.086  35.375  28.895  1.00  0.00     0.060 A 
BRANCH  69  70
ATOM     70  S   UNL A   1      47.617  37.086  29.119  1.00  0.00     0.124 S 
ATOM     71  O   UNL A   1      48.801  36.926  29.954  1.00  0.00    -0.237 OA
ATOM     72  O   UNL A   1      47.860  37.512  27.743  1.00  0.00    -0.237 OA
ATOM     73  O   UNL A   1      46.468  37.715  29.765  1.00  0.00    -0.744 OA
ENDBRANCH  69  70
ENDBRANCH  48  62
BRANCH  49  74
ATOM     74  C   UNL A   1      43.168  23.334  26.963  1.00  0.00     0.058 A 
ATOM     75  C   UNL A   1      42.994  22.437  28.028  1.00  0.00     0.135 A 
ATOM     76  C   UNL A   1      42.955  22.855  25.662  1.00  0.00     0.135 A 
ATOM     77  F   UNL A   1      43.195  22.841  29.292  1.00  0.00    -0.206 F 
ATOM     78  C   UNL A   1      42.661  21.105  27.810  1.00  0.00     0.059 A 
ATOM     79  C   UNL A   1      42.595  21.533  25.420  1.00  0.00     0.059 A 
ATOM     80  F   UNL A   1      43.097  23.680  24.614  1.00  0.00    -0.206 F 
ATOM     81  C   UNL A   1      42.472  20.660  26.500  1.00  0.00     0.060 A 
BRANCH  81  82
ATOM     82  S   UNL A   1      42.083  18.916  26.239  1.00  0.00     0.124 S 
ATOM     83  O   UNL A   1      40.697  18.993  25.787  1.00  0.00    -0.237 OA
ATOM     84  O   UNL A   1      43.061  18.534  25.228  1.00  0.00    -0.237 OA
ATOM     85  O   UNL A   1      42.281  18.325  27.559  1.00  0.00    -0.744 OA
ENDBRANCH  81  82
ENDBRANCH  49  74
BRANCH  61  86
ATOM     86  C   UNL A   1      49.277  26.649  26.165  1.00  0.00     0.058 A 
ATOM     87  C   UNL A   1      50.183  26.033  27.043  1.00  0.00     0.135 A 
ATOM     88  C   UNL A   1      49.712  26.922  24.860  1.00  0.00     0.135 A 
ATOM     89  F   UNL A   1      49.821  25.753  28.305  1.00  0.00    -0.206 F 
ATOM     90  C   UNL A   1      51.482  25.727  26.651  1.00  0.00     0.059 A 
ATOM     91  C   UNL A   1      50.998  26.598  24.436  1.00  0.00     0.059 A 
ATOM     92  F   UNL A   1      48.880  27.498  23.977  1.00  0.00    -0.206 F 
ATOM     93  C   UNL A   1      51.882  26.018  25.346  1.00  0.00     0.060 A 
BRANCH  93  94
ATOM     94  S   UNL A   1      53.573  25.619  24.857  1.00  0.00     0.124 S 
ATOM     95  O   UNL A   1      54.349  26.536  25.685  1.00  0.00    -0.237 OA
ATOM     96  O   UNL A   1      53.670  24.206  25.212  1.00  0.00    -0.237 OA
ATOM     97  O   UNL A   1      53.588  25.901  23.424  1.00  0.00    -0.744 OA
ENDBRANCH  93  94
ENDBRANCH  61  86
ENDBRANCH  35  36
ENDBRANCH  27  30
ENDBRANCH  25  26
ENDBRANCH  24  25
ENDBRANCH   1  24
TORSDOF 18
ENDMDL
