MODEL 1
REMARK VINA RESULT:     -12.0      0.000      0.000
REMARK SMILES O=C(NCCCNC(=O)C1CC[NH+]([C@@H]2CC(=O)N(c3ccc(Oc4ccccc4)cc3)C2=O)CC1)c1ccc(-c2c3nc(c(-c4c(F)cc(S(=O)(=O)[O-])cc4F)c4ccc([nH]4)c(-c4c(F)cc(S(=O)(=O)[O-])cc4F)c4nc(c(-c5c(F)cc(S(=O)(=O)[O-])cc5F)c5ccc2[nH]5)C=C4)C=C3)cc1
REMARK SMILES IDX 5 1 4 2 3 3 1 4 2 5 36 7 37 8 101 9 38 10 100 11 39 12 40 13
REMARK SMILES IDX 41 14 94 15 42 16 99 17 93 18 95 19 43 20 98 21 92 22 91 23
REMARK SMILES IDX 44 25 78 26 57 27 77 28 58 29 61 30 76 31 96 32 59 33 60 34
REMARK SMILES IDX 75 36 97 37 62 38 45 39 46 40 55 41 47 42 48 43 54 44 56 45
REMARK SMILES IDX 49 46 50 47 51 48 52 49 53 50 79 51 80 52 89 53 81 54 82 55
REMARK SMILES IDX 88 56 90 57 83 58 84 59 85 60 86 61 87 62 63 63 64 64 73 65
REMARK SMILES IDX 65 66 66 67 72 68 74 69 67 70 68 71 69 72 70 73 71 74 6 75
REMARK SMILES IDX 7 76 8 77 9 79 10 80 11 81 35 82 12 83 34 84 13 85 14 87
REMARK SMILES IDX 15 88 32 89 16 90 18 91 33 92 17 93 19 94 20 95 31 96 21 97
REMARK SMILES IDX 30 98 22 99 23 100 24 101 25 102 29 103 26 104 28 105 27 106
REMARK H PARENT 3 6 95 24 61 35 7 78 13 86
REMARK Flexibility Score: inf
ROOT
ATOM      1  C   UNL A   1      32.281  30.476  27.017  1.00  0.00     0.042 C 
ENDROOT
BRANCH   1   2
ATOM      2  C   UNL A   1      33.484  31.360  27.332  1.00  0.00     0.118 C 
BRANCH   2   3
ATOM      3  N   UNL A   1      33.078  32.733  27.578  1.00  0.00    -0.352 N 
ATOM      4  O   UNL A   1      32.719  34.579  28.785  1.00  0.00    -0.269 OA
ATOM      5  C   UNL A   1      33.440  33.603  28.580  1.00  0.00     0.251 C 
ATOM      6  H   UNL A   1      32.442  33.100  26.922  1.00  0.00     0.163 HD
BRANCH   5   7
ATOM      7  C   UNL A   1      34.663  33.408  29.405  1.00  0.00     0.039 A 
ATOM      8  C   UNL A   1      34.698  32.514  30.476  1.00  0.00     0.014 A 
ATOM      9  C   UNL A   1      35.851  34.043  29.013  1.00  0.00     0.014 A 
ATOM     10  C   UNL A   1      35.872  32.337  31.209  1.00  0.00     0.010 A 
ATOM     11  C   UNL A   1      37.053  33.788  29.690  1.00  0.00     0.010 A 
ATOM     12  C   UNL A   1      37.077  32.935  30.803  1.00  0.00    -0.014 A 
BRANCH  12  13
ATOM     13  C   UNL A   1      38.354  32.552  31.472  1.00  0.00     0.031 A 
ATOM     14  C   UNL A   1      39.313  31.565  30.860  1.00  0.00     0.074 A 
ATOM     15  C   UNL A   1      38.647  33.105  32.669  1.00  0.00     0.049 A 
ATOM     16  N   UNL A   1      40.456  31.129  31.327  1.00  0.00    -0.248 NA
ATOM     17  C   UNL A   1      38.942  30.984  29.560  1.00  0.00     0.031 C 
ATOM     18  C   UNL A   1      37.788  34.052  33.388  1.00  0.00     0.029 A 
ATOM     19  N   UNL A   1      39.737  32.965  33.491  1.00  0.00    -0.354 N 
ATOM     20  C   UNL A   1      40.936  30.217  30.395  1.00  0.00     0.074 A 
ATOM     21  C   UNL A   1      39.945  30.144  29.340  1.00  0.00     0.031 C 
ATOM     22  C   UNL A   1      38.400  34.438  34.515  1.00  0.00     0.029 A 
ATOM     23  C   UNL A   1      39.657  33.713  34.644  1.00  0.00     0.049 A 
ATOM     24  H   UNL A   1      40.503  32.385  33.276  1.00  0.00     0.167 HD
ATOM     25  C   UNL A   1      42.093  29.511  30.416  1.00  0.00     0.037 A 
ATOM     26  C   UNL A   1      40.479  33.787  35.708  1.00  0.00     0.037 A 
ATOM     27  C   UNL A   1      43.074  29.588  31.473  1.00  0.00     0.049 A 
ATOM     28  C   UNL A   1      41.732  32.963  35.725  1.00  0.00     0.074 A 
ATOM     29  C   UNL A   1      44.295  28.939  31.560  1.00  0.00     0.029 A 
ATOM     30  N   UNL A   1      42.942  30.339  32.633  1.00  0.00    -0.354 N 
ATOM     31  N   UNL A   1      42.196  32.153  34.804  1.00  0.00    -0.248 NA
ATOM     32  C   UNL A   1      42.573  33.056  36.925  1.00  0.00     0.031 C 
ATOM     33  C   UNL A   1      44.872  29.248  32.796  1.00  0.00     0.029 A 
ATOM     34  C   UNL A   1      44.042  30.141  33.455  1.00  0.00     0.049 A 
ATOM     35  H   UNL A   1      42.179  30.925  32.843  1.00  0.00     0.167 HD
ATOM     36  C   UNL A   1      43.389  31.651  35.307  1.00  0.00     0.074 A 
ATOM     37  C   UNL A   1      43.588  32.266  36.603  1.00  0.00     0.031 C 
ATOM     38  C   UNL A   1      44.239  30.758  34.744  1.00  0.00     0.037 A 
BRANCH  25  39
ATOM     39  C   UNL A   1      42.368  28.569  29.271  1.00  0.00     0.058 A 
ATOM     40  C   UNL A   1      41.747  27.313  29.180  1.00  0.00     0.135 A 
ATOM     41  C   UNL A   1      43.216  28.954  28.217  1.00  0.00     0.135 A 
ATOM     42  F   UNL A   1      40.934  26.888  30.160  1.00  0.00    -0.206 F 
ATOM     43  C   UNL A   1      41.976  26.464  28.101  1.00  0.00     0.059 A 
ATOM     44  C   UNL A   1      43.436  28.132  27.115  1.00  0.00     0.059 A 
ATOM     45  F   UNL A   1      43.832  30.147  28.247  1.00  0.00    -0.206 F 
ATOM     46  C   UNL A   1      42.823  26.882  27.072  1.00  0.00     0.060 A 
BRANCH  46  47
ATOM     47  S   UNL A   1      43.107  25.765  25.683  1.00  0.00     0.124 S 
ATOM     48  O   UNL A   1      44.265  26.384  25.045  1.00  0.00    -0.237 OA
ATOM     49  O   UNL A   1      43.359  24.493  26.353  1.00  0.00    -0.237 OA
ATOM     50  O   UNL A   1      41.861  25.837  24.926  1.00  0.00    -0.744 OA
ENDBRANCH  46  47
ENDBRANCH  25  39
BRANCH  26  51
ATOM     51  C   UNL A   1      40.119  34.661  36.857  1.00  0.00     0.058 A 
ATOM     52  C   UNL A   1      39.282  34.201  37.883  1.00  0.00     0.135 A 
ATOM     53  C   UNL A   1      40.626  35.968  36.962  1.00  0.00     0.135 A 
ATOM     54  F   UNL A   1      38.768  32.962  37.825  1.00  0.00    -0.206 F 
ATOM     55  C   UNL A   1      38.947  35.008  38.966  1.00  0.00     0.059 A 
ATOM     56  C   UNL A   1      40.332  36.781  38.051  1.00  0.00     0.059 A 
ATOM     57  F   UNL A   1      41.445  36.450  36.014  1.00  0.00    -0.206 F 
ATOM     58  C   UNL A   1      39.482  36.296  39.042  1.00  0.00     0.060 A 
BRANCH  58  59
ATOM     59  S   UNL A   1      39.081  37.316  40.476  1.00  0.00     0.124 S 
ATOM     60  O   UNL A   1      38.166  38.292  39.895  1.00  0.00    -0.237 OA
ATOM     61  O   UNL A   1      38.483  36.343  41.386  1.00  0.00    -0.237 OA
ATOM     62  O   UNL A   1      40.380  37.837  40.893  1.00  0.00    -0.744 OA
ENDBRANCH  58  59
ENDBRANCH  26  51
BRANCH  38  63
ATOM     63  C   UNL A   1      45.489  30.415  35.508  1.00  0.00     0.058 A 
ATOM     64  C   UNL A   1      46.666  31.169  35.383  1.00  0.00     0.135 A 
ATOM     65  C   UNL A   1      45.492  29.342  36.415  1.00  0.00     0.135 A 
ATOM     66  F   UNL A   1      46.723  32.197  34.520  1.00  0.00    -0.206 F 
ATOM     67  C   UNL A   1      47.809  30.860  36.114  1.00  0.00     0.059 A 
ATOM     68  C   UNL A   1      46.612  29.034  37.180  1.00  0.00     0.059 A 
ATOM     69  F   UNL A   1      44.391  28.592  36.576  1.00  0.00    -0.206 F 
ATOM     70  C   UNL A   1      47.770  29.793  37.014  1.00  0.00     0.060 A 
BRANCH  70  71
ATOM     71  S   UNL A   1      49.247  29.430  37.988  1.00  0.00     0.124 S 
ATOM     72  O   UNL A   1      48.743  28.433  38.927  1.00  0.00    -0.237 OA
ATOM     73  O   UNL A   1      50.175  28.937  36.976  1.00  0.00    -0.237 OA
ATOM     74  O   UNL A   1      49.595  30.722  38.573  1.00  0.00    -0.744 OA
ENDBRANCH  70  71
ENDBRANCH  38  63
ENDBRANCH  12  13
ENDBRANCH   5   7
ENDBRANCH   2   3
ENDBRANCH   1   2
BRANCH   1  75
ATOM     75  C   UNL A   1      32.155  30.085  25.549  1.00  0.00     0.117 C 
BRANCH  75  76
ATOM     76  N   UNL A   1      31.404  28.864  25.336  1.00  0.00    -0.356 N 
ATOM     77  C   UNL A   1      31.626  27.709  24.673  1.00  0.00     0.223 C 
ATOM     78  H   UNL A   1      30.525  28.881  25.777  1.00  0.00     0.163 HD
ATOM     79  O   UNL A   1      30.825  26.802  24.945  1.00  0.00    -0.275 OA
BRANCH  77  80
ATOM     80  C   UNL A   1      32.656  27.448  23.571  1.00  0.00     0.089 C 
ATOM     81  C   UNL A   1      32.390  26.539  22.380  1.00  0.00     0.075 C 
ATOM     82  C   UNL A   1      34.016  27.144  24.189  1.00  0.00     0.075 C 
ATOM     83  C   UNL A   1      32.808  25.073  22.547  1.00  0.00     0.263 C 
ATOM     84  C   UNL A   1      34.174  25.670  24.525  1.00  0.00     0.263 C 
ATOM     85  N   UNL A   1      34.000  24.818  23.351  1.00  0.00    -0.324 N 
ATOM     86  H   UNL A   1      34.763  25.160  22.766  1.00  0.00     0.348 HD
BRANCH  85  87
ATOM     87  C   UNL A   1      34.338  23.373  23.512  1.00  0.00     0.284 C 
ATOM     88  C   UNL A   1      33.764  22.582  24.684  1.00  0.00     0.176 C 
ATOM     89  C   UNL A   1      35.834  23.127  23.664  1.00  0.00     0.292 C 
ATOM     90  C   UNL A   1      34.922  22.374  25.608  1.00  0.00     0.240 C 
ATOM     91  N   UNL A   1      36.082  22.705  24.954  1.00  0.00    -0.245 N 
ATOM     92  O   UNL A   1      36.642  23.311  22.761  1.00  0.00    -0.267 OA
ATOM     93  O   UNL A   1      34.763  21.991  26.758  1.00  0.00    -0.274 OA
BRANCH  91  94
ATOM     94  C   UNL A   1      37.382  22.609  25.519  1.00  0.00     0.052 A 
ATOM     95  C   UNL A   1      38.098  21.405  25.456  1.00  0.00     0.031 A 
ATOM     96  C   UNL A   1      37.993  23.704  26.141  1.00  0.00     0.031 A 
ATOM     97  C   UNL A   1      39.366  21.289  26.034  1.00  0.00     0.049 A 
ATOM     98  C   UNL A   1      39.258  23.587  26.733  1.00  0.00     0.049 A 
ATOM     99  C   UNL A   1      39.935  22.368  26.707  1.00  0.00     0.127 A 
BRANCH  99 100
ATOM    100  O   UNL A   1      41.170  22.129  27.269  1.00  0.00    -0.457 OA
BRANCH 100 101
ATOM    101  C   UNL A   1      41.895  21.048  26.827  1.00  0.00     0.127 A 
ATOM    102  C   UNL A   1      41.704  19.839  27.493  1.00  0.00     0.047 A 
ATOM    103  C   UNL A   1      42.827  21.146  25.790  1.00  0.00     0.047 A 
ATOM    104  C   UNL A   1      42.397  18.703  27.078  1.00  0.00     0.004 A 
ATOM    105  C   UNL A   1      43.508  20.005  25.368  1.00  0.00     0.004 A 
ATOM    106  C   UNL A   1      43.287  18.783  26.006  1.00  0.00     0.000 A 
ENDBRANCH 100 101
ENDBRANCH  99 100
ENDBRANCH  91  94
ENDBRANCH  85  87
ENDBRANCH  77  80
ENDBRANCH  75  76
ENDBRANCH   1  75
TORSDOF 17
ENDMDL
MODEL 2
REMARK VINA RESULT:     -12.0      4.828     10.913
REMARK SMILES O=C(NCCCNC(=O)C1CC[NH+]([C@@H]2CC(=O)N(c3ccc(Oc4ccccc4)cc3)C2=O)CC1)c1ccc(-c2c3nc(c(-c4c(F)cc(S(=O)(=O)[O-])cc4F)c4ccc([nH]4)c(-c4c(F)cc(S(=O)(=O)[O-])cc4F)c4nc(c(-c5c(F)cc(S(=O)(=O)[O-])cc5F)c5ccc2[nH]5)C=C4)C=C3)cc1
REMARK SMILES IDX 5 1 4 2 3 3 1 4 2 5 36 7 37 8 101 9 38 10 100 11 39 12 40 13
REMARK SMILES IDX 41 14 94 15 42 16 99 17 93 18 95 19 43 20 98 21 92 22 91 23
REMARK SMILES IDX 44 25 78 26 57 27 77 28 58 29 61 30 76 31 96 32 59 33 60 34
REMARK SMILES IDX 75 36 97 37 62 38 45 39 46 40 55 41 47 42 48 43 54 44 56 45
REMARK SMILES IDX 49 46 50 47 51 48 52 49 53 50 79 51 80 52 89 53 81 54 82 55
REMARK SMILES IDX 88 56 90 57 83 58 84 59 85 60 86 61 87 62 63 63 64 64 73 65
REMARK SMILES IDX 65 66 66 67 72 68 74 69 67 70 68 71 69 72 70 73 71 74 6 75
REMARK SMILES IDX 7 76 8 77 9 79 10 80 11 81 35 82 12 83 34 84 13 85 14 87
REMARK SMILES IDX 15 88 32 89 16 90 18 91 33 92 17 93 19 94 20 95 31 96 21 97
REMARK SMILES IDX 30 98 22 99 23 100 24 101 25 102 29 103 26 104 28 105 27 106
REMARK H PARENT 3 6 95 24 61 35 7 78 13 86
REMARK Flexibility Score: inf
ROOT
ATOM      1  C   UNL A   1      34.639  32.845  30.840  1.00  0.00     0.042 C 
ENDROOT
BRANCH   1   2
ATOM      2  C   UNL A   1      34.843  32.710  29.334  1.00  0.00     0.118 C 
BRANCH   2   3
ATOM      3  N   UNL A   1      34.105  31.577  28.802  1.00  0.00    -0.352 N 
ATOM      4  O   UNL A   1      33.751  29.779  27.523  1.00  0.00    -0.269 OA
ATOM      5  C   UNL A   1      34.553  30.426  28.195  1.00  0.00     0.251 C 
ATOM      6  H   UNL A   1      33.127  31.643  28.891  1.00  0.00     0.163 HD
BRANCH   5   7
ATOM      7  C   UNL A   1      35.954  29.945  28.331  1.00  0.00     0.039 A 
ATOM      8  C   UNL A   1      36.902  30.132  27.325  1.00  0.00     0.014 A 
ATOM      9  C   UNL A   1      36.368  29.406  29.559  1.00  0.00     0.014 A 
ATOM     10  C   UNL A   1      38.214  29.691  27.501  1.00  0.00     0.010 A 
ATOM     11  C   UNL A   1      37.709  29.054  29.769  1.00  0.00     0.010 A 
ATOM     12  C   UNL A   1      38.650  29.187  28.737  1.00  0.00    -0.014 A 
BRANCH  12  13
ATOM     13  C   UNL A   1      40.103  28.934  28.961  1.00  0.00     0.031 A 
ATOM     14  C   UNL A   1      41.025  29.994  29.505  1.00  0.00     0.074 A 
ATOM     15  C   UNL A   1      40.600  27.716  28.655  1.00  0.00     0.049 A 
ATOM     16  N   UNL A   1      42.310  29.922  29.746  1.00  0.00    -0.248 NA
ATOM     17  C   UNL A   1      40.434  31.305  29.813  1.00  0.00     0.031 C 
ATOM     18  C   UNL A   1      39.821  26.609  28.091  1.00  0.00     0.029 A 
ATOM     19  N   UNL A   1      41.865  27.196  28.776  1.00  0.00    -0.354 N 
ATOM     20  C   UNL A   1      42.689  31.173  30.217  1.00  0.00     0.074 A 
ATOM     21  C   UNL A   1      41.496  31.997  30.208  1.00  0.00     0.031 C 
ATOM     22  C   UNL A   1      40.610  25.535  27.956  1.00  0.00     0.029 A 
ATOM     23  C   UNL A   1      41.967  25.892  28.348  1.00  0.00     0.049 A 
ATOM     24  H   UNL A   1      42.627  27.707  29.135  1.00  0.00     0.167 HD
ATOM     25  C   UNL A   1      43.913  31.594  30.621  1.00  0.00     0.037 A 
ATOM     26  C   UNL A   1      43.034  25.076  28.244  1.00  0.00     0.037 A 
ATOM     27  C   UNL A   1      45.096  30.767  30.624  1.00  0.00     0.049 A 
ATOM     28  C   UNL A   1      44.385  25.580  28.659  1.00  0.00     0.074 A 
ATOM     29  C   UNL A   1      46.372  31.097  31.054  1.00  0.00     0.029 A 
ATOM     30  N   UNL A   1      45.161  29.461  30.160  1.00  0.00    -0.354 N 
ATOM     31  N   UNL A   1      44.708  26.749  29.159  1.00  0.00    -0.248 NA
ATOM     32  C   UNL A   1      45.517  24.662  28.491  1.00  0.00     0.031 C 
ATOM     33  C   UNL A   1      47.218  30.014  30.793  1.00  0.00     0.029 A 
ATOM     34  C   UNL A   1      46.459  28.984  30.261  1.00  0.00     0.049 A 
ATOM     35  H   UNL A   1      44.397  28.948  29.809  1.00  0.00     0.167 HD
ATOM     36  C   UNL A   1      46.079  26.700  29.379  1.00  0.00     0.074 A 
ATOM     37  C   UNL A   1      46.520  25.380  28.979  1.00  0.00     0.031 C 
ATOM     38  C   UNL A   1      46.895  27.667  29.865  1.00  0.00     0.037 A 
BRANCH  25  39
ATOM     39  C   UNL A   1      44.054  33.023  31.080  1.00  0.00     0.058 A 
ATOM     40  C   UNL A   1      44.366  34.061  30.187  1.00  0.00     0.135 A 
ATOM     41  C   UNL A   1      43.810  33.370  32.421  1.00  0.00     0.135 A 
ATOM     42  F   UNL A   1      44.617  33.789  28.896  1.00  0.00    -0.206 F 
ATOM     43  C   UNL A   1      44.458  35.384  30.610  1.00  0.00     0.059 A 
ATOM     44  C   UNL A   1      43.868  34.691  32.860  1.00  0.00     0.059 A 
ATOM     45  F   UNL A   1      43.500  32.421  33.318  1.00  0.00    -0.206 F 
ATOM     46  C   UNL A   1      44.206  35.689  31.949  1.00  0.00     0.060 A 
BRANCH  46  47
ATOM     47  S   UNL A   1      44.332  37.411  32.478  1.00  0.00     0.124 S 
ATOM     48  O   UNL A   1      43.959  38.118  31.256  1.00  0.00    -0.237 OA
ATOM     49  O   UNL A   1      43.361  37.474  33.566  1.00  0.00    -0.237 OA
ATOM     50  O   UNL A   1      45.729  37.545  32.879  1.00  0.00    -0.744 OA
ENDBRANCH  46  47
ENDBRANCH  25  39
BRANCH  26  51
ATOM     51  C   UNL A   1      42.862  23.704  27.698  1.00  0.00     0.058 A 
ATOM     52  C   UNL A   1      42.592  22.617  28.540  1.00  0.00     0.135 A 
ATOM     53  C   UNL A   1      42.944  23.457  26.316  1.00  0.00     0.135 A 
ATOM     54  F   UNL A   1      42.509  22.800  29.867  1.00  0.00    -0.206 F 
ATOM     55  C   UNL A   1      42.421  21.331  28.036  1.00  0.00     0.059 A 
ATOM     56  C   UNL A   1      42.744  22.187  25.786  1.00  0.00     0.059 A 
ATOM     57  F   UNL A   1      43.185  24.467  25.465  1.00  0.00    -0.206 F 
ATOM     58  C   UNL A   1      42.495  21.128  26.656  1.00  0.00     0.060 A 
BRANCH  58  59
ATOM     59  S   UNL A   1      42.223  19.464  26.010  1.00  0.00     0.124 S 
ATOM     60  O   UNL A   1      42.710  18.640  27.110  1.00  0.00    -0.237 OA
ATOM     61  O   UNL A   1      40.779  19.453  25.795  1.00  0.00    -0.237 OA
ATOM     62  O   UNL A   1      43.031  19.440  24.795  1.00  0.00    -0.744 OA
ENDBRANCH  58  59
ENDBRANCH  26  51
BRANCH  38  63
ATOM     63  C   UNL A   1      48.351  27.324  30.031  1.00  0.00     0.058 A 
ATOM     64  C   UNL A   1      49.307  27.660  29.060  1.00  0.00     0.135 A 
ATOM     65  C   UNL A   1      48.800  26.690  31.201  1.00  0.00     0.135 A 
ATOM     66  F   UNL A   1      48.931  28.255  27.916  1.00  0.00    -0.206 F 
ATOM     67  C   UNL A   1      50.655  27.363  29.234  1.00  0.00     0.059 A 
ATOM     68  C   UNL A   1      50.147  26.412  31.411  1.00  0.00     0.059 A 
ATOM     69  F   UNL A   1      47.928  26.351  32.163  1.00  0.00    -0.206 F 
ATOM     70  C   UNL A   1      51.066  26.742  30.415  1.00  0.00     0.060 A 
BRANCH  70  71
ATOM     71  S   UNL A   1      52.824  26.402  30.647  1.00  0.00     0.124 S 
ATOM     72  O   UNL A   1      52.785  25.247  31.539  1.00  0.00    -0.237 OA
ATOM     73  O   UNL A   1      53.272  26.135  29.284  1.00  0.00    -0.237 OA
ATOM     74  O   UNL A   1      53.335  27.634  31.239  1.00  0.00    -0.744 OA
ENDBRANCH  70  71
ENDBRANCH  38  63
ENDBRANCH  12  13
ENDBRANCH   5   7
ENDBRANCH   2   3
ENDBRANCH   1   2
BRANCH   1  75
ATOM     75  C   UNL A   1      35.468  31.877  31.676  1.00  0.00     0.117 C 
BRANCH  75  76
ATOM     76  N   UNL A   1      36.741  32.423  32.105  1.00  0.00    -0.356 N 
ATOM     77  C   UNL A   1      37.807  31.945  32.781  1.00  0.00     0.223 C 
ATOM     78  H   UNL A   1      36.854  33.365  31.842  1.00  0.00     0.163 HD
ATOM     79  O   UNL A   1      38.813  32.668  32.725  1.00  0.00    -0.275 OA
BRANCH  77  80
ATOM     80  C   UNL A   1      37.865  30.705  33.677  1.00  0.00     0.089 C 
ATOM     81  C   UNL A   1      38.295  30.750  35.135  1.00  0.00     0.075 C 
ATOM     82  C   UNL A   1      38.562  29.564  32.943  1.00  0.00     0.075 C 
ATOM     83  C   UNL A   1      39.785  30.507  35.404  1.00  0.00     0.263 C 
ATOM     84  C   UNL A   1      40.072  29.614  33.112  1.00  0.00     0.263 C 
ATOM     85  N   UNL A   1      40.468  29.570  34.517  1.00  0.00    -0.324 N 
ATOM     86  H   UNL A   1      40.084  28.663  34.784  1.00  0.00     0.348 HD
BRANCH  85  87
ATOM     87  C   UNL A   1      41.924  29.402  34.801  1.00  0.00     0.284 C 
ATOM     88  C   UNL A   1      42.946  29.601  33.685  1.00  0.00     0.176 C 
ATOM     89  C   UNL A   1      42.272  28.006  35.306  1.00  0.00     0.292 C 
ATOM     90  C   UNL A   1      43.428  28.223  33.357  1.00  0.00     0.240 C 
ATOM     91  N   UNL A   1      43.006  27.357  34.334  1.00  0.00    -0.245 N 
ATOM     92  O   UNL A   1      41.916  27.577  36.397  1.00  0.00    -0.267 OA
ATOM     93  O   UNL A   1      44.069  27.994  32.342  1.00  0.00    -0.274 OA
BRANCH  91  94
ATOM     94  C   UNL A   1      43.299  25.968  34.361  1.00  0.00     0.052 A 
ATOM     95  C   UNL A   1      42.557  25.100  35.176  1.00  0.00     0.031 A 
ATOM     96  C   UNL A   1      44.319  25.418  33.576  1.00  0.00     0.031 A 
ATOM     97  C   UNL A   1      42.855  23.735  35.234  1.00  0.00     0.049 A 
ATOM     98  C   UNL A   1      44.629  24.053  33.643  1.00  0.00     0.049 A 
ATOM     99  C   UNL A   1      43.915  23.212  34.497  1.00  0.00     0.127 A 
BRANCH  99 100
ATOM    100  O   UNL A   1      44.140  21.863  34.661  1.00  0.00    -0.457 OA
BRANCH 100 101
ATOM    101  C   UNL A   1      45.346  21.456  35.180  1.00  0.00     0.127 A 
ATOM    102  C   UNL A   1      45.569  21.699  36.535  1.00  0.00     0.047 A 
ATOM    103  C   UNL A   1      46.339  20.868  34.393  1.00  0.00     0.047 A 
ATOM    104  C   UNL A   1      46.766  21.292  37.123  1.00  0.00     0.004 A 
ATOM    105  C   UNL A   1      47.529  20.449  34.987  1.00  0.00     0.004 A 
ATOM    106  C   UNL A   1      47.738  20.654  36.352  1.00  0.00     0.000 A 
ENDBRANCH 100 101
ENDBRANCH  99 100
ENDBRANCH  91  94
ENDBRANCH  85  87
ENDBRANCH  77  80
ENDBRANCH  75  76
ENDBRANCH   1  75
TORSDOF 17
ENDMDL
MODEL 3
REMARK VINA RESULT:     -12.0      5.644     10.438
REMARK SMILES O=C(NCCCNC(=O)C1CC[NH+]([C@@H]2CC(=O)N(c3ccc(Oc4ccccc4)cc3)C2=O)CC1)c1ccc(-c2c3nc(c(-c4c(F)cc(S(=O)(=O)[O-])cc4F)c4ccc([nH]4)c(-c4c(F)cc(S(=O)(=O)[O-])cc4F)c4nc(c(-c5c(F)cc(S(=O)(=O)[O-])cc5F)c5ccc2[nH]5)C=C4)C=C3)cc1
REMARK SMILES IDX 5 1 4 2 3 3 1 4 2 5 36 7 37 8 101 9 38 10 100 11 39 12 40 13
REMARK SMILES IDX 41 14 94 15 42 16 99 17 93 18 95 19 43 20 98 21 92 22 91 23
REMARK SMILES IDX 44 25 78 26 57 27 77 28 58 29 61 30 76 31 96 32 59 33 60 34
REMARK SMILES IDX 75 36 97 37 62 38 45 39 46 40 55 41 47 42 48 43 54 44 56 45
REMARK SMILES IDX 49 46 50 47 51 48 52 49 53 50 79 51 80 52 89 53 81 54 82 55
REMARK SMILES IDX 88 56 90 57 83 58 84 59 85 60 86 61 87 62 63 63 64 64 73 65
REMARK SMILES IDX 65 66 66 67 72 68 74 69 67 70 68 71 69 72 70 73 71 74 6 75
REMARK SMILES IDX 7 76 8 77 9 79 10 80 11 81 35 82 12 83 34 84 13 85 14 87
REMARK SMILES IDX 15 88 32 89 16 90 18 91 33 92 17 93 19 94 20 95 31 96 21 97
REMARK SMILES IDX 30 98 22 99 23 100 24 101 25 102 29 103 26 104 28 105 27 106
REMARK H PARENT 3 6 95 24 61 35 7 78 13 86
REMARK Flexibility Score: inf
ROOT
ATOM      1  C   UNL A   1      34.492  32.453  28.863  1.00  0.00     0.042 C 
ENDROOT
BRANCH   1   2
ATOM      2  C   UNL A   1      35.606  31.438  29.095  1.00  0.00     0.118 C 
BRANCH   2   3
ATOM      3  N   UNL A   1      35.672  31.038  30.490  1.00  0.00    -0.352 N 
ATOM      4  O   UNL A   1      36.327  29.818  32.245  1.00  0.00    -0.269 OA
ATOM      5  C   UNL A   1      36.638  30.334  31.172  1.00  0.00     0.251 C 
ATOM      6  H   UNL A   1      34.901  31.316  31.037  1.00  0.00     0.163 HD
BRANCH   5   7
ATOM      7  C   UNL A   1      38.028  30.186  30.662  1.00  0.00     0.039 A 
ATOM      8  C   UNL A   1      39.110  29.975  31.517  1.00  0.00     0.014 A 
ATOM      9  C   UNL A   1      38.237  30.124  29.277  1.00  0.00     0.014 A 
ATOM     10  C   UNL A   1      40.396  29.812  31.000  1.00  0.00     0.010 A 
ATOM     11  C   UNL A   1      39.514  29.862  28.758  1.00  0.00     0.010 A 
ATOM     12  C   UNL A   1      40.613  29.709  29.616  1.00  0.00    -0.014 A 
BRANCH  12  13
ATOM     13  C   UNL A   1      41.958  29.315  29.106  1.00  0.00     0.031 A 
ATOM     14  C   UNL A   1      43.098  30.296  29.014  1.00  0.00     0.074 A 
ATOM     15  C   UNL A   1      42.149  28.039  28.708  1.00  0.00     0.049 A 
ATOM     16  N   UNL A   1      44.320  30.101  28.586  1.00  0.00    -0.248 NA
ATOM     17  C   UNL A   1      42.835  31.676  29.452  1.00  0.00     0.031 C 
ATOM     18  C   UNL A   1      41.119  26.995  28.714  1.00  0.00     0.029 A 
ATOM     19  N   UNL A   1      43.262  27.395  28.228  1.00  0.00    -0.354 N 
ATOM     20  C   UNL A   1      44.968  31.326  28.685  1.00  0.00     0.074 A 
ATOM     21  C   UNL A   1      43.994  32.269  29.197  1.00  0.00     0.031 C 
ATOM     22  C   UNL A   1      41.656  25.839  28.305  1.00  0.00     0.029 A 
ATOM     23  C   UNL A   1      43.046  26.069  27.931  1.00  0.00     0.049 A 
ATOM     24  H   UNL A   1      44.133  27.839  28.109  1.00  0.00     0.167 HD
ATOM     25  C   UNL A   1      46.254  31.634  28.382  1.00  0.00     0.037 A 
ATOM     26  C   UNL A   1      43.855  25.141  27.384  1.00  0.00     0.037 A 
ATOM     27  C   UNL A   1      47.217  30.688  27.870  1.00  0.00     0.049 A 
ATOM     28  C   UNL A   1      45.260  25.519  27.019  1.00  0.00     0.074 A 
ATOM     29  C   UNL A   1      48.553  30.900  27.572  1.00  0.00     0.029 A 
ATOM     30  N   UNL A   1      46.949  29.362  27.561  1.00  0.00    -0.354 N 
ATOM     31  N   UNL A   1      45.871  26.668  27.179  1.00  0.00    -0.248 NA
ATOM     32  C   UNL A   1      46.087  24.479  26.394  1.00  0.00     0.031 C 
ATOM     33  C   UNL A   1      49.076  29.723  27.026  1.00  0.00     0.029 A 
ATOM     34  C   UNL A   1      48.084  28.755  27.043  1.00  0.00     0.049 A 
ATOM     35  H   UNL A   1      46.080  28.916  27.689  1.00  0.00     0.167 HD
ATOM     36  C   UNL A   1      47.156  26.486  26.688  1.00  0.00     0.074 A 
ATOM     37  C   UNL A   1      47.244  25.109  26.246  1.00  0.00     0.031 C 
ATOM     38  C   UNL A   1      48.170  27.383  26.608  1.00  0.00     0.037 A 
BRANCH  25  39
ATOM     39  C   UNL A   1      46.704  33.060  28.573  1.00  0.00     0.058 A 
ATOM     40  C   UNL A   1      47.386  33.473  29.728  1.00  0.00     0.135 A 
ATOM     41  C   UNL A   1      46.508  34.012  27.558  1.00  0.00     0.135 A 
ATOM     42  F   UNL A   1      47.596  32.609  30.735  1.00  0.00    -0.206 F 
ATOM     43  C   UNL A   1      47.833  34.782  29.883  1.00  0.00     0.059 A 
ATOM     44  C   UNL A   1      46.972  35.320  27.679  1.00  0.00     0.059 A 
ATOM     45  F   UNL A   1      45.868  33.673  26.427  1.00  0.00    -0.206 F 
ATOM     46  C   UNL A   1      47.621  35.699  28.851  1.00  0.00     0.060 A 
BRANCH  46  47
ATOM     47  S   UNL A   1      48.207  37.393  29.071  1.00  0.00     0.124 S 
ATOM     48  O   UNL A   1      47.170  38.151  28.379  1.00  0.00    -0.237 OA
ATOM     49  O   UNL A   1      48.227  37.529  30.525  1.00  0.00    -0.237 OA
ATOM     50  O   UNL A   1      49.517  37.388  28.426  1.00  0.00    -0.744 OA
ENDBRANCH  46  47
ENDBRANCH  25  39
BRANCH  26  51
ATOM     51  C   UNL A   1      43.338  23.771  27.128  1.00  0.00     0.058 A 
ATOM     52  C   UNL A   1      42.883  23.394  25.857  1.00  0.00     0.135 A 
ATOM     53  C   UNL A   1      43.309  22.802  28.146  1.00  0.00     0.135 A 
ATOM     54  F   UNL A   1      42.884  24.284  24.852  1.00  0.00    -0.206 F 
ATOM     55  C   UNL A   1      42.405  22.111  25.605  1.00  0.00     0.059 A 
ATOM     56  C   UNL A   1      42.867  21.505  27.912  1.00  0.00     0.059 A 
ATOM     57  F   UNL A   1      43.748  23.108  29.377  1.00  0.00    -0.206 F 
ATOM     58  C   UNL A   1      42.406  21.173  26.640  1.00  0.00     0.060 A 
BRANCH  58  59
ATOM     59  S   UNL A   1      41.830  19.498  26.289  1.00  0.00     0.124 S 
ATOM     60  O   UNL A   1      42.583  19.176  25.082  1.00  0.00    -0.237 OA
ATOM     61  O   UNL A   1      42.224  18.780  27.498  1.00  0.00    -0.237 OA
ATOM     62  O   UNL A   1      40.391  19.668  26.111  1.00  0.00    -0.744 OA
ENDBRANCH  58  59
ENDBRANCH  26  51
BRANCH  38  63
ATOM     63  C   UNL A   1      49.482  26.896  26.055  1.00  0.00     0.058 A 
ATOM     64  C   UNL A   1      49.828  27.069  24.706  1.00  0.00     0.135 A 
ATOM     65  C   UNL A   1      50.425  26.290  26.901  1.00  0.00     0.135 A 
ATOM     66  F   UNL A   1      48.958  27.631  23.850  1.00  0.00    -0.206 F 
ATOM     67  C   UNL A   1      51.055  26.640  24.209  1.00  0.00     0.059 A 
ATOM     68  C   UNL A   1      51.670  25.882  26.433  1.00  0.00     0.059 A 
ATOM     69  F   UNL A   1      50.146  26.105  28.200  1.00  0.00    -0.206 F 
ATOM     70  C   UNL A   1      51.972  26.051  25.082  1.00  0.00     0.060 A 
BRANCH  70  71
ATOM     71  S   UNL A   1      53.577  25.539  24.434  1.00  0.00     0.124 S 
ATOM     72  O   UNL A   1      54.490  26.349  25.233  1.00  0.00    -0.237 OA
ATOM     73  O   UNL A   1      53.585  24.107  24.717  1.00  0.00    -0.237 OA
ATOM     74  O   UNL A   1      53.501  25.891  23.019  1.00  0.00    -0.744 OA
ENDBRANCH  70  71
ENDBRANCH  38  63
ENDBRANCH  12  13
ENDBRANCH   5   7
ENDBRANCH   2   3
ENDBRANCH   1   2
BRANCH   1  75
ATOM     75  C   UNL A   1      33.850  32.378  27.483  1.00  0.00     0.117 C 
BRANCH  75  76
ATOM     76  N   UNL A   1      32.688  31.512  27.429  1.00  0.00    -0.356 N 
ATOM     77  C   UNL A   1      32.450  30.259  26.988  1.00  0.00     0.223 C 
ATOM     78  H   UNL A   1      31.884  31.939  27.802  1.00  0.00     0.163 HD
ATOM     79  O   UNL A   1      31.364  29.786  27.355  1.00  0.00    -0.275 OA
BRANCH  77  80
ATOM     80  C   UNL A   1      33.298  29.434  26.016  1.00  0.00     0.089 C 
ATOM     81  C   UNL A   1      32.994  29.325  24.530  1.00  0.00     0.075 C 
ATOM     82  C   UNL A   1      33.584  28.060  26.611  1.00  0.00     0.075 C 
ATOM     83  C   UNL A   1      32.108  28.145  24.110  1.00  0.00     0.263 C 
ATOM     84  C   UNL A   1      32.477  27.064  26.307  1.00  0.00     0.263 C 
ATOM     85  N   UNL A   1      32.258  26.909  24.872  1.00  0.00    -0.324 N 
ATOM     86  H   UNL A   1      33.173  26.560  24.586  1.00  0.00     0.348 HD
BRANCH  85  87
ATOM     87  C   UNL A   1      31.345  25.808  24.445  1.00  0.00     0.284 C 
ATOM     88  C   UNL A   1      30.397  25.169  25.456  1.00  0.00     0.176 C 
ATOM     89  C   UNL A   1      32.091  24.596  23.900  1.00  0.00     0.292 C 
ATOM     90  C   UNL A   1      30.979  23.818  25.727  1.00  0.00     0.240 C 
ATOM     91  N   UNL A   1      31.947  23.552  24.791  1.00  0.00    -0.245 N 
ATOM     92  O   UNL A   1      32.718  24.609  22.847  1.00  0.00    -0.267 OA
ATOM     93  O   UNL A   1      30.607  23.139  26.672  1.00  0.00    -0.274 OA
BRANCH  91  94
ATOM     94  C   UNL A   1      32.697  22.348  24.727  1.00  0.00     0.052 A 
ATOM     95  C   UNL A   1      32.265  21.282  23.925  1.00  0.00     0.031 A 
ATOM     96  C   UNL A   1      33.888  22.187  25.445  1.00  0.00     0.031 A 
ATOM     97  C   UNL A   1      32.979  20.081  23.876  1.00  0.00     0.049 A 
ATOM     98  C   UNL A   1      34.598  20.979  25.409  1.00  0.00     0.049 A 
ATOM     99  C   UNL A   1      34.127  19.911  24.645  1.00  0.00     0.127 A 
BRANCH  99 100
ATOM    100  O   UNL A   1      34.727  18.675  24.547  1.00  0.00    -0.457 OA
BRANCH 100 101
ATOM    101  C   UNL A   1      34.008  17.564  24.919  1.00  0.00     0.127 A 
ATOM    102  C   UNL A   1      34.572  16.320  24.641  1.00  0.00     0.047 A 
ATOM    103  C   UNL A   1      32.743  17.653  25.506  1.00  0.00     0.047 A 
ATOM    104  C   UNL A   1      33.899  15.157  25.013  1.00  0.00     0.004 A 
ATOM    105  C   UNL A   1      32.079  16.489  25.889  1.00  0.00     0.004 A 
ATOM    106  C   UNL A   1      32.660  15.242  25.649  1.00  0.00     0.000 A 
ENDBRANCH 100 101
ENDBRANCH  99 100
ENDBRANCH  91  94
ENDBRANCH  85  87
ENDBRANCH  77  80
ENDBRANCH  75  76
ENDBRANCH   1  75
TORSDOF 17
ENDMDL
