MODEL 1
REMARK VINA RESULT:     -12.2      0.000      0.000
REMARK SMILES CC(=O)Nc1c(C)nn([C@H](C)C(=O)NCCCNC(=O)c2ccc(-c3c4nc(c(-c5c(F)cc(S(=O)(=O)[O-])cc5F)c5ccc([nH]5)c(-c5c(F)cc(S(=O)(=O)[O-])cc5F)c5nc(c(-c6c(F)cc(S(=O)(=O)[O-])cc6F)c6ccc3[nH]6)C=C5)C=C4)cc2)c1C
REMARK SMILES IDX 16 1 15 2 14 3 12 4 13 5 10 7 11 8 9 9 5 10 6 11 87 12 7 13
REMARK SMILES IDX 8 14 88 15 4 16 1 17 2 18 3 19 17 21 18 22 19 23 20 25 21 26
REMARK SMILES IDX 22 27 86 28 23 29 85 30 24 31 25 32 26 33 79 34 27 35 84 36
REMARK SMILES IDX 78 37 80 38 28 39 83 40 77 41 76 42 29 44 63 45 42 46 62 47
REMARK SMILES IDX 43 48 46 49 61 50 81 51 44 52 45 53 60 55 82 56 47 57 30 58
REMARK SMILES IDX 31 59 40 60 32 61 33 62 39 63 41 64 34 65 35 66 36 67 37 68
REMARK SMILES IDX 38 69 64 70 65 71 74 72 66 73 67 74 73 75 75 76 68 77 69 78
REMARK SMILES IDX 70 79 71 80 72 81 48 82 49 83 58 84 50 85 51 86 57 87 59 88
REMARK SMILES IDX 52 89 53 90 54 91 55 92 56 93
REMARK H PARENT 14 6 4 20 18 24 80 43 46 54
REMARK Flexibility Score: inf
ROOT
ATOM      1  C   UNL A   1      38.890  22.161  26.225  1.00  0.00     0.042 C 
ENDROOT
BRANCH   1   2
ATOM      2  C   UNL A   1      37.750  23.066  25.786  1.00  0.00     0.117 C 
BRANCH   2   3
ATOM      3  N   UNL A   1      37.495  23.077  24.352  1.00  0.00    -0.354 N 
ATOM      4  C   UNL A   1      36.327  22.817  23.690  1.00  0.00     0.244 C 
ATOM      5  O   UNL A   1      36.273  23.112  22.491  1.00  0.00    -0.273 OA
ATOM      6  H   UNL A   1      38.267  23.300  23.784  1.00  0.00     0.163 HD
BRANCH   4   7
ATOM      7  C   UNL A   1      35.124  22.168  24.367  1.00  0.00     0.193 C 
ATOM      8  C   UNL A   1      35.482  20.974  25.253  1.00  0.00     0.044 C 
BRANCH   7   9
ATOM      9  N   UNL A   1      34.246  23.165  24.983  1.00  0.00    -0.255 N 
ATOM     10  C   UNL A   1      32.561  24.231  25.918  1.00  0.00     0.085 A 
ATOM     11  C   UNL A   1      33.642  25.097  25.643  1.00  0.00     0.083 A 
ATOM     12  C   UNL A   1      32.931  23.012  25.374  1.00  0.00     0.060 A 
ATOM     13  C   UNL A   1      33.775  26.561  25.837  1.00  0.00     0.071 C 
ATOM     14  N   UNL A   1      34.696  24.412  25.209  1.00  0.00    -0.175 NA
ATOM     15  C   UNL A   1      32.156  21.781  25.068  1.00  0.00     0.069 C 
BRANCH  10  16
ATOM     16  N   UNL A   1      31.360  24.583  26.494  1.00  0.00    -0.323 N 
ATOM     17  C   UNL A   1      30.280  25.360  24.399  1.00  0.00     0.114 C 
ATOM     18  C   UNL A   1      30.301  25.207  25.899  1.00  0.00     0.221 C 
ATOM     19  O   UNL A   1      29.336  25.554  26.584  1.00  0.00    -0.275 OA
ATOM     20  H   UNL A   1      31.253  24.357  27.447  1.00  0.00     0.170 HD
ENDBRANCH  10  16
ENDBRANCH   7   9
ENDBRANCH   4   7
ENDBRANCH   2   3
ENDBRANCH   1   2
BRANCH   1  21
ATOM     21  C   UNL A   1      40.059  22.950  26.751  1.00  0.00     0.118 C 
BRANCH  21  22
ATOM     22  N   UNL A   1      41.330  22.627  26.085  1.00  0.00    -0.352 N 
ATOM     23  C   UNL A   1      42.291  23.520  25.620  1.00  0.00     0.251 C 
ATOM     24  H   UNL A   1      41.522  21.671  25.953  1.00  0.00     0.163 HD
ATOM     25  O   UNL A   1      43.166  23.180  24.853  1.00  0.00    -0.269 OA
BRANCH  23  26
ATOM     26  C   UNL A   1      42.202  24.902  26.128  1.00  0.00     0.039 A 
ATOM     27  C   UNL A   1      41.294  25.844  25.637  1.00  0.00     0.014 A 
ATOM     28  C   UNL A   1      42.991  25.172  27.234  1.00  0.00     0.014 A 
ATOM     29  C   UNL A   1      41.148  27.042  26.338  1.00  0.00     0.010 A 
ATOM     30  C   UNL A   1      42.618  26.177  28.068  1.00  0.00     0.010 A 
ATOM     31  C   UNL A   1      41.812  27.185  27.562  1.00  0.00    -0.014 A 
BRANCH  31  32
ATOM     32  C   UNL A   1      41.707  28.359  28.413  1.00  0.00     0.031 A 
ATOM     33  C   UNL A   1      42.804  29.348  28.239  1.00  0.00     0.074 A 
ATOM     34  C   UNL A   1      40.524  28.641  29.010  1.00  0.00     0.049 A 
ATOM     35  N   UNL A   1      43.722  29.682  29.084  1.00  0.00    -0.248 NA
ATOM     36  C   UNL A   1      43.013  29.913  26.892  1.00  0.00     0.031 C 
ATOM     37  C   UNL A   1      39.248  27.908  28.910  1.00  0.00     0.029 A 
ATOM     38  N   UNL A   1      40.165  29.735  29.728  1.00  0.00    -0.354 N 
ATOM     39  C   UNL A   1      44.466  30.683  28.460  1.00  0.00     0.074 A 
ATOM     40  C   UNL A   1      44.149  30.593  27.061  1.00  0.00     0.031 C 
ATOM     41  C   UNL A   1      38.231  28.694  29.324  1.00  0.00     0.029 A 
ATOM     42  C   UNL A   1      38.790  29.902  29.893  1.00  0.00     0.049 A 
ATOM     43  H   UNL A   1      40.825  30.363  30.102  1.00  0.00     0.167 HD
ATOM     44  C   UNL A   1      45.071  31.673  29.178  1.00  0.00     0.037 A 
ATOM     45  C   UNL A   1      38.177  30.987  30.431  1.00  0.00     0.037 A 
ATOM     46  C   UNL A   1      45.076  31.343  30.582  1.00  0.00     0.049 A 
ATOM     47  C   UNL A   1      39.228  31.725  31.186  1.00  0.00     0.074 A 
ATOM     48  C   UNL A   1      45.619  30.322  31.336  1.00  0.00     0.029 A 
ATOM     49  N   UNL A   1      44.095  31.910  31.363  1.00  0.00    -0.354 N 
ATOM     50  N   UNL A   1      39.848  31.236  32.229  1.00  0.00    -0.248 NA
ATOM     51  C   UNL A   1      39.939  32.779  30.479  1.00  0.00     0.031 C 
ATOM     52  C   UNL A   1      44.624  30.019  32.310  1.00  0.00     0.029 A 
ATOM     53  C   UNL A   1      43.572  30.925  32.159  1.00  0.00     0.049 A 
ATOM     54  H   UNL A   1      43.818  32.854  31.351  1.00  0.00     0.167 HD
ATOM     55  C   UNL A   1      41.174  31.623  32.077  1.00  0.00     0.074 A 
ATOM     56  C   UNL A   1      41.155  32.624  31.012  1.00  0.00     0.031 C 
ATOM     57  C   UNL A   1      42.195  30.887  32.613  1.00  0.00     0.037 A 
BRANCH  44  58
ATOM     58  C   UNL A   1      45.322  33.087  28.694  1.00  0.00     0.058 A 
ATOM     59  C   UNL A   1      46.643  33.592  28.720  1.00  0.00     0.135 A 
ATOM     60  C   UNL A   1      44.317  34.052  28.462  1.00  0.00     0.135 A 
ATOM     61  F   UNL A   1      47.686  32.771  28.921  1.00  0.00    -0.206 F 
ATOM     62  C   UNL A   1      46.931  34.953  28.616  1.00  0.00     0.059 A 
ATOM     63  C   UNL A   1      44.589  35.408  28.300  1.00  0.00     0.059 A 
ATOM     64  F   UNL A   1      43.014  33.757  28.473  1.00  0.00    -0.206 F 
ATOM     65  C   UNL A   1      45.891  35.856  28.424  1.00  0.00     0.060 A 
BRANCH  65  66
ATOM     66  S   UNL A   1      46.243  37.621  28.397  1.00  0.00     0.124 S 
ATOM     67  O   UNL A   1      45.609  38.025  27.147  1.00  0.00    -0.237 OA
ATOM     68  O   UNL A   1      45.594  38.077  29.622  1.00  0.00    -0.237 OA
ATOM     69  O   UNL A   1      47.701  37.673  28.410  1.00  0.00    -0.744 OA
ENDBRANCH  65  66
ENDBRANCH  44  58
BRANCH  45  70
ATOM     70  C   UNL A   1      36.884  31.604  30.027  1.00  0.00     0.058 A 
ATOM     71  C   UNL A   1      35.968  32.081  30.981  1.00  0.00     0.135 A 
ATOM     72  C   UNL A   1      36.643  31.990  28.692  1.00  0.00     0.135 A 
ATOM     73  F   UNL A   1      36.133  31.782  32.279  1.00  0.00    -0.206 F 
ATOM     74  C   UNL A   1      34.903  32.926  30.640  1.00  0.00     0.059 A 
ATOM     75  C   UNL A   1      35.585  32.826  28.327  1.00  0.00     0.059 A 
ATOM     76  F   UNL A   1      37.487  31.637  27.710  1.00  0.00    -0.206 F 
ATOM     77  C   UNL A   1      34.731  33.310  29.310  1.00  0.00     0.060 A 
BRANCH  77  78
ATOM     78  S   UNL A   1      33.462  34.533  28.890  1.00  0.00     0.124 S 
ATOM     79  O   UNL A   1      32.650  33.806  27.922  1.00  0.00    -0.237 OA
ATOM     80  O   UNL A   1      32.838  34.785  30.184  1.00  0.00    -0.237 OA
ATOM     81  O   UNL A   1      34.233  35.647  28.346  1.00  0.00    -0.744 OA
ENDBRANCH  77  78
ENDBRANCH  45  70
BRANCH  57  82
ATOM     82  C   UNL A   1      41.864  29.794  33.601  1.00  0.00     0.058 A 
ATOM     83  C   UNL A   1      41.685  28.439  33.264  1.00  0.00     0.135 A 
ATOM     84  C   UNL A   1      41.960  30.103  34.965  1.00  0.00     0.135 A 
ATOM     85  F   UNL A   1      41.668  28.045  31.984  1.00  0.00    -0.206 F 
ATOM     86  C   UNL A   1      41.604  27.441  34.238  1.00  0.00     0.059 A 
ATOM     87  C   UNL A   1      41.910  29.123  35.951  1.00  0.00     0.059 A 
ATOM     88  F   UNL A   1      42.187  31.370  35.349  1.00  0.00    -0.206 F 
ATOM     89  C   UNL A   1      41.731  27.792  35.582  1.00  0.00     0.060 A 
BRANCH  89  90
ATOM     90  S   UNL A   1      41.754  26.493  36.837  1.00  0.00     0.124 S 
ATOM     91  O   UNL A   1      42.984  26.789  37.564  1.00  0.00    -0.237 OA
ATOM     92  O   UNL A   1      40.512  26.732  37.567  1.00  0.00    -0.237 OA
ATOM     93  O   UNL A   1      41.775  25.261  36.051  1.00  0.00    -0.744 OA
ENDBRANCH  89  90
ENDBRANCH  57  82
ENDBRANCH  31  32
ENDBRANCH  23  26
ENDBRANCH  21  22
ENDBRANCH   1  21
TORSDOF 15
ENDMDL
MODEL 2
REMARK VINA RESULT:     -12.0      1.525      2.443
REMARK SMILES CC(=O)Nc1c(C)nn([C@H](C)C(=O)NCCCNC(=O)c2ccc(-c3c4nc(c(-c5c(F)cc(S(=O)(=O)[O-])cc5F)c5ccc([nH]5)c(-c5c(F)cc(S(=O)(=O)[O-])cc5F)c5nc(c(-c6c(F)cc(S(=O)(=O)[O-])cc6F)c6ccc3[nH]6)C=C5)C=C4)cc2)c1C
REMARK SMILES IDX 16 1 15 2 14 3 12 4 13 5 10 7 11 8 9 9 5 10 6 11 87 12 7 13
REMARK SMILES IDX 8 14 88 15 4 16 1 17 2 18 3 19 17 21 18 22 19 23 20 25 21 26
REMARK SMILES IDX 22 27 86 28 23 29 85 30 24 31 25 32 26 33 79 34 27 35 84 36
REMARK SMILES IDX 78 37 80 38 28 39 83 40 77 41 76 42 29 44 63 45 42 46 62 47
REMARK SMILES IDX 43 48 46 49 61 50 81 51 44 52 45 53 60 55 82 56 47 57 30 58
REMARK SMILES IDX 31 59 40 60 32 61 33 62 39 63 41 64 34 65 35 66 36 67 37 68
REMARK SMILES IDX 38 69 64 70 65 71 74 72 66 73 67 74 73 75 75 76 68 77 69 78
REMARK SMILES IDX 70 79 71 80 72 81 48 82 49 83 58 84 50 85 51 86 57 87 59 88
REMARK SMILES IDX 52 89 53 90 54 91 55 92 56 93
REMARK H PARENT 14 6 4 20 18 24 80 43 46 54
REMARK Flexibility Score: inf
ROOT
ATOM      1  C   UNL A   1      37.676  22.503  25.723  1.00  0.00     0.042 C 
ENDROOT
BRANCH   1   2
ATOM      2  C   UNL A   1      36.621  23.551  25.404  1.00  0.00     0.117 C 
BRANCH   2   3
ATOM      3  N   UNL A   1      36.113  23.510  24.039  1.00  0.00    -0.354 N 
ATOM      4  C   UNL A   1      34.815  23.509  23.610  1.00  0.00     0.244 C 
ATOM      5  O   UNL A   1      34.610  23.709  22.408  1.00  0.00    -0.273 OA
ATOM      6  H   UNL A   1      36.797  23.479  23.331  1.00  0.00     0.163 HD
BRANCH   4   7
ATOM      7  C   UNL A   1      33.639  23.252  24.547  1.00  0.00     0.193 C 
ATOM      8  C   UNL A   1      32.512  24.278  24.421  1.00  0.00     0.044 C 
BRANCH   7   9
ATOM      9  N   UNL A   1      33.217  21.850  24.514  1.00  0.00    -0.255 N 
ATOM     10  C   UNL A   1      32.751  19.754  25.005  1.00  0.00     0.085 A 
ATOM     11  C   UNL A   1      32.536  20.033  23.637  1.00  0.00     0.083 A 
ATOM     12  C   UNL A   1      33.303  20.913  25.525  1.00  0.00     0.060 A 
ATOM     13  C   UNL A   1      32.113  19.143  22.529  1.00  0.00     0.071 C 
ATOM     14  N   UNL A   1      32.688  21.331  23.392  1.00  0.00    -0.175 NA
ATOM     15  C   UNL A   1      34.011  21.195  26.802  1.00  0.00     0.069 C 
BRANCH  10  16
ATOM     16  N   UNL A   1      32.558  18.541  25.630  1.00  0.00    -0.323 N 
ATOM     17  C   UNL A   1      34.508  17.402  24.599  1.00  0.00     0.114 C 
ATOM     18  C   UNL A   1      33.244  17.379  25.422  1.00  0.00     0.221 C 
ATOM     19  O   UNL A   1      32.875  16.346  25.986  1.00  0.00    -0.275 OA
ATOM     20  H   UNL A   1      31.843  18.510  26.306  1.00  0.00     0.170 HD
ENDBRANCH  10  16
ENDBRANCH   7   9
ENDBRANCH   4   7
ENDBRANCH   2   3
ENDBRANCH   1   2
BRANCH   1  21
ATOM     21  C   UNL A   1      38.869  23.106  26.414  1.00  0.00     0.118 C 
BRANCH  21  22
ATOM     22  N   UNL A   1      40.135  22.428  26.095  1.00  0.00    -0.352 N 
ATOM     23  C   UNL A   1      41.383  23.013  25.903  1.00  0.00     0.251 C 
ATOM     24  H   UNL A   1      40.094  21.449  26.005  1.00  0.00     0.163 HD
ATOM     25  O   UNL A   1      42.300  22.416  25.383  1.00  0.00    -0.269 OA
BRANCH  23  26
ATOM     26  C   UNL A   1      41.537  24.399  26.387  1.00  0.00     0.039 A 
ATOM     27  C   UNL A   1      41.076  25.515  25.684  1.00  0.00     0.014 A 
ATOM     28  C   UNL A   1      42.053  24.518  27.668  1.00  0.00     0.014 A 
ATOM     29  C   UNL A   1      41.078  26.748  26.337  1.00  0.00     0.010 A 
ATOM     30  C   UNL A   1      41.758  25.633  28.385  1.00  0.00     0.010 A 
ATOM     31  C   UNL A   1      41.413  26.785  27.695  1.00  0.00    -0.014 A 
BRANCH  31  32
ATOM     32  C   UNL A   1      41.407  27.994  28.502  1.00  0.00     0.031 A 
ATOM     33  C   UNL A   1      42.540  28.920  28.236  1.00  0.00     0.074 A 
ATOM     34  C   UNL A   1      40.271  28.358  29.145  1.00  0.00     0.049 A 
ATOM     35  N   UNL A   1      43.515  29.238  29.021  1.00  0.00    -0.248 NA
ATOM     36  C   UNL A   1      42.709  29.422  26.859  1.00  0.00     0.031 C 
ATOM     37  C   UNL A   1      38.958  27.686  29.136  1.00  0.00     0.029 A 
ATOM     38  N   UNL A   1      40.002  29.494  29.834  1.00  0.00    -0.354 N 
ATOM     39  C   UNL A   1      44.275  30.176  28.322  1.00  0.00     0.074 A 
ATOM     40  C   UNL A   1      43.883  30.051  26.946  1.00  0.00     0.031 C 
ATOM     41  C   UNL A   1      38.002  28.537  29.566  1.00  0.00     0.029 A 
ATOM     42  C   UNL A   1      38.647  29.735  30.059  1.00  0.00     0.049 A 
ATOM     43  H   UNL A   1      40.709  30.102  30.151  1.00  0.00     0.167 HD
ATOM     44  C   UNL A   1      44.962  31.161  28.970  1.00  0.00     0.037 A 
ATOM     45  C   UNL A   1      38.115  30.870  30.582  1.00  0.00     0.037 A 
ATOM     46  C   UNL A   1      45.022  30.885  30.385  1.00  0.00     0.049 A 
ATOM     47  C   UNL A   1      39.237  31.582  31.256  1.00  0.00     0.074 A 
ATOM     48  C   UNL A   1      45.552  29.866  31.151  1.00  0.00     0.029 A 
ATOM     49  N   UNL A   1      44.109  31.529  31.188  1.00  0.00    -0.354 N 
ATOM     50  N   UNL A   1      39.884  31.102  32.286  1.00  0.00    -0.248 NA
ATOM     51  C   UNL A   1      39.961  32.572  30.473  1.00  0.00     0.031 C 
ATOM     52  C   UNL A   1      44.594  29.651  32.184  1.00  0.00     0.029 A 
ATOM     53  C   UNL A   1      43.580  30.602  32.048  1.00  0.00     0.049 A 
ATOM     54  H   UNL A   1      43.879  32.485  31.152  1.00  0.00     0.167 HD
ATOM     55  C   UNL A   1      41.219  31.416  32.055  1.00  0.00     0.074 A 
ATOM     56  C   UNL A   1      41.193  32.376  30.952  1.00  0.00     0.031 C 
ATOM     57  C   UNL A   1      42.228  30.651  32.569  1.00  0.00     0.037 A 
BRANCH  44  58
ATOM     58  C   UNL A   1      45.256  32.542  28.419  1.00  0.00     0.058 A 
ATOM     59  C   UNL A   1      46.603  32.929  28.233  1.00  0.00     0.135 A 
ATOM     60  C   UNL A   1      44.314  33.589  28.316  1.00  0.00     0.135 A 
ATOM     61  F   UNL A   1      47.591  32.022  28.296  1.00  0.00    -0.206 F 
ATOM     62  C   UNL A   1      46.987  34.258  28.052  1.00  0.00     0.059 A 
ATOM     63  C   UNL A   1      44.671  34.913  28.080  1.00  0.00     0.059 A 
ATOM     64  F   UNL A   1      43.007  33.409  28.528  1.00  0.00    -0.206 F 
ATOM     65  C   UNL A   1      46.011  35.247  27.996  1.00  0.00     0.060 A 
BRANCH  65  66
ATOM     66  S   UNL A   1      46.504  36.973  27.872  1.00  0.00     0.124 S 
ATOM     67  O   UNL A   1      47.665  36.882  26.994  1.00  0.00    -0.237 OA
ATOM     68  O   UNL A   1      45.311  37.587  27.296  1.00  0.00    -0.237 OA
ATOM     69  O   UNL A   1      46.785  37.342  29.255  1.00  0.00    -0.744 OA
ENDBRANCH  65  66
ENDBRANCH  44  58
BRANCH  45  70
ATOM     70  C   UNL A   1      36.834  31.535  30.218  1.00  0.00     0.058 A 
ATOM     71  C   UNL A   1      35.995  32.100  31.195  1.00  0.00     0.135 A 
ATOM     72  C   UNL A   1      36.542  31.876  28.880  1.00  0.00     0.135 A 
ATOM     73  F   UNL A   1      36.213  31.847  32.494  1.00  0.00    -0.206 F 
ATOM     74  C   UNL A   1      34.956  32.983  30.870  1.00  0.00     0.059 A 
ATOM     75  C   UNL A   1      35.509  32.749  28.532  1.00  0.00     0.059 A 
ATOM     76  F   UNL A   1      37.314  31.439  27.874  1.00  0.00    -0.206 F 
ATOM     77  C   UNL A   1      34.733  33.319  29.535  1.00  0.00     0.060 A 
BRANCH  77  78
ATOM     78  S   UNL A   1      33.506  34.586  29.125  1.00  0.00     0.124 S 
ATOM     79  O   UNL A   1      32.666  33.892  28.157  1.00  0.00    -0.237 OA
ATOM     80  O   UNL A   1      32.896  34.855  30.423  1.00  0.00    -0.237 OA
ATOM     81  O   UNL A   1      34.313  35.676  28.582  1.00  0.00    -0.744 OA
ENDBRANCH  77  78
ENDBRANCH  45  70
BRANCH  57  82
ATOM     82  C   UNL A   1      41.895  29.614  33.615  1.00  0.00     0.058 A 
ATOM     83  C   UNL A   1      41.618  28.261  33.340  1.00  0.00     0.135 A 
ATOM     84  C   UNL A   1      42.091  29.962  34.958  1.00  0.00     0.135 A 
ATOM     85  F   UNL A   1      41.502  27.826  32.079  1.00  0.00    -0.206 F 
ATOM     86  C   UNL A   1      41.539  27.303  34.354  1.00  0.00     0.059 A 
ATOM     87  C   UNL A   1      42.045  29.021  35.982  1.00  0.00     0.059 A 
ATOM     88  F   UNL A   1      42.413  31.226  35.281  1.00  0.00    -0.206 F 
ATOM     89  C   UNL A   1      41.767  27.692  35.674  1.00  0.00     0.060 A 
BRANCH  89  90
ATOM     90  S   UNL A   1      41.791  26.437  36.974  1.00  0.00     0.124 S 
ATOM     91  O   UNL A   1      41.925  25.203  36.207  1.00  0.00    -0.237 OA
ATOM     92  O   UNL A   1      42.955  26.821  37.767  1.00  0.00    -0.237 OA
ATOM     93  O   UNL A   1      40.506  26.618  37.645  1.00  0.00    -0.744 OA
ENDBRANCH  89  90
ENDBRANCH  57  82
ENDBRANCH  31  32
ENDBRANCH  23  26
ENDBRANCH  21  22
ENDBRANCH   1  21
TORSDOF 15
ENDMDL
MODEL 3
REMARK VINA RESULT:     -11.9      2.449      3.721
REMARK SMILES CC(=O)Nc1c(C)nn([C@H](C)C(=O)NCCCNC(=O)c2ccc(-c3c4nc(c(-c5c(F)cc(S(=O)(=O)[O-])cc5F)c5ccc([nH]5)c(-c5c(F)cc(S(=O)(=O)[O-])cc5F)c5nc(c(-c6c(F)cc(S(=O)(=O)[O-])cc6F)c6ccc3[nH]6)C=C5)C=C4)cc2)c1C
REMARK SMILES IDX 16 1 15 2 14 3 12 4 13 5 10 7 11 8 9 9 5 10 6 11 87 12 7 13
REMARK SMILES IDX 8 14 88 15 4 16 1 17 2 18 3 19 17 21 18 22 19 23 20 25 21 26
REMARK SMILES IDX 22 27 86 28 23 29 85 30 24 31 25 32 26 33 79 34 27 35 84 36
REMARK SMILES IDX 78 37 80 38 28 39 83 40 77 41 76 42 29 44 63 45 42 46 62 47
REMARK SMILES IDX 43 48 46 49 61 50 81 51 44 52 45 53 60 55 82 56 47 57 30 58
REMARK SMILES IDX 31 59 40 60 32 61 33 62 39 63 41 64 34 65 35 66 36 67 37 68
REMARK SMILES IDX 38 69 64 70 65 71 74 72 66 73 67 74 73 75 75 76 68 77 69 78
REMARK SMILES IDX 70 79 71 80 72 81 48 82 49 83 58 84 50 85 51 86 57 87 59 88
REMARK SMILES IDX 52 89 53 90 54 91 55 92 56 93
REMARK H PARENT 14 6 4 20 18 24 80 43 46 54
REMARK Flexibility Score: inf
ROOT
ATOM      1  C   UNL A   1      36.177  23.341  25.200  1.00  0.00     0.042 C 
ENDROOT
BRANCH   1   2
ATOM      2  C   UNL A   1      35.760  22.274  24.201  1.00  0.00     0.117 C 
BRANCH   2   3
ATOM      3  N   UNL A   1      35.076  22.778  23.018  1.00  0.00    -0.354 N 
ATOM      4  C   UNL A   1      33.749  23.059  22.854  1.00  0.00     0.244 C 
ATOM      5  O   UNL A   1      33.420  23.698  21.848  1.00  0.00    -0.273 OA
ATOM      6  H   UNL A   1      35.646  22.935  22.231  1.00  0.00     0.163 HD
BRANCH   4   7
ATOM      7  C   UNL A   1      32.681  22.600  23.842  1.00  0.00     0.193 C 
ATOM      8  C   UNL A   1      31.364  23.370  23.732  1.00  0.00     0.044 C 
BRANCH   7   9
ATOM      9  N   UNL A   1      32.555  21.141  23.865  1.00  0.00    -0.255 N 
ATOM     10  C   UNL A   1      32.483  19.019  24.448  1.00  0.00     0.085 A 
ATOM     11  C   UNL A   1      32.330  19.186  23.054  1.00  0.00     0.083 A 
ATOM     12  C   UNL A   1      32.744  20.289  24.935  1.00  0.00     0.060 A 
ATOM     13  C   UNL A   1      32.189  18.179  21.975  1.00  0.00     0.071 C 
ATOM     14  N   UNL A   1      32.237  20.475  22.741  1.00  0.00    -0.175 NA
ATOM     15  C   UNL A   1      33.272  20.768  26.240  1.00  0.00     0.069 C 
BRANCH  10  16
ATOM     16  N   UNL A   1      32.488  17.822  25.130  1.00  0.00    -0.323 N 
ATOM     17  C   UNL A   1      34.814  17.192  24.537  1.00  0.00     0.114 C 
ATOM     18  C   UNL A   1      33.468  16.871  25.137  1.00  0.00     0.221 C 
ATOM     19  O   UNL A   1      33.272  15.800  25.715  1.00  0.00    -0.275 OA
ATOM     20  H   UNL A   1      31.692  17.631  25.678  1.00  0.00     0.170 HD
ENDBRANCH  10  16
ENDBRANCH   7   9
ENDBRANCH   4   7
ENDBRANCH   2   3
ENDBRANCH   1   2
BRANCH   1  21
ATOM     21  C   UNL A   1      37.673  23.480  25.277  1.00  0.00     0.118 C 
BRANCH  21  22
ATOM     22  N   UNL A   1      38.318  22.433  26.085  1.00  0.00    -0.352 N 
ATOM     23  C   UNL A   1      39.431  22.566  26.909  1.00  0.00     0.251 C 
ATOM     24  H   UNL A   1      37.916  21.536  26.035  1.00  0.00     0.163 HD
ATOM     25  O   UNL A   1      40.047  21.605  27.317  1.00  0.00    -0.269 OA
BRANCH  23  26
ATOM     26  C   UNL A   1      39.811  23.943  27.279  1.00  0.00     0.039 A 
ATOM     27  C   UNL A   1      38.893  24.990  27.390  1.00  0.00     0.014 A 
ATOM     28  C   UNL A   1      41.136  24.106  27.650  1.00  0.00     0.014 A 
ATOM     29  C   UNL A   1      39.329  26.188  27.958  1.00  0.00     0.010 A 
ATOM     30  C   UNL A   1      41.457  25.136  28.473  1.00  0.00     0.010 A 
ATOM     31  C   UNL A   1      40.616  26.238  28.506  1.00  0.00    -0.014 A 
BRANCH  31  32
ATOM     32  C   UNL A   1      41.173  27.405  29.169  1.00  0.00     0.031 A 
ATOM     33  C   UNL A   1      42.335  28.016  28.469  1.00  0.00     0.074 A 
ATOM     34  C   UNL A   1      40.445  28.041  30.118  1.00  0.00     0.049 A 
ATOM     35  N   UNL A   1      43.564  28.075  28.860  1.00  0.00    -0.248 NA
ATOM     36  C   UNL A   1      42.141  28.467  27.078  1.00  0.00     0.031 C 
ATOM     37  C   UNL A   1      39.087  27.722  30.597  1.00  0.00     0.029 A 
ATOM     38  N   UNL A   1      40.706  29.205  30.762  1.00  0.00    -0.354 N 
ATOM     39  C   UNL A   1      44.242  28.794  27.875  1.00  0.00     0.074 A 
ATOM     40  C   UNL A   1      43.388  28.778  26.720  1.00  0.00     0.031 C 
ATOM     41  C   UNL A   1      38.567  28.785  31.248  1.00  0.00     0.029 A 
ATOM     42  C   UNL A   1      39.608  29.780  31.401  1.00  0.00     0.049 A 
ATOM     43  H   UNL A   1      41.602  29.613  30.777  1.00  0.00     0.167 HD
ATOM     44  C   UNL A   1      45.322  29.571  28.178  1.00  0.00     0.037 A 
ATOM     45  C   UNL A   1      39.572  31.009  31.976  1.00  0.00     0.037 A 
ATOM     46  C   UNL A   1      45.792  29.281  29.511  1.00  0.00     0.049 A 
ATOM     47  C   UNL A   1      40.992  31.412  32.181  1.00  0.00     0.074 A 
ATOM     48  C   UNL A   1      46.291  28.159  30.140  1.00  0.00     0.029 A 
ATOM     49  N   UNL A   1      45.389  30.131  30.515  1.00  0.00    -0.354 N 
ATOM     50  N   UNL A   1      41.816  30.779  32.976  1.00  0.00    -0.248 NA
ATOM     51  C   UNL A   1      41.621  32.191  31.126  1.00  0.00     0.031 C 
ATOM     52  C   UNL A   1      45.719  28.187  31.445  1.00  0.00     0.029 A 
ATOM     53  C   UNL A   1      44.978  29.364  31.574  1.00  0.00     0.049 A 
ATOM     54  H   UNL A   1      45.395  31.115  30.479  1.00  0.00     0.167 HD
ATOM     55  C   UNL A   1      43.026  30.748  32.293  1.00  0.00     0.074 A 
ATOM     56  C   UNL A   1      42.858  31.688  31.186  1.00  0.00     0.031 C 
ATOM     57  C   UNL A   1      43.936  29.750  32.506  1.00  0.00     0.037 A 
BRANCH  44  58
ATOM     58  C   UNL A   1      45.733  30.835  27.449  1.00  0.00     0.058 A 
ATOM     59  C   UNL A   1      47.061  30.949  26.977  1.00  0.00     0.135 A 
ATOM     60  C   UNL A   1      44.984  32.032  27.424  1.00  0.00     0.135 A 
ATOM     61  F   UNL A   1      47.869  29.878  26.941  1.00  0.00    -0.206 F 
ATOM     62  C   UNL A   1      47.623  32.169  26.599  1.00  0.00     0.059 A 
ATOM     63  C   UNL A   1      45.510  33.249  26.998  1.00  0.00     0.059 A 
ATOM     64  F   UNL A   1      43.736  32.116  27.896  1.00  0.00    -0.206 F 
ATOM     65  C   UNL A   1      46.842  33.318  26.631  1.00  0.00     0.060 A 
BRANCH  65  66
ATOM     66  S   UNL A   1      47.589  34.910  26.250  1.00  0.00     0.124 S 
ATOM     67  O   UNL A   1      48.266  35.221  27.503  1.00  0.00    -0.237 OA
ATOM     68  O   UNL A   1      48.452  34.576  25.121  1.00  0.00    -0.237 OA
ATOM     69  O   UNL A   1      46.441  35.751  25.927  1.00  0.00    -0.744 OA
ENDBRANCH  65  66
ENDBRANCH  44  58
BRANCH  45  70
ATOM     70  C   UNL A   1      38.442  31.978  32.001  1.00  0.00     0.058 A 
ATOM     71  C   UNL A   1      37.944  32.558  30.821  1.00  0.00     0.135 A 
ATOM     72  C   UNL A   1      37.646  32.143  33.154  1.00  0.00     0.135 A 
ATOM     73  F   UNL A   1      38.625  32.432  29.672  1.00  0.00    -0.206 F 
ATOM     74  C   UNL A   1      36.712  33.224  30.776  1.00  0.00     0.059 A 
ATOM     75  C   UNL A   1      36.418  32.807  33.135  1.00  0.00     0.059 A 
ATOM     76  F   UNL A   1      37.999  31.582  34.321  1.00  0.00    -0.206 F 
ATOM     77  C   UNL A   1      35.944  33.326  31.936  1.00  0.00     0.060 A 
BRANCH  77  78
ATOM     78  S   UNL A   1      34.279  34.033  31.846  1.00  0.00     0.124 S 
ATOM     79  O   UNL A   1      33.555  33.227  32.821  1.00  0.00    -0.237 OA
ATOM     80  O   UNL A   1      34.515  35.424  32.219  1.00  0.00    -0.237 OA
ATOM     81  O   UNL A   1      33.896  33.821  30.453  1.00  0.00    -0.744 OA
ENDBRANCH  77  78
ENDBRANCH  45  70
BRANCH  57  82
ATOM     82  C   UNL A   1      43.741  28.826  33.684  1.00  0.00     0.058 A 
ATOM     83  C   UNL A   1      44.041  29.159  35.019  1.00  0.00     0.135 A 
ATOM     84  C   UNL A   1      43.009  27.651  33.471  1.00  0.00     0.135 A 
ATOM     85  F   UNL A   1      44.662  30.306  35.319  1.00  0.00    -0.206 F 
ATOM     86  C   UNL A   1      43.634  28.357  36.089  1.00  0.00     0.059 A 
ATOM     87  C   UNL A   1      42.568  26.852  34.521  1.00  0.00     0.059 A 
ATOM     88  F   UNL A   1      42.642  27.308  32.225  1.00  0.00    -0.206 F 
ATOM     89  C   UNL A   1      42.884  27.209  35.830  1.00  0.00     0.060 A 
BRANCH  89  90
ATOM     90  S   UNL A   1      42.247  26.238  37.214  1.00  0.00     0.124 S 
ATOM     91  O   UNL A   1      40.919  26.811  37.406  1.00  0.00    -0.237 OA
ATOM     92  O   UNL A   1      42.283  24.876  36.690  1.00  0.00    -0.237 OA
ATOM     93  O   UNL A   1      43.204  26.508  38.286  1.00  0.00    -0.744 OA
ENDBRANCH  89  90
ENDBRANCH  57  82
ENDBRANCH  31  32
ENDBRANCH  23  26
ENDBRANCH  21  22
ENDBRANCH   1  21
TORSDOF 15
ENDMDL
