MODEL 1
REMARK VINA RESULT:     -12.6      0.000      0.000
REMARK SMILES O=C(NCCCNC(=O)[C@H]1C[C@@H](O)CN1C(=O)c1cc(F)c(F)cc1Cl)c1ccc(-c2c3nc(c(-c4c(F)cc(S(=O)(=O)[O-])cc4F)c4ccc([nH]4)c(-c4c(F)cc(S(=O)(=O)[O-])cc4F)c4nc(c(-c5c(F)cc(S(=O)(=O)[O-])cc5F)c5ccc2[nH]5)C=C4)C=C3)cc1
REMARK SMILES IDX 4 1 3 2 1 3 2 4 27 6 28 7 92 8 29 9 91 10 30 11 31 12 32 13
REMARK SMILES IDX 85 14 33 15 90 16 84 17 86 18 34 19 89 20 83 21 82 22 35 24
REMARK SMILES IDX 69 25 48 26 68 27 49 28 52 29 67 30 87 31 50 32 51 33 66 35
REMARK SMILES IDX 88 36 53 37 36 38 37 39 46 40 38 41 39 42 45 43 47 44 40 45
REMARK SMILES IDX 41 46 42 47 43 48 44 49 70 50 71 51 80 52 72 53 73 54 79 55
REMARK SMILES IDX 81 56 74 57 75 58 76 59 77 60 78 61 54 62 55 63 64 64 56 65
REMARK SMILES IDX 57 66 63 67 65 68 58 69 59 70 60 71 61 72 62 73 5 74 6 75
REMARK SMILES IDX 7 76 8 77 9 79 10 80 11 81 15 82 12 83 14 84 16 85 17 86
REMARK SMILES IDX 18 87 19 88 25 89 20 90 24 91 26 92 21 93 22 94 23 95 13 96
REMARK H PARENT 3 5 86 23 52 34 7 78 13 97
REMARK Flexibility Score: inf
ROOT
ATOM      1  C   UNL A   1      38.988  23.533  26.781  1.00  0.00     0.118 C 
ENDROOT
BRANCH   1   2
ATOM      2  N   UNL A   1      40.307  23.804  26.238  1.00  0.00    -0.352 N 
ATOM      3  O   UNL A   1      42.120  24.998  25.699  1.00  0.00    -0.269 OA
ATOM      4  C   UNL A   1      41.138  24.877  26.427  1.00  0.00     0.251 C 
ATOM      5  H   UNL A   1      40.660  23.107  25.639  1.00  0.00     0.163 HD
BRANCH   4   6
ATOM      6  C   UNL A   1      40.871  25.885  27.481  1.00  0.00     0.039 A 
ATOM      7  C   UNL A   1      41.661  27.038  27.509  1.00  0.00     0.014 A 
ATOM      8  C   UNL A   1      39.919  25.675  28.484  1.00  0.00     0.014 A 
ATOM      9  C   UNL A   1      41.495  27.975  28.533  1.00  0.00     0.010 A 
ATOM     10  C   UNL A   1      39.694  26.652  29.454  1.00  0.00     0.010 A 
ATOM     11  C   UNL A   1      40.507  27.793  29.511  1.00  0.00    -0.014 A 
BRANCH  11  12
ATOM     12  C   UNL A   1      40.378  28.738  30.651  1.00  0.00     0.031 A 
ATOM     13  C   UNL A   1      41.305  28.609  31.835  1.00  0.00     0.074 A 
ATOM     14  C   UNL A   1      39.436  29.702  30.627  1.00  0.00     0.049 A 
ATOM     15  N   UNL A   1      41.334  29.308  32.940  1.00  0.00    -0.248 NA
ATOM     16  C   UNL A   1      42.316  27.538  31.783  1.00  0.00     0.031 C 
ATOM     17  C   UNL A   1      38.461  29.905  29.553  1.00  0.00     0.029 A 
ATOM     18  N   UNL A   1      39.147  30.696  31.529  1.00  0.00    -0.354 N 
ATOM     19  C   UNL A   1      42.349  28.755  33.713  1.00  0.00     0.074 A 
ATOM     20  C   UNL A   1      42.872  27.624  32.982  1.00  0.00     0.031 C 
ATOM     21  C   UNL A   1      37.707  30.979  29.840  1.00  0.00     0.029 A 
ATOM     22  C   UNL A   1      38.119  31.521  31.133  1.00  0.00     0.049 A 
ATOM     23  H   UNL A   1      39.628  30.808  32.380  1.00  0.00     0.167 HD
ATOM     24  C   UNL A   1      42.827  29.172  34.907  1.00  0.00     0.037 A 
ATOM     25  C   UNL A   1      37.572  32.592  31.741  1.00  0.00     0.037 A 
ATOM     26  C   UNL A   1      42.344  30.335  35.601  1.00  0.00     0.049 A 
ATOM     27  C   UNL A   1      38.126  33.039  33.069  1.00  0.00     0.074 A 
ATOM     28  C   UNL A   1      42.802  30.877  36.789  1.00  0.00     0.029 A 
ATOM     29  N   UNL A   1      41.307  31.145  35.162  1.00  0.00    -0.354 N 
ATOM     30  N   UNL A   1      39.115  32.528  33.762  1.00  0.00    -0.248 NA
ATOM     31  C   UNL A   1      37.491  34.206  33.700  1.00  0.00     0.031 C 
ATOM     32  C   UNL A   1      42.019  31.994  37.087  1.00  0.00     0.029 A 
ATOM     33  C   UNL A   1      41.101  32.174  36.063  1.00  0.00     0.049 A 
ATOM     34  H   UNL A   1      40.795  31.007  34.332  1.00  0.00     0.167 HD
ATOM     35  C   UNL A   1      39.238  33.324  34.895  1.00  0.00     0.074 A 
ATOM     36  C   UNL A   1      38.229  34.357  34.793  1.00  0.00     0.031 C 
ATOM     37  C   UNL A   1      40.105  33.207  35.929  1.00  0.00     0.037 A 
BRANCH  24  38
ATOM     38  C   UNL A   1      43.953  28.399  35.533  1.00  0.00     0.058 A 
ATOM     39  C   UNL A   1      45.294  28.702  35.248  1.00  0.00     0.135 A 
ATOM     40  C   UNL A   1      43.696  27.406  36.492  1.00  0.00     0.135 A 
ATOM     41  F   UNL A   1      45.597  29.629  34.326  1.00  0.00    -0.206 F 
ATOM     42  C   UNL A   1      46.340  28.044  35.886  1.00  0.00     0.059 A 
ATOM     43  C   UNL A   1      44.726  26.752  37.162  1.00  0.00     0.059 A 
ATOM     44  F   UNL A   1      42.432  27.074  36.798  1.00  0.00    -0.206 F 
ATOM     45  C   UNL A   1      46.046  27.078  36.849  1.00  0.00     0.060 A 
BRANCH  45  46
ATOM     46  S   UNL A   1      47.419  26.273  37.703  1.00  0.00     0.124 S 
ATOM     47  O   UNL A   1      46.982  26.349  39.094  1.00  0.00    -0.237 OA
ATOM     48  O   UNL A   1      47.415  24.941  37.109  1.00  0.00    -0.237 OA
ATOM     49  O   UNL A   1      48.568  27.107  37.361  1.00  0.00    -0.744 OA
ENDBRANCH  45  46
ENDBRANCH  24  38
BRANCH  25  50
ATOM     50  C   UNL A   1      36.458  33.334  31.090  1.00  0.00     0.058 A 
ATOM     51  C   UNL A   1      36.683  34.112  29.946  1.00  0.00     0.135 A 
ATOM     52  C   UNL A   1      35.149  33.275  31.593  1.00  0.00     0.135 A 
ATOM     53  F   UNL A   1      37.918  34.205  29.429  1.00  0.00    -0.206 F 
ATOM     54  C   UNL A   1      35.655  34.822  29.333  1.00  0.00     0.059 A 
ATOM     55  C   UNL A   1      34.100  33.956  30.983  1.00  0.00     0.059 A 
ATOM     56  F   UNL A   1      34.878  32.532  32.677  1.00  0.00    -0.206 F 
ATOM     57  C   UNL A   1      34.365  34.737  29.859  1.00  0.00     0.060 A 
BRANCH  57  58
ATOM     58  S   UNL A   1      33.034  35.637  29.034  1.00  0.00     0.124 S 
ATOM     59  O   UNL A   1      33.779  36.636  28.279  1.00  0.00    -0.237 OA
ATOM     60  O   UNL A   1      32.395  34.586  28.249  1.00  0.00    -0.237 OA
ATOM     61  O   UNL A   1      32.237  36.151  30.145  1.00  0.00    -0.744 OA
ENDBRANCH  57  58
ENDBRANCH  25  50
BRANCH  37  62
ATOM     62  C   UNL A   1      40.034  34.225  37.030  1.00  0.00     0.058 A 
ATOM     63  C   UNL A   1      40.714  35.447  36.936  1.00  0.00     0.135 A 
ATOM     64  C   UNL A   1      39.172  34.030  38.122  1.00  0.00     0.135 A 
ATOM     65  F   UNL A   1      41.554  35.677  35.913  1.00  0.00    -0.206 F 
ATOM     66  C   UNL A   1      40.536  36.448  37.884  1.00  0.00     0.059 A 
ATOM     67  C   UNL A   1      38.961  35.026  39.069  1.00  0.00     0.059 A 
ATOM     68  F   UNL A   1      38.492  32.880  38.250  1.00  0.00    -0.206 F 
ATOM     69  C   UNL A   1      39.646  36.234  38.939  1.00  0.00     0.060 A 
BRANCH  69  70
ATOM     70  S   UNL A   1      39.357  37.579  40.107  1.00  0.00     0.124 S 
ATOM     71  O   UNL A   1      38.288  38.321  39.446  1.00  0.00    -0.237 OA
ATOM     72  O   UNL A   1      38.973  36.861  41.319  1.00  0.00    -0.237 OA
ATOM     73  O   UNL A   1      40.646  38.260  40.170  1.00  0.00    -0.744 OA
ENDBRANCH  69  70
ENDBRANCH  37  62
ENDBRANCH  11  12
ENDBRANCH   4   6
ENDBRANCH   1   2
BRANCH   1  74
ATOM     74  C   UNL A   1      37.924  23.482  25.693  1.00  0.00     0.042 C 
BRANCH  74  75
ATOM     75  C   UNL A   1      37.298  22.102  25.509  1.00  0.00     0.117 C 
BRANCH  75  76
ATOM     76  N   UNL A   1      36.262  21.876  26.494  1.00  0.00    -0.354 N 
ATOM     77  C   UNL A   1      34.941  21.611  26.308  1.00  0.00     0.242 C 
ATOM     78  H   UNL A   1      36.556  21.919  27.432  1.00  0.00     0.163 HD
ATOM     79  O   UNL A   1      34.229  21.652  27.319  1.00  0.00    -0.273 OA
BRANCH  77  80
ATOM     80  C   UNL A   1      34.342  21.275  24.911  1.00  0.00     0.177 C 
ATOM     81  C   UNL A   1      34.331  19.748  24.712  1.00  0.00     0.069 C 
ATOM     82  N   UNL A   1      32.924  21.636  24.735  1.00  0.00    -0.324 N 
ATOM     83  C   UNL A   1      32.991  19.316  25.307  1.00  0.00     0.136 C 
ATOM     84  C   UNL A   1      32.057  20.473  24.950  1.00  0.00     0.152 C 
BRANCH  82  85
ATOM     85  C   UNL A   1      32.557  22.779  24.030  1.00  0.00     0.256 C 
ATOM     86  O   UNL A   1      32.599  22.815  22.804  1.00  0.00    -0.269 OA
BRANCH  85  87
ATOM     87  C   UNL A   1      32.174  24.023  24.759  1.00  0.00     0.061 A 
ATOM     88  C   UNL A   1      30.844  24.187  25.180  1.00  0.00     0.057 A 
ATOM     89  C   UNL A   1      33.134  24.975  25.159  1.00  0.00     0.056 A 
ATOM     90  C   UNL A   1      30.475  25.307  25.918  1.00  0.00     0.159 A 
ATOM     91  C   UNL A   1      32.754  26.080  25.933  1.00  0.00     0.063 A 
ATOM     92  Cl  UNL A   1      34.804  24.895  24.715  1.00  0.00    -0.083 Cl
ATOM     93  F   UNL A   1      29.192  25.461  26.268  1.00  0.00    -0.204 F 
ATOM     94  C   UNL A   1      31.424  26.245  26.294  1.00  0.00     0.160 A 
ATOM     95  F   UNL A   1      31.066  27.318  27.011  1.00  0.00    -0.204 F 
ENDBRANCH  85  87
ENDBRANCH  82  85
BRANCH  83  96
ATOM     96  O   UNL A   1      33.037  19.123  26.717  1.00  0.00    -0.391 OA
ATOM     97  H   UNL A   1      32.231  19.482  27.119  1.00  0.00     0.211 HD
ENDBRANCH  83  96
ENDBRANCH  77  80
ENDBRANCH  75  76
ENDBRANCH  74  75
ENDBRANCH   1  74
TORSDOF 16
ENDMDL
MODEL 2
REMARK VINA RESULT:     -12.5      6.861     11.686
REMARK SMILES O=C(NCCCNC(=O)[C@H]1C[C@@H](O)CN1C(=O)c1cc(F)c(F)cc1Cl)c1ccc(-c2c3nc(c(-c4c(F)cc(S(=O)(=O)[O-])cc4F)c4ccc([nH]4)c(-c4c(F)cc(S(=O)(=O)[O-])cc4F)c4nc(c(-c5c(F)cc(S(=O)(=O)[O-])cc5F)c5ccc2[nH]5)C=C4)C=C3)cc1
REMARK SMILES IDX 4 1 3 2 1 3 2 4 27 6 28 7 92 8 29 9 91 10 30 11 31 12 32 13
REMARK SMILES IDX 85 14 33 15 90 16 84 17 86 18 34 19 89 20 83 21 82 22 35 24
REMARK SMILES IDX 69 25 48 26 68 27 49 28 52 29 67 30 87 31 50 32 51 33 66 35
REMARK SMILES IDX 88 36 53 37 36 38 37 39 46 40 38 41 39 42 45 43 47 44 40 45
REMARK SMILES IDX 41 46 42 47 43 48 44 49 70 50 71 51 80 52 72 53 73 54 79 55
REMARK SMILES IDX 81 56 74 57 75 58 76 59 77 60 78 61 54 62 55 63 64 64 56 65
REMARK SMILES IDX 57 66 63 67 65 68 58 69 59 70 60 71 61 72 62 73 5 74 6 75
REMARK SMILES IDX 7 76 8 77 9 79 10 80 11 81 15 82 12 83 14 84 16 85 17 86
REMARK SMILES IDX 18 87 19 88 25 89 20 90 24 91 26 92 21 93 22 94 23 95 13 96
REMARK H PARENT 3 5 86 23 52 34 7 78 13 97
REMARK Flexibility Score: inf
ROOT
ATOM      1  C   UNL A   1      35.129  29.413  27.687  1.00  0.00     0.118 C 
ENDROOT
BRANCH   1   2
ATOM      2  N   UNL A   1      35.249  30.257  28.863  1.00  0.00    -0.352 N 
ATOM      3  O   UNL A   1      36.121  31.048  30.765  1.00  0.00    -0.269 OA
ATOM      4  C   UNL A   1      36.310  30.451  29.708  1.00  0.00     0.251 C 
ATOM      5  H   UNL A   1      34.440  30.769  29.089  1.00  0.00     0.163 HD
BRANCH   4   6
ATOM      6  C   UNL A   1      37.666  29.955  29.373  1.00  0.00     0.039 A 
ATOM      7  C   UNL A   1      38.475  29.485  30.411  1.00  0.00     0.014 A 
ATOM      8  C   UNL A   1      38.181  30.023  28.074  1.00  0.00     0.014 A 
ATOM      9  C   UNL A   1      39.787  29.083  30.150  1.00  0.00     0.010 A 
ATOM     10  C   UNL A   1      39.460  29.540  27.799  1.00  0.00     0.010 A 
ATOM     11  C   UNL A   1      40.290  29.102  28.840  1.00  0.00    -0.014 A 
BRANCH  11  12
ATOM     12  C   UNL A   1      41.709  28.757  28.563  1.00  0.00     0.031 A 
ATOM     13  C   UNL A   1      42.069  27.349  28.156  1.00  0.00     0.074 A 
ATOM     14  C   UNL A   1      42.668  29.698  28.678  1.00  0.00     0.049 A 
ATOM     15  N   UNL A   1      43.245  26.838  27.904  1.00  0.00    -0.248 NA
ATOM     16  C   UNL A   1      40.963  26.381  28.041  1.00  0.00     0.031 C 
ATOM     17  C   UNL A   1      42.448  31.084  29.095  1.00  0.00     0.029 A 
ATOM     18  N   UNL A   1      44.020  29.632  28.448  1.00  0.00    -0.354 N 
ATOM     19  C   UNL A   1      43.024  25.496  27.618  1.00  0.00     0.074 A 
ATOM     20  C   UNL A   1      41.610  25.253  27.786  1.00  0.00     0.031 C 
ATOM     21  C   UNL A   1      43.615  31.747  29.056  1.00  0.00     0.029 A 
ATOM     22  C   UNL A   1      44.673  30.827  28.646  1.00  0.00     0.049 A 
ATOM     23  H   UNL A   1      44.480  28.808  28.169  1.00  0.00     0.167 HD
ATOM     24  C   UNL A   1      43.911  24.558  27.216  1.00  0.00     0.037 A 
ATOM     25  C   UNL A   1      45.976  31.145  28.510  1.00  0.00     0.037 A 
ATOM     26  C   UNL A   1      45.307  24.821  26.990  1.00  0.00     0.049 A 
ATOM     27  C   UNL A   1      46.944  30.083  28.057  1.00  0.00     0.074 A 
ATOM     28  C   UNL A   1      46.279  23.953  26.525  1.00  0.00     0.029 A 
ATOM     29  N   UNL A   1      45.925  26.045  27.196  1.00  0.00    -0.354 N 
ATOM     30  N   UNL A   1      46.705  28.831  27.749  1.00  0.00    -0.248 NA
ATOM     31  C   UNL A   1      48.356  30.473  27.933  1.00  0.00     0.031 C 
ATOM     32  C   UNL A   1      47.492  24.642  26.483  1.00  0.00     0.029 A 
ATOM     33  C   UNL A   1      47.268  25.951  26.881  1.00  0.00     0.049 A 
ATOM     34  H   UNL A   1      45.474  26.859  27.518  1.00  0.00     0.167 HD
ATOM     35  C   UNL A   1      47.930  28.292  27.371  1.00  0.00     0.074 A 
ATOM     36  C   UNL A   1      48.907  29.354  27.479  1.00  0.00     0.031 C 
ATOM     37  C   UNL A   1      48.220  27.029  26.974  1.00  0.00     0.037 A 
BRANCH  24  38
ATOM     38  C   UNL A   1      43.407  23.167  26.953  1.00  0.00     0.058 A 
ATOM     39  C   UNL A   1      43.345  22.646  25.652  1.00  0.00     0.135 A 
ATOM     40  C   UNL A   1      43.066  22.315  28.017  1.00  0.00     0.135 A 
ATOM     41  F   UNL A   1      43.642  23.422  24.597  1.00  0.00    -0.206 F 
ATOM     42  C   UNL A   1      42.957  21.332  25.411  1.00  0.00     0.059 A 
ATOM     43  C   UNL A   1      42.700  20.990  27.802  1.00  0.00     0.059 A 
ATOM     44  F   UNL A   1      43.104  22.764  29.281  1.00  0.00    -0.206 F 
ATOM     45  C   UNL A   1      42.646  20.509  26.494  1.00  0.00     0.060 A 
BRANCH  45  46
ATOM     46  S   UNL A   1      42.196  18.792  26.163  1.00  0.00     0.124 S 
ATOM     47  O   UNL A   1      43.150  18.436  25.116  1.00  0.00    -0.237 OA
ATOM     48  O   UNL A   1      42.412  18.159  27.459  1.00  0.00    -0.237 OA
ATOM     49  O   UNL A   1      40.802  18.881  25.735  1.00  0.00    -0.744 OA
ENDBRANCH  45  46
ENDBRANCH  24  38
BRANCH  25  50
ATOM     50  C   UNL A   1      46.438  32.534  28.778  1.00  0.00     0.058 A 
ATOM     51  C   UNL A   1      46.486  33.488  27.751  1.00  0.00     0.135 A 
ATOM     52  C   UNL A   1      46.835  32.938  30.063  1.00  0.00     0.135 A 
ATOM     53  F   UNL A   1      46.123  33.151  26.504  1.00  0.00    -0.206 F 
ATOM     54  C   UNL A   1      46.927  34.788  27.982  1.00  0.00     0.059 A 
ATOM     55  C   UNL A   1      47.256  34.238  30.324  1.00  0.00     0.059 A 
ATOM     56  F   UNL A   1      46.793  32.068  31.084  1.00  0.00    -0.206 F 
ATOM     57  C   UNL A   1      47.310  35.153  29.273  1.00  0.00     0.060 A 
BRANCH  57  58
ATOM     58  S   UNL A   1      47.851  36.852  29.566  1.00  0.00     0.124 S 
ATOM     59  O   UNL A   1      48.626  36.707  30.791  1.00  0.00    -0.237 OA
ATOM     60  O   UNL A   1      48.614  37.143  28.356  1.00  0.00    -0.237 OA
ATOM     61  O   UNL A   1      46.595  37.586  29.697  1.00  0.00    -0.744 OA
ENDBRANCH  57  58
ENDBRANCH  25  50
BRANCH  37  62
ATOM     62  C   UNL A   1      49.639  26.714  26.600  1.00  0.00     0.058 A 
ATOM     63  C   UNL A   1      50.548  26.219  27.545  1.00  0.00     0.135 A 
ATOM     64  C   UNL A   1      50.050  26.781  25.259  1.00  0.00     0.135 A 
ATOM     65  F   UNL A   1      50.202  26.142  28.841  1.00  0.00    -0.206 F 
ATOM     66  C   UNL A   1      51.817  25.791  27.173  1.00  0.00     0.059 A 
ATOM     67  C   UNL A   1      51.307  26.337  24.860  1.00  0.00     0.059 A 
ATOM     68  F   UNL A   1      49.212  27.239  24.315  1.00  0.00    -0.206 F 
ATOM     69  C   UNL A   1      52.182  25.840  25.825  1.00  0.00     0.060 A 
BRANCH  69  70
ATOM     70  S   UNL A   1      53.798  25.195  25.348  1.00  0.00     0.124 S 
ATOM     71  O   UNL A   1      53.541  23.759  25.299  1.00  0.00    -0.237 OA
ATOM     72  O   UNL A   1      54.023  25.842  24.059  1.00  0.00    -0.237 OA
ATOM     73  O   UNL A   1      54.676  25.638  26.427  1.00  0.00    -0.744 OA
ENDBRANCH  69  70
ENDBRANCH  37  62
ENDBRANCH  11  12
ENDBRANCH   4   6
ENDBRANCH   1   2
BRANCH   1  74
ATOM     74  C   UNL A   1      33.675  29.142  27.326  1.00  0.00     0.042 C 
BRANCH  74  75
ATOM     75  C   UNL A   1      33.077  30.174  26.372  1.00  0.00     0.117 C 
BRANCH  75  76
ATOM     76  N   UNL A   1      33.417  29.860  25.002  1.00  0.00    -0.354 N 
ATOM     77  C   UNL A   1      32.753  29.081  24.107  1.00  0.00     0.242 C 
ATOM     78  H   UNL A   1      34.248  30.270  24.669  1.00  0.00     0.163 HD
ATOM     79  O   UNL A   1      33.357  28.817  23.060  1.00  0.00    -0.273 OA
BRANCH  77  80
ATOM     80  C   UNL A   1      31.316  28.542  24.369  1.00  0.00     0.177 C 
ATOM     81  C   UNL A   1      30.287  29.627  23.998  1.00  0.00     0.069 C 
ATOM     82  N   UNL A   1      30.909  27.406  23.522  1.00  0.00    -0.324 N 
ATOM     83  C   UNL A   1      30.025  29.384  22.512  1.00  0.00     0.136 C 
ATOM     84  C   UNL A   1      30.106  27.863  22.383  1.00  0.00     0.152 C 
BRANCH  82  85
ATOM     85  C   UNL A   1      30.916  26.105  24.017  1.00  0.00     0.256 C 
ATOM     86  O   UNL A   1      29.998  25.681  24.713  1.00  0.00    -0.269 OA
BRANCH  85  87
ATOM     87  C   UNL A   1      32.087  25.213  23.774  1.00  0.00     0.061 A 
ATOM     88  C   UNL A   1      32.168  24.506  22.563  1.00  0.00     0.057 A 
ATOM     89  C   UNL A   1      33.180  25.164  24.662  1.00  0.00     0.056 A 
ATOM     90  C   UNL A   1      33.281  23.719  22.284  1.00  0.00     0.159 A 
ATOM     91  C   UNL A   1      34.310  24.394  24.351  1.00  0.00     0.063 A 
ATOM     92  Cl  UNL A   1      33.215  25.986  26.184  1.00  0.00    -0.083 Cl
ATOM     93  F   UNL A   1      33.313  23.020  21.142  1.00  0.00    -0.204 F 
ATOM     94  C   UNL A   1      34.345  23.665  23.171  1.00  0.00     0.160 A 
ATOM     95  F   UNL A   1      35.416  22.912  22.895  1.00  0.00    -0.204 F 
ENDBRANCH  85  87
ENDBRANCH  82  85
BRANCH  83  96
ATOM     96  O   UNL A   1      30.980  30.013  21.662  1.00  0.00    -0.391 OA
ATOM     97  H   UNL A   1      31.238  30.867  22.042  1.00  0.00     0.211 HD
ENDBRANCH  83  96
ENDBRANCH  77  80
ENDBRANCH  75  76
ENDBRANCH  74  75
ENDBRANCH   1  74
TORSDOF 16
ENDMDL
MODEL 3
REMARK VINA RESULT:     -12.5      6.833     12.217
REMARK SMILES O=C(NCCCNC(=O)[C@H]1C[C@@H](O)CN1C(=O)c1cc(F)c(F)cc1Cl)c1ccc(-c2c3nc(c(-c4c(F)cc(S(=O)(=O)[O-])cc4F)c4ccc([nH]4)c(-c4c(F)cc(S(=O)(=O)[O-])cc4F)c4nc(c(-c5c(F)cc(S(=O)(=O)[O-])cc5F)c5ccc2[nH]5)C=C4)C=C3)cc1
REMARK SMILES IDX 4 1 3 2 1 3 2 4 27 6 28 7 92 8 29 9 91 10 30 11 31 12 32 13
REMARK SMILES IDX 85 14 33 15 90 16 84 17 86 18 34 19 89 20 83 21 82 22 35 24
REMARK SMILES IDX 69 25 48 26 68 27 49 28 52 29 67 30 87 31 50 32 51 33 66 35
REMARK SMILES IDX 88 36 53 37 36 38 37 39 46 40 38 41 39 42 45 43 47 44 40 45
REMARK SMILES IDX 41 46 42 47 43 48 44 49 70 50 71 51 80 52 72 53 73 54 79 55
REMARK SMILES IDX 81 56 74 57 75 58 76 59 77 60 78 61 54 62 55 63 64 64 56 65
REMARK SMILES IDX 57 66 63 67 65 68 58 69 59 70 60 71 61 72 62 73 5 74 6 75
REMARK SMILES IDX 7 76 8 77 9 79 10 80 11 81 15 82 12 83 14 84 16 85 17 86
REMARK SMILES IDX 18 87 19 88 25 89 20 90 24 91 26 92 21 93 22 94 23 95 13 96
REMARK H PARENT 3 5 86 23 52 34 7 78 13 97
REMARK Flexibility Score: inf
ROOT
ATOM      1  C   UNL A   1      35.478  29.820  28.028  1.00  0.00     0.118 C 
ENDROOT
BRANCH   1   2
ATOM      2  N   UNL A   1      35.455  30.079  29.457  1.00  0.00    -0.352 N 
ATOM      3  O   UNL A   1      36.141  30.017  31.585  1.00  0.00    -0.269 OA
ATOM      4  C   UNL A   1      36.443  29.945  30.397  1.00  0.00     0.251 C 
ATOM      5  H   UNL A   1      34.593  30.401  29.805  1.00  0.00     0.163 HD
BRANCH   4   6
ATOM      6  C   UNL A   1      37.854  29.712  30.006  1.00  0.00     0.039 A 
ATOM      7  C   UNL A   1      38.211  29.903  28.668  1.00  0.00     0.014 A 
ATOM      8  C   UNL A   1      38.806  29.233  30.913  1.00  0.00     0.014 A 
ATOM      9  C   UNL A   1      39.511  29.619  28.242  1.00  0.00     0.010 A 
ATOM     10  C   UNL A   1      40.125  29.034  30.506  1.00  0.00     0.010 A 
ATOM     11  C   UNL A   1      40.481  29.186  29.158  1.00  0.00    -0.014 A 
BRANCH  11  12
ATOM     12  C   UNL A   1      41.843  28.800  28.703  1.00  0.00     0.031 A 
ATOM     13  C   UNL A   1      42.946  29.830  28.697  1.00  0.00     0.074 A 
ATOM     14  C   UNL A   1      42.087  27.539  28.295  1.00  0.00     0.049 A 
ATOM     15  N   UNL A   1      44.187  29.705  28.306  1.00  0.00    -0.248 NA
ATOM     16  C   UNL A   1      42.604  31.184  29.167  1.00  0.00     0.031 C 
ATOM     17  C   UNL A   1      41.093  26.465  28.225  1.00  0.00     0.029 A 
ATOM     18  N   UNL A   1      43.247  26.943  27.867  1.00  0.00    -0.354 N 
ATOM     19  C   UNL A   1      44.765  30.960  28.469  1.00  0.00     0.074 A 
ATOM     20  C   UNL A   1      43.726  31.849  28.935  1.00  0.00     0.031 C 
ATOM     21  C   UNL A   1      41.694  25.335  27.817  1.00  0.00     0.029 A 
ATOM     22  C   UNL A   1      43.105  25.609  27.562  1.00  0.00     0.049 A 
ATOM     23  H   UNL A   1      44.102  27.426  27.785  1.00  0.00     0.167 HD
ATOM     24  C   UNL A   1      46.052  31.330  28.282  1.00  0.00     0.037 A 
ATOM     25  C   UNL A   1      44.011  24.709  27.130  1.00  0.00     0.037 A 
ATOM     26  C   UNL A   1      47.095  30.426  27.878  1.00  0.00     0.049 A 
ATOM     27  C   UNL A   1      45.439  25.147  26.934  1.00  0.00     0.074 A 
ATOM     28  C   UNL A   1      48.444  30.690  27.718  1.00  0.00     0.029 A 
ATOM     29  N   UNL A   1      46.909  29.084  27.586  1.00  0.00    -0.354 N 
ATOM     30  N   UNL A   1      45.973  26.327  27.137  1.00  0.00    -0.248 NA
ATOM     31  C   UNL A   1      46.389  24.134  26.450  1.00  0.00     0.031 C 
ATOM     32  C   UNL A   1      49.068  29.515  27.296  1.00  0.00     0.029 A 
ATOM     33  C   UNL A   1      48.117  28.509  27.233  1.00  0.00     0.049 A 
ATOM     34  H   UNL A   1      46.046  28.611  27.625  1.00  0.00     0.167 HD
ATOM     35  C   UNL A   1      47.322  26.192  26.831  1.00  0.00     0.074 A 
ATOM     36  C   UNL A   1      47.528  24.814  26.437  1.00  0.00     0.031 C 
ATOM     37  C   UNL A   1      48.302  27.127  26.868  1.00  0.00     0.037 A 
BRANCH  24  38
ATOM     38  C   UNL A   1      46.427  32.761  28.548  1.00  0.00     0.058 A 
ATOM     39  C   UNL A   1      46.357  33.734  27.538  1.00  0.00     0.135 A 
ATOM     40  C   UNL A   1      46.774  33.183  29.841  1.00  0.00     0.135 A 
ATOM     41  F   UNL A   1      46.048  33.382  26.280  1.00  0.00    -0.206 F 
ATOM     42  C   UNL A   1      46.624  35.073  27.799  1.00  0.00     0.059 A 
ATOM     43  C   UNL A   1      47.020  34.522  30.131  1.00  0.00     0.059 A 
ATOM     44  F   UNL A   1      46.860  32.293  30.842  1.00  0.00    -0.206 F 
ATOM     45  C   UNL A   1      46.945  35.459  29.101  1.00  0.00     0.060 A 
BRANCH  45  46
ATOM     46  S   UNL A   1      47.236  37.211  29.428  1.00  0.00     0.124 S 
ATOM     47  O   UNL A   1      48.461  37.450  28.670  1.00  0.00    -0.237 OA
ATOM     48  O   UNL A   1      46.029  37.832  28.893  1.00  0.00    -0.237 OA
ATOM     49  O   UNL A   1      47.378  37.269  30.880  1.00  0.00    -0.744 OA
ENDBRANCH  45  46
ENDBRANCH  24  38
BRANCH  25  50
ATOM     50  C   UNL A   1      43.603  23.300  26.879  1.00  0.00     0.058 A 
ATOM     51  C   UNL A   1      43.317  22.433  27.943  1.00  0.00     0.135 A 
ATOM     52  C   UNL A   1      43.485  22.795  25.574  1.00  0.00     0.135 A 
ATOM     53  F   UNL A   1      43.420  22.866  29.208  1.00  0.00    -0.206 F 
ATOM     54  C   UNL A   1      42.946  21.109  27.725  1.00  0.00     0.059 A 
ATOM     55  C   UNL A   1      43.092  21.482  25.331  1.00  0.00     0.059 A 
ATOM     56  F   UNL A   1      43.733  23.588  24.520  1.00  0.00    -0.206 F 
ATOM     57  C   UNL A   1      42.836  20.643  26.415  1.00  0.00     0.060 A 
BRANCH  57  58
ATOM     58  S   UNL A   1      42.323  18.932  26.146  1.00  0.00     0.124 S 
ATOM     59  O   UNL A   1      40.938  19.103  25.725  1.00  0.00    -0.237 OA
ATOM     60  O   UNL A   1      43.256  18.492  25.113  1.00  0.00    -0.237 OA
ATOM     61  O   UNL A   1      42.513  18.315  27.456  1.00  0.00    -0.744 OA
ENDBRANCH  57  58
ENDBRANCH  25  50
BRANCH  37  62
ATOM     62  C   UNL A   1      49.696  26.706  26.501  1.00  0.00     0.058 A 
ATOM     63  C   UNL A   1      50.532  26.069  27.429  1.00  0.00     0.135 A 
ATOM     64  C   UNL A   1      50.144  26.818  25.175  1.00  0.00     0.135 A 
ATOM     65  F   UNL A   1      50.148  25.944  28.710  1.00  0.00    -0.206 F 
ATOM     66  C   UNL A   1      51.765  25.550  27.054  1.00  0.00     0.059 A 
ATOM     67  C   UNL A   1      51.365  26.285  24.772  1.00  0.00     0.059 A 
ATOM     68  F   UNL A   1      49.375  27.411  24.248  1.00  0.00    -0.206 F 
ATOM     69  C   UNL A   1      52.167  25.650  25.720  1.00  0.00     0.060 A 
BRANCH  69  70
ATOM     70  S   UNL A   1      53.728  24.887  25.232  1.00  0.00     0.124 S 
ATOM     71  O   UNL A   1      54.043  25.614  24.006  1.00  0.00    -0.237 OA
ATOM     72  O   UNL A   1      54.586  25.177  26.377  1.00  0.00    -0.237 OA
ATOM     73  O   UNL A   1      53.382  23.481  25.055  1.00  0.00    -0.744 OA
ENDBRANCH  69  70
ENDBRANCH  37  62
ENDBRANCH  11  12
ENDBRANCH   4   6
ENDBRANCH   1   2
BRANCH   1  74
ATOM     74  C   UNL A   1      34.429  30.635  27.284  1.00  0.00     0.042 C 
BRANCH  74  75
ATOM     75  C   UNL A   1      33.368  29.784  26.590  1.00  0.00     0.117 C 
BRANCH  75  76
ATOM     76  N   UNL A   1      33.613  29.725  25.166  1.00  0.00    -0.354 N 
ATOM     77  C   UNL A   1      32.870  29.143  24.188  1.00  0.00     0.242 C 
ATOM     78  H   UNL A   1      34.436  30.171  24.861  1.00  0.00     0.163 HD
ATOM     79  O   UNL A   1      33.399  29.065  23.072  1.00  0.00    -0.273 OA
BRANCH  77  80
ATOM     80  C   UNL A   1      31.432  28.599  24.440  1.00  0.00     0.177 C 
ATOM     81  C   UNL A   1      30.402  29.670  24.036  1.00  0.00     0.069 C 
ATOM     82  N   UNL A   1      31.046  27.445  23.607  1.00  0.00    -0.324 N 
ATOM     83  C   UNL A   1      30.162  29.399  22.551  1.00  0.00     0.136 C 
ATOM     84  C   UNL A   1      30.255  27.876  22.450  1.00  0.00     0.152 C 
BRANCH  82  85
ATOM     85  C   UNL A   1      31.055  26.153  24.125  1.00  0.00     0.256 C 
ATOM     86  O   UNL A   1      30.157  25.753  24.861  1.00  0.00    -0.269 OA
BRANCH  85  87
ATOM     87  C   UNL A   1      32.205  25.242  23.856  1.00  0.00     0.061 A 
ATOM     88  C   UNL A   1      32.195  24.453  22.694  1.00  0.00     0.057 A 
ATOM     89  C   UNL A   1      33.363  25.250  24.660  1.00  0.00     0.056 A 
ATOM     90  C   UNL A   1      33.284  23.644  22.386  1.00  0.00     0.159 A 
ATOM     91  C   UNL A   1      34.467  24.456  24.318  1.00  0.00     0.063 A 
ATOM     92  Cl  UNL A   1      33.511  26.174  26.114  1.00  0.00    -0.083 Cl
ATOM     93  F   UNL A   1      33.230  22.869  21.296  1.00  0.00    -0.204 F 
ATOM     94  C   UNL A   1      34.412  23.648  23.190  1.00  0.00     0.160 A 
ATOM     95  F   UNL A   1      35.461  22.874  22.887  1.00  0.00    -0.204 F 
ENDBRANCH  85  87
ENDBRANCH  82  85
BRANCH  83  96
ATOM     96  O   UNL A   1      31.123  30.019  21.704  1.00  0.00    -0.391 OA
ATOM     97  H   UNL A   1      31.685  29.339  21.300  1.00  0.00     0.211 HD
ENDBRANCH  83  96
ENDBRANCH  77  80
ENDBRANCH  75  76
ENDBRANCH  74  75
ENDBRANCH   1  74
TORSDOF 16
ENDMDL
