MODEL 1
REMARK VINA RESULT:     -11.4      0.000      0.000
REMARK SMILES CCCCCC(=O)N1CCC[C@H](C(=O)NCCCNC(=O)c2ccc(-c3c4nc(c(-c5c(F)cc(S(=O)(=O)[O-])cc5F)c5ccc([nH]5)c(-c5c(F)cc(S(=O)(=O)[O-])cc5F)c5nc(c(-c6c(F)cc(S(=O)(=O)[O-])cc6F)c6ccc3[nH]6)C=C5)C=C4)cc2)C1
REMARK SMILES IDX 16 1 15 2 13 3 14 4 12 6 8 7 9 8 88 9 10 10 11 11 6 12 7 13
REMARK SMILES IDX 5 14 4 15 3 16 2 17 1 18 17 19 18 20 19 21 20 22 21 24 22 25
REMARK SMILES IDX 23 26 87 27 24 28 86 29 25 30 26 31 27 32 80 33 28 34 85 35
REMARK SMILES IDX 79 36 81 37 29 38 84 39 78 40 77 41 30 43 64 44 43 45 63 46
REMARK SMILES IDX 44 47 47 48 62 49 82 50 45 51 46 52 61 54 83 55 48 56 31 57
REMARK SMILES IDX 32 58 41 59 33 60 34 61 40 62 42 63 35 64 36 65 37 66 38 67
REMARK SMILES IDX 39 68 65 69 66 70 75 71 67 72 68 73 74 74 76 75 69 76 70 77
REMARK SMILES IDX 71 78 72 79 73 80 49 81 50 82 59 83 51 84 52 85 58 86 60 87
REMARK SMILES IDX 53 88 54 89 55 90 56 91 57 92
REMARK H PARENT 15 5 19 23 81 42 47 53
REMARK Flexibility Score: inf
ROOT
ATOM      1  C   UNL A   1      34.075  29.744  27.168  1.00  0.00     0.117 C 
ENDROOT
BRANCH   1   2
ATOM      2  N   UNL A   1      32.812  29.208  27.623  1.00  0.00    -0.356 N 
ATOM      3  C   UNL A   1      32.067  28.178  27.153  1.00  0.00     0.224 C 
ATOM      4  O   UNL A   1      31.056  27.886  27.802  1.00  0.00    -0.275 OA
ATOM      5  H   UNL A   1      32.429  29.669  28.404  1.00  0.00     0.163 HD
BRANCH   3   6
ATOM      6  C   UNL A   1      32.406  27.381  25.889  1.00  0.00     0.098 C 
ATOM      7  N   UNL A   1      30.562  26.966  24.191  1.00  0.00    -0.342 N 
ATOM      8  C   UNL A   1      30.814  25.523  24.268  1.00  0.00     0.119 C 
ATOM      9  C   UNL A   1      31.652  27.826  24.632  1.00  0.00     0.132 C 
ATOM     10  C   UNL A   1      31.311  25.076  25.635  1.00  0.00     0.022 C 
ATOM     11  C   UNL A   1      32.517  25.874  26.104  1.00  0.00     0.017 C 
BRANCH   7  12
ATOM     12  C   UNL A   1      29.318  27.387  23.762  1.00  0.00     0.222 C 
ATOM     13  O   UNL A   1      28.346  26.624  23.870  1.00  0.00    -0.275 OA
BRANCH  12  14
ATOM     14  C   UNL A   1      29.043  28.718  23.051  1.00  0.00     0.100 C 
BRANCH  14  15
ATOM     15  C   UNL A   1      27.758  29.535  23.013  1.00  0.00     0.010 C 
BRANCH  15  16
ATOM     16  C   UNL A   1      27.795  31.038  23.326  1.00  0.00     0.000 C 
BRANCH  16  17
ATOM     17  C   UNL A   1      28.713  31.908  22.470  1.00  0.00    -0.003 C 
ATOM     18  C   UNL A   1      28.955  33.273  23.091  1.00  0.00     0.004 C 
ENDBRANCH  16  17
ENDBRANCH  15  16
ENDBRANCH  14  15
ENDBRANCH  12  14
ENDBRANCH   7  12
ENDBRANCH   3   6
ENDBRANCH   1   2
BRANCH   1  19
ATOM     19  C   UNL A   1      34.311  31.170  27.625  1.00  0.00     0.042 C 
BRANCH  19  20
ATOM     20  C   UNL A   1      35.636  31.332  28.337  1.00  0.00     0.118 C 
BRANCH  20  21
ATOM     21  N   UNL A   1      35.520  31.134  29.780  1.00  0.00    -0.352 N 
ATOM     22  C   UNL A   1      36.346  30.460  30.652  1.00  0.00     0.251 C 
ATOM     23  H   UNL A   1      34.728  31.548  30.194  1.00  0.00     0.163 HD
ATOM     24  O   UNL A   1      36.003  30.284  31.810  1.00  0.00    -0.269 OA
BRANCH  22  25
ATOM     25  C   UNL A   1      37.637  29.926  30.162  1.00  0.00     0.039 A 
ATOM     26  C   UNL A   1      37.963  30.053  28.810  1.00  0.00     0.014 A 
ATOM     27  C   UNL A   1      38.537  29.337  31.049  1.00  0.00     0.014 A 
ATOM     28  C   UNL A   1      39.227  29.654  28.368  1.00  0.00     0.010 A 
ATOM     29  C   UNL A   1      39.833  29.074  30.637  1.00  0.00     0.010 A 
ATOM     30  C   UNL A   1      40.186  29.201  29.287  1.00  0.00    -0.014 A 
BRANCH  30  31
ATOM     31  C   UNL A   1      41.551  28.791  28.875  1.00  0.00     0.031 A 
ATOM     32  C   UNL A   1      42.655  29.817  28.868  1.00  0.00     0.074 A 
ATOM     33  C   UNL A   1      41.777  27.542  28.424  1.00  0.00     0.049 A 
ATOM     34  N   UNL A   1      43.875  29.720  28.410  1.00  0.00    -0.248 NA
ATOM     35  C   UNL A   1      42.320  31.150  29.398  1.00  0.00     0.031 C 
ATOM     36  C   UNL A   1      40.777  26.475  28.333  1.00  0.00     0.029 A 
ATOM     37  N   UNL A   1      42.924  26.961  27.947  1.00  0.00    -0.354 N 
ATOM     38  C   UNL A   1      44.432  30.985  28.557  1.00  0.00     0.074 A 
ATOM     39  C   UNL A   1      43.396  31.849  29.075  1.00  0.00     0.031 C 
ATOM     40  C   UNL A   1      41.364  25.360  27.870  1.00  0.00     0.029 A 
ATOM     41  C   UNL A   1      42.769  25.642  27.591  1.00  0.00     0.049 A 
ATOM     42  H   UNL A   1      43.779  27.443  27.867  1.00  0.00     0.167 HD
ATOM     43  C   UNL A   1      45.703  31.386  28.316  1.00  0.00     0.037 A 
ATOM     44  C   UNL A   1      43.661  24.763  27.096  1.00  0.00     0.037 A 
ATOM     45  C   UNL A   1      46.740  30.503  27.858  1.00  0.00     0.049 A 
ATOM     46  C   UNL A   1      45.076  25.215  26.866  1.00  0.00     0.074 A 
ATOM     47  C   UNL A   1      48.079  30.778  27.651  1.00  0.00     0.029 A 
ATOM     48  N   UNL A   1      46.551  29.163  27.546  1.00  0.00    -0.354 N 
ATOM     49  N   UNL A   1      45.604  26.403  27.058  1.00  0.00    -0.248 NA
ATOM     50  C   UNL A   1      46.020  24.211  26.359  1.00  0.00     0.031 C 
ATOM     51  C   UNL A   1      48.693  29.611  27.180  1.00  0.00     0.029 A 
ATOM     52  C   UNL A   1      47.746  28.599  27.136  1.00  0.00     0.049 A 
ATOM     53  H   UNL A   1      45.693  28.684  27.607  1.00  0.00     0.167 HD
ATOM     54  C   UNL A   1      46.947  26.280  26.723  1.00  0.00     0.074 A 
ATOM     55  C   UNL A   1      47.152  24.902  26.321  1.00  0.00     0.031 C 
ATOM     56  C   UNL A   1      47.925  27.221  26.750  1.00  0.00     0.037 A 
BRANCH  43  57
ATOM     57  C   UNL A   1      46.022  32.837  28.555  1.00  0.00     0.058 A 
ATOM     58  C   UNL A   1      46.428  33.309  29.816  1.00  0.00     0.135 A 
ATOM     59  C   UNL A   1      45.887  33.777  27.521  1.00  0.00     0.135 A 
ATOM     60  F   UNL A   1      46.558  32.458  30.846  1.00  0.00    -0.206 F 
ATOM     61  C   UNL A   1      46.623  34.664  30.059  1.00  0.00     0.059 A 
ATOM     62  C   UNL A   1      46.113  35.135  27.732  1.00  0.00     0.059 A 
ATOM     63  F   UNL A   1      45.508  33.386  26.295  1.00  0.00    -0.206 F 
ATOM     64  C   UNL A   1      46.453  35.571  29.013  1.00  0.00     0.060 A 
BRANCH  64  65
ATOM     65  S   UNL A   1      46.665  37.331  29.352  1.00  0.00     0.124 S 
ATOM     66  O   UNL A   1      45.351  37.855  28.990  1.00  0.00    -0.237 OA
ATOM     67  O   UNL A   1      46.979  37.342  30.777  1.00  0.00    -0.237 OA
ATOM     68  O   UNL A   1      47.760  37.717  28.469  1.00  0.00    -0.744 OA
ENDBRANCH  64  65
ENDBRANCH  43  57
BRANCH  44  69
ATOM     69  C   UNL A   1      43.249  23.356  26.850  1.00  0.00     0.058 A 
ATOM     70  C   UNL A   1      43.153  22.860  25.542  1.00  0.00     0.135 A 
ATOM     71  C   UNL A   1      42.997  22.466  27.906  1.00  0.00     0.135 A 
ATOM     72  F   UNL A   1      43.379  23.673  24.499  1.00  0.00    -0.206 F 
ATOM     73  C   UNL A   1      42.822  21.533  25.286  1.00  0.00     0.059 A 
ATOM     74  C   UNL A   1      42.685  21.129  27.677  1.00  0.00     0.059 A 
ATOM     75  F   UNL A   1      43.093  22.888  29.178  1.00  0.00    -0.206 F 
ATOM     76  C   UNL A   1      42.597  20.673  26.361  1.00  0.00     0.060 A 
BRANCH  76  77
ATOM     77  S   UNL A   1      42.246  18.935  26.018  1.00  0.00     0.124 S 
ATOM     78  O   UNL A   1      40.791  18.940  25.928  1.00  0.00    -0.237 OA
ATOM     79  O   UNL A   1      42.963  18.720  24.765  1.00  0.00    -0.237 OA
ATOM     80  O   UNL A   1      42.805  18.243  27.176  1.00  0.00    -0.744 OA
ENDBRANCH  76  77
ENDBRANCH  44  69
BRANCH  56  81
ATOM     81  C   UNL A   1      49.312  26.786  26.372  1.00  0.00     0.058 A 
ATOM     82  C   UNL A   1      50.145  26.111  27.276  1.00  0.00     0.135 A 
ATOM     83  C   UNL A   1      49.784  26.990  25.065  1.00  0.00     0.135 A 
ATOM     84  F   UNL A   1      49.741  25.899  28.538  1.00  0.00    -0.206 F 
ATOM     85  C   UNL A   1      51.408  25.666  26.902  1.00  0.00     0.059 A 
ATOM     86  C   UNL A   1      51.033  26.531  24.663  1.00  0.00     0.059 A 
ATOM     87  F   UNL A   1      49.020  27.621  24.160  1.00  0.00    -0.206 F 
ATOM     88  C   UNL A   1      51.842  25.877  25.591  1.00  0.00     0.060 A 
BRANCH  88  89
ATOM     89  S   UNL A   1      53.465  25.253  25.106  1.00  0.00     0.124 S 
ATOM     90  O   UNL A   1      54.345  25.988  26.009  1.00  0.00    -0.237 OA
ATOM     91  O   UNL A   1      53.340  23.822  25.366  1.00  0.00    -0.237 OA
ATOM     92  O   UNL A   1      53.562  25.621  23.697  1.00  0.00    -0.744 OA
ENDBRANCH  88  89
ENDBRANCH  56  81
ENDBRANCH  30  31
ENDBRANCH  22  25
ENDBRANCH  20  21
ENDBRANCH  19  20
ENDBRANCH   1  19
TORSDOF 18
ENDMDL
MODEL 2
REMARK VINA RESULT:     -11.1      7.139     12.309
REMARK SMILES CCCCCC(=O)N1CCC[C@H](C(=O)NCCCNC(=O)c2ccc(-c3c4nc(c(-c5c(F)cc(S(=O)(=O)[O-])cc5F)c5ccc([nH]5)c(-c5c(F)cc(S(=O)(=O)[O-])cc5F)c5nc(c(-c6c(F)cc(S(=O)(=O)[O-])cc6F)c6ccc3[nH]6)C=C5)C=C4)cc2)C1
REMARK SMILES IDX 16 1 15 2 13 3 14 4 12 6 8 7 9 8 88 9 10 10 11 11 6 12 7 13
REMARK SMILES IDX 5 14 4 15 3 16 2 17 1 18 17 19 18 20 19 21 20 22 21 24 22 25
REMARK SMILES IDX 23 26 87 27 24 28 86 29 25 30 26 31 27 32 80 33 28 34 85 35
REMARK SMILES IDX 79 36 81 37 29 38 84 39 78 40 77 41 30 43 64 44 43 45 63 46
REMARK SMILES IDX 44 47 47 48 62 49 82 50 45 51 46 52 61 54 83 55 48 56 31 57
REMARK SMILES IDX 32 58 41 59 33 60 34 61 40 62 42 63 35 64 36 65 37 66 38 67
REMARK SMILES IDX 39 68 65 69 66 70 75 71 67 72 68 73 74 74 76 75 69 76 70 77
REMARK SMILES IDX 71 78 72 79 73 80 49 81 50 82 59 83 51 84 52 85 58 86 60 87
REMARK SMILES IDX 53 88 54 89 55 90 56 91 57 92
REMARK H PARENT 15 5 19 23 81 42 47 53
REMARK Flexibility Score: inf
ROOT
ATOM      1  C   UNL A   1      37.965  23.248  26.052  1.00  0.00     0.117 C 
ENDROOT
BRANCH   1   2
ATOM      2  N   UNL A   1      37.730  23.096  24.633  1.00  0.00    -0.356 N 
ATOM      3  C   UNL A   1      36.578  23.119  23.919  1.00  0.00     0.224 C 
ATOM      4  O   UNL A   1      36.688  23.046  22.689  1.00  0.00    -0.275 OA
ATOM      5  H   UNL A   1      38.543  22.954  24.096  1.00  0.00     0.163 HD
BRANCH   3   6
ATOM      6  C   UNL A   1      35.184  23.224  24.545  1.00  0.00     0.098 C 
ATOM      7  N   UNL A   1      33.733  21.139  24.621  1.00  0.00    -0.342 N 
ATOM      8  C   UNL A   1      32.661  21.858  23.926  1.00  0.00     0.119 C 
ATOM      9  C   UNL A   1      34.723  21.968  25.293  1.00  0.00     0.132 C 
ATOM     10  C   UNL A   1      33.177  22.929  22.976  1.00  0.00     0.022 C 
ATOM     11  C   UNL A   1      34.140  23.891  23.653  1.00  0.00     0.017 C 
BRANCH   7  12
ATOM     12  C   UNL A   1      33.748  19.759  24.541  1.00  0.00     0.222 C 
ATOM     13  O   UNL A   1      34.824  19.154  24.658  1.00  0.00    -0.275 OA
BRANCH  12  14
ATOM     14  C   UNL A   1      32.528  18.891  24.210  1.00  0.00     0.100 C 
BRANCH  14  15
ATOM     15  C   UNL A   1      32.266  17.433  24.567  1.00  0.00     0.010 C 
BRANCH  15  16
ATOM     16  C   UNL A   1      33.309  16.360  24.221  1.00  0.00     0.000 C 
BRANCH  16  17
ATOM     17  C   UNL A   1      33.990  15.645  25.386  1.00  0.00    -0.003 C 
ATOM     18  C   UNL A   1      35.496  15.840  25.379  1.00  0.00     0.004 C 
ENDBRANCH  16  17
ENDBRANCH  15  16
ENDBRANCH  14  15
ENDBRANCH  12  14
ENDBRANCH   7  12
ENDBRANCH   3   6
ENDBRANCH   1   2
BRANCH   1  19
ATOM     19  C   UNL A   1      39.227  22.550  26.519  1.00  0.00     0.042 C 
BRANCH  19  20
ATOM     20  C   UNL A   1      40.231  23.517  27.108  1.00  0.00     0.118 C 
BRANCH  20  21
ATOM     21  N   UNL A   1      40.963  24.252  26.080  1.00  0.00    -0.352 N 
ATOM     22  C   UNL A   1      41.295  25.588  26.011  1.00  0.00     0.251 C 
ATOM     23  H   UNL A   1      41.268  23.709  25.317  1.00  0.00     0.163 HD
ATOM     24  O   UNL A   1      41.791  26.045  24.994  1.00  0.00    -0.269 OA
BRANCH  22  25
ATOM     25  C   UNL A   1      41.014  26.465  27.169  1.00  0.00     0.039 A 
ATOM     26  C   UNL A   1      40.057  26.076  28.109  1.00  0.00     0.014 A 
ATOM     27  C   UNL A   1      41.727  27.652  27.342  1.00  0.00     0.014 A 
ATOM     28  C   UNL A   1      39.874  26.845  29.261  1.00  0.00     0.010 A 
ATOM     29  C   UNL A   1      41.643  28.332  28.546  1.00  0.00     0.010 A 
ATOM     30  C   UNL A   1      40.695  27.955  29.507  1.00  0.00    -0.014 A 
BRANCH  30  31
ATOM     31  C   UNL A   1      40.560  28.790  30.727  1.00  0.00     0.031 A 
ATOM     32  C   UNL A   1      39.491  29.851  30.774  1.00  0.00     0.074 A 
ATOM     33  C   UNL A   1      41.441  28.663  31.737  1.00  0.00     0.049 A 
ATOM     34  N   UNL A   1      39.287  30.784  31.667  1.00  0.00    -0.248 NA
ATOM     35  C   UNL A   1      38.561  29.902  29.634  1.00  0.00     0.031 C 
ATOM     36  C   UNL A   1      42.552  27.709  31.784  1.00  0.00     0.029 A 
ATOM     37  N   UNL A   1      41.546  29.350  32.919  1.00  0.00    -0.354 N 
ATOM     38  C   UNL A   1      38.239  31.552  31.172  1.00  0.00     0.074 A 
ATOM     39  C   UNL A   1      37.901  31.024  29.871  1.00  0.00     0.031 C 
ATOM     40  C   UNL A   1      43.199  27.843  32.953  1.00  0.00     0.029 A 
ATOM     41  C   UNL A   1      42.579  28.920  33.719  1.00  0.00     0.049 A 
ATOM     42  H   UNL A   1      40.939  30.082  33.173  1.00  0.00     0.167 HD
ATOM     43  C   UNL A   1      37.591  32.584  31.763  1.00  0.00     0.037 A 
ATOM     44  C   UNL A   1      42.977  29.347  34.932  1.00  0.00     0.037 A 
ATOM     45  C   UNL A   1      37.898  33.061  33.084  1.00  0.00     0.049 A 
ATOM     46  C   UNL A   1      42.225  30.472  35.589  1.00  0.00     0.074 A 
ATOM     47  C   UNL A   1      37.262  34.048  33.814  1.00  0.00     0.029 A 
ATOM     48  N   UNL A   1      38.927  32.572  33.878  1.00  0.00    -0.354 N 
ATOM     49  N   UNL A   1      41.203  31.158  35.132  1.00  0.00    -0.248 NA
ATOM     50  C   UNL A   1      42.676  30.879  36.927  1.00  0.00     0.031 C 
ATOM     51  C   UNL A   1      37.929  34.180  35.038  1.00  0.00     0.029 A 
ATOM     52  C   UNL A   1      38.953  33.245  35.086  1.00  0.00     0.049 A 
ATOM     53  H   UNL A   1      39.548  31.853  33.619  1.00  0.00     0.167 HD
ATOM     54  C   UNL A   1      40.868  32.057  36.138  1.00  0.00     0.074 A 
ATOM     55  C   UNL A   1      41.795  31.825  37.229  1.00  0.00     0.031 C 
ATOM     56  C   UNL A   1      39.881  32.987  36.160  1.00  0.00     0.037 A 
BRANCH  43  57
ATOM     57  C   UNL A   1      36.492  33.246  30.977  1.00  0.00     0.058 A 
ATOM     58  C   UNL A   1      36.763  34.039  29.847  1.00  0.00     0.135 A 
ATOM     59  C   UNL A   1      35.153  33.119  31.377  1.00  0.00     0.135 A 
ATOM     60  F   UNL A   1      38.028  34.210  29.429  1.00  0.00    -0.206 F 
ATOM     61  C   UNL A   1      35.756  34.732  29.185  1.00  0.00     0.059 A 
ATOM     62  C   UNL A   1      34.123  33.774  30.705  1.00  0.00     0.059 A 
ATOM     63  F   UNL A   1      34.832  32.371  32.444  1.00  0.00    -0.206 F 
ATOM     64  C   UNL A   1      34.440  34.602  29.628  1.00  0.00     0.060 A 
BRANCH  64  65
ATOM     65  S   UNL A   1      33.148  35.541  28.788  1.00  0.00     0.124 S 
ATOM     66  O   UNL A   1      32.533  34.509  27.959  1.00  0.00    -0.237 OA
ATOM     67  O   UNL A   1      32.337  36.025  29.901  1.00  0.00    -0.237 OA
ATOM     68  O   UNL A   1      33.890  36.568  28.065  1.00  0.00    -0.744 OA
ENDBRANCH  64  65
ENDBRANCH  43  57
BRANCH  44  69
ATOM     69  C   UNL A   1      44.101  28.662  35.622  1.00  0.00     0.058 A 
ATOM     70  C   UNL A   1      43.862  27.549  36.441  1.00  0.00     0.135 A 
ATOM     71  C   UNL A   1      45.434  29.064  35.439  1.00  0.00     0.135 A 
ATOM     72  F   UNL A   1      42.605  27.130  36.651  1.00  0.00    -0.206 F 
ATOM     73  C   UNL A   1      44.901  26.857  37.055  1.00  0.00     0.059 A 
ATOM     74  C   UNL A   1      46.492  28.376  36.025  1.00  0.00     0.059 A 
ATOM     75  F   UNL A   1      45.717  30.113  34.650  1.00  0.00    -0.206 F 
ATOM     76  C   UNL A   1      46.214  27.274  36.835  1.00  0.00     0.060 A 
BRANCH  76  77
ATOM     77  S   UNL A   1      47.558  26.319  37.573  1.00  0.00     0.124 S 
ATOM     78  O   UNL A   1      47.979  27.196  38.661  1.00  0.00    -0.237 OA
ATOM     79  O   UNL A   1      46.879  25.090  37.970  1.00  0.00    -0.237 OA
ATOM     80  O   UNL A   1      48.510  26.173  36.475  1.00  0.00    -0.744 OA
ENDBRANCH  76  77
ENDBRANCH  44  69
BRANCH  56  81
ATOM     81  C   UNL A   1      39.725  33.799  37.415  1.00  0.00     0.058 A 
ATOM     82  C   UNL A   1      40.465  34.970  37.633  1.00  0.00     0.135 A 
ATOM     83  C   UNL A   1      38.771  33.432  38.378  1.00  0.00     0.135 A 
ATOM     84  F   UNL A   1      41.393  35.358  36.744  1.00  0.00    -0.206 F 
ATOM     85  C   UNL A   1      40.276  35.744  38.773  1.00  0.00     0.059 A 
ATOM     86  C   UNL A   1      38.548  34.205  39.512  1.00  0.00     0.059 A 
ATOM     87  F   UNL A   1      38.030  32.326  38.210  1.00  0.00    -0.206 F 
ATOM     88  C   UNL A   1      39.312  35.355  39.705  1.00  0.00     0.060 A 
BRANCH  88  89
ATOM     89  S   UNL A   1      39.044  36.393  41.157  1.00  0.00     0.124 S 
ATOM     90  O   UNL A   1      40.391  36.474  41.713  1.00  0.00    -0.237 OA
ATOM     91  O   UNL A   1      38.524  37.624  40.570  1.00  0.00    -0.237 OA
ATOM     92  O   UNL A   1      38.084  35.629  41.947  1.00  0.00    -0.744 OA
ENDBRANCH  88  89
ENDBRANCH  56  81
ENDBRANCH  30  31
ENDBRANCH  22  25
ENDBRANCH  20  21
ENDBRANCH  19  20
ENDBRANCH   1  19
TORSDOF 18
ENDMDL
MODEL 3
REMARK VINA RESULT:     -11.0      5.527     12.451
REMARK SMILES CCCCCC(=O)N1CCC[C@H](C(=O)NCCCNC(=O)c2ccc(-c3c4nc(c(-c5c(F)cc(S(=O)(=O)[O-])cc5F)c5ccc([nH]5)c(-c5c(F)cc(S(=O)(=O)[O-])cc5F)c5nc(c(-c6c(F)cc(S(=O)(=O)[O-])cc6F)c6ccc3[nH]6)C=C5)C=C4)cc2)C1
REMARK SMILES IDX 16 1 15 2 13 3 14 4 12 6 8 7 9 8 88 9 10 10 11 11 6 12 7 13
REMARK SMILES IDX 5 14 4 15 3 16 2 17 1 18 17 19 18 20 19 21 20 22 21 24 22 25
REMARK SMILES IDX 23 26 87 27 24 28 86 29 25 30 26 31 27 32 80 33 28 34 85 35
REMARK SMILES IDX 79 36 81 37 29 38 84 39 78 40 77 41 30 43 64 44 43 45 63 46
REMARK SMILES IDX 44 47 47 48 62 49 82 50 45 51 46 52 61 54 83 55 48 56 31 57
REMARK SMILES IDX 32 58 41 59 33 60 34 61 40 62 42 63 35 64 36 65 37 66 38 67
REMARK SMILES IDX 39 68 65 69 66 70 75 71 67 72 68 73 74 74 76 75 69 76 70 77
REMARK SMILES IDX 71 78 72 79 73 80 49 81 50 82 59 83 51 84 52 85 58 86 60 87
REMARK SMILES IDX 53 88 54 89 55 90 56 91 57 92
REMARK H PARENT 15 5 19 23 81 42 47 53
REMARK Flexibility Score: inf
ROOT
ATOM      1  C   UNL A   1      42.870  21.192  26.615  1.00  0.00     0.117 C 
ENDROOT
BRANCH   1   2
ATOM      2  N   UNL A   1      43.860  20.425  25.893  1.00  0.00    -0.356 N 
ATOM      3  C   UNL A   1      44.947  20.823  25.187  1.00  0.00     0.224 C 
ATOM      4  O   UNL A   1      45.674  19.929  24.739  1.00  0.00    -0.275 OA
ATOM      5  H   UNL A   1      43.722  19.451  25.918  1.00  0.00     0.163 HD
BRANCH   3   6
ATOM      6  C   UNL A   1      45.306  22.289  24.922  1.00  0.00     0.098 C 
ATOM      7  N   UNL A   1      45.199  23.929  26.861  1.00  0.00    -0.342 N 
ATOM      8  C   UNL A   1      44.294  24.786  26.088  1.00  0.00     0.119 C 
ATOM      9  C   UNL A   1      46.007  22.996  26.087  1.00  0.00     0.132 C 
ATOM     10  C   UNL A   1      43.412  24.007  25.123  1.00  0.00     0.022 C 
ATOM     11  C   UNL A   1      44.214  23.089  24.215  1.00  0.00     0.017 C 
BRANCH   7  12
ATOM     12  C   UNL A   1      45.177  24.036  28.238  1.00  0.00     0.222 C 
ATOM     13  O   UNL A   1      46.161  24.506  28.828  1.00  0.00    -0.275 OA
BRANCH  12  14
ATOM     14  C   UNL A   1      44.047  23.518  29.136  1.00  0.00     0.100 C 
BRANCH  14  15
ATOM     15  C   UNL A   1      44.074  23.212  30.628  1.00  0.00     0.010 C 
BRANCH  15  16
ATOM     16  C   UNL A   1      44.456  24.312  31.630  1.00  0.00     0.000 C 
BRANCH  16  17
ATOM     17  C   UNL A   1      44.662  23.893  33.084  1.00  0.00    -0.003 C 
ATOM     18  C   UNL A   1      43.606  22.909  33.554  1.00  0.00     0.004 C 
ENDBRANCH  16  17
ENDBRANCH  15  16
ENDBRANCH  14  15
ENDBRANCH  12  14
ENDBRANCH   7  12
ENDBRANCH   3   6
ENDBRANCH   1   2
BRANCH   1  19
ATOM     19  C   UNL A   1      41.457  20.937  26.130  1.00  0.00     0.042 C 
BRANCH  19  20
ATOM     20  C   UNL A   1      40.430  21.711  26.927  1.00  0.00     0.118 C 
BRANCH  20  21
ATOM     21  N   UNL A   1      39.311  22.161  26.103  1.00  0.00    -0.352 N 
ATOM     22  C   UNL A   1      38.694  23.391  26.041  1.00  0.00     0.251 C 
ATOM     23  H   UNL A   1      38.939  21.479  25.497  1.00  0.00     0.163 HD
ATOM     24  O   UNL A   1      37.674  23.533  25.386  1.00  0.00    -0.269 OA
BRANCH  22  25
ATOM     25  C   UNL A   1      39.262  24.527  26.801  1.00  0.00     0.039 A 
ATOM     26  C   UNL A   1      40.103  25.434  26.152  1.00  0.00     0.014 A 
ATOM     27  C   UNL A   1      38.930  24.713  28.142  1.00  0.00     0.014 A 
ATOM     28  C   UNL A   1      40.546  26.569  26.835  1.00  0.00     0.010 A 
ATOM     29  C   UNL A   1      39.254  25.905  28.770  1.00  0.00     0.010 A 
ATOM     30  C   UNL A   1      40.090  26.834  28.136  1.00  0.00    -0.014 A 
BRANCH  30  31
ATOM     31  C   UNL A   1      40.509  28.037  28.896  1.00  0.00     0.031 A 
ATOM     32  C   UNL A   1      41.890  28.081  29.498  1.00  0.00     0.074 A 
ATOM     33  C   UNL A   1      39.634  29.035  29.124  1.00  0.00     0.049 A 
ATOM     34  N   UNL A   1      42.412  28.956  30.316  1.00  0.00    -0.248 NA
ATOM     35  C   UNL A   1      42.785  26.955  29.178  1.00  0.00     0.031 C 
ATOM     36  C   UNL A   1      38.252  29.082  28.640  1.00  0.00     0.029 A 
ATOM     37  N   UNL A   1      39.776  30.200  29.834  1.00  0.00    -0.354 N 
ATOM     38  C   UNL A   1      43.671  28.464  30.639  1.00  0.00     0.074 A 
ATOM     39  C   UNL A   1      43.805  27.180  29.990  1.00  0.00     0.031 C 
ATOM     40  C   UNL A   1      37.688  30.237  29.031  1.00  0.00     0.029 A 
ATOM     41  C   UNL A   1      38.651  30.990  29.829  1.00  0.00     0.049 A 
ATOM     42  H   UNL A   1      40.605  30.448  30.301  1.00  0.00     0.167 HD
ATOM     43  C   UNL A   1      44.644  29.044  31.380  1.00  0.00     0.037 A 
ATOM     44  C   UNL A   1      38.424  32.187  30.403  1.00  0.00     0.037 A 
ATOM     45  C   UNL A   1      44.521  30.348  31.971  1.00  0.00     0.049 A 
ATOM     46  C   UNL A   1      39.528  32.832  31.195  1.00  0.00     0.074 A 
ATOM     47  C   UNL A   1      45.466  31.068  32.679  1.00  0.00     0.029 A 
ATOM     48  N   UNL A   1      43.378  31.134  31.910  1.00  0.00    -0.354 N 
ATOM     49  N   UNL A   1      40.733  32.379  31.451  1.00  0.00    -0.248 NA
ATOM     50  C   UNL A   1      39.245  34.153  31.773  1.00  0.00     0.031 C 
ATOM     51  C   UNL A   1      44.881  32.277  33.075  1.00  0.00     0.029 A 
ATOM     52  C   UNL A   1      43.588  32.327  32.578  1.00  0.00     0.049 A 
ATOM     53  H   UNL A   1      42.541  30.880  31.459  1.00  0.00     0.167 HD
ATOM     54  C   UNL A   1      41.363  33.371  32.194  1.00  0.00     0.074 A 
ATOM     55  C   UNL A   1      40.406  34.450  32.343  1.00  0.00     0.031 C 
ATOM     56  C   UNL A   1      42.620  33.390  32.703  1.00  0.00     0.037 A 
BRANCH  43  57
ATOM     57  C   UNL A   1      45.916  28.263  31.577  1.00  0.00     0.058 A 
ATOM     58  C   UNL A   1      46.106  27.425  32.691  1.00  0.00     0.135 A 
ATOM     59  C   UNL A   1      46.974  28.380  30.663  1.00  0.00     0.135 A 
ATOM     60  F   UNL A   1      45.133  27.287  33.607  1.00  0.00    -0.206 F 
ATOM     61  C   UNL A   1      47.318  26.785  32.923  1.00  0.00     0.059 A 
ATOM     62  C   UNL A   1      48.185  27.719  30.857  1.00  0.00     0.059 A 
ATOM     63  F   UNL A   1      46.850  29.161  29.579  1.00  0.00    -0.206 F 
ATOM     64  C   UNL A   1      48.356  26.947  32.006  1.00  0.00     0.060 A 
BRANCH  64  65
ATOM     65  S   UNL A   1      49.939  26.149  32.342  1.00  0.00     0.124 S 
ATOM     66  O   UNL A   1      49.709  24.812  31.802  1.00  0.00    -0.237 OA
ATOM     67  O   UNL A   1      50.876  26.980  31.593  1.00  0.00    -0.237 OA
ATOM     68  O   UNL A   1      50.058  26.228  33.794  1.00  0.00    -0.744 OA
ENDBRANCH  64  65
ENDBRANCH  43  57
BRANCH  44  69
ATOM     69  C   UNL A   1      37.122  32.871  30.191  1.00  0.00     0.058 A 
ATOM     70  C   UNL A   1      36.085  32.735  31.125  1.00  0.00     0.135 A 
ATOM     71  C   UNL A   1      36.903  33.714  29.090  1.00  0.00     0.135 A 
ATOM     72  F   UNL A   1      36.245  31.937  32.192  1.00  0.00    -0.206 F 
ATOM     73  C   UNL A   1      34.876  33.407  30.978  1.00  0.00     0.059 A 
ATOM     74  C   UNL A   1      35.710  34.414  28.931  1.00  0.00     0.059 A 
ATOM     75  F   UNL A   1      37.871  33.891  28.176  1.00  0.00    -0.206 F 
ATOM     76  C   UNL A   1      34.701  34.251  29.880  1.00  0.00     0.060 A 
BRANCH  76  77
ATOM     77  S   UNL A   1      33.157  35.179  29.743  1.00  0.00     0.124 S 
ATOM     78  O   UNL A   1      32.499  34.493  28.637  1.00  0.00    -0.237 OA
ATOM     79  O   UNL A   1      32.563  34.983  31.061  1.00  0.00    -0.237 OA
ATOM     80  O   UNL A   1      33.607  36.540  29.463  1.00  0.00    -0.744 OA
ENDBRANCH  76  77
ENDBRANCH  44  69
BRANCH  56  81
ATOM     81  C   UNL A   1      43.051  34.630  33.435  1.00  0.00     0.058 A 
ATOM     82  C   UNL A   1      42.995  34.717  34.834  1.00  0.00     0.135 A 
ATOM     83  C   UNL A   1      43.588  35.717  32.727  1.00  0.00     0.135 A 
ATOM     84  F   UNL A   1      42.484  33.706  35.554  1.00  0.00    -0.206 F 
ATOM     85  C   UNL A   1      43.445  35.847  35.507  1.00  0.00     0.059 A 
ATOM     86  C   UNL A   1      44.066  36.846  33.381  1.00  0.00     0.059 A 
ATOM     87  F   UNL A   1      43.672  35.678  31.388  1.00  0.00    -0.206 F 
ATOM     88  C   UNL A   1      43.983  36.906  34.772  1.00  0.00     0.060 A 
BRANCH  88  89
ATOM     89  S   UNL A   1      44.605  38.349  35.660  1.00  0.00     0.124 S 
ATOM     90  O   UNL A   1      46.038  38.073  35.702  1.00  0.00    -0.237 OA
ATOM     91  O   UNL A   1      44.196  39.450  34.794  1.00  0.00    -0.237 OA
ATOM     92  O   UNL A   1      43.915  38.280  36.944  1.00  0.00    -0.744 OA
ENDBRANCH  88  89
ENDBRANCH  56  81
ENDBRANCH  30  31
ENDBRANCH  22  25
ENDBRANCH  20  21
ENDBRANCH  19  20
ENDBRANCH   1  19
TORSDOF 18
ENDMDL
