MODEL 1
REMARK VINA RESULT:     -12.1      0.000      0.000
REMARK SMILES C[C@@H]1CC(C)(C)C[C@@](CC(=O)Nc2cccc(C(F)(F)F)c2)(C(=O)NCCCNC(=O)c2ccc(-c3c4nc(c(-c5c(F)cc(S(=O)(=O)[O-])cc5F)c5ccc([nH]5)c(-c5c(F)cc(S(=O)(=O)[O-])cc5F)c5nc(c(-c6c(F)cc(S(=O)(=O)[O-])cc6F)c6ccc3[nH]6)C=C5)C=C4)cc2)C1
REMARK SMILES IDX 26 1 25 2 23 3 24 4 8 6 1 7 2 8 3 9 98 10 4 11 5 12 6 13
REMARK SMILES IDX 7 14 9 15 10 16 11 17 12 18 13 20 14 21 22 22 15 23 17 24
REMARK SMILES IDX 16 25 18 26 19 27 20 28 21 29 27 30 28 31 29 32 30 33 31 35
REMARK SMILES IDX 32 36 33 37 97 38 34 39 96 40 35 41 36 42 37 43 90 44 38 45
REMARK SMILES IDX 95 46 89 47 91 48 39 49 94 50 88 51 87 52 40 54 74 55 53 56
REMARK SMILES IDX 73 57 54 58 57 59 72 60 92 61 55 62 56 63 71 65 93 66 58 67
REMARK SMILES IDX 41 68 42 69 51 70 43 71 44 72 50 73 52 74 45 75 46 76 47 77
REMARK SMILES IDX 48 78 49 79 75 80 76 81 85 82 77 83 78 84 84 85 86 86 79 87
REMARK SMILES IDX 80 88 81 89 82 90 83 91 59 92 60 93 69 94 61 95 62 96 68 97
REMARK SMILES IDX 70 98 63 99 64 100 65 101 66 102 67 103
REMARK H PARENT 25 5 12 19 29 34 91 53 57 64
REMARK Flexibility Score: inf
ROOT
ATOM      1  C   UNL A   1      34.994  24.138  23.462  1.00  0.00     0.117 C 
ENDROOT
BRANCH   1   2
ATOM      2  N   UNL A   1      33.643  23.632  23.207  1.00  0.00    -0.356 N 
ATOM      3  C   UNL A   1      32.389  24.138  23.458  1.00  0.00     0.226 C 
ATOM      4  O   UNL A   1      31.449  23.457  23.039  1.00  0.00    -0.274 OA
ATOM      5  H   UNL A   1      33.630  22.752  22.764  1.00  0.00     0.163 HD
BRANCH   3   6
ATOM      6  C   UNL A   1      32.142  25.492  24.232  1.00  0.00     0.059 C 
ATOM      7  C   UNL A   1      32.453  27.624  26.867  1.00  0.00     0.008 C 
ATOM      8  C   UNL A   1      33.490  27.056  25.909  1.00  0.00    -0.013 C 
ATOM      9  C   UNL A   1      33.842  28.016  24.789  1.00  0.00     0.009 C 
ATOM     10  C   UNL A   1      33.225  25.665  25.329  1.00  0.00     0.020 C 
ATOM     11  C   UNL A   1      32.880  28.017  23.584  1.00  0.00    -0.034 C 
ATOM     12  C   UNL A   1      31.651  28.909  23.829  1.00  0.00     0.011 C 
ATOM     13  C   UNL A   1      33.680  28.666  22.422  1.00  0.00     0.011 C 
ATOM     14  C   UNL A   1      32.407  26.596  23.149  1.00  0.00     0.024 C 
BRANCH   6  15
ATOM     15  C   UNL A   1      30.691  25.319  24.759  1.00  0.00     0.117 C 
BRANCH  15  16
ATOM     16  C   UNL A   1      30.225  24.888  26.124  1.00  0.00     0.225 C 
ATOM     17  O   UNL A   1      29.362  25.580  26.688  1.00  0.00    -0.275 OA
ATOM     18  N   UNL A   1      30.566  23.756  26.784  1.00  0.00    -0.326 N 
ATOM     19  H   UNL A   1      29.953  23.595  27.538  1.00  0.00     0.169 HD
BRANCH  18  20
ATOM     20  C   UNL A   1      31.536  22.741  26.708  1.00  0.00     0.041 A 
ATOM     21  C   UNL A   1      32.634  22.929  27.566  1.00  0.00     0.026 A 
ATOM     22  C   UNL A   1      31.581  21.686  25.802  1.00  0.00     0.039 A 
ATOM     23  C   UNL A   1      33.802  22.183  27.431  1.00  0.00     0.003 A 
ATOM     24  C   UNL A   1      32.794  20.988  25.586  1.00  0.00     0.058 A 
ATOM     25  C   UNL A   1      33.894  21.238  26.419  1.00  0.00     0.013 A 
BRANCH  24  26
ATOM     26  C   UNL A   1      32.956  20.030  24.424  1.00  0.00     0.416 C 
ATOM     27  F   UNL A   1      32.665  20.613  23.224  1.00  0.00    -0.166 F 
ATOM     28  F   UNL A   1      34.223  19.553  24.305  1.00  0.00    -0.166 F 
ATOM     29  F   UNL A   1      32.138  18.951  24.502  1.00  0.00    -0.166 F 
ENDBRANCH  24  26
ENDBRANCH  18  20
ENDBRANCH  15  16
ENDBRANCH   6  15
ENDBRANCH   3   6
ENDBRANCH   1   2
BRANCH   1  30
ATOM     30  C   UNL A   1      35.971  23.085  23.989  1.00  0.00     0.042 C 
BRANCH  30  31
ATOM     31  C   UNL A   1      36.825  23.530  25.181  1.00  0.00     0.118 C 
BRANCH  31  32
ATOM     32  N   UNL A   1      37.959  22.656  25.460  1.00  0.00    -0.352 N 
ATOM     33  C   UNL A   1      39.147  22.882  26.126  1.00  0.00     0.251 C 
ATOM     34  H   UNL A   1      37.859  21.741  25.112  1.00  0.00     0.163 HD
ATOM     35  O   UNL A   1      39.987  21.992  26.154  1.00  0.00    -0.269 OA
BRANCH  33  36
ATOM     36  C   UNL A   1      39.442  24.185  26.776  1.00  0.00     0.039 A 
ATOM     37  C   UNL A   1      38.954  24.416  28.068  1.00  0.00     0.014 A 
ATOM     38  C   UNL A   1      40.155  25.193  26.126  1.00  0.00     0.014 A 
ATOM     39  C   UNL A   1      39.267  25.606  28.738  1.00  0.00     0.010 A 
ATOM     40  C   UNL A   1      40.533  26.344  26.821  1.00  0.00     0.010 A 
ATOM     41  C   UNL A   1      40.106  26.559  28.141  1.00  0.00    -0.014 A 
BRANCH  41  42
ATOM     42  C   UNL A   1      40.574  27.766  28.879  1.00  0.00     0.031 A 
ATOM     43  C   UNL A   1      41.940  27.795  29.516  1.00  0.00     0.074 A 
ATOM     44  C   UNL A   1      39.735  28.805  29.063  1.00  0.00     0.049 A 
ATOM     45  N   UNL A   1      42.470  28.699  30.300  1.00  0.00    -0.248 NA
ATOM     46  C   UNL A   1      42.812  26.637  29.262  1.00  0.00     0.031 C 
ATOM     47  C   UNL A   1      38.370  28.894  28.540  1.00  0.00     0.029 A 
ATOM     48  N   UNL A   1      39.898  29.981  29.754  1.00  0.00    -0.354 N 
ATOM     49  C   UNL A   1      43.721  28.207  30.659  1.00  0.00     0.074 A 
ATOM     50  C   UNL A   1      43.852  26.907  30.037  1.00  0.00     0.031 C 
ATOM     51  C   UNL A   1      37.830  30.066  28.909  1.00  0.00     0.029 A 
ATOM     52  C   UNL A   1      38.790  30.797  29.731  1.00  0.00     0.049 A 
ATOM     53  H   UNL A   1      40.730  30.219  30.223  1.00  0.00     0.167 HD
ATOM     54  C   UNL A   1      44.678  28.790  31.422  1.00  0.00     0.037 A 
ATOM     55  C   UNL A   1      38.564  31.991  30.312  1.00  0.00     0.037 A 
ATOM     56  C   UNL A   1      44.561  30.101  32.008  1.00  0.00     0.049 A 
ATOM     57  C   UNL A   1      39.644  32.628  31.142  1.00  0.00     0.074 A 
ATOM     58  C   UNL A   1      45.504  30.806  32.734  1.00  0.00     0.029 A 
ATOM     59  N   UNL A   1      43.432  30.904  31.936  1.00  0.00    -0.354 N 
ATOM     60  N   UNL A   1      40.841  32.170  31.425  1.00  0.00    -0.248 NA
ATOM     61  C   UNL A   1      39.345  33.940  31.731  1.00  0.00     0.031 C 
ATOM     62  C   UNL A   1      44.934  32.022  33.133  1.00  0.00     0.029 A 
ATOM     63  C   UNL A   1      43.649  32.091  32.619  1.00  0.00     0.049 A 
ATOM     64  H   UNL A   1      42.599  30.667  31.468  1.00  0.00     0.167 HD
ATOM     65  C   UNL A   1      41.448  33.152  32.200  1.00  0.00     0.074 A 
ATOM     66  C   UNL A   1      40.489  34.229  32.339  1.00  0.00     0.031 C 
ATOM     67  C   UNL A   1      42.690  33.160  32.744  1.00  0.00     0.037 A 
BRANCH  54  68
ATOM     68  C   UNL A   1      45.938  28.006  31.669  1.00  0.00     0.058 A 
ATOM     69  C   UNL A   1      46.096  27.200  32.807  1.00  0.00     0.135 A 
ATOM     70  C   UNL A   1      47.001  28.056  30.751  1.00  0.00     0.135 A 
ATOM     71  F   UNL A   1      45.117  27.123  33.722  1.00  0.00    -0.206 F 
ATOM     72  C   UNL A   1      47.279  26.508  33.051  1.00  0.00     0.059 A 
ATOM     73  C   UNL A   1      48.182  27.349  30.960  1.00  0.00     0.059 A 
ATOM     74  F   UNL A   1      46.902  28.805  29.642  1.00  0.00    -0.206 F 
ATOM     75  C   UNL A   1      48.319  26.597  32.125  1.00  0.00     0.060 A 
BRANCH  75  76
ATOM     76  S   UNL A   1      49.859  25.719  32.470  1.00  0.00     0.124 S 
ATOM     77  O   UNL A   1      49.361  24.409  32.878  1.00  0.00    -0.237 OA
ATOM     78  O   UNL A   1      50.543  25.762  31.181  1.00  0.00    -0.237 OA
ATOM     79  O   UNL A   1      50.473  26.514  33.528  1.00  0.00    -0.744 OA
ENDBRANCH  75  76
ENDBRANCH  54  68
BRANCH  55  80
ATOM     80  C   UNL A   1      37.265  32.684  30.093  1.00  0.00     0.058 A 
ATOM     81  C   UNL A   1      36.187  32.470  30.962  1.00  0.00     0.135 A 
ATOM     82  C   UNL A   1      37.087  33.593  29.038  1.00  0.00     0.135 A 
ATOM     83  F   UNL A   1      36.307  31.603  31.979  1.00  0.00    -0.206 F 
ATOM     84  C   UNL A   1      34.974  33.130  30.796  1.00  0.00     0.059 A 
ATOM     85  C   UNL A   1      35.890  34.281  28.864  1.00  0.00     0.059 A 
ATOM     86  F   UNL A   1      38.094  33.842  28.187  1.00  0.00    -0.206 F 
ATOM     87  C   UNL A   1      34.837  34.040  29.745  1.00  0.00     0.060 A 
BRANCH  87  88
ATOM     88  S   UNL A   1      33.283  34.946  29.583  1.00  0.00     0.124 S 
ATOM     89  O   UNL A   1      32.549  34.103  28.647  1.00  0.00    -0.237 OA
ATOM     90  O   UNL A   1      32.789  34.956  30.956  1.00  0.00    -0.237 OA
ATOM     91  O   UNL A   1      33.705  36.245  29.066  1.00  0.00    -0.744 OA
ENDBRANCH  87  88
ENDBRANCH  55  80
BRANCH  67  92
ATOM     92  C   UNL A   1      43.104  34.387  33.510  1.00  0.00     0.058 A 
ATOM     93  C   UNL A   1      43.549  35.547  32.860  1.00  0.00     0.135 A 
ATOM     94  C   UNL A   1      42.999  34.417  34.910  1.00  0.00     0.135 A 
ATOM     95  F   UNL A   1      43.675  35.567  31.523  1.00  0.00    -0.206 F 
ATOM     96  C   UNL A   1      43.893  36.692  33.572  1.00  0.00     0.059 A 
ATOM     97  C   UNL A   1      43.315  35.559  35.641  1.00  0.00     0.059 A 
ATOM     98  F   UNL A   1      42.569  33.336  35.580  1.00  0.00    -0.206 F 
ATOM     99  C   UNL A   1      43.771  36.688  34.963  1.00  0.00     0.060 A 
BRANCH  99 100
ATOM    100  S   UNL A   1      44.181  38.193  35.874  1.00  0.00     0.124 S 
ATOM    101  O   UNL A   1      43.363  38.042  37.073  1.00  0.00    -0.237 OA
ATOM    102  O   UNL A   1      45.621  38.059  36.069  1.00  0.00    -0.237 OA
ATOM    103  O   UNL A   1      43.774  39.261  34.966  1.00  0.00    -0.744 OA
ENDBRANCH  99 100
ENDBRANCH  67  92
ENDBRANCH  41  42
ENDBRANCH  33  36
ENDBRANCH  31  32
ENDBRANCH  30  31
ENDBRANCH   1  30
TORSDOF 17
ENDMDL
MODEL 2
REMARK VINA RESULT:     -12.0      3.547      5.111
REMARK SMILES C[C@@H]1CC(C)(C)C[C@@](CC(=O)Nc2cccc(C(F)(F)F)c2)(C(=O)NCCCNC(=O)c2ccc(-c3c4nc(c(-c5c(F)cc(S(=O)(=O)[O-])cc5F)c5ccc([nH]5)c(-c5c(F)cc(S(=O)(=O)[O-])cc5F)c5nc(c(-c6c(F)cc(S(=O)(=O)[O-])cc6F)c6ccc3[nH]6)C=C5)C=C4)cc2)C1
REMARK SMILES IDX 26 1 25 2 23 3 24 4 8 6 1 7 2 8 3 9 98 10 4 11 5 12 6 13
REMARK SMILES IDX 7 14 9 15 10 16 11 17 12 18 13 20 14 21 22 22 15 23 17 24
REMARK SMILES IDX 16 25 18 26 19 27 20 28 21 29 27 30 28 31 29 32 30 33 31 35
REMARK SMILES IDX 32 36 33 37 97 38 34 39 96 40 35 41 36 42 37 43 90 44 38 45
REMARK SMILES IDX 95 46 89 47 91 48 39 49 94 50 88 51 87 52 40 54 74 55 53 56
REMARK SMILES IDX 73 57 54 58 57 59 72 60 92 61 55 62 56 63 71 65 93 66 58 67
REMARK SMILES IDX 41 68 42 69 51 70 43 71 44 72 50 73 52 74 45 75 46 76 47 77
REMARK SMILES IDX 48 78 49 79 75 80 76 81 85 82 77 83 78 84 84 85 86 86 79 87
REMARK SMILES IDX 80 88 81 89 82 90 83 91 59 92 60 93 69 94 61 95 62 96 68 97
REMARK SMILES IDX 70 98 63 99 64 100 65 101 66 102 67 103
REMARK H PARENT 25 5 12 19 29 34 91 53 57 64
REMARK Flexibility Score: inf
ROOT
ATOM      1  C   UNL A   1      36.183  23.892  25.249  1.00  0.00     0.117 C 
ENDROOT
BRANCH   1   2
ATOM      2  N   UNL A   1      35.797  23.414  23.920  1.00  0.00    -0.356 N 
ATOM      3  C   UNL A   1      34.651  23.546  23.171  1.00  0.00     0.226 C 
ATOM      4  O   UNL A   1      34.698  23.060  22.039  1.00  0.00    -0.274 OA
ATOM      5  H   UNL A   1      36.502  22.893  23.470  1.00  0.00     0.163 HD
BRANCH   3   6
ATOM      6  C   UNL A   1      33.349  24.265  23.703  1.00  0.00     0.059 C 
ATOM      7  C   UNL A   1      30.054  25.114  23.610  1.00  0.00     0.008 C 
ATOM      8  C   UNL A   1      30.737  23.765  23.781  1.00  0.00    -0.013 C 
ATOM      9  C   UNL A   1      30.826  23.332  25.233  1.00  0.00     0.009 C 
ATOM     10  C   UNL A   1      32.096  23.572  23.105  1.00  0.00     0.020 C 
ATOM     11  C   UNL A   1      32.008  23.917  26.032  1.00  0.00    -0.034 C 
ATOM     12  C   UNL A   1      31.698  25.322  26.573  1.00  0.00     0.011 C 
ATOM     13  C   UNL A   1      32.167  22.987  27.265  1.00  0.00     0.011 C 
ATOM     14  C   UNL A   1      33.351  23.953  25.242  1.00  0.00     0.024 C 
BRANCH   6  15
ATOM     15  C   UNL A   1      33.568  25.735  23.255  1.00  0.00     0.117 C 
BRANCH  15  16
ATOM     16  C   UNL A   1      33.011  26.452  22.055  1.00  0.00     0.225 C 
ATOM     17  O   UNL A   1      33.387  26.081  20.931  1.00  0.00    -0.275 OA
ATOM     18  N   UNL A   1      32.051  27.406  22.047  1.00  0.00    -0.326 N 
ATOM     19  H   UNL A   1      31.701  27.540  21.136  1.00  0.00     0.169 HD
BRANCH  18  20
ATOM     20  C   UNL A   1      31.405  28.262  22.957  1.00  0.00     0.041 A 
ATOM     21  C   UNL A   1      30.352  29.007  22.399  1.00  0.00     0.026 A 
ATOM     22  C   UNL A   1      31.785  28.536  24.268  1.00  0.00     0.039 A 
ATOM     23  C   UNL A   1      29.787  30.089  23.070  1.00  0.00     0.003 A 
ATOM     24  C   UNL A   1      31.292  29.692  24.921  1.00  0.00     0.058 A 
ATOM     25  C   UNL A   1      30.281  30.452  24.315  1.00  0.00     0.013 A 
BRANCH  24  26
ATOM     26  C   UNL A   1      31.886  30.172  26.229  1.00  0.00     0.416 C 
ATOM     27  F   UNL A   1      31.778  29.240  27.223  1.00  0.00    -0.166 F 
ATOM     28  F   UNL A   1      33.210  30.459  26.135  1.00  0.00    -0.166 F 
ATOM     29  F   UNL A   1      31.279  31.283  26.717  1.00  0.00    -0.166 F 
ENDBRANCH  24  26
ENDBRANCH  18  20
ENDBRANCH  15  16
ENDBRANCH   6  15
ENDBRANCH   3   6
ENDBRANCH   1   2
BRANCH   1  30
ATOM     30  C   UNL A   1      37.455  23.247  25.806  1.00  0.00     0.042 C 
BRANCH  30  31
ATOM     31  C   UNL A   1      38.400  24.203  26.540  1.00  0.00     0.118 C 
BRANCH  31  32
ATOM     32  N   UNL A   1      39.758  24.222  26.008  1.00  0.00    -0.352 N 
ATOM     33  C   UNL A   1      40.882  24.928  26.391  1.00  0.00     0.251 C 
ATOM     34  H   UNL A   1      39.899  23.624  25.240  1.00  0.00     0.163 HD
ATOM     35  O   UNL A   1      41.900  24.827  25.718  1.00  0.00    -0.269 OA
BRANCH  33  36
ATOM     36  C   UNL A   1      40.873  25.828  27.573  1.00  0.00     0.039 A 
ATOM     37  C   UNL A   1      41.899  26.772  27.705  1.00  0.00     0.014 A 
ATOM     38  C   UNL A   1      39.897  25.737  28.567  1.00  0.00     0.014 A 
ATOM     39  C   UNL A   1      41.887  27.682  28.771  1.00  0.00     0.010 A 
ATOM     40  C   UNL A   1      39.843  26.692  29.584  1.00  0.00     0.010 A 
ATOM     41  C   UNL A   1      40.829  27.686  29.691  1.00  0.00    -0.014 A 
BRANCH  41  42
ATOM     42  C   UNL A   1      40.711  28.729  30.749  1.00  0.00     0.031 A 
ATOM     43  C   UNL A   1      41.576  28.672  31.982  1.00  0.00     0.074 A 
ATOM     44  C   UNL A   1      39.759  29.678  30.650  1.00  0.00     0.049 A 
ATOM     45  N   UNL A   1      41.530  29.411  33.062  1.00  0.00    -0.248 NA
ATOM     46  C   UNL A   1      42.607  27.623  32.018  1.00  0.00     0.031 C 
ATOM     47  C   UNL A   1      38.824  29.826  29.532  1.00  0.00     0.029 A 
ATOM     48  N   UNL A   1      39.405  30.690  31.509  1.00  0.00    -0.354 N 
ATOM     49  C   UNL A   1      42.500  28.900  33.917  1.00  0.00     0.074 A 
ATOM     50  C   UNL A   1      43.091  27.762  33.244  1.00  0.00     0.031 C 
ATOM     51  C   UNL A   1      38.022  30.878  29.763  1.00  0.00     0.029 A 
ATOM     52  C   UNL A   1      38.351  31.455  31.063  1.00  0.00     0.049 A 
ATOM     53  H   UNL A   1      39.863  30.854  32.365  1.00  0.00     0.167 HD
ATOM     54  C   UNL A   1      42.876  29.344  35.141  1.00  0.00     0.037 A 
ATOM     55  C   UNL A   1      37.714  32.494  31.635  1.00  0.00     0.037 A 
ATOM     56  C   UNL A   1      42.314  30.500  35.791  1.00  0.00     0.049 A 
ATOM     57  C   UNL A   1      38.156  32.981  32.987  1.00  0.00     0.074 A 
ATOM     58  C   UNL A   1      42.680  31.072  36.998  1.00  0.00     0.029 A 
ATOM     59  N   UNL A   1      41.268  31.262  35.291  1.00  0.00    -0.354 N 
ATOM     60  N   UNL A   1      39.112  32.517  33.757  1.00  0.00    -0.248 NA
ATOM     61  C   UNL A   1      37.435  34.132  33.549  1.00  0.00     0.031 C 
ATOM     62  C   UNL A   1      41.831  32.158  37.245  1.00  0.00     0.029 A 
ATOM     63  C   UNL A   1      40.964  32.288  36.173  1.00  0.00     0.049 A 
ATOM     64  H   UNL A   1      40.808  31.098  34.436  1.00  0.00     0.167 HD
ATOM     65  C   UNL A   1      39.127  33.337  34.879  1.00  0.00     0.074 A 
ATOM     66  C   UNL A   1      38.087  34.328  34.688  1.00  0.00     0.031 C 
ATOM     67  C   UNL A   1      39.932  33.274  35.968  1.00  0.00     0.037 A 
BRANCH  54  68
ATOM     68  C   UNL A   1      43.948  28.570  35.859  1.00  0.00     0.058 A 
ATOM     69  C   UNL A   1      45.310  28.856  35.684  1.00  0.00     0.135 A 
ATOM     70  C   UNL A   1      43.607  27.531  36.742  1.00  0.00     0.135 A 
ATOM     71  F   UNL A   1      45.694  29.831  34.844  1.00  0.00    -0.206 F 
ATOM     72  C   UNL A   1      46.299  28.111  36.320  1.00  0.00     0.059 A 
ATOM     73  C   UNL A   1      44.578  26.791  37.411  1.00  0.00     0.059 A 
ATOM     74  F   UNL A   1      42.319  27.218  36.954  1.00  0.00    -0.206 F 
ATOM     75  C   UNL A   1      45.922  27.075  37.175  1.00  0.00     0.060 A 
BRANCH  75  76
ATOM     76  S   UNL A   1      47.216  26.097  37.970  1.00  0.00     0.124 S 
ATOM     77  O   UNL A   1      46.778  24.738  37.667  1.00  0.00    -0.237 OA
ATOM     78  O   UNL A   1      48.420  26.544  37.276  1.00  0.00    -0.237 OA
ATOM     79  O   UNL A   1      47.123  26.489  39.373  1.00  0.00    -0.744 OA
ENDBRANCH  75  76
ENDBRANCH  54  68
BRANCH  55  80
ATOM     80  C   UNL A   1      36.607  33.172  30.907  1.00  0.00     0.058 A 
ATOM     81  C   UNL A   1      35.275  32.988  31.301  1.00  0.00     0.135 A 
ATOM     82  C   UNL A   1      36.859  34.039  29.832  1.00  0.00     0.135 A 
ATOM     83  F   UNL A   1      34.985  32.161  32.318  1.00  0.00    -0.206 F 
ATOM     84  C   UNL A   1      34.227  33.635  30.655  1.00  0.00     0.059 A 
ATOM     85  C   UNL A   1      35.829  34.714  29.184  1.00  0.00     0.059 A 
ATOM     86  F   UNL A   1      38.119  34.259  29.426  1.00  0.00    -0.206 F 
ATOM     87  C   UNL A   1      34.516  34.503  29.600  1.00  0.00     0.060 A 
BRANCH  87  88
ATOM     88  S   UNL A   1      33.154  35.395  28.817  1.00  0.00     0.124 S 
ATOM     89  O   UNL A   1      32.387  35.836  29.977  1.00  0.00    -0.237 OA
ATOM     90  O   UNL A   1      33.856  36.441  28.080  1.00  0.00    -0.237 OA
ATOM     91  O   UNL A   1      32.517  34.374  27.989  1.00  0.00    -0.744 OA
ENDBRANCH  87  88
ENDBRANCH  55  80
BRANCH  67  92
ATOM     92  C   UNL A   1      39.752  34.329  37.026  1.00  0.00     0.058 A 
ATOM     93  C   UNL A   1      39.042  34.074  38.209  1.00  0.00     0.135 A 
ATOM     94  C   UNL A   1      40.345  35.593  36.875  1.00  0.00     0.135 A 
ATOM     95  F   UNL A   1      38.450  32.884  38.399  1.00  0.00    -0.206 F 
ATOM     96  C   UNL A   1      38.913  35.041  39.200  1.00  0.00     0.059 A 
ATOM     97  C   UNL A   1      40.248  36.568  37.863  1.00  0.00     0.059 A 
ATOM     98  F   UNL A   1      41.042  35.885  35.765  1.00  0.00    -0.206 F 
ATOM     99  C   UNL A   1      39.521  36.285  39.019  1.00  0.00     0.060 A 
BRANCH  99 100
ATOM    100  S   UNL A   1      39.381  37.520  40.330  1.00  0.00     0.124 S 
ATOM    101  O   UNL A   1      40.781  37.844  40.579  1.00  0.00    -0.237 OA
ATOM    102  O   UNL A   1      38.591  38.567  39.692  1.00  0.00    -0.237 OA
ATOM    103  O   UNL A   1      38.703  36.798  41.404  1.00  0.00    -0.744 OA
ENDBRANCH  99 100
ENDBRANCH  67  92
ENDBRANCH  41  42
ENDBRANCH  33  36
ENDBRANCH  31  32
ENDBRANCH  30  31
ENDBRANCH   1  30
TORSDOF 17
ENDMDL
MODEL 3
REMARK VINA RESULT:     -12.0      4.836     10.305
REMARK SMILES C[C@@H]1CC(C)(C)C[C@@](CC(=O)Nc2cccc(C(F)(F)F)c2)(C(=O)NCCCNC(=O)c2ccc(-c3c4nc(c(-c5c(F)cc(S(=O)(=O)[O-])cc5F)c5ccc([nH]5)c(-c5c(F)cc(S(=O)(=O)[O-])cc5F)c5nc(c(-c6c(F)cc(S(=O)(=O)[O-])cc6F)c6ccc3[nH]6)C=C5)C=C4)cc2)C1
REMARK SMILES IDX 26 1 25 2 23 3 24 4 8 6 1 7 2 8 3 9 98 10 4 11 5 12 6 13
REMARK SMILES IDX 7 14 9 15 10 16 11 17 12 18 13 20 14 21 22 22 15 23 17 24
REMARK SMILES IDX 16 25 18 26 19 27 20 28 21 29 27 30 28 31 29 32 30 33 31 35
REMARK SMILES IDX 32 36 33 37 97 38 34 39 96 40 35 41 36 42 37 43 90 44 38 45
REMARK SMILES IDX 95 46 89 47 91 48 39 49 94 50 88 51 87 52 40 54 74 55 53 56
REMARK SMILES IDX 73 57 54 58 57 59 72 60 92 61 55 62 56 63 71 65 93 66 58 67
REMARK SMILES IDX 41 68 42 69 51 70 43 71 44 72 50 73 52 74 45 75 46 76 47 77
REMARK SMILES IDX 48 78 49 79 75 80 76 81 85 82 77 83 78 84 84 85 86 86 79 87
REMARK SMILES IDX 80 88 81 89 82 90 83 91 59 92 60 93 69 94 61 95 62 96 68 97
REMARK SMILES IDX 70 98 63 99 64 100 65 101 66 102 67 103
REMARK H PARENT 25 5 12 19 29 34 91 53 57 64
REMARK Flexibility Score: inf
ROOT
ATOM      1  C   UNL A   1      33.576  28.594  25.764  1.00  0.00     0.117 C 
ENDROOT
BRANCH   1   2
ATOM      2  N   UNL A   1      32.342  28.023  26.309  1.00  0.00    -0.356 N 
ATOM      3  C   UNL A   1      31.826  26.748  26.325  1.00  0.00     0.226 C 
ATOM      4  O   UNL A   1      30.768  26.612  26.945  1.00  0.00    -0.274 OA
ATOM      5  H   UNL A   1      31.766  28.685  26.755  1.00  0.00     0.163 HD
BRANCH   3   6
ATOM      6  C   UNL A   1      32.519  25.525  25.604  1.00  0.00     0.059 C 
ATOM      7  C   UNL A   1      35.091  23.938  24.040  1.00  0.00     0.008 C 
ATOM      8  C   UNL A   1      34.956  24.469  25.460  1.00  0.00    -0.013 C 
ATOM      9  C   UNL A   1      34.588  23.389  26.459  1.00  0.00     0.009 C 
ATOM     10  C   UNL A   1      34.059  25.692  25.672  1.00  0.00     0.020 C 
ATOM     11  C   UNL A   1      33.086  23.051  26.551  1.00  0.00    -0.034 C 
ATOM     12  C   UNL A   1      32.651  22.055  25.464  1.00  0.00     0.011 C 
ATOM     13  C   UNL A   1      32.913  22.328  27.915  1.00  0.00     0.011 C 
ATOM     14  C   UNL A   1      32.152  24.298  26.512  1.00  0.00     0.024 C 
BRANCH   6  15
ATOM     15  C   UNL A   1      31.909  25.587  24.177  1.00  0.00     0.117 C 
BRANCH  15  16
ATOM     16  C   UNL A   1      30.675  24.909  23.645  1.00  0.00     0.225 C 
ATOM     17  O   UNL A   1      30.757  23.707  23.345  1.00  0.00    -0.275 OA
ATOM     18  N   UNL A   1      29.433  25.436  23.546  1.00  0.00    -0.326 N 
ATOM     19  H   UNL A   1      28.765  24.728  23.394  1.00  0.00     0.169 HD
BRANCH  18  20
ATOM     20  C   UNL A   1      28.814  26.698  23.597  1.00  0.00     0.041 A 
ATOM     21  C   UNL A   1      27.468  26.663  24.002  1.00  0.00     0.026 A 
ATOM     22  C   UNL A   1      29.342  27.912  23.167  1.00  0.00     0.039 A 
ATOM     23  C   UNL A   1      26.631  27.765  23.849  1.00  0.00     0.003 A 
ATOM     24  C   UNL A   1      28.482  29.008  22.912  1.00  0.00     0.058 A 
ATOM     25  C   UNL A   1      27.129  28.925  23.273  1.00  0.00     0.013 A 
BRANCH  24  26
ATOM     26  C   UNL A   1      28.973  30.244  22.188  1.00  0.00     0.416 C 
ATOM     27  F   UNL A   1      29.519  31.163  23.039  1.00  0.00    -0.166 F 
ATOM     28  F   UNL A   1      29.938  29.971  21.271  1.00  0.00    -0.166 F 
ATOM     29  F   UNL A   1      27.988  30.908  21.533  1.00  0.00    -0.166 F 
ENDBRANCH  24  26
ENDBRANCH  18  20
ENDBRANCH  15  16
ENDBRANCH   6  15
ENDBRANCH   3   6
ENDBRANCH   1   2
BRANCH   1  30
ATOM     30  C   UNL A   1      34.171  29.726  26.605  1.00  0.00     0.042 C 
BRANCH  30  31
ATOM     31  C   UNL A   1      35.273  29.299  27.581  1.00  0.00     0.118 C 
BRANCH  31  32
ATOM     32  N   UNL A   1      35.264  30.030  28.844  1.00  0.00    -0.352 N 
ATOM     33  C   UNL A   1      36.289  30.418  29.684  1.00  0.00     0.251 C 
ATOM     34  H   UNL A   1      34.368  30.294  29.151  1.00  0.00     0.163 HD
ATOM     35  O   UNL A   1      36.009  30.959  30.746  1.00  0.00    -0.269 OA
BRANCH  33  36
ATOM     36  C   UNL A   1      37.713  30.164  29.347  1.00  0.00     0.039 A 
ATOM     37  C   UNL A   1      38.671  30.258  30.365  1.00  0.00     0.014 A 
ATOM     38  C   UNL A   1      38.126  29.870  28.047  1.00  0.00     0.014 A 
ATOM     39  C   UNL A   1      40.014  29.960  30.099  1.00  0.00     0.010 A 
ATOM     40  C   UNL A   1      39.449  29.498  27.800  1.00  0.00     0.010 A 
ATOM     41  C   UNL A   1      40.407  29.524  28.825  1.00  0.00    -0.014 A 
BRANCH  41  42
ATOM     42  C   UNL A   1      41.797  29.063  28.547  1.00  0.00     0.031 A 
ATOM     43  C   UNL A   1      42.943  30.042  28.537  1.00  0.00     0.074 A 
ATOM     44  C   UNL A   1      42.019  27.777  28.208  1.00  0.00     0.049 A 
ATOM     45  N   UNL A   1      44.192  29.852  28.194  1.00  0.00    -0.248 NA
ATOM     46  C   UNL A   1      42.634  31.424  28.934  1.00  0.00     0.031 C 
ATOM     47  C   UNL A   1      40.997  26.731  28.135  1.00  0.00     0.029 A 
ATOM     48  N   UNL A   1      43.176  27.131  27.842  1.00  0.00    -0.354 N 
ATOM     49  C   UNL A   1      44.811  31.092  28.302  1.00  0.00     0.074 A 
ATOM     50  C   UNL A   1      43.788  32.035  28.706  1.00  0.00     0.031 C 
ATOM     51  C   UNL A   1      41.573  25.574  27.772  1.00  0.00     0.029 A 
ATOM     52  C   UNL A   1      42.997  25.799  27.543  1.00  0.00     0.049 A 
ATOM     53  H   UNL A   1      44.052  27.578  27.799  1.00  0.00     0.167 HD
ATOM     54  C   UNL A   1      46.112  31.416  28.101  1.00  0.00     0.037 A 
ATOM     55  C   UNL A   1      43.873  24.867  27.121  1.00  0.00     0.037 A 
ATOM     56  C   UNL A   1      47.136  30.469  27.738  1.00  0.00     0.049 A 
ATOM     57  C   UNL A   1      45.315  25.243  26.918  1.00  0.00     0.074 A 
ATOM     58  C   UNL A   1      48.494  30.688  27.584  1.00  0.00     0.029 A 
ATOM     59  N   UNL A   1      46.915  29.126  27.472  1.00  0.00    -0.354 N 
ATOM     60  N   UNL A   1      45.891  26.410  27.078  1.00  0.00    -0.248 NA
ATOM     61  C   UNL A   1      46.225  24.176  26.478  1.00  0.00     0.031 C 
ATOM     62  C   UNL A   1      49.090  29.484  27.189  1.00  0.00     0.029 A 
ATOM     63  C   UNL A   1      48.110  28.506  27.138  1.00  0.00     0.049 A 
ATOM     64  H   UNL A   1      46.040  28.678  27.514  1.00  0.00     0.167 HD
ATOM     65  C   UNL A   1      47.236  26.212  26.788  1.00  0.00     0.074 A 
ATOM     66  C   UNL A   1      47.389  24.813  26.445  1.00  0.00     0.031 C 
ATOM     67  C   UNL A   1      48.252  27.110  26.806  1.00  0.00     0.037 A 
BRANCH  54  68
ATOM     68  C   UNL A   1      46.499  32.860  28.267  1.00  0.00     0.058 A 
ATOM     69  C   UNL A   1      46.952  33.368  29.494  1.00  0.00     0.135 A 
ATOM     70  C   UNL A   1      46.425  33.748  27.180  1.00  0.00     0.135 A 
ATOM     71  F   UNL A   1      47.033  32.568  30.569  1.00  0.00    -0.206 F 
ATOM     72  C   UNL A   1      47.271  34.714  29.652  1.00  0.00     0.059 A 
ATOM     73  C   UNL A   1      46.767  35.091  27.307  1.00  0.00     0.059 A 
ATOM     74  F   UNL A   1      46.006  33.315  25.980  1.00  0.00    -0.206 F 
ATOM     75  C   UNL A   1      47.167  35.569  28.554  1.00  0.00     0.060 A 
BRANCH  75  76
ATOM     76  S   UNL A   1      47.556  37.318  28.781  1.00  0.00     0.124 S 
ATOM     77  O   UNL A   1      46.575  37.948  27.903  1.00  0.00    -0.237 OA
ATOM     78  O   UNL A   1      47.337  37.506  30.212  1.00  0.00    -0.237 OA
ATOM     79  O   UNL A   1      48.945  37.416  28.344  1.00  0.00    -0.744 OA
ENDBRANCH  75  76
ENDBRANCH  54  68
BRANCH  55  80
ATOM     80  C   UNL A   1      43.412  23.469  26.900  1.00  0.00     0.058 A 
ATOM     81  C   UNL A   1      43.270  22.962  25.601  1.00  0.00     0.135 A 
ATOM     82  C   UNL A   1      43.141  22.607  27.974  1.00  0.00     0.135 A 
ATOM     83  F   UNL A   1      43.509  23.752  24.543  1.00  0.00    -0.206 F 
ATOM     84  C   UNL A   1      42.871  21.650  25.370  1.00  0.00     0.059 A 
ATOM     85  C   UNL A   1      42.761  21.284  27.769  1.00  0.00     0.059 A 
ATOM     86  F   UNL A   1      43.276  23.042  29.236  1.00  0.00    -0.206 F 
ATOM     87  C   UNL A   1      42.625  20.816  26.463  1.00  0.00     0.060 A 
BRANCH  87  88
ATOM     88  S   UNL A   1      42.180  19.093  26.152  1.00  0.00     0.124 S 
ATOM     89  O   UNL A   1      43.090  18.746  25.067  1.00  0.00    -0.237 OA
ATOM     90  O   UNL A   1      42.455  18.467  27.442  1.00  0.00    -0.237 OA
ATOM     91  O   UNL A   1      40.767  19.172  25.791  1.00  0.00    -0.744 OA
ENDBRANCH  87  88
ENDBRANCH  55  80
BRANCH  67  92
ATOM     92  C   UNL A   1      49.631  26.603  26.484  1.00  0.00     0.058 A 
ATOM     93  C   UNL A   1      50.455  26.033  27.466  1.00  0.00     0.135 A 
ATOM     94  C   UNL A   1      50.109  26.639  25.165  1.00  0.00     0.135 A 
ATOM     95  F   UNL A   1      50.048  25.982  28.745  1.00  0.00    -0.206 F 
ATOM     96  C   UNL A   1      51.715  25.531  27.154  1.00  0.00     0.059 A 
ATOM     97  C   UNL A   1      51.356  26.121  24.825  1.00  0.00     0.059 A 
ATOM     98  F   UNL A   1      49.356  27.166  24.186  1.00  0.00    -0.206 F 
ATOM     99  C   UNL A   1      52.156  25.578  25.830  1.00  0.00     0.060 A 
BRANCH  99 100
ATOM    100  S   UNL A   1      53.775  24.885  25.429  1.00  0.00     0.124 S 
ATOM    101  O   UNL A   1      54.504  25.105  26.674  1.00  0.00    -0.237 OA
ATOM    102  O   UNL A   1      53.455  23.497  25.119  1.00  0.00    -0.237 OA
ATOM    103  O   UNL A   1      54.216  25.690  24.294  1.00  0.00    -0.744 OA
ENDBRANCH  99 100
ENDBRANCH  67  92
ENDBRANCH  41  42
ENDBRANCH  33  36
ENDBRANCH  31  32
ENDBRANCH  30  31
ENDBRANCH   1  30
TORSDOF 17
ENDMDL
