MODEL 1
REMARK VINA RESULT:     -10.7      0.000      0.000
REMARK SMILES CC[C@@H](C(=O)NCCCNC(=O)c1ccc(-c2c3nc(c(-c4c(F)cc(S(=O)(=O)[O-])cc4F)c4ccc([nH]4)c(-c4c(F)cc(S(=O)(=O)[O-])cc4F)c4nc(c(-c5c(F)cc(S(=O)(=O)[O-])cc5F)c5ccc2[nH]5)C=C4)C=C3)cc1)N1C(=O)/C(=C\c2ccc(C(=O)OC)cc2)SC1=S
REMARK SMILES IDX 7 1 6 2 4 3 5 4 3 6 2 7 1 8 79 9 80 10 95 11 81 12 82 13
REMARK SMILES IDX 94 14 96 15 83 16 84 17 85 18 93 19 86 20 92 21 87 22 88 23
REMARK SMILES IDX 89 24 90 25 91 26 8 27 9 28 10 29 11 30 12 32 13 33 14 34
REMARK SMILES IDX 78 35 15 36 77 37 16 38 17 39 18 40 71 41 19 42 76 43 70 44
REMARK SMILES IDX 72 45 20 46 75 47 69 48 68 49 21 51 55 52 34 53 54 54 35 55
REMARK SMILES IDX 38 56 53 57 73 58 36 59 37 60 52 62 74 63 39 64 22 65 23 66
REMARK SMILES IDX 32 67 24 68 25 69 31 70 33 71 26 72 27 73 28 74 29 75 30 76
REMARK SMILES IDX 56 77 57 78 66 79 58 80 59 81 65 82 67 83 60 84 61 85 62 86
REMARK SMILES IDX 63 87 64 88 40 89 41 90 50 91 42 92 43 93 49 94 51 95 44 96
REMARK SMILES IDX 45 97 46 98 47 99 48 100
REMARK H PARENT 6 5 10 31 72 50 38 61
REMARK Flexibility Score: inf
ROOT
ATOM      1  C   UNL A   1      43.656  23.850  29.003  1.00  0.00     0.117 C 
ENDROOT
BRANCH   1   2
ATOM      2  N   UNL A   1      43.718  25.296  28.980  1.00  0.00    -0.354 N 
ATOM      3  C   UNL A   1      44.773  26.154  28.952  1.00  0.00     0.243 C 
ATOM      4  O   UNL A   1      44.482  27.353  28.871  1.00  0.00    -0.273 OA
ATOM      5  H   UNL A   1      42.839  25.738  28.985  1.00  0.00     0.163 HD
BRANCH   3   6
ATOM      6  C   UNL A   1      46.242  25.655  28.925  1.00  0.00     0.181 C 
BRANCH   6   7
ATOM      7  C   UNL A   1      47.273  26.387  29.819  1.00  0.00     0.032 C 
ATOM      8  C   UNL A   1      48.575  25.681  30.141  1.00  0.00     0.006 C 
ENDBRANCH   6   7
BRANCH   6   9
ATOM      9  N   UNL A   1      46.665  25.761  27.496  1.00  0.00    -0.280 N 
ATOM     10  C   UNL A   1      46.705  24.607  26.728  1.00  0.00     0.266 C 
ATOM     11  C   UNL A   1      47.180  26.888  26.893  1.00  0.00     0.149 C 
ATOM     12  O   UNL A   1      46.584  23.462  27.136  1.00  0.00    -0.268 OA
ATOM     13  C   UNL A   1      46.923  24.949  25.301  1.00  0.00     0.081 C 
ATOM     14  S   UNL A   1      47.534  26.553  25.192  1.00  0.00    -0.054 SA
ATOM     15  S   UNL A   1      47.427  28.396  27.564  1.00  0.00    -0.052 S 
ATOM     16  C   UNL A   1      46.592  24.178  24.255  1.00  0.00     0.029 C 
BRANCH  16  17
ATOM     17  C   UNL A   1      45.898  22.889  24.389  1.00  0.00    -0.024 A 
ATOM     18  C   UNL A   1      46.624  21.713  24.596  1.00  0.00     0.009 A 
ATOM     19  C   UNL A   1      44.495  22.834  24.372  1.00  0.00     0.009 A 
ATOM     20  C   UNL A   1      45.954  20.503  24.816  1.00  0.00     0.016 A 
ATOM     21  C   UNL A   1      43.826  21.629  24.605  1.00  0.00     0.016 A 
ATOM     22  C   UNL A   1      44.553  20.456  24.836  1.00  0.00     0.060 A 
BRANCH  22  23
ATOM     23  C   UNL A   1      43.891  19.151  25.112  1.00  0.00     0.337 C 
ATOM     24  O   UNL A   1      44.503  18.098  25.227  1.00  0.00    -0.246 OA
BRANCH  23  25
ATOM     25  O   UNL A   1      42.549  19.306  25.217  1.00  0.00    -0.465 OA
ATOM     26  C   UNL A   1      42.098  19.627  26.535  1.00  0.00     0.282 C 
ENDBRANCH  23  25
ENDBRANCH  22  23
ENDBRANCH  16  17
ENDBRANCH   6   9
ENDBRANCH   3   6
ENDBRANCH   1   2
BRANCH   1  27
ATOM     27  C   UNL A   1      42.826  23.323  27.840  1.00  0.00     0.042 C 
BRANCH  27  28
ATOM     28  C   UNL A   1      42.696  24.298  26.679  1.00  0.00     0.118 C 
BRANCH  28  29
ATOM     29  N   UNL A   1      41.382  24.257  26.062  1.00  0.00    -0.352 N 
ATOM     30  C   UNL A   1      40.200  24.829  26.469  1.00  0.00     0.251 C 
ATOM     31  H   UNL A   1      41.329  23.742  25.224  1.00  0.00     0.163 HD
ATOM     32  O   UNL A   1      39.156  24.501  25.911  1.00  0.00    -0.269 OA
BRANCH  30  33
ATOM     33  C   UNL A   1      40.170  25.812  27.580  1.00  0.00     0.039 A 
ATOM     34  C   UNL A   1      40.970  26.955  27.491  1.00  0.00     0.014 A 
ATOM     35  C   UNL A   1      39.393  25.603  28.723  1.00  0.00     0.014 A 
ATOM     36  C   UNL A   1      40.951  27.903  28.518  1.00  0.00     0.010 A 
ATOM     37  C   UNL A   1      39.295  26.596  29.694  1.00  0.00     0.010 A 
ATOM     38  C   UNL A   1      40.091  27.748  29.618  1.00  0.00    -0.014 A 
BRANCH  38  39
ATOM     39  C   UNL A   1      40.042  28.753  30.713  1.00  0.00     0.031 A 
ATOM     40  C   UNL A   1      40.937  28.599  31.918  1.00  0.00     0.074 A 
ATOM     41  C   UNL A   1      39.166  29.775  30.652  1.00  0.00     0.049 A 
ATOM     42  N   UNL A   1      41.001  29.331  33.000  1.00  0.00    -0.248 NA
ATOM     43  C   UNL A   1      41.863  27.453  31.917  1.00  0.00     0.031 C 
ATOM     44  C   UNL A   1      38.216  30.012  29.563  1.00  0.00     0.029 A 
ATOM     45  N   UNL A   1      38.924  30.804  31.528  1.00  0.00    -0.354 N 
ATOM     46  C   UNL A   1      41.956  28.728  33.812  1.00  0.00     0.074 A 
ATOM     47  C   UNL A   1      42.401  27.535  33.126  1.00  0.00     0.031 C 
ATOM     48  C   UNL A   1      37.515  31.128  29.823  1.00  0.00     0.029 A 
ATOM     49  C   UNL A   1      37.932  31.664  31.115  1.00  0.00     0.049 A 
ATOM     50  H   UNL A   1      39.415  30.918  32.374  1.00  0.00     0.167 HD
ATOM     51  C   UNL A   1      42.441  29.143  35.007  1.00  0.00     0.037 A 
ATOM     52  C   UNL A   1      37.410  32.753  31.712  1.00  0.00     0.037 A 
ATOM     53  C   UNL A   1      42.013  30.345  35.673  1.00  0.00     0.049 A 
ATOM     54  C   UNL A   1      37.958  33.191  33.044  1.00  0.00     0.074 A 
ATOM     55  C   UNL A   1      42.480  30.885  36.859  1.00  0.00     0.029 A 
ATOM     56  N   UNL A   1      41.018  31.196  35.212  1.00  0.00    -0.354 N 
ATOM     57  N   UNL A   1      38.906  32.642  33.767  1.00  0.00    -0.248 NA
ATOM     58  C   UNL A   1      37.374  34.400  33.639  1.00  0.00     0.031 C 
ATOM     59  C   UNL A   1      41.731  32.029  37.143  1.00  0.00     0.029 A 
ATOM     60  C   UNL A   1      40.840  32.242  36.102  1.00  0.00     0.049 A 
ATOM     61  H   UNL A   1      40.513  31.073  34.377  1.00  0.00     0.167 HD
ATOM     62  C   UNL A   1      39.053  33.457  34.884  1.00  0.00     0.074 A 
ATOM     63  C   UNL A   1      38.105  34.542  34.737  1.00  0.00     0.031 C 
ATOM     64  C   UNL A   1      39.899  33.322  35.936  1.00  0.00     0.037 A 
BRANCH  51  65
ATOM     65  C   UNL A   1      43.490  28.292  35.672  1.00  0.00     0.058 A 
ATOM     66  C   UNL A   1      43.153  27.290  36.598  1.00  0.00     0.135 A 
ATOM     67  C   UNL A   1      44.848  28.452  35.352  1.00  0.00     0.135 A 
ATOM     68  F   UNL A   1      41.873  27.100  36.954  1.00  0.00    -0.206 F 
ATOM     69  C   UNL A   1      44.125  26.503  37.207  1.00  0.00     0.059 A 
ATOM     70  C   UNL A   1      45.835  27.654  35.924  1.00  0.00     0.059 A 
ATOM     71  F   UNL A   1      45.230  29.394  34.474  1.00  0.00    -0.206 F 
ATOM     72  C   UNL A   1      45.465  26.692  36.862  1.00  0.00     0.060 A 
BRANCH  72  73
ATOM     73  S   UNL A   1      46.711  25.656  37.657  1.00  0.00     0.124 S 
ATOM     74  O   UNL A   1      47.174  26.529  38.731  1.00  0.00    -0.237 OA
ATOM     75  O   UNL A   1      45.931  24.496  38.076  1.00  0.00    -0.237 OA
ATOM     76  O   UNL A   1      47.677  25.406  36.591  1.00  0.00    -0.744 OA
ENDBRANCH  72  73
ENDBRANCH  51  65
BRANCH  52  77
ATOM     77  C   UNL A   1      36.321  33.518  31.045  1.00  0.00     0.058 A 
ATOM     78  C   UNL A   1      35.014  33.512  31.556  1.00  0.00     0.135 A 
ATOM     79  C   UNL A   1      36.565  34.278  29.890  1.00  0.00     0.135 A 
ATOM     80  F   UNL A   1      34.727  32.796  32.653  1.00  0.00    -0.206 F 
ATOM     81  C   UNL A   1      33.985  34.215  30.937  1.00  0.00     0.059 A 
ATOM     82  C   UNL A   1      35.558  35.013  29.271  1.00  0.00     0.059 A 
ATOM     83  F   UNL A   1      37.800  34.333  29.370  1.00  0.00    -0.206 F 
ATOM     84  C   UNL A   1      34.268  34.966  29.795  1.00  0.00     0.060 A 
BRANCH  84  85
ATOM     85  S   UNL A   1      32.935  35.911  29.028  1.00  0.00     0.124 S 
ATOM     86  O   UNL A   1      32.338  34.916  28.146  1.00  0.00    -0.237 OA
ATOM     87  O   UNL A   1      32.135  36.304  30.184  1.00  0.00    -0.237 OA
ATOM     88  O   UNL A   1      33.639  37.004  28.363  1.00  0.00    -0.744 OA
ENDBRANCH  84  85
ENDBRANCH  52  77
BRANCH  64  89
ATOM     89  C   UNL A   1      39.876  34.395  36.991  1.00  0.00     0.058 A 
ATOM     90  C   UNL A   1      40.636  35.569  36.874  1.00  0.00     0.135 A 
ATOM     91  C   UNL A   1      39.035  34.268  38.110  1.00  0.00     0.135 A 
ATOM     92  F   UNL A   1      41.460  35.739  35.829  1.00  0.00    -0.206 F 
ATOM     93  C   UNL A   1      40.581  36.569  37.841  1.00  0.00     0.059 A 
ATOM     94  C   UNL A   1      38.941  35.268  39.072  1.00  0.00     0.059 A 
ATOM     95  F   UNL A   1      38.278  33.170  38.266  1.00  0.00    -0.206 F 
ATOM     96  C   UNL A   1      39.729  36.410  38.935  1.00  0.00     0.060 A 
BRANCH  96  97
ATOM     97  S   UNL A   1      39.643  37.729  40.163  1.00  0.00     0.124 S 
ATOM     98  O   UNL A   1      38.683  38.641  39.549  1.00  0.00    -0.237 OA
ATOM     99  O   UNL A   1      39.176  37.020  41.351  1.00  0.00    -0.237 OA
ATOM    100  O   UNL A   1      41.017  38.219  40.233  1.00  0.00    -0.744 OA
ENDBRANCH  96  97
ENDBRANCH  64  89
ENDBRANCH  38  39
ENDBRANCH  30  33
ENDBRANCH  28  29
ENDBRANCH  27  28
ENDBRANCH   1  27
TORSDOF 18
ENDMDL
MODEL 2
REMARK VINA RESULT:     -10.2      0.621      8.131
REMARK SMILES CC[C@@H](C(=O)NCCCNC(=O)c1ccc(-c2c3nc(c(-c4c(F)cc(S(=O)(=O)[O-])cc4F)c4ccc([nH]4)c(-c4c(F)cc(S(=O)(=O)[O-])cc4F)c4nc(c(-c5c(F)cc(S(=O)(=O)[O-])cc5F)c5ccc2[nH]5)C=C4)C=C3)cc1)N1C(=O)/C(=C\c2ccc(C(=O)OC)cc2)SC1=S
REMARK SMILES IDX 7 1 6 2 4 3 5 4 3 6 2 7 1 8 79 9 80 10 95 11 81 12 82 13
REMARK SMILES IDX 94 14 96 15 83 16 84 17 85 18 93 19 86 20 92 21 87 22 88 23
REMARK SMILES IDX 89 24 90 25 91 26 8 27 9 28 10 29 11 30 12 32 13 33 14 34
REMARK SMILES IDX 78 35 15 36 77 37 16 38 17 39 18 40 71 41 19 42 76 43 70 44
REMARK SMILES IDX 72 45 20 46 75 47 69 48 68 49 21 51 55 52 34 53 54 54 35 55
REMARK SMILES IDX 38 56 53 57 73 58 36 59 37 60 52 62 74 63 39 64 22 65 23 66
REMARK SMILES IDX 32 67 24 68 25 69 31 70 33 71 26 72 27 73 28 74 29 75 30 76
REMARK SMILES IDX 56 77 57 78 66 79 58 80 59 81 65 82 67 83 60 84 61 85 62 86
REMARK SMILES IDX 63 87 64 88 40 89 41 90 50 91 42 92 43 93 49 94 51 95 44 96
REMARK SMILES IDX 45 97 46 98 47 99 48 100
REMARK H PARENT 6 5 10 31 72 50 38 61
REMARK Flexibility Score: inf
ROOT
ATOM      1  C   UNL A   1      43.717  24.402  29.049  1.00  0.00     0.117 C 
ENDROOT
BRANCH   1   2
ATOM      2  N   UNL A   1      43.976  25.802  28.780  1.00  0.00    -0.354 N 
ATOM      3  C   UNL A   1      45.137  26.487  28.605  1.00  0.00     0.243 C 
ATOM      4  O   UNL A   1      45.011  27.684  28.322  1.00  0.00    -0.273 OA
ATOM      5  H   UNL A   1      43.167  26.356  28.711  1.00  0.00     0.163 HD
BRANCH   3   6
ATOM      6  C   UNL A   1      46.523  25.792  28.662  1.00  0.00     0.181 C 
BRANCH   6   7
ATOM      7  C   UNL A   1      47.652  26.487  29.462  1.00  0.00     0.032 C 
ATOM      8  C   UNL A   1      47.981  25.961  30.845  1.00  0.00     0.006 C 
ENDBRANCH   6   7
BRANCH   6   9
ATOM      9  N   UNL A   1      46.947  25.646  27.236  1.00  0.00    -0.280 N 
ATOM     10  C   UNL A   1      46.810  24.409  26.625  1.00  0.00     0.266 C 
ATOM     11  C   UNL A   1      47.618  26.597  26.499  1.00  0.00     0.149 C 
ATOM     12  O   UNL A   1      46.524  23.358  27.177  1.00  0.00    -0.268 OA
ATOM     13  C   UNL A   1      47.066  24.527  25.169  1.00  0.00     0.081 C 
ATOM     14  S   UNL A   1      47.906  25.995  24.860  1.00  0.00    -0.054 SA
ATOM     15  S   UNL A   1      48.090  28.126  26.971  1.00  0.00    -0.052 S 
ATOM     16  C   UNL A   1      46.617  23.683  24.228  1.00  0.00     0.029 C 
BRANCH  16  17
ATOM     17  C   UNL A   1      45.741  22.539  24.520  1.00  0.00    -0.024 A 
ATOM     18  C   UNL A   1      46.278  21.258  24.673  1.00  0.00     0.009 A 
ATOM     19  C   UNL A   1      44.363  22.732  24.710  1.00  0.00     0.009 A 
ATOM     20  C   UNL A   1      45.452  20.189  25.042  1.00  0.00     0.016 A 
ATOM     21  C   UNL A   1      43.540  21.668  25.092  1.00  0.00     0.016 A 
ATOM     22  C   UNL A   1      44.083  20.390  25.267  1.00  0.00     0.060 A 
BRANCH  22  23
ATOM     23  C   UNL A   1      43.257  19.227  25.696  1.00  0.00     0.337 C 
ATOM     24  O   UNL A   1      43.395  18.100  25.241  1.00  0.00    -0.246 OA
BRANCH  23  25
ATOM     25  O   UNL A   1      42.360  19.598  26.642  1.00  0.00    -0.465 OA
ATOM     26  C   UNL A   1      41.002  19.591  26.195  1.00  0.00     0.282 C 
ENDBRANCH  23  25
ENDBRANCH  22  23
ENDBRANCH  16  17
ENDBRANCH   6   9
ENDBRANCH   3   6
ENDBRANCH   1   2
BRANCH   1  27
ATOM     27  C   UNL A   1      42.620  23.868  28.138  1.00  0.00     0.042 C 
BRANCH  27  28
ATOM     28  C   UNL A   1      42.577  24.525  26.767  1.00  0.00     0.118 C 
BRANCH  28  29
ATOM     29  N   UNL A   1      41.255  24.483  26.169  1.00  0.00    -0.352 N 
ATOM     30  C   UNL A   1      40.074  25.040  26.602  1.00  0.00     0.251 C 
ATOM     31  H   UNL A   1      41.193  23.979  25.325  1.00  0.00     0.163 HD
ATOM     32  O   UNL A   1      39.024  24.711  26.056  1.00  0.00    -0.269 OA
BRANCH  30  33
ATOM     33  C   UNL A   1      40.054  26.006  27.727  1.00  0.00     0.039 A 
ATOM     34  C   UNL A   1      39.268  25.720  28.848  1.00  0.00     0.014 A 
ATOM     35  C   UNL A   1      40.770  27.206  27.677  1.00  0.00     0.014 A 
ATOM     36  C   UNL A   1      39.241  26.609  29.928  1.00  0.00     0.010 A 
ATOM     37  C   UNL A   1      40.824  28.037  28.793  1.00  0.00     0.010 A 
ATOM     38  C   UNL A   1      40.042  27.762  29.924  1.00  0.00    -0.014 A 
BRANCH  38  39
ATOM     39  C   UNL A   1      40.041  28.712  31.069  1.00  0.00     0.031 A 
ATOM     40  C   UNL A   1      39.081  29.876  31.082  1.00  0.00     0.074 A 
ATOM     41  C   UNL A   1      40.928  28.559  32.072  1.00  0.00     0.049 A 
ATOM     42  N   UNL A   1      38.967  30.843  31.956  1.00  0.00    -0.248 NA
ATOM     43  C   UNL A   1      38.147  29.982  29.949  1.00  0.00     0.031 C 
ATOM     44  C   UNL A   1      41.937  27.501  32.156  1.00  0.00     0.029 A 
ATOM     45  N   UNL A   1      41.133  29.298  33.211  1.00  0.00    -0.354 N 
ATOM     46  C   UNL A   1      37.965  31.677  31.470  1.00  0.00     0.074 A 
ATOM     47  C   UNL A   1      37.546  31.137  30.196  1.00  0.00     0.031 C 
ATOM     48  C   UNL A   1      42.633  27.643  33.296  1.00  0.00     0.029 A 
ATOM     49  C   UNL A   1      42.152  28.826  34.004  1.00  0.00     0.049 A 
ATOM     50  H   UNL A   1      40.598  30.093  33.440  1.00  0.00     0.167 HD
ATOM     51  C   UNL A   1      37.420  32.776  32.046  1.00  0.00     0.037 A 
ATOM     52  C   UNL A   1      42.651  29.296  35.164  1.00  0.00     0.037 A 
ATOM     53  C   UNL A   1      37.823  33.294  33.328  1.00  0.00     0.049 A 
ATOM     54  C   UNL A   1      42.038  30.524  35.781  1.00  0.00     0.074 A 
ATOM     55  C   UNL A   1      37.298  34.368  34.025  1.00  0.00     0.029 A 
ATOM     56  N   UNL A   1      38.848  32.775  34.106  1.00  0.00    -0.354 N 
ATOM     57  N   UNL A   1      41.047  31.263  35.338  1.00  0.00    -0.248 NA
ATOM     58  C   UNL A   1      42.600  30.979  37.059  1.00  0.00     0.031 C 
ATOM     59  C   UNL A   1      38.041  34.533  35.197  1.00  0.00     0.029 A 
ATOM     60  C   UNL A   1      38.988  33.523  35.263  1.00  0.00     0.049 A 
ATOM     61  H   UNL A   1      39.397  31.993  33.869  1.00  0.00     0.167 HD
ATOM     62  C   UNL A   1      40.848  32.249  36.298  1.00  0.00     0.074 A 
ATOM     63  C   UNL A   1      41.813  32.006  37.351  1.00  0.00     0.031 C 
ATOM     64  C   UNL A   1      39.946  33.262  36.309  1.00  0.00     0.037 A 
BRANCH  51  65
ATOM     65  C   UNL A   1      36.330  33.493  31.295  1.00  0.00     0.058 A 
ATOM     66  C   UNL A   1      36.593  34.221  30.123  1.00  0.00     0.135 A 
ATOM     67  C   UNL A   1      34.996  33.422  31.731  1.00  0.00     0.135 A 
ATOM     68  F   UNL A   1      37.851  34.337  29.666  1.00  0.00    -0.206 F 
ATOM     69  C   UNL A   1      35.583  34.879  29.430  1.00  0.00     0.059 A 
ATOM     70  C   UNL A   1      33.964  34.045  31.035  1.00  0.00     0.059 A 
ATOM     71  F   UNL A   1      34.684  32.741  32.846  1.00  0.00    -0.206 F 
ATOM     72  C   UNL A   1      34.269  34.784  29.894  1.00  0.00     0.060 A 
BRANCH  72  73
ATOM     73  S   UNL A   1      32.970  35.637  28.977  1.00  0.00     0.124 S 
ATOM     74  O   UNL A   1      33.743  36.616  28.219  1.00  0.00    -0.237 OA
ATOM     75  O   UNL A   1      32.378  34.556  28.195  1.00  0.00    -0.237 OA
ATOM     76  O   UNL A   1      32.117  36.188  30.026  1.00  0.00    -0.744 OA
ENDBRANCH  72  73
ENDBRANCH  51  65
BRANCH  52  77
ATOM     77  C   UNL A   1      43.781  28.591  35.830  1.00  0.00     0.058 A 
ATOM     78  C   UNL A   1      45.112  28.969  35.592  1.00  0.00     0.135 A 
ATOM     79  C   UNL A   1      43.555  27.530  36.723  1.00  0.00     0.135 A 
ATOM     80  F   UNL A   1      45.382  29.971  34.742  1.00  0.00    -0.206 F 
ATOM     81  C   UNL A   1      46.177  28.312  36.200  1.00  0.00     0.059 A 
ATOM     82  C   UNL A   1      44.603  26.878  37.364  1.00  0.00     0.059 A 
ATOM     83  F   UNL A   1      42.302  27.139  36.999  1.00  0.00    -0.206 F 
ATOM     84  C   UNL A   1      45.912  27.269  37.088  1.00  0.00     0.060 A 
BRANCH  84  85
ATOM     85  S   UNL A   1      47.301  26.454  37.906  1.00  0.00     0.124 S 
ATOM     86  O   UNL A   1      48.303  26.447  36.848  1.00  0.00    -0.237 OA
ATOM     87  O   UNL A   1      47.561  27.351  39.029  1.00  0.00    -0.237 OA
ATOM     88  O   UNL A   1      46.757  25.150  38.271  1.00  0.00    -0.744 OA
ENDBRANCH  84  85
ENDBRANCH  52  77
BRANCH  64  89
ATOM     89  C   UNL A   1      39.923  34.161  37.516  1.00  0.00     0.058 A 
ATOM     90  C   UNL A   1      40.645  35.364  37.561  1.00  0.00     0.135 A 
ATOM     91  C   UNL A   1      39.118  33.839  38.622  1.00  0.00     0.135 A 
ATOM     92  F   UNL A   1      41.434  35.717  36.535  1.00  0.00    -0.206 F 
ATOM     93  C   UNL A   1      40.590  36.202  38.670  1.00  0.00     0.059 A 
ATOM     94  C   UNL A   1      39.023  34.677  39.727  1.00  0.00     0.059 A 
ATOM     95  F   UNL A   1      38.398  32.706  38.627  1.00  0.00    -0.206 F 
ATOM     96  C   UNL A   1      39.774  35.851  39.748  1.00  0.00     0.060 A 
BRANCH  96  97
ATOM     97  S   UNL A   1      39.686  36.965  41.165  1.00  0.00     0.124 S 
ATOM     98  O   UNL A   1      41.099  37.207  41.437  1.00  0.00    -0.237 OA
ATOM     99  O   UNL A   1      38.940  38.098  40.626  1.00  0.00    -0.237 OA
ATOM    100  O   UNL A   1      38.979  36.179  42.173  1.00  0.00    -0.744 OA
ENDBRANCH  96  97
ENDBRANCH  64  89
ENDBRANCH  38  39
ENDBRANCH  30  33
ENDBRANCH  28  29
ENDBRANCH  27  28
ENDBRANCH   1  27
TORSDOF 18
ENDMDL
MODEL 3
REMARK VINA RESULT:      -9.7      4.994     13.431
REMARK SMILES CC[C@@H](C(=O)NCCCNC(=O)c1ccc(-c2c3nc(c(-c4c(F)cc(S(=O)(=O)[O-])cc4F)c4ccc([nH]4)c(-c4c(F)cc(S(=O)(=O)[O-])cc4F)c4nc(c(-c5c(F)cc(S(=O)(=O)[O-])cc5F)c5ccc2[nH]5)C=C4)C=C3)cc1)N1C(=O)/C(=C\c2ccc(C(=O)OC)cc2)SC1=S
REMARK SMILES IDX 7 1 6 2 4 3 5 4 3 6 2 7 1 8 79 9 80 10 95 11 81 12 82 13
REMARK SMILES IDX 94 14 96 15 83 16 84 17 85 18 93 19 86 20 92 21 87 22 88 23
REMARK SMILES IDX 89 24 90 25 91 26 8 27 9 28 10 29 11 30 12 32 13 33 14 34
REMARK SMILES IDX 78 35 15 36 77 37 16 38 17 39 18 40 71 41 19 42 76 43 70 44
REMARK SMILES IDX 72 45 20 46 75 47 69 48 68 49 21 51 55 52 34 53 54 54 35 55
REMARK SMILES IDX 38 56 53 57 73 58 36 59 37 60 52 62 74 63 39 64 22 65 23 66
REMARK SMILES IDX 32 67 24 68 25 69 31 70 33 71 26 72 27 73 28 74 29 75 30 76
REMARK SMILES IDX 56 77 57 78 66 79 58 80 59 81 65 82 67 83 60 84 61 85 62 86
REMARK SMILES IDX 63 87 64 88 40 89 41 90 50 91 42 92 43 93 49 94 51 95 44 96
REMARK SMILES IDX 45 97 46 98 47 99 48 100
REMARK H PARENT 6 5 10 31 72 50 38 61
REMARK Flexibility Score: inf
ROOT
ATOM      1  C   UNL A   1      38.807  33.049  35.244  1.00  0.00     0.117 C 
ENDROOT
BRANCH   1   2
ATOM      2  N   UNL A   1      39.620  32.634  36.368  1.00  0.00    -0.354 N 
ATOM      3  C   UNL A   1      40.709  31.823  36.444  1.00  0.00     0.243 C 
ATOM      4  O   UNL A   1      41.219  31.722  37.565  1.00  0.00    -0.273 OA
ATOM      5  H   UNL A   1      39.333  33.005  37.233  1.00  0.00     0.163 HD
BRANCH   3   6
ATOM      6  C   UNL A   1      41.326  31.151  35.190  1.00  0.00     0.181 C 
BRANCH   6   7
ATOM      7  C   UNL A   1      42.337  29.998  35.408  1.00  0.00     0.032 C 
ATOM      8  C   UNL A   1      41.869  28.577  35.168  1.00  0.00     0.006 C 
ENDBRANCH   6   7
BRANCH   6   9
ATOM      9  N   UNL A   1      41.994  32.258  34.441  1.00  0.00    -0.280 N 
ATOM     10  C   UNL A   1      41.502  32.607  33.192  1.00  0.00     0.266 C 
ATOM     11  C   UNL A   1      43.170  32.877  34.805  1.00  0.00     0.149 C 
ATOM     12  O   UNL A   1      40.665  31.995  32.548  1.00  0.00    -0.268 OA
ATOM     13  C   UNL A   1      42.146  33.858  32.721  1.00  0.00     0.081 C 
ATOM     14  S   UNL A   1      43.580  34.133  33.628  1.00  0.00    -0.054 SA
ATOM     15  S   UNL A   1      44.113  32.591  36.152  1.00  0.00    -0.052 S 
ATOM     16  C   UNL A   1      41.634  34.702  31.812  1.00  0.00     0.029 C 
BRANCH  16  17
ATOM     17  C   UNL A   1      40.312  34.523  31.197  1.00  0.00    -0.024 A 
ATOM     18  C   UNL A   1      40.199  34.246  29.832  1.00  0.00     0.009 A 
ATOM     19  C   UNL A   1      39.151  34.567  31.985  1.00  0.00     0.009 A 
ATOM     20  C   UNL A   1      38.943  33.984  29.269  1.00  0.00     0.016 A 
ATOM     21  C   UNL A   1      37.899  34.293  31.428  1.00  0.00     0.016 A 
ATOM     22  C   UNL A   1      37.789  33.993  30.065  1.00  0.00     0.060 A 
BRANCH  22  23
ATOM     23  C   UNL A   1      36.484  33.670  29.425  1.00  0.00     0.337 C 
ATOM     24  O   UNL A   1      35.422  34.167  29.774  1.00  0.00    -0.246 OA
BRANCH  23  25
ATOM     25  O   UNL A   1      36.649  32.771  28.423  1.00  0.00    -0.465 OA
ATOM     26  C   UNL A   1      35.427  32.291  27.860  1.00  0.00     0.282 C 
ENDBRANCH  23  25
ENDBRANCH  22  23
ENDBRANCH  16  17
ENDBRANCH   6   9
ENDBRANCH   3   6
ENDBRANCH   1   2
BRANCH   1  27
ATOM     27  C   UNL A   1      37.613  32.119  35.065  1.00  0.00     0.042 C 
BRANCH  27  28
ATOM     28  C   UNL A   1      37.904  30.892  34.214  1.00  0.00     0.118 C 
BRANCH  28  29
ATOM     29  N   UNL A   1      36.848  30.614  33.257  1.00  0.00    -0.352 N 
ATOM     30  C   UNL A   1      36.931  30.293  31.923  1.00  0.00     0.251 C 
ATOM     31  H   UNL A   1      35.934  30.662  33.619  1.00  0.00     0.163 HD
ATOM     32  O   UNL A   1      35.907  30.299  31.244  1.00  0.00    -0.269 OA
BRANCH  30  33
ATOM     33  C   UNL A   1      38.235  29.965  31.296  1.00  0.00     0.039 A 
ATOM     34  C   UNL A   1      39.091  29.072  31.948  1.00  0.00     0.014 A 
ATOM     35  C   UNL A   1      38.640  30.554  30.095  1.00  0.00     0.014 A 
ATOM     36  C   UNL A   1      40.320  28.736  31.372  1.00  0.00     0.010 A 
ATOM     37  C   UNL A   1      39.815  30.139  29.473  1.00  0.00     0.010 A 
ATOM     38  C   UNL A   1      40.683  29.244  30.114  1.00  0.00    -0.014 A 
BRANCH  38  39
ATOM     39  C   UNL A   1      41.978  28.886  29.476  1.00  0.00     0.031 A 
ATOM     40  C   UNL A   1      43.064  29.924  29.343  1.00  0.00     0.074 A 
ATOM     41  C   UNL A   1      42.163  27.649  28.975  1.00  0.00     0.049 A 
ATOM     42  N   UNL A   1      44.235  29.827  28.767  1.00  0.00    -0.248 NA
ATOM     43  C   UNL A   1      42.786  31.256  29.907  1.00  0.00     0.031 C 
ATOM     44  C   UNL A   1      41.176  26.568  29.001  1.00  0.00     0.029 A 
ATOM     45  N   UNL A   1      43.244  27.091  28.338  1.00  0.00    -0.354 N 
ATOM     46  C   UNL A   1      44.822  31.083  28.885  1.00  0.00     0.074 A 
ATOM     47  C   UNL A   1      43.855  31.942  29.531  1.00  0.00     0.031 C 
ATOM     48  C   UNL A   1      41.705  25.472  28.432  1.00  0.00     0.029 A 
ATOM     49  C   UNL A   1      43.052  25.782  27.962  1.00  0.00     0.049 A 
ATOM     50  H   UNL A   1      44.081  27.582  28.167  1.00  0.00     0.167 HD
ATOM     51  C   UNL A   1      46.064  31.478  28.515  1.00  0.00     0.037 A 
ATOM     52  C   UNL A   1      43.863  24.930  27.305  1.00  0.00     0.037 A 
ATOM     53  C   UNL A   1      47.032  30.611  27.896  1.00  0.00     0.049 A 
ATOM     54  C   UNL A   1      45.235  25.394  26.894  1.00  0.00     0.074 A 
ATOM     55  C   UNL A   1      48.336  30.898  27.533  1.00  0.00     0.029 A 
ATOM     56  N   UNL A   1      46.802  29.288  27.547  1.00  0.00    -0.354 N 
ATOM     57  N   UNL A   1      45.796  26.567  27.071  1.00  0.00    -0.248 NA
ATOM     58  C   UNL A   1      46.090  24.418  26.205  1.00  0.00     0.031 C 
ATOM     59  C   UNL A   1      48.877  29.767  26.915  1.00  0.00     0.029 A 
ATOM     60  C   UNL A   1      47.932  28.753  26.951  1.00  0.00     0.049 A 
ATOM     61  H   UNL A   1      45.960  28.802  27.700  1.00  0.00     0.167 HD
ATOM     62  C   UNL A   1      47.079  26.459  26.544  1.00  0.00     0.074 A 
ATOM     63  C   UNL A   1      47.215  25.104  26.053  1.00  0.00     0.031 C 
ATOM     64  C   UNL A   1      48.057  27.397  26.476  1.00  0.00     0.037 A 
BRANCH  51  65
ATOM     65  C   UNL A   1      46.448  32.912  28.771  1.00  0.00     0.058 A 
ATOM     66  C   UNL A   1      47.060  33.311  29.971  1.00  0.00     0.135 A 
ATOM     67  C   UNL A   1      46.237  33.894  27.790  1.00  0.00     0.135 A 
ATOM     68  F   UNL A   1      47.273  32.419  30.953  1.00  0.00    -0.206 F 
ATOM     69  C   UNL A   1      47.416  34.635  30.203  1.00  0.00     0.059 A 
ATOM     70  C   UNL A   1      46.617  35.219  27.987  1.00  0.00     0.059 A 
ATOM     71  F   UNL A   1      45.657  33.572  26.623  1.00  0.00    -0.206 F 
ATOM     72  C   UNL A   1      47.192  35.583  29.203  1.00  0.00     0.060 A 
BRANCH  72  73
ATOM     73  S   UNL A   1      47.669  37.295  29.518  1.00  0.00     0.124 S 
ATOM     74  O   UNL A   1      49.071  37.141  29.896  1.00  0.00    -0.237 OA
ATOM     75  O   UNL A   1      47.428  37.929  28.226  1.00  0.00    -0.237 OA
ATOM     76  O   UNL A   1      46.771  37.707  30.593  1.00  0.00    -0.744 OA
ENDBRANCH  72  73
ENDBRANCH  51  65
BRANCH  52  77
ATOM     77  C   UNL A   1      43.406  23.543  27.010  1.00  0.00     0.058 A 
ATOM     78  C   UNL A   1      43.055  23.158  25.707  1.00  0.00     0.135 A 
ATOM     79  C   UNL A   1      43.319  22.573  28.022  1.00  0.00     0.135 A 
ATOM     80  F   UNL A   1      43.114  24.049  24.706  1.00  0.00    -0.206 F 
ATOM     81  C   UNL A   1      42.617  21.869  25.420  1.00  0.00     0.059 A 
ATOM     82  C   UNL A   1      42.912  21.270  27.754  1.00  0.00     0.059 A 
ATOM     83  F   UNL A   1      43.660  22.884  29.282  1.00  0.00    -0.206 F 
ATOM     84  C   UNL A   1      42.552  20.930  26.451  1.00  0.00     0.060 A 
BRANCH  84  85
ATOM     85  S   UNL A   1      42.027  19.247  26.058  1.00  0.00     0.124 S 
ATOM     86  O   UNL A   1      42.875  18.934  24.915  1.00  0.00    -0.237 OA
ATOM     87  O   UNL A   1      42.333  18.537  27.296  1.00  0.00    -0.237 OA
ATOM     88  O   UNL A   1      40.605  19.399  25.767  1.00  0.00    -0.744 OA
ENDBRANCH  84  85
ENDBRANCH  52  77
BRANCH  64  89
ATOM     89  C   UNL A   1      49.380  26.982  25.892  1.00  0.00     0.058 A 
ATOM     90  C   UNL A   1      49.673  27.142  24.528  1.00  0.00     0.135 A 
ATOM     91  C   UNL A   1      50.390  26.469  26.722  1.00  0.00     0.135 A 
ATOM     92  F   UNL A   1      48.742  27.621  23.689  1.00  0.00    -0.206 F 
ATOM     93  C   UNL A   1      50.912  26.784  24.005  1.00  0.00     0.059 A 
ATOM     94  C   UNL A   1      51.646  26.135  26.227  1.00  0.00     0.059 A 
ATOM     95  F   UNL A   1      50.168  26.306  28.036  1.00  0.00    -0.206 F 
ATOM     96  C   UNL A   1      51.893  26.284  24.863  1.00  0.00     0.060 A 
BRANCH  96  97
ATOM     97  S   UNL A   1      53.506  25.856  24.176  1.00  0.00     0.124 S 
ATOM     98  O   UNL A   1      53.677  24.488  24.656  1.00  0.00    -0.237 OA
ATOM     99  O   UNL A   1      53.283  26.002  22.741  1.00  0.00    -0.237 OA
ATOM    100  O   UNL A   1      54.402  26.845  24.769  1.00  0.00    -0.744 OA
ENDBRANCH  96  97
ENDBRANCH  64  89
ENDBRANCH  38  39
ENDBRANCH  30  33
ENDBRANCH  28  29
ENDBRANCH  27  28
ENDBRANCH   1  27
TORSDOF 18
ENDMDL
