MODEL 1
REMARK VINA RESULT:     -13.5      0.000      0.000
REMARK SMILES O=C(NCCCNC(=O)c1ccccc1-c1ccc(/C=C2/SC(=S)N(Cc3ccccc3)C2=O)o1)c1ccc(-c2c3nc(c(-c4c(F)cc(S(=O)(=O)[O-])cc4F)c4ccc([nH]4)c(-c4c(F)cc(S(=O)(=O)[O-])cc4F)c4nc(c(-c5c(F)cc(S(=O)(=O)[O-])cc5F)c5ccc2[nH]5)C=C4)C=C3)cc1
REMARK SMILES IDX 5 1 4 2 3 3 1 4 2 5 36 7 37 8 101 9 38 10 100 11 39 12 40 13
REMARK SMILES IDX 41 14 94 15 42 16 99 17 93 18 95 19 43 20 98 21 92 22 91 23
REMARK SMILES IDX 44 25 78 26 57 27 77 28 58 29 61 30 76 31 96 32 59 33 60 34
REMARK SMILES IDX 75 36 97 37 62 38 45 39 46 40 55 41 47 42 48 43 54 44 56 45
REMARK SMILES IDX 49 46 50 47 51 48 52 49 53 50 79 51 80 52 89 53 81 54 82 55
REMARK SMILES IDX 88 56 90 57 83 58 84 59 85 60 86 61 87 62 63 63 64 64 73 65
REMARK SMILES IDX 65 66 66 67 72 68 74 69 67 70 68 71 69 72 70 73 71 74 6 75
REMARK SMILES IDX 7 76 8 77 9 79 10 80 11 81 15 82 12 83 14 84 13 85 16 86
REMARK SMILES IDX 17 87 35 88 18 89 19 90 20 91 21 92 22 93 33 94 23 95 25 96
REMARK SMILES IDX 34 97 24 98 26 99 27 100 28 101 32 102 29 103 31 104 30 105
REMARK H PARENT 3 6 95 24 61 35 7 78
REMARK Flexibility Score: inf
ROOT
ATOM      1  C   UNL A   1      33.717  28.843  27.229  1.00  0.00     0.042 C 
ENDROOT
BRANCH   1   2
ATOM      2  C   UNL A   1      35.079  29.437  27.537  1.00  0.00     0.118 C 
BRANCH   2   3
ATOM      3  N   UNL A   1      35.162  30.048  28.864  1.00  0.00    -0.352 N 
ATOM      4  O   UNL A   1      36.033  30.526  30.888  1.00  0.00    -0.269 OA
ATOM      5  C   UNL A   1      36.219  30.122  29.744  1.00  0.00     0.251 C 
ATOM      6  H   UNL A   1      34.332  30.474  29.177  1.00  0.00     0.163 HD
BRANCH   5   7
ATOM      7  C   UNL A   1      37.560  29.675  29.309  1.00  0.00     0.039 A 
ATOM      8  C   UNL A   1      38.457  29.170  30.247  1.00  0.00     0.014 A 
ATOM      9  C   UNL A   1      37.947  29.801  27.972  1.00  0.00     0.014 A 
ATOM     10  C   UNL A   1      39.793  29.035  29.914  1.00  0.00     0.010 A 
ATOM     11  C   UNL A   1      39.264  29.503  27.603  1.00  0.00     0.010 A 
ATOM     12  C   UNL A   1      40.211  29.159  28.580  1.00  0.00    -0.014 A 
BRANCH  12  13
ATOM     13  C   UNL A   1      41.621  28.824  28.250  1.00  0.00     0.031 A 
ATOM     14  C   UNL A   1      42.710  29.860  28.291  1.00  0.00     0.074 A 
ATOM     15  C   UNL A   1      41.909  27.538  27.958  1.00  0.00     0.049 A 
ATOM     16  N   UNL A   1      43.986  29.713  28.039  1.00  0.00    -0.248 NA
ATOM     17  C   UNL A   1      42.329  31.234  28.653  1.00  0.00     0.031 C 
ATOM     18  C   UNL A   1      40.926  26.451  27.883  1.00  0.00     0.029 A 
ATOM     19  N   UNL A   1      43.101  26.916  27.698  1.00  0.00    -0.354 N 
ATOM     20  C   UNL A   1      44.554  30.974  28.182  1.00  0.00     0.074 A 
ATOM     21  C   UNL A   1      43.482  31.880  28.531  1.00  0.00     0.031 C 
ATOM     22  C   UNL A   1      41.559  25.293  27.660  1.00  0.00     0.029 A 
ATOM     23  C   UNL A   1      42.977  25.564  27.478  1.00  0.00     0.049 A 
ATOM     24  H   UNL A   1      43.963  27.390  27.673  1.00  0.00     0.167 HD
ATOM     25  C   UNL A   1      45.854  31.333  28.035  1.00  0.00     0.037 A 
ATOM     26  C   UNL A   1      43.892  24.643  27.128  1.00  0.00     0.037 A 
ATOM     27  C   UNL A   1      46.913  30.410  27.710  1.00  0.00     0.049 A 
ATOM     28  C   UNL A   1      45.316  25.080  26.947  1.00  0.00     0.074 A 
ATOM     29  C   UNL A   1      48.266  30.669  27.579  1.00  0.00     0.029 A 
ATOM     30  N   UNL A   1      46.741  29.055  27.460  1.00  0.00    -0.354 N 
ATOM     31  N   UNL A   1      45.836  26.272  27.115  1.00  0.00    -0.248 NA
ATOM     32  C   UNL A   1      46.275  24.054  26.522  1.00  0.00     0.031 C 
ATOM     33  C   UNL A   1      48.905  29.485  27.196  1.00  0.00     0.029 A 
ATOM     34  C   UNL A   1      47.960  28.474  27.148  1.00  0.00     0.049 A 
ATOM     35  H   UNL A   1      45.881  28.578  27.499  1.00  0.00     0.167 HD
ATOM     36  C   UNL A   1      47.189  26.135  26.831  1.00  0.00     0.074 A 
ATOM     37  C   UNL A   1      47.408  24.740  26.508  1.00  0.00     0.031 C 
ATOM     38  C   UNL A   1      48.161  27.080  26.834  1.00  0.00     0.037 A 
BRANCH  25  39
ATOM     39  C   UNL A   1      46.218  32.784  28.201  1.00  0.00     0.058 A 
ATOM     40  C   UNL A   1      46.112  33.703  27.146  1.00  0.00     0.135 A 
ATOM     41  C   UNL A   1      46.586  33.281  29.464  1.00  0.00     0.135 A 
ATOM     42  F   UNL A   1      45.780  33.284  25.914  1.00  0.00    -0.206 F 
ATOM     43  C   UNL A   1      46.363  35.060  27.334  1.00  0.00     0.059 A 
ATOM     44  C   UNL A   1      46.817  34.637  29.681  1.00  0.00     0.059 A 
ATOM     45  F   UNL A   1      46.705  32.447  30.509  1.00  0.00    -0.206 F 
ATOM     46  C   UNL A   1      46.707  35.518  28.608  1.00  0.00     0.060 A 
BRANCH  46  47
ATOM     47  S   UNL A   1      46.985  37.288  28.842  1.00  0.00     0.124 S 
ATOM     48  O   UNL A   1      45.684  37.725  29.338  1.00  0.00    -0.237 OA
ATOM     49  O   UNL A   1      48.072  37.305  29.816  1.00  0.00    -0.237 OA
ATOM     50  O   UNL A   1      47.336  37.758  27.506  1.00  0.00    -0.744 OA
ENDBRANCH  46  47
ENDBRANCH  25  39
BRANCH  26  51
ATOM     51  C   UNL A   1      43.478  23.237  26.883  1.00  0.00     0.058 A 
ATOM     52  C   UNL A   1      43.165  22.375  27.943  1.00  0.00     0.135 A 
ATOM     53  C   UNL A   1      43.383  22.728  25.577  1.00  0.00     0.135 A 
ATOM     54  F   UNL A   1      43.239  22.813  29.209  1.00  0.00    -0.206 F 
ATOM     55  C   UNL A   1      42.803  21.050  27.721  1.00  0.00     0.059 A 
ATOM     56  C   UNL A   1      42.989  21.419  25.327  1.00  0.00     0.059 A 
ATOM     57  F   UNL A   1      43.648  23.519  24.525  1.00  0.00    -0.206 F 
ATOM     58  C   UNL A   1      42.721  20.581  26.408  1.00  0.00     0.060 A 
BRANCH  58  59
ATOM     59  S   UNL A   1      42.239  18.865  26.127  1.00  0.00     0.124 S 
ATOM     60  O   UNL A   1      43.193  18.460  25.101  1.00  0.00    -0.237 OA
ATOM     61  O   UNL A   1      42.428  18.273  27.447  1.00  0.00    -0.237 OA
ATOM     62  O   UNL A   1      40.850  18.975  25.691  1.00  0.00    -0.744 OA
ENDBRANCH  58  59
ENDBRANCH  26  51
BRANCH  38  63
ATOM     63  C   UNL A   1      49.555  26.625  26.509  1.00  0.00     0.058 A 
ATOM     64  C   UNL A   1      50.378  26.022  27.473  1.00  0.00     0.135 A 
ATOM     65  C   UNL A   1      50.061  26.765  25.208  1.00  0.00     0.135 A 
ATOM     66  F   UNL A   1      49.946  25.875  28.735  1.00  0.00    -0.206 F 
ATOM     67  C   UNL A   1      51.667  25.601  27.165  1.00  0.00     0.059 A 
ATOM     68  C   UNL A   1      51.335  26.322  24.869  1.00  0.00     0.059 A 
ATOM     69  F   UNL A   1      49.312  27.328  24.246  1.00  0.00    -0.206 F 
ATOM     70  C   UNL A   1      52.135  25.754  25.859  1.00  0.00     0.060 A 
BRANCH  70  71
ATOM     71  S   UNL A   1      53.800  25.176  25.464  1.00  0.00     0.124 S 
ATOM     72  O   UNL A   1      53.639  23.729  25.565  1.00  0.00    -0.237 OA
ATOM     73  O   UNL A   1      54.000  25.699  24.117  1.00  0.00    -0.237 OA
ATOM     74  O   UNL A   1      54.626  25.790  26.499  1.00  0.00    -0.744 OA
ENDBRANCH  70  71
ENDBRANCH  38  63
ENDBRANCH  12  13
ENDBRANCH   5   7
ENDBRANCH   2   3
ENDBRANCH   1   2
BRANCH   1  75
ATOM     75  C   UNL A   1      33.011  29.560  26.103  1.00  0.00     0.118 C 
BRANCH  75  76
ATOM     76  N   UNL A   1      33.612  29.343  24.795  1.00  0.00    -0.352 N 
ATOM     77  C   UNL A   1      32.987  28.946  23.639  1.00  0.00     0.252 C 
ATOM     78  H   UNL A   1      34.581  29.500  24.732  1.00  0.00     0.163 HD
ATOM     79  O   UNL A   1      33.609  28.857  22.586  1.00  0.00    -0.269 OA
BRANCH  77  80
ATOM     80  C   UNL A   1      31.560  28.571  23.683  1.00  0.00     0.050 A 
ATOM     81  C   UNL A   1      30.659  29.502  23.153  1.00  0.00     0.014 A 
ATOM     82  C   UNL A   1      31.122  27.319  24.158  1.00  0.00     0.030 A 
ATOM     83  C   UNL A   1      29.312  29.172  23.044  1.00  0.00     0.001 A 
ATOM     84  C   UNL A   1      29.766  26.997  24.022  1.00  0.00     0.013 A 
ATOM     85  C   UNL A   1      28.870  27.917  23.465  1.00  0.00     0.001 A 
BRANCH  82  86
ATOM     86  C   UNL A   1      32.052  26.358  24.730  1.00  0.00     0.135 A 
ATOM     87  C   UNL A   1      32.273  25.893  26.006  1.00  0.00     0.051 A 
ATOM     88  O   UNL A   1      33.040  25.919  23.896  1.00  0.00    -0.457 OA
ATOM     89  C   UNL A   1      33.491  25.179  25.955  1.00  0.00     0.051 A 
ATOM     90  C   UNL A   1      33.956  25.220  24.645  1.00  0.00     0.128 A 
BRANCH  90  91
ATOM     91  C   UNL A   1      35.176  24.698  24.136  1.00  0.00     0.068 C 
ATOM     92  C   UNL A   1      35.392  23.378  24.105  1.00  0.00     0.084 C 
ATOM     93  S   UNL A   1      36.930  22.633  23.926  1.00  0.00    -0.054 SA
ATOM     94  C   UNL A   1      34.380  22.339  24.400  1.00  0.00     0.266 C 
ATOM     95  C   UNL A   1      36.362  21.136  24.679  1.00  0.00     0.148 C 
ATOM     96  N   UNL A   1      35.001  21.202  24.873  1.00  0.00    -0.288 N 
ATOM     97  O   UNL A   1      33.178  22.467  24.204  1.00  0.00    -0.268 OA
ATOM     98  S   UNL A   1      37.396  19.880  25.049  1.00  0.00    -0.052 S 
BRANCH  96  99
ATOM     99  C   UNL A   1      34.160  20.158  25.451  1.00  0.00     0.163 C 
BRANCH  99 100
ATOM    100  C   UNL A   1      33.818  19.055  24.465  1.00  0.00    -0.028 A 
ATOM    101  C   UNL A   1      32.714  19.185  23.612  1.00  0.00     0.005 A 
ATOM    102  C   UNL A   1      34.550  17.854  24.422  1.00  0.00     0.005 A 
ATOM    103  C   UNL A   1      32.350  18.145  22.751  1.00  0.00     0.000 A 
ATOM    104  C   UNL A   1      34.198  16.824  23.549  1.00  0.00     0.000 A 
ATOM    105  C   UNL A   1      33.092  16.967  22.717  1.00  0.00     0.000 A 
ENDBRANCH  99 100
ENDBRANCH  96  99
ENDBRANCH  90  91
ENDBRANCH  82  86
ENDBRANCH  77  80
ENDBRANCH  75  76
ENDBRANCH   1  75
TORSDOF 17
ENDMDL
MODEL 2
REMARK VINA RESULT:     -13.4      6.578     12.274
REMARK SMILES O=C(NCCCNC(=O)c1ccccc1-c1ccc(/C=C2/SC(=S)N(Cc3ccccc3)C2=O)o1)c1ccc(-c2c3nc(c(-c4c(F)cc(S(=O)(=O)[O-])cc4F)c4ccc([nH]4)c(-c4c(F)cc(S(=O)(=O)[O-])cc4F)c4nc(c(-c5c(F)cc(S(=O)(=O)[O-])cc5F)c5ccc2[nH]5)C=C4)C=C3)cc1
REMARK SMILES IDX 5 1 4 2 3 3 1 4 2 5 36 7 37 8 101 9 38 10 100 11 39 12 40 13
REMARK SMILES IDX 41 14 94 15 42 16 99 17 93 18 95 19 43 20 98 21 92 22 91 23
REMARK SMILES IDX 44 25 78 26 57 27 77 28 58 29 61 30 76 31 96 32 59 33 60 34
REMARK SMILES IDX 75 36 97 37 62 38 45 39 46 40 55 41 47 42 48 43 54 44 56 45
REMARK SMILES IDX 49 46 50 47 51 48 52 49 53 50 79 51 80 52 89 53 81 54 82 55
REMARK SMILES IDX 88 56 90 57 83 58 84 59 85 60 86 61 87 62 63 63 64 64 73 65
REMARK SMILES IDX 65 66 66 67 72 68 74 69 67 70 68 71 69 72 70 73 71 74 6 75
REMARK SMILES IDX 7 76 8 77 9 79 10 80 11 81 15 82 12 83 14 84 13 85 16 86
REMARK SMILES IDX 17 87 35 88 18 89 19 90 20 91 21 92 22 93 33 94 23 95 25 96
REMARK SMILES IDX 34 97 24 98 26 99 27 100 28 101 32 102 29 103 31 104 30 105
REMARK H PARENT 3 6 95 24 61 35 7 78
REMARK Flexibility Score: inf
ROOT
ATOM      1  C   UNL A   1      37.053  23.750  25.224  1.00  0.00     0.042 C 
ENDROOT
BRANCH   1   2
ATOM      2  C   UNL A   1      37.968  24.174  26.358  1.00  0.00     0.118 C 
BRANCH   2   3
ATOM      3  N   UNL A   1      39.390  24.067  26.031  1.00  0.00    -0.352 N 
ATOM      4  O   UNL A   1      41.559  24.679  25.932  1.00  0.00    -0.269 OA
ATOM      5  C   UNL A   1      40.461  24.818  26.464  1.00  0.00     0.251 C 
ATOM      6  H   UNL A   1      39.618  23.345  25.404  1.00  0.00     0.163 HD
BRANCH   5   7
ATOM      7  C   UNL A   1      40.264  25.812  27.543  1.00  0.00     0.039 A 
ATOM      8  C   UNL A   1      40.993  26.998  27.530  1.00  0.00     0.014 A 
ATOM      9  C   UNL A   1      39.385  25.545  28.596  1.00  0.00     0.014 A 
ATOM     10  C   UNL A   1      41.043  27.784  28.668  1.00  0.00     0.010 A 
ATOM     11  C   UNL A   1      39.313  26.432  29.677  1.00  0.00     0.010 A 
ATOM     12  C   UNL A   1      40.175  27.538  29.742  1.00  0.00    -0.014 A 
BRANCH  12  13
ATOM     13  C   UNL A   1      40.141  28.518  30.858  1.00  0.00     0.031 A 
ATOM     14  C   UNL A   1      41.077  28.415  32.031  1.00  0.00     0.074 A 
ATOM     15  C   UNL A   1      39.271  29.546  30.765  1.00  0.00     0.049 A 
ATOM     16  N   UNL A   1      41.172  29.202  33.072  1.00  0.00    -0.248 NA
ATOM     17  C   UNL A   1      42.025  27.289  32.047  1.00  0.00     0.031 C 
ATOM     18  C   UNL A   1      38.310  29.739  29.673  1.00  0.00     0.029 A 
ATOM     19  N   UNL A   1      39.065  30.632  31.574  1.00  0.00    -0.354 N 
ATOM     20  C   UNL A   1      42.162  28.655  33.880  1.00  0.00     0.074 A 
ATOM     21  C   UNL A   1      42.633  27.460  33.214  1.00  0.00     0.031 C 
ATOM     22  C   UNL A   1      37.666  30.900  29.846  1.00  0.00     0.029 A 
ATOM     23  C   UNL A   1      38.092  31.485  31.108  1.00  0.00     0.049 A 
ATOM     24  H   UNL A   1      39.565  30.786  32.407  1.00  0.00     0.167 HD
ATOM     25  C   UNL A   1      42.631  29.116  35.065  1.00  0.00     0.037 A 
ATOM     26  C   UNL A   1      37.567  32.598  31.651  1.00  0.00     0.037 A 
ATOM     27  C   UNL A   1      42.165  30.324  35.701  1.00  0.00     0.049 A 
ATOM     28  C   UNL A   1      38.090  33.064  32.977  1.00  0.00     0.074 A 
ATOM     29  C   UNL A   1      42.605  30.897  36.882  1.00  0.00     0.029 A 
ATOM     30  N   UNL A   1      41.154  31.143  35.215  1.00  0.00    -0.354 N 
ATOM     31  N   UNL A   1      39.047  32.548  33.710  1.00  0.00    -0.248 NA
ATOM     32  C   UNL A   1      37.459  34.257  33.555  1.00  0.00     0.031 C 
ATOM     33  C   UNL A   1      41.824  32.028  37.140  1.00  0.00     0.029 A 
ATOM     34  C   UNL A   1      40.938  32.197  36.088  1.00  0.00     0.049 A 
ATOM     35  H   UNL A   1      40.663  30.996  34.375  1.00  0.00     0.167 HD
ATOM     36  C   UNL A   1      39.144  33.363  34.830  1.00  0.00     0.074 A 
ATOM     37  C   UNL A   1      38.167  34.421  34.663  1.00  0.00     0.031 C 
ATOM     38  C   UNL A   1      39.965  33.245  35.902  1.00  0.00     0.037 A 
BRANCH  25  39
ATOM     39  C   UNL A   1      43.688  28.316  35.777  1.00  0.00     0.058 A 
ATOM     40  C   UNL A   1      43.363  27.285  36.672  1.00  0.00     0.135 A 
ATOM     41  C   UNL A   1      45.048  28.520  35.484  1.00  0.00     0.135 A 
ATOM     42  F   UNL A   1      42.082  27.054  37.003  1.00  0.00    -0.206 F 
ATOM     43  C   UNL A   1      44.347  26.488  37.255  1.00  0.00     0.059 A 
ATOM     44  C   UNL A   1      46.046  27.720  36.034  1.00  0.00     0.059 A 
ATOM     45  F   UNL A   1      45.417  29.493  34.636  1.00  0.00    -0.206 F 
ATOM     46  C   UNL A   1      45.685  26.709  36.922  1.00  0.00     0.060 A 
BRANCH  46  47
ATOM     47  S   UNL A   1      46.943  25.639  37.653  1.00  0.00     0.124 S 
ATOM     48  O   UNL A   1      47.135  24.650  36.597  1.00  0.00    -0.237 OA
ATOM     49  O   UNL A   1      48.053  26.563  37.865  1.00  0.00    -0.237 OA
ATOM     50  O   UNL A   1      46.305  25.141  38.868  1.00  0.00    -0.744 OA
ENDBRANCH  46  47
ENDBRANCH  25  39
BRANCH  26  51
ATOM     51  C   UNL A   1      36.460  33.311  30.961  1.00  0.00     0.058 A 
ATOM     52  C   UNL A   1      36.694  34.086  29.818  1.00  0.00     0.135 A 
ATOM     53  C   UNL A   1      35.140  33.226  31.434  1.00  0.00     0.135 A 
ATOM     54  F   UNL A   1      37.937  34.198  29.325  1.00  0.00    -0.206 F 
ATOM     55  C   UNL A   1      35.666  34.778  29.185  1.00  0.00     0.059 A 
ATOM     56  C   UNL A   1      34.090  33.878  30.799  1.00  0.00     0.059 A 
ATOM     57  F   UNL A   1      34.856  32.477  32.512  1.00  0.00    -0.206 F 
ATOM     58  C   UNL A   1      34.367  34.669  29.685  1.00  0.00     0.060 A 
BRANCH  58  59
ATOM     59  S   UNL A   1      33.037  35.559  28.852  1.00  0.00     0.124 S 
ATOM     60  O   UNL A   1      32.413  34.490  28.079  1.00  0.00    -0.237 OA
ATOM     61  O   UNL A   1      32.261  36.073  29.975  1.00  0.00    -0.237 OA
ATOM     62  O   UNL A   1      33.747  36.570  28.074  1.00  0.00    -0.744 OA
ENDBRANCH  58  59
ENDBRANCH  26  51
BRANCH  38  63
ATOM     63  C   UNL A   1      39.862  34.307  36.960  1.00  0.00     0.058 A 
ATOM     64  C   UNL A   1      40.528  35.537  36.838  1.00  0.00     0.135 A 
ATOM     65  C   UNL A   1      39.061  34.103  38.094  1.00  0.00     0.135 A 
ATOM     66  F   UNL A   1      41.315  35.778  35.778  1.00  0.00    -0.206 F 
ATOM     67  C   UNL A   1      40.427  36.516  37.820  1.00  0.00     0.059 A 
ATOM     68  C   UNL A   1      38.920  35.080  39.073  1.00  0.00     0.059 A 
ATOM     69  F   UNL A   1      38.397  32.947  38.255  1.00  0.00    -0.206 F 
ATOM     70  C   UNL A   1      39.618  36.278  38.933  1.00  0.00     0.060 A 
BRANCH  70  71
ATOM     71  S   UNL A   1      39.471  37.570  40.186  1.00  0.00     0.124 S 
ATOM     72  O   UNL A   1      38.979  36.812  41.332  1.00  0.00    -0.237 OA
ATOM     73  O   UNL A   1      40.842  38.060  40.291  1.00  0.00    -0.237 OA
ATOM     74  O   UNL A   1      38.519  38.507  39.598  1.00  0.00    -0.744 OA
ENDBRANCH  70  71
ENDBRANCH  38  63
ENDBRANCH  12  13
ENDBRANCH   5   7
ENDBRANCH   2   3
ENDBRANCH   1   2
BRANCH   1  75
ATOM     75  C   UNL A   1      36.448  22.384  25.445  1.00  0.00     0.118 C 
BRANCH  75  76
ATOM     76  N   UNL A   1      35.493  22.331  26.542  1.00  0.00    -0.352 N 
ATOM     77  C   UNL A   1      34.401  21.509  26.666  1.00  0.00     0.252 C 
ATOM     78  H   UNL A   1      35.648  22.959  27.283  1.00  0.00     0.163 HD
ATOM     79  O   UNL A   1      33.707  21.530  27.678  1.00  0.00    -0.269 OA
BRANCH  77  80
ATOM     80  C   UNL A   1      34.030  20.628  25.540  1.00  0.00     0.050 A 
ATOM     81  C   UNL A   1      34.768  19.446  25.411  1.00  0.00     0.014 A 
ATOM     82  C   UNL A   1      32.948  20.913  24.684  1.00  0.00     0.030 A 
ATOM     83  C   UNL A   1      34.400  18.506  24.453  1.00  0.00     0.001 A 
ATOM     84  C   UNL A   1      32.580  19.946  23.739  1.00  0.00     0.013 A 
ATOM     85  C   UNL A   1      33.300  18.750  23.629  1.00  0.00     0.001 A 
BRANCH  82  86
ATOM     86  C   UNL A   1      32.194  22.151  24.801  1.00  0.00     0.135 A 
ATOM     87  C   UNL A   1      31.090  22.525  25.532  1.00  0.00     0.051 A 
ATOM     88  O   UNL A   1      32.506  23.124  23.896  1.00  0.00    -0.457 OA
ATOM     89  C   UNL A   1      30.677  23.770  25.006  1.00  0.00     0.051 A 
ATOM     90  C   UNL A   1      31.558  24.115  23.986  1.00  0.00     0.128 A 
BRANCH  90  91
ATOM     91  C   UNL A   1      31.496  25.246  23.127  1.00  0.00     0.068 C 
ATOM     92  C   UNL A   1      31.668  26.480  23.613  1.00  0.00     0.084 C 
ATOM     93  S   UNL A   1      31.212  27.930  22.810  1.00  0.00    -0.054 SA
ATOM     94  C   UNL A   1      32.105  26.804  24.990  1.00  0.00     0.266 C 
ATOM     95  C   UNL A   1      31.130  28.823  24.336  1.00  0.00     0.148 C 
ATOM     96  N   UNL A   1      31.615  28.039  25.359  1.00  0.00    -0.288 N 
ATOM     97  O   UNL A   1      32.834  26.093  25.671  1.00  0.00    -0.268 OA
ATOM     98  S   UNL A   1      30.549  30.384  24.420  1.00  0.00    -0.052 S 
BRANCH  96  99
ATOM     99  C   UNL A   1      31.729  28.425  26.761  1.00  0.00     0.163 C 
BRANCH  99 100
ATOM    100  C   UNL A   1      32.925  29.319  27.038  1.00  0.00    -0.028 A 
ATOM    101  C   UNL A   1      34.217  28.779  27.085  1.00  0.00     0.005 A 
ATOM    102  C   UNL A   1      32.769  30.690  27.317  1.00  0.00     0.005 A 
ATOM    103  C   UNL A   1      35.316  29.582  27.407  1.00  0.00     0.000 A 
ATOM    104  C   UNL A   1      33.868  31.494  27.620  1.00  0.00     0.000 A 
ATOM    105  C   UNL A   1      35.142  30.939  27.673  1.00  0.00     0.000 A 
ENDBRANCH  99 100
ENDBRANCH  96  99
ENDBRANCH  90  91
ENDBRANCH  82  86
ENDBRANCH  77  80
ENDBRANCH  75  76
ENDBRANCH   1  75
TORSDOF 17
ENDMDL
MODEL 3
REMARK VINA RESULT:     -12.9      4.789     10.297
REMARK SMILES O=C(NCCCNC(=O)c1ccccc1-c1ccc(/C=C2/SC(=S)N(Cc3ccccc3)C2=O)o1)c1ccc(-c2c3nc(c(-c4c(F)cc(S(=O)(=O)[O-])cc4F)c4ccc([nH]4)c(-c4c(F)cc(S(=O)(=O)[O-])cc4F)c4nc(c(-c5c(F)cc(S(=O)(=O)[O-])cc5F)c5ccc2[nH]5)C=C4)C=C3)cc1
REMARK SMILES IDX 5 1 4 2 3 3 1 4 2 5 36 7 37 8 101 9 38 10 100 11 39 12 40 13
REMARK SMILES IDX 41 14 94 15 42 16 99 17 93 18 95 19 43 20 98 21 92 22 91 23
REMARK SMILES IDX 44 25 78 26 57 27 77 28 58 29 61 30 76 31 96 32 59 33 60 34
REMARK SMILES IDX 75 36 97 37 62 38 45 39 46 40 55 41 47 42 48 43 54 44 56 45
REMARK SMILES IDX 49 46 50 47 51 48 52 49 53 50 79 51 80 52 89 53 81 54 82 55
REMARK SMILES IDX 88 56 90 57 83 58 84 59 85 60 86 61 87 62 63 63 64 64 73 65
REMARK SMILES IDX 65 66 66 67 72 68 74 69 67 70 68 71 69 72 70 73 71 74 6 75
REMARK SMILES IDX 7 76 8 77 9 79 10 80 11 81 15 82 12 83 14 84 13 85 16 86
REMARK SMILES IDX 17 87 35 88 18 89 19 90 20 91 21 92 22 93 33 94 23 95 25 96
REMARK SMILES IDX 34 97 24 98 26 99 27 100 28 101 32 102 29 103 31 104 30 105
REMARK H PARENT 3 6 95 24 61 35 7 78
REMARK Flexibility Score: inf
ROOT
ATOM      1  C   UNL A   1      36.147  23.474  24.470  1.00  0.00     0.042 C 
ENDROOT
BRANCH   1   2
ATOM      2  C   UNL A   1      37.134  23.945  25.523  1.00  0.00     0.118 C 
BRANCH   2   3
ATOM      3  N   UNL A   1      38.310  23.084  25.646  1.00  0.00    -0.352 N 
ATOM      4  O   UNL A   1      40.454  22.532  26.078  1.00  0.00    -0.269 OA
ATOM      5  C   UNL A   1      39.531  23.326  26.237  1.00  0.00     0.251 C 
ATOM      6  H   UNL A   1      38.215  22.192  25.243  1.00  0.00     0.163 HD
BRANCH   5   7
ATOM      7  C   UNL A   1      39.724  24.562  27.027  1.00  0.00     0.039 A 
ATOM      8  C   UNL A   1      40.497  25.598  26.509  1.00  0.00     0.014 A 
ATOM      9  C   UNL A   1      39.174  24.676  28.306  1.00  0.00     0.014 A 
ATOM     10  C   UNL A   1      40.929  26.614  27.343  1.00  0.00     0.010 A 
ATOM     11  C   UNL A   1      39.481  25.792  29.094  1.00  0.00     0.010 A 
ATOM     12  C   UNL A   1      40.397  26.750  28.634  1.00  0.00    -0.014 A 
BRANCH  12  13
ATOM     13  C   UNL A   1      40.756  27.960  29.419  1.00  0.00     0.031 A 
ATOM     14  C   UNL A   1      39.796  29.104  29.594  1.00  0.00     0.074 A 
ATOM     15  C   UNL A   1      41.964  27.981  30.022  1.00  0.00     0.049 A 
ATOM     16  N   UNL A   1      39.966  30.218  30.260  1.00  0.00    -0.248 NA
ATOM     17  C   UNL A   1      38.483  28.995  28.939  1.00  0.00     0.031 C 
ATOM     18  C   UNL A   1      42.979  26.926  29.913  1.00  0.00     0.029 A 
ATOM     19  N   UNL A   1      42.539  28.898  30.862  1.00  0.00    -0.354 N 
ATOM     20  C   UNL A   1      38.800  30.954  30.082  1.00  0.00     0.074 A 
ATOM     21  C   UNL A   1      37.932  30.166  29.234  1.00  0.00     0.031 C 
ATOM     22  C   UNL A   1      44.017  27.223  30.703  1.00  0.00     0.029 A 
ATOM     23  C   UNL A   1      43.791  28.532  31.297  1.00  0.00     0.049 A 
ATOM     24  H   UNL A   1      42.098  29.736  31.129  1.00  0.00     0.167 HD
ATOM     25  C   UNL A   1      38.490  32.174  30.586  1.00  0.00     0.037 A 
ATOM     26  C   UNL A   1      44.683  29.190  32.058  1.00  0.00     0.037 A 
ATOM     27  C   UNL A   1      39.360  32.934  31.450  1.00  0.00     0.049 A 
ATOM     28  C   UNL A   1      44.318  30.550  32.577  1.00  0.00     0.074 A 
ATOM     29  C   UNL A   1      39.120  34.160  32.045  1.00  0.00     0.029 A 
ATOM     30  N   UNL A   1      40.635  32.545  31.840  1.00  0.00    -0.354 N 
ATOM     31  N   UNL A   1      43.200  31.215  32.420  1.00  0.00    -0.248 NA
ATOM     32  C   UNL A   1      45.337  31.252  33.366  1.00  0.00     0.031 C 
ATOM     33  C   UNL A   1      40.269  34.540  32.747  1.00  0.00     0.029 A 
ATOM     34  C   UNL A   1      41.203  33.522  32.642  1.00  0.00     0.049 A 
ATOM     35  H   UNL A   1      41.071  31.700  31.584  1.00  0.00     0.167 HD
ATOM     36  C   UNL A   1      43.373  32.410  33.106  1.00  0.00     0.074 A 
ATOM     37  C   UNL A   1      44.694  32.362  33.700  1.00  0.00     0.031 C 
ATOM     38  C   UNL A   1      42.518  33.454  33.230  1.00  0.00     0.037 A 
BRANCH  25  39
ATOM     39  C   UNL A   1      37.168  32.789  30.211  1.00  0.00     0.058 A 
ATOM     40  C   UNL A   1      36.030  32.654  31.021  1.00  0.00     0.135 A 
ATOM     41  C   UNL A   1      37.066  33.607  29.073  1.00  0.00     0.135 A 
ATOM     42  F   UNL A   1      36.064  31.873  32.112  1.00  0.00    -0.206 F 
ATOM     43  C   UNL A   1      34.836  33.304  30.713  1.00  0.00     0.059 A 
ATOM     44  C   UNL A   1      35.891  34.285  28.759  1.00  0.00     0.059 A 
ATOM     45  F   UNL A   1      38.123  33.770  28.262  1.00  0.00    -0.206 F 
ATOM     46  C   UNL A   1      34.780  34.124  29.584  1.00  0.00     0.060 A 
BRANCH  46  47
ATOM     47  S   UNL A   1      33.237  34.992  29.225  1.00  0.00     0.124 S 
ATOM     48  O   UNL A   1      33.731  36.292  28.779  1.00  0.00    -0.237 OA
ATOM     49  O   UNL A   1      32.641  34.153  28.190  1.00  0.00    -0.237 OA
ATOM     50  O   UNL A   1      32.540  34.993  30.507  1.00  0.00    -0.744 OA
ENDBRANCH  46  47
ENDBRANCH  25  39
BRANCH  26  51
ATOM     51  C   UNL A   1      46.015  28.590  32.332  1.00  0.00     0.058 A 
ATOM     52  C   UNL A   1      46.241  27.809  33.473  1.00  0.00     0.135 A 
ATOM     53  C   UNL A   1      47.090  28.784  31.449  1.00  0.00     0.135 A 
ATOM     54  F   UNL A   1      45.246  27.593  34.347  1.00  0.00    -0.206 F 
ATOM     55  C   UNL A   1      47.493  27.268  33.748  1.00  0.00     0.059 A 
ATOM     56  C   UNL A   1      48.341  28.223  31.681  1.00  0.00     0.059 A 
ATOM     57  F   UNL A   1      46.921  29.503  30.327  1.00  0.00    -0.206 F 
ATOM     58  C   UNL A   1      48.537  27.483  32.846  1.00  0.00     0.060 A 
BRANCH  58  59
ATOM     59  S   UNL A   1      50.155  26.767  33.202  1.00  0.00     0.124 S 
ATOM     60  O   UNL A   1      50.209  25.676  32.236  1.00  0.00    -0.237 OA
ATOM     61  O   UNL A   1      51.051  27.891  32.948  1.00  0.00    -0.237 OA
ATOM     62  O   UNL A   1      50.044  26.368  34.602  1.00  0.00    -0.744 OA
ENDBRANCH  58  59
ENDBRANCH  26  51
BRANCH  38  63
ATOM     63  C   UNL A   1      42.976  34.614  34.068  1.00  0.00     0.058 A 
ATOM     64  C   UNL A   1      43.628  35.721  33.504  1.00  0.00     0.135 A 
ATOM     65  C   UNL A   1      42.729  34.631  35.450  1.00  0.00     0.135 A 
ATOM     66  F   UNL A   1      43.898  35.749  32.189  1.00  0.00    -0.206 F 
ATOM     67  C   UNL A   1      44.047  36.791  34.285  1.00  0.00     0.059 A 
ATOM     68  C   UNL A   1      43.110  35.705  36.246  1.00  0.00     0.059 A 
ATOM     69  F   UNL A   1      42.101  33.600  36.038  1.00  0.00    -0.206 F 
ATOM     70  C   UNL A   1      43.782  36.775  35.656  1.00  0.00     0.060 A 
BRANCH  70  71
ATOM     71  S   UNL A   1      44.305  38.185  36.655  1.00  0.00     0.124 S 
ATOM     72  O   UNL A   1      43.413  38.076  37.805  1.00  0.00    -0.237 OA
ATOM     73  O   UNL A   1      45.709  37.881  36.911  1.00  0.00    -0.237 OA
ATOM     74  O   UNL A   1      44.065  39.328  35.780  1.00  0.00    -0.744 OA
ENDBRANCH  70  71
ENDBRANCH  38  63
ENDBRANCH  12  13
ENDBRANCH   5   7
ENDBRANCH   2   3
ENDBRANCH   1   2
BRANCH   1  75
ATOM     75  C   UNL A   1      35.799  22.012  24.613  1.00  0.00     0.118 C 
BRANCH  75  76
ATOM     76  N   UNL A   1      35.088  21.690  25.841  1.00  0.00    -0.352 N 
ATOM     77  C   UNL A   1      34.127  20.727  26.028  1.00  0.00     0.252 C 
ATOM     78  H   UNL A   1      35.324  22.226  26.632  1.00  0.00     0.163 HD
ATOM     79  O   UNL A   1      33.648  20.523  27.139  1.00  0.00    -0.269 OA
BRANCH  77  80
ATOM     80  C   UNL A   1      33.630  19.969  24.864  1.00  0.00     0.050 A 
ATOM     81  C   UNL A   1      34.219  18.718  24.643  1.00  0.00     0.014 A 
ATOM     82  C   UNL A   1      32.571  20.431  24.057  1.00  0.00     0.030 A 
ATOM     83  C   UNL A   1      33.721  17.889  23.642  1.00  0.00     0.001 A 
ATOM     84  C   UNL A   1      32.071  19.575  23.068  1.00  0.00     0.013 A 
ATOM     85  C   UNL A   1      32.641  18.312  22.866  1.00  0.00     0.001 A 
BRANCH  82  86
ATOM     86  C   UNL A   1      31.972  21.739  24.270  1.00  0.00     0.135 A 
ATOM     87  C   UNL A   1      30.995  22.210  25.116  1.00  0.00     0.051 A 
ATOM     88  O   UNL A   1      32.297  22.697  23.353  1.00  0.00    -0.457 OA
ATOM     89  C   UNL A   1      30.670  23.505  24.653  1.00  0.00     0.051 A 
ATOM     90  C   UNL A   1      31.476  23.781  23.554  1.00  0.00     0.128 A 
BRANCH  90  91
ATOM     91  C   UNL A   1      31.453  24.934  22.723  1.00  0.00     0.068 C 
ATOM     92  C   UNL A   1      31.602  26.155  23.249  1.00  0.00     0.084 C 
ATOM     93  S   UNL A   1      31.183  27.626  22.464  1.00  0.00    -0.054 SA
ATOM     94  C   UNL A   1      31.976  26.443  24.651  1.00  0.00     0.266 C 
ATOM     95  C   UNL A   1      31.031  28.479  24.007  1.00  0.00     0.148 C 
ATOM     96  N   UNL A   1      31.470  27.667  25.030  1.00  0.00    -0.288 N 
ATOM     97  O   UNL A   1      32.674  25.713  25.346  1.00  0.00    -0.268 OA
ATOM     98  S   UNL A   1      30.446  30.037  24.106  1.00  0.00    -0.052 S 
BRANCH  96  99
ATOM     99  C   UNL A   1      31.520  28.017  26.446  1.00  0.00     0.163 C 
BRANCH  99 100
ATOM    100  C   UNL A   1      32.688  28.923  26.795  1.00  0.00    -0.028 A 
ATOM    101  C   UNL A   1      33.990  28.410  26.850  1.00  0.00     0.005 A 
ATOM    102  C   UNL A   1      32.493  30.275  27.134  1.00  0.00     0.005 A 
ATOM    103  C   UNL A   1      35.061  29.221  27.238  1.00  0.00     0.000 A 
ATOM    104  C   UNL A   1      33.565  31.088  27.503  1.00  0.00     0.000 A 
ATOM    105  C   UNL A   1      34.850  30.559  27.563  1.00  0.00     0.000 A 
ENDBRANCH  99 100
ENDBRANCH  96  99
ENDBRANCH  90  91
ENDBRANCH  82  86
ENDBRANCH  77  80
ENDBRANCH  75  76
ENDBRANCH   1  75
TORSDOF 17
ENDMDL
