MODEL 1
REMARK VINA RESULT:     -11.6      0.000      0.000
REMARK SMILES C[C@@H](CC[NH+](C)C)NC(=O)Cn1cccc1C(=O)NCCCNC(=O)c1ccc(-c2c3nc(c(-c4c(F)cc(S(=O)(=O)[O-])cc4F)c4ccc([nH]4)c(-c4c(F)cc(S(=O)(=O)[O-])cc4F)c4nc(c(-c5c(F)cc(S(=O)(=O)[O-])cc5F)c5ccc2[nH]5)C=C4)C=C3)cc1
REMARK SMILES IDX 17 1 18 2 19 3 16 5 12 6 13 7 14 8 15 9 11 10 9 11 8 12
REMARK SMILES IDX 10 14 2 15 1 16 3 17 4 18 5 19 6 20 7 21 20 23 21 24 22 25
REMARK SMILES IDX 23 26 24 27 25 29 26 30 27 31 91 32 28 33 90 34 29 35 30 36
REMARK SMILES IDX 31 37 84 38 32 39 89 40 83 41 85 42 33 43 88 44 82 45 81 46
REMARK SMILES IDX 34 48 68 49 47 50 67 51 48 52 51 53 66 54 86 55 49 56 50 57
REMARK SMILES IDX 65 59 87 60 52 61 35 62 36 63 45 64 37 65 38 66 44 67 46 68
REMARK SMILES IDX 39 69 40 70 41 71 42 72 43 73 69 74 70 75 79 76 71 77 72 78
REMARK SMILES IDX 78 79 80 80 73 81 74 82 75 83 76 84 77 85 53 86 54 87 63 88
REMARK SMILES IDX 55 89 56 90 62 91 64 92 57 93 58 94 59 95 60 96 61 97
REMARK H PARENT 19 4 8 13 5 22 23 28 85 47 51 58
REMARK Flexibility Score: inf
ROOT
ATOM      1  C   UNL A   1      31.571  26.261  25.724  1.00  0.00     0.267 C 
ATOM      2  O   UNL A   1      30.763  25.519  26.293  1.00  0.00    -0.268 OA
ATOM      3  N   UNL A   1      32.748  26.435  26.417  1.00  0.00    -0.351 N 
ATOM      4  H   UNL A   1      32.767  26.043  27.320  1.00  0.00     0.163 HD
ENDROOT
BRANCH   1   5
ATOM      5  C   UNL A   1      31.213  26.899  24.442  1.00  0.00     0.107 A 
ATOM      6  N   UNL A   1      31.768  26.995  23.160  1.00  0.00    -0.334 N 
ATOM      7  C   UNL A   1      30.960  27.788  22.360  1.00  0.00     0.087 A 
ATOM      8  C   UNL A   1      29.820  28.099  23.045  1.00  0.00     0.020 A 
ATOM      9  C   UNL A   1      29.968  27.538  24.324  1.00  0.00     0.033 A 
BRANCH   6  10
ATOM     10  C   UNL A   1      32.987  26.469  22.572  1.00  0.00     0.222 C 
BRANCH  10  11
ATOM     11  C   UNL A   1      32.849  25.384  21.539  1.00  0.00     0.240 C 
ATOM     12  N   UNL A   1      32.823  24.083  21.955  1.00  0.00    -0.352 N 
ATOM     13  H   UNL A   1      33.136  23.424  21.294  1.00  0.00     0.163 HD
ATOM     14  O   UNL A   1      32.954  25.625  20.336  1.00  0.00    -0.273 OA
BRANCH  12  15
ATOM     15  C   UNL A   1      32.398  23.530  23.235  1.00  0.00     0.084 C 
ATOM     16  C   UNL A   1      30.880  23.357  23.284  1.00  0.00     0.031 C 
BRANCH  15  17
ATOM     17  C   UNL A   1      33.151  22.243  23.592  1.00  0.00     0.086 C 
BRANCH  17  18
ATOM     18  C   UNL A   1      34.478  22.358  24.366  1.00  0.00     0.263 C 
BRANCH  18  19
ATOM     19  N   UNL A   1      34.702  21.262  25.324  1.00  0.00    -0.340 N 
ATOM     20  C   UNL A   1      36.097  20.806  25.244  1.00  0.00     0.332 C 
ATOM     21  C   UNL A   1      34.427  21.628  26.717  1.00  0.00     0.332 C 
ATOM     22  H   UNL A   1      34.047  20.527  25.059  1.00  0.00     0.347 HD
ENDBRANCH  18  19
ENDBRANCH  17  18
ENDBRANCH  15  17
ENDBRANCH  12  15
ENDBRANCH  10  11
ENDBRANCH   6  10
ENDBRANCH   1   5
BRANCH   3  23
ATOM     23  C   UNL A   1      33.945  27.102  26.014  1.00  0.00     0.118 C 
BRANCH  23  24
ATOM     24  C   UNL A   1      34.094  28.596  26.209  1.00  0.00     0.042 C 
BRANCH  24  25
ATOM     25  C   UNL A   1      34.038  29.092  27.638  1.00  0.00     0.118 C 
BRANCH  25  26
ATOM     26  N   UNL A   1      34.397  30.494  27.802  1.00  0.00    -0.352 N 
ATOM     27  C   UNL A   1      35.591  30.988  28.304  1.00  0.00     0.251 C 
ATOM     28  H   UNL A   1      33.724  31.158  27.531  1.00  0.00     0.163 HD
ATOM     29  O   UNL A   1      35.707  32.154  28.613  1.00  0.00    -0.269 OA
BRANCH  27  30
ATOM     30  C   UNL A   1      36.710  30.034  28.500  1.00  0.00     0.039 A 
ATOM     31  C   UNL A   1      37.748  30.008  27.564  1.00  0.00     0.014 A 
ATOM     32  C   UNL A   1      36.752  29.231  29.645  1.00  0.00     0.014 A 
ATOM     33  C   UNL A   1      38.883  29.251  27.834  1.00  0.00     0.010 A 
ATOM     34  C   UNL A   1      37.902  28.518  29.940  1.00  0.00     0.010 A 
ATOM     35  C   UNL A   1      38.977  28.549  29.045  1.00  0.00    -0.014 A 
BRANCH  35  36
ATOM     36  C   UNL A   1      40.280  27.971  29.448  1.00  0.00     0.031 A 
ATOM     37  C   UNL A   1      40.592  26.667  28.655  1.00  0.00     0.074 A 
ATOM     38  C   UNL A   1      40.955  28.662  30.415  1.00  0.00     0.049 A 
ATOM     39  N   UNL A   1      41.200  25.567  29.005  1.00  0.00    -0.248 NA
ATOM     40  C   UNL A   1      40.026  26.542  27.280  1.00  0.00     0.031 C 
ATOM     41  C   UNL A   1      40.497  29.922  31.049  1.00  0.00     0.029 A 
ATOM     42  N   UNL A   1      42.147  28.466  31.068  1.00  0.00    -0.354 N 
ATOM     43  C   UNL A   1      41.239  24.716  27.867  1.00  0.00     0.074 A 
ATOM     44  C   UNL A   1      40.387  25.318  26.886  1.00  0.00     0.031 C 
ATOM     45  C   UNL A   1      41.335  30.307  32.036  1.00  0.00     0.029 A 
ATOM     46  C   UNL A   1      42.410  29.347  32.153  1.00  0.00     0.049 A 
ATOM     47  H   UNL A   1      42.779  27.761  30.801  1.00  0.00     0.167 HD
ATOM     48  C   UNL A   1      42.085  23.650  27.729  1.00  0.00     0.037 A 
ATOM     49  C   UNL A   1      43.365  29.232  33.133  1.00  0.00     0.037 A 
ATOM     50  C   UNL A   1      42.966  23.562  28.844  1.00  0.00     0.049 A 
ATOM     51  C   UNL A   1      44.044  27.969  32.800  1.00  0.00     0.074 A 
ATOM     52  C   UNL A   1      43.041  22.884  30.033  1.00  0.00     0.029 A 
ATOM     53  N   UNL A   1      44.059  24.386  28.760  1.00  0.00    -0.354 N 
ATOM     54  N   UNL A   1      44.864  27.785  31.814  1.00  0.00    -0.248 NA
ATOM     55  C   UNL A   1      43.506  26.774  33.445  1.00  0.00     0.031 C 
ATOM     56  C   UNL A   1      44.123  23.473  30.740  1.00  0.00     0.029 A 
ATOM     57  C   UNL A   1      44.491  24.616  30.035  1.00  0.00     0.049 A 
ATOM     58  H   UNL A   1      44.458  24.744  27.934  1.00  0.00     0.167 HD
ATOM     59  C   UNL A   1      44.761  26.439  31.543  1.00  0.00     0.074 A 
ATOM     60  C   UNL A   1      43.978  25.849  32.619  1.00  0.00     0.031 C 
ATOM     61  C   UNL A   1      45.018  25.922  30.317  1.00  0.00     0.037 A 
BRANCH  48  62
ATOM     62  C   UNL A   1      42.506  22.799  26.531  1.00  0.00     0.058 A 
ATOM     63  C   UNL A   1      42.208  21.410  26.575  1.00  0.00     0.135 A 
ATOM     64  C   UNL A   1      43.495  23.171  25.608  1.00  0.00     0.135 A 
ATOM     65  F   UNL A   1      41.213  20.946  27.353  1.00  0.00    -0.206 F 
ATOM     66  C   UNL A   1      42.953  20.449  25.897  1.00  0.00     0.059 A 
ATOM     67  C   UNL A   1      44.222  22.221  24.868  1.00  0.00     0.059 A 
ATOM     68  F   UNL A   1      43.843  24.455  25.450  1.00  0.00    -0.206 F 
ATOM     69  C   UNL A   1      43.988  20.862  25.071  1.00  0.00     0.060 A 
BRANCH  69  70
ATOM     70  S   UNL A   1      45.024  19.597  24.298  1.00  0.00     0.124 S 
ATOM     71  O   UNL A   1      44.544  19.614  22.922  1.00  0.00    -0.237 OA
ATOM     72  O   UNL A   1      46.369  20.129  24.503  1.00  0.00    -0.237 OA
ATOM     73  O   UNL A   1      44.715  18.395  25.066  1.00  0.00    -0.744 OA
ENDBRANCH  69  70
ENDBRANCH  48  62
BRANCH  49  74
ATOM     74  C   UNL A   1      43.637  29.834  34.497  1.00  0.00     0.058 A 
ATOM     75  C   UNL A   1      44.719  30.654  34.843  1.00  0.00     0.135 A 
ATOM     76  C   UNL A   1      42.681  29.665  35.541  1.00  0.00     0.135 A 
ATOM     77  F   UNL A   1      45.777  30.776  34.031  1.00  0.00    -0.206 F 
ATOM     78  C   UNL A   1      44.760  31.386  36.046  1.00  0.00     0.059 A 
ATOM     79  C   UNL A   1      42.679  30.402  36.724  1.00  0.00     0.059 A 
ATOM     80  F   UNL A   1      41.671  28.790  35.434  1.00  0.00    -0.206 F 
ATOM     81  C   UNL A   1      43.707  31.294  36.957  1.00  0.00     0.060 A 
BRANCH  81  82
ATOM     82  S   UNL A   1      43.605  32.409  38.376  1.00  0.00     0.124 S 
ATOM     83  O   UNL A   1      42.213  32.840  38.327  1.00  0.00    -0.237 OA
ATOM     84  O   UNL A   1      43.964  31.537  39.489  1.00  0.00    -0.237 OA
ATOM     85  O   UNL A   1      44.595  33.438  38.062  1.00  0.00    -0.744 OA
ENDBRANCH  81  82
ENDBRANCH  49  74
BRANCH  61  86
ATOM     86  C   UNL A   1      45.431  26.933  29.261  1.00  0.00     0.058 A 
ATOM     87  C   UNL A   1      46.762  27.320  29.094  1.00  0.00     0.135 A 
ATOM     88  C   UNL A   1      44.490  27.579  28.429  1.00  0.00     0.135 A 
ATOM     89  F   UNL A   1      47.718  26.772  29.859  1.00  0.00    -0.206 F 
ATOM     90  C   UNL A   1      47.140  28.268  28.132  1.00  0.00     0.059 A 
ATOM     91  C   UNL A   1      44.836  28.513  27.455  1.00  0.00     0.059 A 
ATOM     92  F   UNL A   1      43.192  27.294  28.537  1.00  0.00    -0.206 F 
ATOM     93  C   UNL A   1      46.173  28.851  27.310  1.00  0.00     0.060 A 
BRANCH  93  94
ATOM     94  S   UNL A   1      46.678  30.041  26.045  1.00  0.00     0.124 S 
ATOM     95  O   UNL A   1      45.635  31.057  26.140  1.00  0.00    -0.237 OA
ATOM     96  O   UNL A   1      47.999  30.444  26.514  1.00  0.00    -0.237 OA
ATOM     97  O   UNL A   1      46.668  29.259  24.810  1.00  0.00    -0.744 OA
ENDBRANCH  93  94
ENDBRANCH  61  86
ENDBRANCH  35  36
ENDBRANCH  27  30
ENDBRANCH  25  26
ENDBRANCH  24  25
ENDBRANCH  23  24
ENDBRANCH   3  23
TORSDOF 19
ENDMDL
MODEL 2
REMARK VINA RESULT:     -11.5      1.483      3.698
REMARK SMILES C[C@@H](CC[NH+](C)C)NC(=O)Cn1cccc1C(=O)NCCCNC(=O)c1ccc(-c2c3nc(c(-c4c(F)cc(S(=O)(=O)[O-])cc4F)c4ccc([nH]4)c(-c4c(F)cc(S(=O)(=O)[O-])cc4F)c4nc(c(-c5c(F)cc(S(=O)(=O)[O-])cc5F)c5ccc2[nH]5)C=C4)C=C3)cc1
REMARK SMILES IDX 17 1 18 2 19 3 16 5 12 6 13 7 14 8 15 9 11 10 9 11 8 12
REMARK SMILES IDX 10 14 2 15 1 16 3 17 4 18 5 19 6 20 7 21 20 23 21 24 22 25
REMARK SMILES IDX 23 26 24 27 25 29 26 30 27 31 91 32 28 33 90 34 29 35 30 36
REMARK SMILES IDX 31 37 84 38 32 39 89 40 83 41 85 42 33 43 88 44 82 45 81 46
REMARK SMILES IDX 34 48 68 49 47 50 67 51 48 52 51 53 66 54 86 55 49 56 50 57
REMARK SMILES IDX 65 59 87 60 52 61 35 62 36 63 45 64 37 65 38 66 44 67 46 68
REMARK SMILES IDX 39 69 40 70 41 71 42 72 43 73 69 74 70 75 79 76 71 77 72 78
REMARK SMILES IDX 78 79 80 80 73 81 74 82 75 83 76 84 77 85 53 86 54 87 63 88
REMARK SMILES IDX 55 89 56 90 62 91 64 92 57 93 58 94 59 95 60 96 61 97
REMARK H PARENT 19 4 8 13 5 22 23 28 85 47 51 58
REMARK Flexibility Score: inf
ROOT
ATOM      1  C   UNL A   1      33.246  28.530  23.649  1.00  0.00     0.267 C 
ATOM      2  O   UNL A   1      33.819  28.965  22.645  1.00  0.00    -0.268 OA
ATOM      3  N   UNL A   1      32.858  29.508  24.536  1.00  0.00    -0.351 N 
ATOM      4  H   UNL A   1      33.171  30.417  24.323  1.00  0.00     0.163 HD
ENDROOT
BRANCH   1   5
ATOM      5  C   UNL A   1      33.074  27.074  23.829  1.00  0.00     0.107 A 
ATOM      6  N   UNL A   1      32.053  26.136  23.633  1.00  0.00    -0.334 N 
ATOM      7  C   UNL A   1      32.490  24.882  24.030  1.00  0.00     0.087 A 
ATOM      8  C   UNL A   1      33.816  24.951  24.350  1.00  0.00     0.020 A 
ATOM      9  C   UNL A   1      34.181  26.299  24.212  1.00  0.00     0.033 A 
BRANCH   6  10
ATOM     10  C   UNL A   1      30.689  26.250  23.149  1.00  0.00     0.222 C 
BRANCH  10  11
ATOM     11  C   UNL A   1      29.618  26.573  24.154  1.00  0.00     0.240 C 
ATOM     12  N   UNL A   1      28.965  27.768  24.056  1.00  0.00    -0.352 N 
ATOM     13  H   UNL A   1      28.598  28.118  24.899  1.00  0.00     0.163 HD
ATOM     14  O   UNL A   1      29.455  25.883  25.162  1.00  0.00    -0.273 OA
BRANCH  12  15
ATOM     15  C   UNL A   1      28.732  28.600  22.882  1.00  0.00     0.084 C 
ATOM     16  C   UNL A   1      27.251  28.958  22.745  1.00  0.00     0.031 C 
BRANCH  15  17
ATOM     17  C   UNL A   1      29.643  29.832  22.851  1.00  0.00     0.086 C 
BRANCH  17  18
ATOM     18  C   UNL A   1      29.100  31.162  23.409  1.00  0.00     0.263 C 
BRANCH  18  19
ATOM     19  N   UNL A   1      29.271  32.302  22.493  1.00  0.00    -0.340 N 
ATOM     20  C   UNL A   1      28.257  32.247  21.430  1.00  0.00     0.332 C 
ATOM     21  C   UNL A   1      29.164  33.610  23.149  1.00  0.00     0.332 C 
ATOM     22  H   UNL A   1      30.217  32.217  22.120  1.00  0.00     0.347 HD
ENDBRANCH  18  19
ENDBRANCH  17  18
ENDBRANCH  15  17
ENDBRANCH  12  15
ENDBRANCH  10  11
ENDBRANCH   6  10
ENDBRANCH   1   5
BRANCH   3  23
ATOM     23  C   UNL A   1      32.066  29.395  25.719  1.00  0.00     0.118 C 
BRANCH  23  24
ATOM     24  C   UNL A   1      32.666  28.842  26.994  1.00  0.00     0.042 C 
BRANCH  24  25
ATOM     25  C   UNL A   1      34.137  29.119  27.214  1.00  0.00     0.118 C 
BRANCH  25  26
ATOM     26  N   UNL A   1      34.455  30.518  27.466  1.00  0.00    -0.352 N 
ATOM     27  C   UNL A   1      35.603  31.009  28.070  1.00  0.00     0.251 C 
ATOM     28  H   UNL A   1      33.788  31.182  27.180  1.00  0.00     0.163 HD
ATOM     29  O   UNL A   1      35.674  32.161  28.439  1.00  0.00    -0.269 OA
BRANCH  27  30
ATOM     30  C   UNL A   1      36.726  30.067  28.298  1.00  0.00     0.039 A 
ATOM     31  C   UNL A   1      37.773  30.026  27.372  1.00  0.00     0.014 A 
ATOM     32  C   UNL A   1      36.762  29.289  29.460  1.00  0.00     0.014 A 
ATOM     33  C   UNL A   1      38.910  29.282  27.670  1.00  0.00     0.010 A 
ATOM     34  C   UNL A   1      37.912  28.590  29.782  1.00  0.00     0.010 A 
ATOM     35  C   UNL A   1      38.996  28.608  28.897  1.00  0.00    -0.014 A 
BRANCH  35  36
ATOM     36  C   UNL A   1      40.298  28.047  29.325  1.00  0.00     0.031 A 
ATOM     37  C   UNL A   1      40.624  26.725  28.568  1.00  0.00     0.074 A 
ATOM     38  C   UNL A   1      40.962  28.766  30.280  1.00  0.00     0.049 A 
ATOM     39  N   UNL A   1      41.234  25.638  28.950  1.00  0.00    -0.248 NA
ATOM     40  C   UNL A   1      40.071  26.563  27.191  1.00  0.00     0.031 C 
ATOM     41  C   UNL A   1      40.492  30.039  30.879  1.00  0.00     0.029 A 
ATOM     42  N   UNL A   1      42.149  28.593  30.947  1.00  0.00    -0.354 N 
ATOM     43  C   UNL A   1      41.288  24.759  27.834  1.00  0.00     0.074 A 
ATOM     44  C   UNL A   1      40.440  25.332  26.831  1.00  0.00     0.031 C 
ATOM     45  C   UNL A   1      41.320  30.453  31.862  1.00  0.00     0.029 A 
ATOM     46  C   UNL A   1      42.399  29.502  32.012  1.00  0.00     0.049 A 
ATOM     47  H   UNL A   1      42.787  27.884  30.703  1.00  0.00     0.167 HD
ATOM     48  C   UNL A   1      42.140  23.694  27.729  1.00  0.00     0.037 A 
ATOM     49  C   UNL A   1      43.347  29.417  33.003  1.00  0.00     0.037 A 
ATOM     50  C   UNL A   1      43.013  23.639  28.854  1.00  0.00     0.049 A 
ATOM     51  C   UNL A   1      44.035  28.149  32.707  1.00  0.00     0.074 A 
ATOM     52  C   UNL A   1      43.080  22.992  30.060  1.00  0.00     0.029 A 
ATOM     53  N   UNL A   1      44.102  24.466  28.758  1.00  0.00    -0.354 N 
ATOM     54  N   UNL A   1      44.864  27.946  31.732  1.00  0.00    -0.248 NA
ATOM     55  C   UNL A   1      43.497  26.968  33.377  1.00  0.00     0.031 C 
ATOM     56  C   UNL A   1      44.153  23.604  30.761  1.00  0.00     0.029 A 
ATOM     57  C   UNL A   1      44.522  24.730  30.031  1.00  0.00     0.049 A 
ATOM     58  H   UNL A   1      44.506  24.805  27.927  1.00  0.00     0.167 HD
ATOM     59  C   UNL A   1      44.770  26.592  31.495  1.00  0.00     0.074 A 
ATOM     60  C   UNL A   1      43.981  26.026  32.578  1.00  0.00     0.031 C 
ATOM     61  C   UNL A   1      45.040  26.046  30.284  1.00  0.00     0.037 A 
BRANCH  48  62
ATOM     62  C   UNL A   1      42.576  22.816  26.557  1.00  0.00     0.058 A 
ATOM     63  C   UNL A   1      42.215  21.441  26.597  1.00  0.00     0.135 A 
ATOM     64  C   UNL A   1      43.619  23.137  25.676  1.00  0.00     0.135 A 
ATOM     65  F   UNL A   1      41.168  21.028  27.333  1.00  0.00    -0.206 F 
ATOM     66  C   UNL A   1      42.947  20.443  25.958  1.00  0.00     0.059 A 
ATOM     67  C   UNL A   1      44.335  22.151  24.975  1.00  0.00     0.059 A 
ATOM     68  F   UNL A   1      44.029  24.404  25.525  1.00  0.00    -0.206 F 
ATOM     69  C   UNL A   1      44.034  20.804  25.177  1.00  0.00     0.060 A 
BRANCH  69  70
ATOM     70  S   UNL A   1      45.047  19.489  24.458  1.00  0.00     0.124 S 
ATOM     71  O   UNL A   1      46.396  20.010  24.647  1.00  0.00    -0.237 OA
ATOM     72  O   UNL A   1      44.695  18.338  25.286  1.00  0.00    -0.237 OA
ATOM     73  O   UNL A   1      44.579  19.421  23.078  1.00  0.00    -0.744 OA
ENDBRANCH  69  70
ENDBRANCH  48  62
BRANCH  49  74
ATOM     74  C   UNL A   1      43.604  30.054  34.353  1.00  0.00     0.058 A 
ATOM     75  C   UNL A   1      42.769  29.984  35.477  1.00  0.00     0.135 A 
ATOM     76  C   UNL A   1      44.844  30.715  34.593  1.00  0.00     0.135 A 
ATOM     77  F   UNL A   1      41.510  29.541  35.372  1.00  0.00    -0.206 F 
ATOM     78  C   UNL A   1      43.198  30.370  36.762  1.00  0.00     0.059 A 
ATOM     79  C   UNL A   1      45.306  31.074  35.857  1.00  0.00     0.059 A 
ATOM     80  F   UNL A   1      45.688  31.007  33.593  1.00  0.00    -0.206 F 
ATOM     81  C   UNL A   1      44.488  30.864  36.951  1.00  0.00     0.060 A 
BRANCH  81  82
ATOM     82  S   UNL A   1      45.153  31.120  38.612  1.00  0.00     0.124 S 
ATOM     83  O   UNL A   1      44.316  30.238  39.416  1.00  0.00    -0.237 OA
ATOM     84  O   UNL A   1      46.546  30.714  38.461  1.00  0.00    -0.237 OA
ATOM     85  O   UNL A   1      44.953  32.551  38.834  1.00  0.00    -0.744 OA
ENDBRANCH  81  82
ENDBRANCH  49  74
BRANCH  61  86
ATOM     86  C   UNL A   1      45.456  27.032  29.206  1.00  0.00     0.058 A 
ATOM     87  C   UNL A   1      44.529  27.600  28.330  1.00  0.00     0.135 A 
ATOM     88  C   UNL A   1      46.806  27.388  28.993  1.00  0.00     0.135 A 
ATOM     89  F   UNL A   1      43.228  27.298  28.448  1.00  0.00    -0.206 F 
ATOM     90  C   UNL A   1      44.917  28.496  27.324  1.00  0.00     0.059 A 
ATOM     91  C   UNL A   1      47.221  28.286  28.012  1.00  0.00     0.059 A 
ATOM     92  F   UNL A   1      47.765  26.873  29.763  1.00  0.00    -0.206 F 
ATOM     93  C   UNL A   1      46.263  28.842  27.178  1.00  0.00     0.060 A 
BRANCH  93  94
ATOM     94  S   UNL A   1      46.745  30.030  25.904  1.00  0.00     0.124 S 
ATOM     95  O   UNL A   1      46.680  29.226  24.688  1.00  0.00    -0.237 OA
ATOM     96  O   UNL A   1      45.718  31.057  26.038  1.00  0.00    -0.237 OA
ATOM     97  O   UNL A   1      48.090  30.440  26.303  1.00  0.00    -0.744 OA
ENDBRANCH  93  94
ENDBRANCH  61  86
ENDBRANCH  35  36
ENDBRANCH  27  30
ENDBRANCH  25  26
ENDBRANCH  24  25
ENDBRANCH  23  24
ENDBRANCH   3  23
TORSDOF 19
ENDMDL
MODEL 3
REMARK VINA RESULT:     -11.3      3.071      9.545
REMARK SMILES C[C@@H](CC[NH+](C)C)NC(=O)Cn1cccc1C(=O)NCCCNC(=O)c1ccc(-c2c3nc(c(-c4c(F)cc(S(=O)(=O)[O-])cc4F)c4ccc([nH]4)c(-c4c(F)cc(S(=O)(=O)[O-])cc4F)c4nc(c(-c5c(F)cc(S(=O)(=O)[O-])cc5F)c5ccc2[nH]5)C=C4)C=C3)cc1
REMARK SMILES IDX 17 1 18 2 19 3 16 5 12 6 13 7 14 8 15 9 11 10 9 11 8 12
REMARK SMILES IDX 10 14 2 15 1 16 3 17 4 18 5 19 6 20 7 21 20 23 21 24 22 25
REMARK SMILES IDX 23 26 24 27 25 29 26 30 27 31 91 32 28 33 90 34 29 35 30 36
REMARK SMILES IDX 31 37 84 38 32 39 89 40 83 41 85 42 33 43 88 44 82 45 81 46
REMARK SMILES IDX 34 48 68 49 47 50 67 51 48 52 51 53 66 54 86 55 49 56 50 57
REMARK SMILES IDX 65 59 87 60 52 61 35 62 36 63 45 64 37 65 38 66 44 67 46 68
REMARK SMILES IDX 39 69 40 70 41 71 42 72 43 73 69 74 70 75 79 76 71 77 72 78
REMARK SMILES IDX 78 79 80 80 73 81 74 82 75 83 76 84 77 85 53 86 54 87 63 88
REMARK SMILES IDX 55 89 56 90 62 91 64 92 57 93 58 94 59 95 60 96 61 97
REMARK H PARENT 19 4 8 13 5 22 23 28 85 47 51 58
REMARK Flexibility Score: inf
ROOT
ATOM      1  C   UNL A   1      33.511  26.347  22.781  1.00  0.00     0.267 C 
ATOM      2  O   UNL A   1      33.679  26.615  21.586  1.00  0.00    -0.268 OA
ATOM      3  N   UNL A   1      33.821  27.382  23.632  1.00  0.00    -0.351 N 
ATOM      4  H   UNL A   1      34.237  28.167  23.207  1.00  0.00     0.163 HD
ENDROOT
BRANCH   1   5
ATOM      5  C   UNL A   1      33.058  24.998  23.178  1.00  0.00     0.107 A 
ATOM      6  N   UNL A   1      31.857  24.405  23.584  1.00  0.00    -0.334 N 
ATOM      7  C   UNL A   1      32.071  23.065  23.867  1.00  0.00     0.087 A 
ATOM      8  C   UNL A   1      33.351  22.734  23.524  1.00  0.00     0.020 A 
ATOM      9  C   UNL A   1      33.956  23.923  23.084  1.00  0.00     0.033 A 
BRANCH   6  10
ATOM     10  C   UNL A   1      30.516  24.927  23.782  1.00  0.00     0.222 C 
BRANCH  10  11
ATOM     11  C   UNL A   1      30.329  25.986  24.833  1.00  0.00     0.240 C 
ATOM     12  N   UNL A   1      30.210  27.287  24.439  1.00  0.00    -0.352 N 
ATOM     13  H   UNL A   1      30.492  27.957  25.102  1.00  0.00     0.163 HD
ATOM     14  O   UNL A   1      30.475  25.735  26.031  1.00  0.00    -0.273 OA
BRANCH  12  15
ATOM     15  C   UNL A   1      29.723  27.829  23.176  1.00  0.00     0.084 C 
ATOM     16  C   UNL A   1      28.195  27.870  23.145  1.00  0.00     0.031 C 
BRANCH  15  17
ATOM     17  C   UNL A   1      30.356  29.185  22.841  1.00  0.00     0.086 C 
BRANCH  17  18
ATOM     18  C   UNL A   1      29.650  30.093  21.816  1.00  0.00     0.263 C 
BRANCH  18  19
ATOM     19  N   UNL A   1      29.459  31.476  22.283  1.00  0.00    -0.340 N 
ATOM     20  C   UNL A   1      28.427  32.139  21.472  1.00  0.00     0.332 C 
ATOM     21  C   UNL A   1      29.058  31.577  23.690  1.00  0.00     0.332 C 
ATOM     22  H   UNL A   1      30.368  31.929  22.184  1.00  0.00     0.347 HD
ENDBRANCH  18  19
ENDBRANCH  17  18
ENDBRANCH  15  17
ENDBRANCH  12  15
ENDBRANCH  10  11
ENDBRANCH   6  10
ENDBRANCH   1   5
BRANCH   3  23
ATOM     23  C   UNL A   1      33.627  27.483  25.044  1.00  0.00     0.118 C 
BRANCH  23  24
ATOM     24  C   UNL A   1      33.338  28.824  25.685  1.00  0.00     0.042 C 
BRANCH  24  25
ATOM     25  C   UNL A   1      33.605  28.925  27.172  1.00  0.00     0.118 C 
BRANCH  25  26
ATOM     26  N   UNL A   1      33.650  30.288  27.683  1.00  0.00    -0.352 N 
ATOM     27  C   UNL A   1      34.692  30.873  28.387  1.00  0.00     0.251 C 
ATOM     28  H   UNL A   1      32.861  30.851  27.513  1.00  0.00     0.163 HD
ATOM     29  O   UNL A   1      34.544  31.928  28.963  1.00  0.00    -0.269 OA
BRANCH  27  30
ATOM     30  C   UNL A   1      35.980  30.141  28.456  1.00  0.00     0.039 A 
ATOM     31  C   UNL A   1      36.839  30.178  27.353  1.00  0.00     0.014 A 
ATOM     32  C   UNL A   1      36.352  29.490  29.637  1.00  0.00     0.014 A 
ATOM     33  C   UNL A   1      38.120  29.650  27.476  1.00  0.00     0.010 A 
ATOM     34  C   UNL A   1      37.643  29.010  29.778  1.00  0.00     0.010 A 
ATOM     35  C   UNL A   1      38.534  29.114  28.705  1.00  0.00    -0.014 A 
BRANCH  35  36
ATOM     36  C   UNL A   1      39.967  28.804  28.912  1.00  0.00     0.031 A 
ATOM     37  C   UNL A   1      40.744  30.042  29.451  1.00  0.00     0.074 A 
ATOM     38  C   UNL A   1      40.343  27.526  28.603  1.00  0.00     0.049 A 
ATOM     39  N   UNL A   1      41.960  30.461  29.234  1.00  0.00    -0.248 NA
ATOM     40  C   UNL A   1      39.986  31.026  30.278  1.00  0.00     0.031 C 
ATOM     41  C   UNL A   1      39.437  26.459  28.111  1.00  0.00     0.029 A 
ATOM     42  N   UNL A   1      41.540  26.854  28.628  1.00  0.00    -0.354 N 
ATOM     43  C   UNL A   1      42.158  31.630  30.018  1.00  0.00     0.074 A 
ATOM     44  C   UNL A   1      40.870  31.996  30.527  1.00  0.00     0.031 C 
ATOM     45  C   UNL A   1      40.124  25.338  27.803  1.00  0.00     0.029 A 
ATOM     46  C   UNL A   1      41.532  25.554  28.050  1.00  0.00     0.049 A 
ATOM     47  H   UNL A   1      42.352  27.247  29.022  1.00  0.00     0.167 HD
ATOM     48  C   UNL A   1      43.384  32.148  30.337  1.00  0.00     0.037 A 
ATOM     49  C   UNL A   1      42.603  24.769  27.699  1.00  0.00     0.037 A 
ATOM     50  C   UNL A   1      44.425  31.311  29.841  1.00  0.00     0.049 A 
ATOM     51  C   UNL A   1      43.765  25.602  28.052  1.00  0.00     0.074 A 
ATOM     52  C   UNL A   1      45.245  31.246  28.745  1.00  0.00     0.029 A 
ATOM     53  N   UNL A   1      44.714  30.241  30.648  1.00  0.00    -0.354 N 
ATOM     54  N   UNL A   1      44.186  25.848  29.253  1.00  0.00    -0.248 NA
ATOM     55  C   UNL A   1      44.278  26.456  26.983  1.00  0.00     0.031 C 
ATOM     56  C   UNL A   1      45.905  29.991  28.838  1.00  0.00     0.029 A 
ATOM     57  C   UNL A   1      45.279  29.281  29.858  1.00  0.00     0.049 A 
ATOM     58  H   UNL A   1      44.546  30.178  31.616  1.00  0.00     0.167 HD
ATOM     59  C   UNL A   1      44.837  27.055  29.135  1.00  0.00     0.074 A 
ATOM     60  C   UNL A   1      44.935  27.348  27.713  1.00  0.00     0.031 C 
ATOM     61  C   UNL A   1      44.970  27.915  30.175  1.00  0.00     0.037 A 
BRANCH  48  62
ATOM     62  C   UNL A   1      43.847  33.179  31.365  1.00  0.00     0.058 A 
ATOM     63  C   UNL A   1      43.521  32.940  32.728  1.00  0.00     0.135 A 
ATOM     64  C   UNL A   1      44.191  34.504  31.054  1.00  0.00     0.135 A 
ATOM     65  F   UNL A   1      43.267  31.693  33.164  1.00  0.00    -0.206 F 
ATOM     66  C   UNL A   1      43.369  33.959  33.665  1.00  0.00     0.059 A 
ATOM     67  C   UNL A   1      44.101  35.540  31.999  1.00  0.00     0.059 A 
ATOM     68  F   UNL A   1      44.548  34.850  29.810  1.00  0.00    -0.206 F 
ATOM     69  C   UNL A   1      43.625  35.267  33.281  1.00  0.00     0.060 A 
BRANCH  69  70
ATOM     70  S   UNL A   1      43.301  36.588  34.473  1.00  0.00     0.124 S 
ATOM     71  O   UNL A   1      42.086  36.114  35.126  1.00  0.00    -0.237 OA
ATOM     72  O   UNL A   1      44.508  36.566  35.297  1.00  0.00    -0.237 OA
ATOM     73  O   UNL A   1      43.152  37.770  33.632  1.00  0.00    -0.744 OA
ENDBRANCH  69  70
ENDBRANCH  48  62
BRANCH  49  74
ATOM     74  C   UNL A   1      42.853  23.551  26.833  1.00  0.00     0.058 A 
ATOM     75  C   UNL A   1      43.282  23.554  25.499  1.00  0.00     0.135 A 
ATOM     76  C   UNL A   1      42.756  22.250  27.408  1.00  0.00     0.135 A 
ATOM     77  F   UNL A   1      43.267  24.680  24.774  1.00  0.00    -0.206 F 
ATOM     78  C   UNL A   1      43.746  22.392  24.851  1.00  0.00     0.059 A 
ATOM     79  C   UNL A   1      43.239  21.092  26.803  1.00  0.00     0.059 A 
ATOM     80  F   UNL A   1      42.213  22.056  28.618  1.00  0.00    -0.206 F 
ATOM     81  C   UNL A   1      43.771  21.175  25.531  1.00  0.00     0.060 A 
BRANCH  81  82
ATOM     82  S   UNL A   1      44.597  19.731  24.822  1.00  0.00     0.124 S 
ATOM     83  O   UNL A   1      44.478  19.982  23.391  1.00  0.00    -0.237 OA
ATOM     84  O   UNL A   1      45.943  19.833  25.378  1.00  0.00    -0.237 OA
ATOM     85  O   UNL A   1      43.808  18.612  25.334  1.00  0.00    -0.744 OA
ENDBRANCH  81  82
ENDBRANCH  49  74
BRANCH  61  86
ATOM     86  C   UNL A   1      44.351  27.450  31.482  1.00  0.00     0.058 A 
ATOM     87  C   UNL A   1      45.030  26.598  32.356  1.00  0.00     0.135 A 
ATOM     88  C   UNL A   1      43.037  27.803  31.860  1.00  0.00     0.135 A 
ATOM     89  F   UNL A   1      46.274  26.195  32.062  1.00  0.00    -0.206 F 
ATOM     90  C   UNL A   1      44.450  26.155  33.553  1.00  0.00     0.059 A 
ATOM     91  C   UNL A   1      42.440  27.391  33.050  1.00  0.00     0.059 A 
ATOM     92  F   UNL A   1      42.301  28.590  31.073  1.00  0.00    -0.206 F 
ATOM     93  C   UNL A   1      43.159  26.563  33.897  1.00  0.00     0.060 A 
BRANCH  93  94
ATOM     94  S   UNL A   1      42.439  26.017  35.463  1.00  0.00     0.124 S 
ATOM     95  O   UNL A   1      41.237  26.839  35.556  1.00  0.00    -0.237 OA
ATOM     96  O   UNL A   1      42.219  24.597  35.220  1.00  0.00    -0.237 OA
ATOM     97  O   UNL A   1      43.475  26.326  36.448  1.00  0.00    -0.744 OA
ENDBRANCH  93  94
ENDBRANCH  61  86
ENDBRANCH  35  36
ENDBRANCH  27  30
ENDBRANCH  25  26
ENDBRANCH  24  25
ENDBRANCH  23  24
ENDBRANCH   3  23
TORSDOF 19
ENDMDL
