MODEL 1
REMARK VINA RESULT:      -9.5      0.000      0.000
REMARK SMILES CC[N@@H+](C/C(Cl)=C/Cl)C[C@@H](C)C(=O)NCCCNC(=O)c1ccc(-c2c3nc(c(-c4c(F)cc(S(=O)(=O)[O-])cc4F)c4ccc([nH]4)c(-c4c(F)cc(S(=O)(=O)[O-])cc4F)c4nc(c(-c5c(F)cc(S(=O)(=O)[O-])cc5F)c5ccc2[nH]5)C=C4)C=C3)cc1
REMARK SMILES IDX 15 1 14 2 12 3 13 4 10 6 11 7 9 8 3 9 2 11 1 12 4 13 5 14
REMARK SMILES IDX 6 15 7 16 8 17 16 18 17 19 18 20 19 21 20 23 21 24 22 25
REMARK SMILES IDX 86 26 23 27 85 28 24 29 25 30 26 31 79 32 27 33 84 34 78 35
REMARK SMILES IDX 80 36 28 37 83 38 77 39 76 40 29 42 63 43 42 44 62 45 43 46
REMARK SMILES IDX 46 47 61 48 81 49 44 50 45 51 60 53 82 54 47 55 30 56 31 57
REMARK SMILES IDX 40 58 32 59 33 60 39 61 41 62 34 63 35 64 36 65 37 66 38 67
REMARK SMILES IDX 64 68 65 69 74 70 66 71 67 72 73 73 75 74 68 75 69 76 70 77
REMARK SMILES IDX 71 78 72 79 48 80 49 81 58 82 50 83 51 84 57 85 59 86 52 87
REMARK SMILES IDX 53 88 54 89 55 90 56 91
REMARK H PARENT 14 5 3 10 18 22 80 41 46 52
REMARK Flexibility Score: inf
ROOT
ATOM      1  C   UNL A   1      32.552  27.691  24.876  1.00  0.00     0.117 C 
ENDROOT
BRANCH   1   2
ATOM      2  N   UNL A   1      31.611  27.032  25.759  1.00  0.00    -0.356 N 
ATOM      3  C   UNL A   1      31.220  25.733  25.824  1.00  0.00     0.228 C 
ATOM      4  O   UNL A   1      30.339  25.442  26.636  1.00  0.00    -0.275 OA
ATOM      5  H   UNL A   1      31.184  27.623  26.420  1.00  0.00     0.163 HD
BRANCH   3   6
ATOM      6  C   UNL A   1      31.855  24.661  24.945  1.00  0.00     0.130 C 
ATOM      7  C   UNL A   1      31.003  24.424  23.699  1.00  0.00     0.024 C 
BRANCH   6   8
ATOM      8  C   UNL A   1      32.272  23.442  25.797  1.00  0.00     0.275 C 
BRANCH   8   9
ATOM      9  N   UNL A   1      32.956  22.301  25.182  1.00  0.00    -0.330 N 
ATOM     10  H   UNL A   1      33.413  21.947  26.023  1.00  0.00     0.348 HD
BRANCH   9  11
ATOM     11  C   UNL A   1      32.190  21.108  24.847  1.00  0.00     0.259 C 
ATOM     12  C   UNL A   1      33.014  19.826  24.763  1.00  0.00     0.071 C 
ENDBRANCH   9  11
BRANCH   9  13
ATOM     13  C   UNL A   1      34.079  22.619  24.295  1.00  0.00     0.312 C 
BRANCH  13  14
ATOM     14  C   UNL A   1      35.468  22.697  24.884  1.00  0.00     0.083 C 
ATOM     15  Cl  UNL A   1      36.369  21.210  24.820  1.00  0.00    -0.082 Cl
ATOM     16  C   UNL A   1      36.002  23.815  25.391  1.00  0.00     0.102 C 
ATOM     17  Cl  UNL A   1      37.546  23.957  26.121  1.00  0.00    -0.091 Cl
ENDBRANCH  13  14
ENDBRANCH   9  13
ENDBRANCH   8   9
ENDBRANCH   6   8
ENDBRANCH   3   6
ENDBRANCH   1   2
BRANCH   1  18
ATOM     18  C   UNL A   1      33.855  28.020  25.584  1.00  0.00     0.042 C 
BRANCH  18  19
ATOM     19  C   UNL A   1      33.675  28.251  27.074  1.00  0.00     0.118 C 
BRANCH  19  20
ATOM     20  N   UNL A   1      33.561  29.668  27.399  1.00  0.00    -0.352 N 
ATOM     21  C   UNL A   1      34.454  30.486  28.050  1.00  0.00     0.251 C 
ATOM     22  H   UNL A   1      32.725  30.101  27.111  1.00  0.00     0.163 HD
ATOM     23  O   UNL A   1      34.099  31.588  28.446  1.00  0.00    -0.269 OA
BRANCH  21  24
ATOM     24  C   UNL A   1      35.834  30.011  28.269  1.00  0.00     0.039 A 
ATOM     25  C   UNL A   1      36.764  30.103  27.233  1.00  0.00     0.014 A 
ATOM     26  C   UNL A   1      36.206  29.492  29.512  1.00  0.00     0.014 A 
ATOM     27  C   UNL A   1      38.088  29.731  27.466  1.00  0.00     0.010 A 
ATOM     28  C   UNL A   1      37.542  29.224  29.772  1.00  0.00     0.010 A 
ATOM     29  C   UNL A   1      38.494  29.321  28.747  1.00  0.00    -0.014 A 
BRANCH  29  30
ATOM     30  C   UNL A   1      39.899  28.953  29.043  1.00  0.00     0.031 A 
ATOM     31  C   UNL A   1      40.829  29.987  29.619  1.00  0.00     0.074 A 
ATOM     32  C   UNL A   1      40.354  27.727  28.720  1.00  0.00     0.049 A 
ATOM     33  N   UNL A   1      42.115  29.910  29.840  1.00  0.00    -0.248 NA
ATOM     34  C   UNL A   1      40.241  31.296  29.955  1.00  0.00     0.031 C 
ATOM     35  C   UNL A   1      39.556  26.659  28.112  1.00  0.00     0.029 A 
ATOM     36  N   UNL A   1      41.604  27.176  28.843  1.00  0.00    -0.354 N 
ATOM     37  C   UNL A   1      42.489  31.161  30.317  1.00  0.00     0.074 A 
ATOM     38  C   UNL A   1      41.311  31.997  30.294  1.00  0.00     0.031 C 
ATOM     39  C   UNL A   1      40.330  25.576  27.937  1.00  0.00     0.029 A 
ATOM     40  C   UNL A   1      41.687  25.885  28.377  1.00  0.00     0.049 A 
ATOM     41  H   UNL A   1      42.369  27.659  29.230  1.00  0.00     0.167 HD
ATOM     42  C   UNL A   1      43.702  31.567  30.763  1.00  0.00     0.037 A 
ATOM     43  C   UNL A   1      42.743  25.051  28.301  1.00  0.00     0.037 A 
ATOM     44  C   UNL A   1      44.860  30.715  30.813  1.00  0.00     0.049 A 
ATOM     45  C   UNL A   1      44.081  25.525  28.801  1.00  0.00     0.074 A 
ATOM     46  C   UNL A   1      46.121  31.006  31.301  1.00  0.00     0.029 A 
ATOM     47  N   UNL A   1      44.898  29.404  30.358  1.00  0.00    -0.354 N 
ATOM     48  N   UNL A   1      44.406  26.692  29.306  1.00  0.00    -0.248 NA
ATOM     49  C   UNL A   1      45.194  24.569  28.728  1.00  0.00     0.031 C 
ATOM     50  C   UNL A   1      46.935  29.887  31.097  1.00  0.00     0.029 A 
ATOM     51  C   UNL A   1      46.167  28.879  30.537  1.00  0.00     0.049 A 
ATOM     52  H   UNL A   1      44.136  28.920  29.968  1.00  0.00     0.167 HD
ATOM     53  C   UNL A   1      45.753  26.599  29.641  1.00  0.00     0.074 A 
ATOM     54  C   UNL A   1      46.177  25.259  29.289  1.00  0.00     0.031 C 
ATOM     55  C   UNL A   1      46.565  27.537  30.191  1.00  0.00     0.037 A 
BRANCH  42  56
ATOM     56  C   UNL A   1      43.833  32.990  31.235  1.00  0.00     0.058 A 
ATOM     57  C   UNL A   1      43.567  33.355  32.566  1.00  0.00     0.135 A 
ATOM     58  C   UNL A   1      44.253  33.998  30.354  1.00  0.00     0.135 A 
ATOM     59  F   UNL A   1      43.143  32.435  33.448  1.00  0.00    -0.206 F 
ATOM     60  C   UNL A   1      43.684  34.672  32.997  1.00  0.00     0.059 A 
ATOM     61  C   UNL A   1      44.409  35.317  30.772  1.00  0.00     0.059 A 
ATOM     62  F   UNL A   1      44.519  33.708  29.070  1.00  0.00    -0.206 F 
ATOM     63  C   UNL A   1      44.107  35.646  32.093  1.00  0.00     0.060 A 
BRANCH  63  64
ATOM     64  S   UNL A   1      44.263  37.348  32.673  1.00  0.00     0.124 S 
ATOM     65  O   UNL A   1      45.650  37.374  33.128  1.00  0.00    -0.237 OA
ATOM     66  O   UNL A   1      43.977  38.115  31.466  1.00  0.00    -0.237 OA
ATOM     67  O   UNL A   1      43.257  37.442  33.726  1.00  0.00    -0.744 OA
ENDBRANCH  63  64
ENDBRANCH  42  56
BRANCH  43  68
ATOM     68  C   UNL A   1      42.571  23.680  27.749  1.00  0.00     0.058 A 
ATOM     69  C   UNL A   1      42.603  23.450  26.365  1.00  0.00     0.135 A 
ATOM     70  C   UNL A   1      42.388  22.572  28.590  1.00  0.00     0.135 A 
ATOM     71  F   UNL A   1      42.771  24.478  25.520  1.00  0.00    -0.206 F 
ATOM     72  C   UNL A   1      42.439  22.176  25.833  1.00  0.00     0.059 A 
ATOM     73  C   UNL A   1      42.250  21.283  28.084  1.00  0.00     0.059 A 
ATOM     74  F   UNL A   1      42.370  22.733  29.923  1.00  0.00    -0.206 F 
ATOM     75  C   UNL A   1      42.265  21.097  26.701  1.00  0.00     0.060 A 
BRANCH  75  76
ATOM     76  S   UNL A   1      42.100  19.441  26.001  1.00  0.00     0.124 S 
ATOM     77  O   UNL A   1      42.666  18.615  27.061  1.00  0.00    -0.237 OA
ATOM     78  O   UNL A   1      40.658  19.333  25.807  1.00  0.00    -0.237 OA
ATOM     79  O   UNL A   1      42.886  19.517  24.772  1.00  0.00    -0.744 OA
ENDBRANCH  75  76
ENDBRANCH  43  68
BRANCH  55  80
ATOM     80  C   UNL A   1      47.983  27.136  30.490  1.00  0.00     0.058 A 
ATOM     81  C   UNL A   1      49.011  27.287  29.547  1.00  0.00     0.135 A 
ATOM     82  C   UNL A   1      48.327  26.651  31.764  1.00  0.00     0.135 A 
ATOM     83  F   UNL A   1      48.735  27.740  28.313  1.00  0.00    -0.206 F 
ATOM     84  C   UNL A   1      50.326  26.949  29.848  1.00  0.00     0.059 A 
ATOM     85  C   UNL A   1      49.639  26.337  32.095  1.00  0.00     0.059 A 
ATOM     86  F   UNL A   1      47.383  26.498  32.706  1.00  0.00    -0.206 F 
ATOM     87  C   UNL A   1      50.631  26.478  31.126  1.00  0.00     0.060 A 
BRANCH  87  88
ATOM     88  S   UNL A   1      52.348  26.080  31.515  1.00  0.00     0.124 S 
ATOM     89  O   UNL A   1      52.992  26.263  30.218  1.00  0.00    -0.237 OA
ATOM     90  O   UNL A   1      52.677  27.076  32.531  1.00  0.00    -0.237 OA
ATOM     91  O   UNL A   1      52.279  24.703  31.994  1.00  0.00    -0.744 OA
ENDBRANCH  87  88
ENDBRANCH  55  80
ENDBRANCH  29  30
ENDBRANCH  21  24
ENDBRANCH  19  20
ENDBRANCH  18  19
ENDBRANCH   1  18
TORSDOF 18
ENDMDL
MODEL 2
REMARK VINA RESULT:      -9.4      5.075     10.575
REMARK SMILES CC[N@@H+](C/C(Cl)=C/Cl)C[C@@H](C)C(=O)NCCCNC(=O)c1ccc(-c2c3nc(c(-c4c(F)cc(S(=O)(=O)[O-])cc4F)c4ccc([nH]4)c(-c4c(F)cc(S(=O)(=O)[O-])cc4F)c4nc(c(-c5c(F)cc(S(=O)(=O)[O-])cc5F)c5ccc2[nH]5)C=C4)C=C3)cc1
REMARK SMILES IDX 15 1 14 2 12 3 13 4 10 6 11 7 9 8 3 9 2 11 1 12 4 13 5 14
REMARK SMILES IDX 6 15 7 16 8 17 16 18 17 19 18 20 19 21 20 23 21 24 22 25
REMARK SMILES IDX 86 26 23 27 85 28 24 29 25 30 26 31 79 32 27 33 84 34 78 35
REMARK SMILES IDX 80 36 28 37 83 38 77 39 76 40 29 42 63 43 42 44 62 45 43 46
REMARK SMILES IDX 46 47 61 48 81 49 44 50 45 51 60 53 82 54 47 55 30 56 31 57
REMARK SMILES IDX 40 58 32 59 33 60 39 61 41 62 34 63 35 64 36 65 37 66 38 67
REMARK SMILES IDX 64 68 65 69 74 70 66 71 67 72 73 73 75 74 68 75 69 76 70 77
REMARK SMILES IDX 71 78 72 79 48 80 49 81 58 82 50 83 51 84 57 85 59 86 52 87
REMARK SMILES IDX 53 88 54 89 55 90 56 91
REMARK H PARENT 14 5 3 10 18 22 80 41 46 52
REMARK Flexibility Score: inf
ROOT
ATOM      1  C   UNL A   1      39.380  21.586  26.116  1.00  0.00     0.117 C 
ENDROOT
BRANCH   1   2
ATOM      2  N   UNL A   1      38.496  22.715  26.328  1.00  0.00    -0.356 N 
ATOM      3  C   UNL A   1      37.306  23.026  25.752  1.00  0.00     0.228 C 
ATOM      4  O   UNL A   1      36.784  24.098  26.066  1.00  0.00    -0.275 OA
ATOM      5  H   UNL A   1      38.810  23.363  26.999  1.00  0.00     0.163 HD
BRANCH   3   6
ATOM      6  C   UNL A   1      36.621  22.084  24.769  1.00  0.00     0.130 C 
ATOM      7  C   UNL A   1      36.638  22.681  23.363  1.00  0.00     0.024 C 
BRANCH   6   8
ATOM      8  C   UNL A   1      35.276  21.588  25.344  1.00  0.00     0.275 C 
BRANCH   8   9
ATOM      9  N   UNL A   1      34.013  21.920  24.680  1.00  0.00    -0.330 N 
ATOM     10  H   UNL A   1      34.403  22.232  23.790  1.00  0.00     0.348 HD
BRANCH   9  11
ATOM     11  C   UNL A   1      33.172  20.846  24.170  1.00  0.00     0.259 C 
ATOM     12  C   UNL A   1      33.105  19.611  25.065  1.00  0.00     0.071 C 
ENDBRANCH   9  11
BRANCH   9  13
ATOM     13  C   UNL A   1      33.312  23.108  25.177  1.00  0.00     0.312 C 
BRANCH  13  14
ATOM     14  C   UNL A   1      32.273  22.936  26.260  1.00  0.00     0.083 C 
ATOM     15  Cl  UNL A   1      32.916  22.550  27.830  1.00  0.00    -0.082 Cl
ATOM     16  C   UNL A   1      30.958  23.094  26.065  1.00  0.00     0.102 C 
ATOM     17  Cl  UNL A   1      29.727  22.861  27.234  1.00  0.00    -0.091 Cl
ENDBRANCH  13  14
ENDBRANCH   9  13
ENDBRANCH   8   9
ENDBRANCH   6   8
ENDBRANCH   3   6
ENDBRANCH   1   2
BRANCH   1  18
ATOM     18  C   UNL A   1      40.566  21.612  27.064  1.00  0.00     0.042 C 
BRANCH  18  19
ATOM     19  C   UNL A   1      40.991  23.021  27.439  1.00  0.00     0.118 C 
BRANCH  19  20
ATOM     20  N   UNL A   1      41.493  23.766  26.291  1.00  0.00    -0.352 N 
ATOM     21  C   UNL A   1      41.636  25.123  26.129  1.00  0.00     0.251 C 
ATOM     22  H   UNL A   1      41.769  23.218  25.520  1.00  0.00     0.163 HD
ATOM     23  O   UNL A   1      41.850  25.589  25.017  1.00  0.00    -0.269 OA
BRANCH  21  24
ATOM     24  C   UNL A   1      41.518  26.003  27.308  1.00  0.00     0.039 A 
ATOM     25  C   UNL A   1      42.540  26.911  27.591  1.00  0.00     0.014 A 
ATOM     26  C   UNL A   1      40.384  25.937  28.121  1.00  0.00     0.014 A 
ATOM     27  C   UNL A   1      42.391  27.799  28.657  1.00  0.00     0.010 A 
ATOM     28  C   UNL A   1      40.192  26.888  29.111  1.00  0.00     0.010 A 
ATOM     29  C   UNL A   1      41.201  27.817  29.403  1.00  0.00    -0.014 A 
BRANCH  29  30
ATOM     30  C   UNL A   1      40.991  28.769  30.519  1.00  0.00     0.031 A 
ATOM     31  C   UNL A   1      41.816  28.636  31.771  1.00  0.00     0.074 A 
ATOM     32  C   UNL A   1      40.012  29.692  30.439  1.00  0.00     0.049 A 
ATOM     33  N   UNL A   1      41.713  29.284  32.901  1.00  0.00    -0.248 NA
ATOM     34  C   UNL A   1      42.873  27.609  31.763  1.00  0.00     0.031 C 
ATOM     35  C   UNL A   1      39.117  29.882  29.295  1.00  0.00     0.029 A 
ATOM     36  N   UNL A   1      39.594  30.634  31.345  1.00  0.00    -0.354 N 
ATOM     37  C   UNL A   1      42.672  28.729  33.741  1.00  0.00     0.074 A 
ATOM     38  C   UNL A   1      43.303  27.651  33.014  1.00  0.00     0.031 C 
ATOM     39  C   UNL A   1      38.273  30.893  29.559  1.00  0.00     0.029 A 
ATOM     40  C   UNL A   1      38.534  31.392  30.905  1.00  0.00     0.049 A 
ATOM     41  H   UNL A   1      40.014  30.756  32.227  1.00  0.00     0.167 HD
ATOM     42  C   UNL A   1      43.015  29.105  34.996  1.00  0.00     0.037 A 
ATOM     43  C   UNL A   1      37.845  32.369  31.525  1.00  0.00     0.037 A 
ATOM     44  C   UNL A   1      42.402  30.201  35.696  1.00  0.00     0.049 A 
ATOM     45  C   UNL A   1      38.244  32.769  32.920  1.00  0.00     0.074 A 
ATOM     46  C   UNL A   1      42.714  30.705  36.946  1.00  0.00     0.029 A 
ATOM     47  N   UNL A   1      41.352  30.964  35.206  1.00  0.00    -0.354 N 
ATOM     48  N   UNL A   1      39.195  32.275  33.679  1.00  0.00    -0.248 NA
ATOM     49  C   UNL A   1      37.484  33.861  33.541  1.00  0.00     0.031 C 
ATOM     50  C   UNL A   1      41.820  31.741  37.233  1.00  0.00     0.029 A 
ATOM     51  C   UNL A   1      40.990  31.923  36.138  1.00  0.00     0.049 A 
ATOM     52  H   UNL A   1      40.927  30.843  34.327  1.00  0.00     0.167 HD
ATOM     53  C   UNL A   1      39.168  33.018  34.854  1.00  0.00     0.074 A 
ATOM     54  C   UNL A   1      38.113  34.000  34.700  1.00  0.00     0.031 C 
ATOM     55  C   UNL A   1      39.944  32.900  35.960  1.00  0.00     0.037 A 
BRANCH  42  56
ATOM     56  C   UNL A   1      44.104  28.327  35.684  1.00  0.00     0.058 A 
ATOM     57  C   UNL A   1      43.817  27.232  36.518  1.00  0.00     0.135 A 
ATOM     58  C   UNL A   1      45.453  28.662  35.490  1.00  0.00     0.135 A 
ATOM     59  F   UNL A   1      42.544  26.878  36.755  1.00  0.00    -0.206 F 
ATOM     60  C   UNL A   1      44.826  26.519  37.156  1.00  0.00     0.059 A 
ATOM     61  C   UNL A   1      46.481  27.941  36.092  1.00  0.00     0.059 A 
ATOM     62  F   UNL A   1      45.786  29.700  34.706  1.00  0.00    -0.206 F 
ATOM     63  C   UNL A   1      46.155  26.880  36.936  1.00  0.00     0.060 A 
BRANCH  63  64
ATOM     64  S   UNL A   1      47.451  25.936  37.766  1.00  0.00     0.124 S 
ATOM     65  O   UNL A   1      46.664  24.971  38.528  1.00  0.00    -0.237 OA
ATOM     66  O   UNL A   1      48.207  25.393  36.643  1.00  0.00    -0.237 OA
ATOM     67  O   UNL A   1      48.149  26.942  38.560  1.00  0.00    -0.744 OA
ENDBRANCH  63  64
ENDBRANCH  42  56
BRANCH  43  68
ATOM     68  C   UNL A   1      36.723  33.049  30.823  1.00  0.00     0.058 A 
ATOM     69  C   UNL A   1      36.963  34.122  29.951  1.00  0.00     0.135 A 
ATOM     70  C   UNL A   1      35.394  32.635  30.997  1.00  0.00     0.135 A 
ATOM     71  F   UNL A   1      38.216  34.558  29.755  1.00  0.00    -0.206 F 
ATOM     72  C   UNL A   1      35.926  34.773  29.292  1.00  0.00     0.059 A 
ATOM     73  C   UNL A   1      34.341  33.251  30.327  1.00  0.00     0.059 A 
ATOM     74  F   UNL A   1      35.111  31.601  31.804  1.00  0.00    -0.206 F 
ATOM     75  C   UNL A   1      34.617  34.328  29.485  1.00  0.00     0.060 A 
BRANCH  75  76
ATOM     76  S   UNL A   1      33.283  35.151  28.588  1.00  0.00     0.124 S 
ATOM     77  O   UNL A   1      32.638  34.025  27.923  1.00  0.00    -0.237 OA
ATOM     78  O   UNL A   1      32.526  35.774  29.669  1.00  0.00    -0.237 OA
ATOM     79  O   UNL A   1      33.992  36.080  27.712  1.00  0.00    -0.744 OA
ENDBRANCH  75  76
ENDBRANCH  43  68
BRANCH  55  80
ATOM     80  C   UNL A   1      39.718  33.884  37.074  1.00  0.00     0.058 A 
ATOM     81  C   UNL A   1      38.864  33.601  38.151  1.00  0.00     0.135 A 
ATOM     82  C   UNL A   1      40.417  35.104  37.093  1.00  0.00     0.135 A 
ATOM     83  F   UNL A   1      38.169  32.453  38.178  1.00  0.00    -0.206 F 
ATOM     84  C   UNL A   1      38.692  34.503  39.196  1.00  0.00     0.059 A 
ATOM     85  C   UNL A   1      40.283  36.005  38.142  1.00  0.00     0.059 A 
ATOM     86  F   UNL A   1      41.255  35.418  36.092  1.00  0.00    -0.206 F 
ATOM     87  C   UNL A   1      39.409  35.701  39.185  1.00  0.00     0.060 A 
BRANCH  87  88
ATOM     88  S   UNL A   1      39.205  36.844  40.566  1.00  0.00     0.124 S 
ATOM     89  O   UNL A   1      38.558  35.993  41.558  1.00  0.00    -0.237 OA
ATOM     90  O   UNL A   1      40.584  37.225  40.861  1.00  0.00    -0.237 OA
ATOM     91  O   UNL A   1      38.373  37.906  40.010  1.00  0.00    -0.744 OA
ENDBRANCH  87  88
ENDBRANCH  55  80
ENDBRANCH  29  30
ENDBRANCH  21  24
ENDBRANCH  19  20
ENDBRANCH  18  19
ENDBRANCH   1  18
TORSDOF 18
ENDMDL
MODEL 3
REMARK VINA RESULT:      -9.4      6.019     11.630
REMARK SMILES CC[N@@H+](C/C(Cl)=C/Cl)C[C@@H](C)C(=O)NCCCNC(=O)c1ccc(-c2c3nc(c(-c4c(F)cc(S(=O)(=O)[O-])cc4F)c4ccc([nH]4)c(-c4c(F)cc(S(=O)(=O)[O-])cc4F)c4nc(c(-c5c(F)cc(S(=O)(=O)[O-])cc5F)c5ccc2[nH]5)C=C4)C=C3)cc1
REMARK SMILES IDX 15 1 14 2 12 3 13 4 10 6 11 7 9 8 3 9 2 11 1 12 4 13 5 14
REMARK SMILES IDX 6 15 7 16 8 17 16 18 17 19 18 20 19 21 20 23 21 24 22 25
REMARK SMILES IDX 86 26 23 27 85 28 24 29 25 30 26 31 79 32 27 33 84 34 78 35
REMARK SMILES IDX 80 36 28 37 83 38 77 39 76 40 29 42 63 43 42 44 62 45 43 46
REMARK SMILES IDX 46 47 61 48 81 49 44 50 45 51 60 53 82 54 47 55 30 56 31 57
REMARK SMILES IDX 40 58 32 59 33 60 39 61 41 62 34 63 35 64 36 65 37 66 38 67
REMARK SMILES IDX 64 68 65 69 74 70 66 71 67 72 73 73 75 74 68 75 69 76 70 77
REMARK SMILES IDX 71 78 72 79 48 80 49 81 58 82 50 83 51 84 57 85 59 86 52 87
REMARK SMILES IDX 53 88 54 89 55 90 56 91
REMARK H PARENT 14 5 3 10 18 22 80 41 46 52
REMARK Flexibility Score: inf
ROOT
ATOM      1  C   UNL A   1      41.584  21.101  26.271  1.00  0.00     0.117 C 
ENDROOT
BRANCH   1   2
ATOM      2  N   UNL A   1      42.306  19.846  26.339  1.00  0.00    -0.356 N 
ATOM      3  C   UNL A   1      43.461  19.457  25.739  1.00  0.00     0.228 C 
ATOM      4  O   UNL A   1      43.829  18.293  25.912  1.00  0.00    -0.275 OA
ATOM      5  H   UNL A   1      41.891  19.164  26.913  1.00  0.00     0.163 HD
BRANCH   3   6
ATOM      6  C   UNL A   1      44.292  20.421  24.900  1.00  0.00     0.130 C 
ATOM      7  C   UNL A   1      44.934  19.682  23.726  1.00  0.00     0.024 C 
BRANCH   6   8
ATOM      8  C   UNL A   1      45.191  21.289  25.806  1.00  0.00     0.275 C 
BRANCH   8   9
ATOM      9  N   UNL A   1      44.736  22.601  26.273  1.00  0.00    -0.330 N 
ATOM     10  H   UNL A   1      43.818  22.314  26.613  1.00  0.00     0.348 HD
BRANCH   9  11
ATOM     11  C   UNL A   1      45.260  23.133  27.524  1.00  0.00     0.259 C 
ATOM     12  C   UNL A   1      44.200  23.459  28.571  1.00  0.00     0.071 C 
ENDBRANCH   9  11
BRANCH   9  13
ATOM     13  C   UNL A   1      44.420  23.586  25.234  1.00  0.00     0.312 C 
BRANCH  13  14
ATOM     14  C   UNL A   1      45.356  24.756  25.037  1.00  0.00     0.083 C 
ATOM     15  Cl  UNL A   1      46.980  24.320  24.592  1.00  0.00    -0.082 Cl
ATOM     16  C   UNL A   1      44.984  26.037  25.157  1.00  0.00     0.102 C 
ATOM     17  Cl  UNL A   1      46.006  27.404  25.000  1.00  0.00    -0.091 Cl
ENDBRANCH  13  14
ENDBRANCH   9  13
ENDBRANCH   8   9
ENDBRANCH   6   8
ENDBRANCH   3   6
ENDBRANCH   1   2
BRANCH   1  18
ATOM     18  C   UNL A   1      41.002  21.492  27.619  1.00  0.00     0.042 C 
BRANCH  18  19
ATOM     19  C   UNL A   1      40.706  22.977  27.724  1.00  0.00     0.118 C 
BRANCH  19  20
ATOM     20  N   UNL A   1      41.136  23.708  26.539  1.00  0.00    -0.352 N 
ATOM     21  C   UNL A   1      41.243  25.064  26.344  1.00  0.00     0.251 C 
ATOM     22  H   UNL A   1      41.387  23.150  25.767  1.00  0.00     0.163 HD
ATOM     23  O   UNL A   1      41.393  25.511  25.214  1.00  0.00    -0.269 OA
BRANCH  21  24
ATOM     24  C   UNL A   1      41.162  25.966  27.509  1.00  0.00     0.039 A 
ATOM     25  C   UNL A   1      42.219  26.837  27.778  1.00  0.00     0.014 A 
ATOM     26  C   UNL A   1      40.027  25.957  28.325  1.00  0.00     0.014 A 
ATOM     27  C   UNL A   1      42.107  27.746  28.830  1.00  0.00     0.010 A 
ATOM     28  C   UNL A   1      39.874  26.930  29.300  1.00  0.00     0.010 A 
ATOM     29  C   UNL A   1      40.920  27.822  29.577  1.00  0.00    -0.014 A 
BRANCH  29  30
ATOM     30  C   UNL A   1      40.750  28.799  30.679  1.00  0.00     0.031 A 
ATOM     31  C   UNL A   1      41.588  28.666  31.922  1.00  0.00     0.074 A 
ATOM     32  C   UNL A   1      39.794  29.746  30.595  1.00  0.00     0.049 A 
ATOM     33  N   UNL A   1      41.517  29.336  33.042  1.00  0.00    -0.248 NA
ATOM     34  C   UNL A   1      42.618  27.612  31.919  1.00  0.00     0.031 C 
ATOM     35  C   UNL A   1      38.889  29.939  29.460  1.00  0.00     0.029 A 
ATOM     36  N   UNL A   1      39.414  30.713  31.490  1.00  0.00    -0.354 N 
ATOM     37  C   UNL A   1      42.473  28.771  33.879  1.00  0.00     0.074 A 
ATOM     38  C   UNL A   1      43.066  27.665  33.163  1.00  0.00     0.031 C 
ATOM     39  C   UNL A   1      38.075  30.976  29.718  1.00  0.00     0.029 A 
ATOM     40  C   UNL A   1      38.368  31.491  31.051  1.00  0.00     0.049 A 
ATOM     41  H   UNL A   1      39.848  30.840  32.364  1.00  0.00     0.167 HD
ATOM     42  C   UNL A   1      42.843  29.159  35.122  1.00  0.00     0.037 A 
ATOM     43  C   UNL A   1      37.712  32.496  31.662  1.00  0.00     0.037 A 
ATOM     44  C   UNL A   1      42.268  30.284  35.811  1.00  0.00     0.049 A 
ATOM     45  C   UNL A   1      38.141  32.910  33.045  1.00  0.00     0.074 A 
ATOM     46  C   UNL A   1      42.610  30.800  37.048  1.00  0.00     0.029 A 
ATOM     47  N   UNL A   1      41.231  31.065  35.322  1.00  0.00    -0.354 N 
ATOM     48  N   UNL A   1      39.088  32.405  33.800  1.00  0.00    -0.248 NA
ATOM     49  C   UNL A   1      37.418  34.032  33.657  1.00  0.00     0.031 C 
ATOM     50  C   UNL A   1      41.747  31.864  37.328  1.00  0.00     0.029 A 
ATOM     51  C   UNL A   1      40.907  32.049  36.241  1.00  0.00     0.049 A 
ATOM     52  H   UNL A   1      40.792  30.939  34.451  1.00  0.00     0.167 HD
ATOM     53  C   UNL A   1      39.096  33.168  34.962  1.00  0.00     0.074 A 
ATOM     54  C   UNL A   1      38.066  34.175  34.805  1.00  0.00     0.031 C 
ATOM     55  C   UNL A   1      39.885  33.050  36.059  1.00  0.00     0.037 A 
BRANCH  42  56
ATOM     56  C   UNL A   1      43.921  28.366  35.810  1.00  0.00     0.058 A 
ATOM     57  C   UNL A   1      45.284  28.658  35.629  1.00  0.00     0.135 A 
ATOM     58  C   UNL A   1      43.590  27.317  36.681  1.00  0.00     0.135 A 
ATOM     59  F   UNL A   1      45.660  29.639  34.793  1.00  0.00    -0.206 F 
ATOM     60  C   UNL A   1      46.278  27.920  36.263  1.00  0.00     0.059 A 
ATOM     61  C   UNL A   1      44.567  26.585  37.352  1.00  0.00     0.059 A 
ATOM     62  F   UNL A   1      42.304  26.991  36.890  1.00  0.00    -0.206 F 
ATOM     63  C   UNL A   1      45.909  26.886  37.123  1.00  0.00     0.060 A 
BRANCH  63  64
ATOM     64  S   UNL A   1      47.212  25.944  37.944  1.00  0.00     0.124 S 
ATOM     65  O   UNL A   1      46.483  25.355  39.064  1.00  0.00    -0.237 OA
ATOM     66  O   UNL A   1      47.629  25.015  36.900  1.00  0.00    -0.237 OA
ATOM     67  O   UNL A   1      48.194  26.963  38.303  1.00  0.00    -0.744 OA
ENDBRANCH  63  64
ENDBRANCH  42  56
BRANCH  43  68
ATOM     68  C   UNL A   1      36.599  33.194  30.964  1.00  0.00     0.058 A 
ATOM     69  C   UNL A   1      36.857  34.115  29.938  1.00  0.00     0.135 A 
ATOM     70  C   UNL A   1      35.258  32.944  31.295  1.00  0.00     0.135 A 
ATOM     71  F   UNL A   1      38.121  34.391  29.587  1.00  0.00    -0.206 F 
ATOM     72  C   UNL A   1      35.828  34.780  29.278  1.00  0.00     0.059 A 
ATOM     73  C   UNL A   1      34.210  33.575  30.632  1.00  0.00     0.059 A 
ATOM     74  F   UNL A   1      34.955  32.057  32.256  1.00  0.00    -0.206 F 
ATOM     75  C   UNL A   1      34.506  34.502  29.631  1.00  0.00     0.060 A 
BRANCH  75  76
ATOM     76  S   UNL A   1      33.178  35.336  28.736  1.00  0.00     0.124 S 
ATOM     77  O   UNL A   1      33.926  36.272  27.906  1.00  0.00    -0.237 OA
ATOM     78  O   UNL A   1      32.540  34.228  28.034  1.00  0.00    -0.237 OA
ATOM     79  O   UNL A   1      32.381  35.935  29.803  1.00  0.00    -0.744 OA
ENDBRANCH  75  76
ENDBRANCH  43  68
BRANCH  55  80
ATOM     80  C   UNL A   1      39.699  34.058  37.159  1.00  0.00     0.058 A 
ATOM     81  C   UNL A   1      38.927  33.781  38.297  1.00  0.00     0.135 A 
ATOM     82  C   UNL A   1      40.357  35.299  37.098  1.00  0.00     0.135 A 
ATOM     83  F   UNL A   1      38.273  32.613  38.402  1.00  0.00    -0.206 F 
ATOM     84  C   UNL A   1      38.794  34.707  39.326  1.00  0.00     0.059 A 
ATOM     85  C   UNL A   1      40.263  36.226  38.129  1.00  0.00     0.059 A 
ATOM     86  F   UNL A   1      41.117  35.610  36.036  1.00  0.00    -0.206 F 
ATOM     87  C   UNL A   1      39.468  35.926  39.235  1.00  0.00     0.060 A 
BRANCH  87  88
ATOM     88  S   UNL A   1      39.317  37.102  40.595  1.00  0.00     0.124 S 
ATOM     89  O   UNL A   1      40.687  37.590  40.714  1.00  0.00    -0.237 OA
ATOM     90  O   UNL A   1      38.347  38.060  40.073  1.00  0.00    -0.237 OA
ATOM     91  O   UNL A   1      38.844  36.281  41.705  1.00  0.00    -0.744 OA
ENDBRANCH  87  88
ENDBRANCH  55  80
ENDBRANCH  29  30
ENDBRANCH  21  24
ENDBRANCH  19  20
ENDBRANCH  18  19
ENDBRANCH   1  18
TORSDOF 18
ENDMDL
