MODEL 1
REMARK VINA RESULT:     -13.5      0.000      0.000
REMARK SMILES O=C(NCCCNC(=O)c1ccc(-c2c3nc(c(-c4c(F)cc(S(=O)(=O)[O-])cc4F)c4ccc([nH]4)c(-c4c(F)cc(S(=O)(=O)[O-])cc4F)c4nc(c(-c5c(F)cc(S(=O)(=O)[O-])cc5F)c5ccc2[nH]5)C=C4)C=C3)cc1)C1=NN(c2ccc(S(=O)(=O)[O-])cc2)C(=O)/C1=C/Nc1ccccc1
REMARK SMILES IDX 5 1 4 2 3 3 1 4 2 5 76 7 77 8 91 9 78 10 89 11 92 12 90 13
REMARK SMILES IDX 79 14 80 15 88 16 81 17 87 18 82 19 83 20 84 21 85 22 86 23
REMARK SMILES IDX 93 24 94 26 95 27 99 28 96 29 98 30 97 31 6 32 7 33 8 34
REMARK SMILES IDX 9 36 10 37 11 38 75 39 12 40 74 41 13 42 14 43 15 44 68 45
REMARK SMILES IDX 16 46 73 47 67 48 69 49 17 50 72 51 66 52 65 53 18 55 52 56
REMARK SMILES IDX 31 57 51 58 32 59 35 60 50 61 70 62 33 63 34 64 49 66 71 67
REMARK SMILES IDX 36 68 19 69 20 70 29 71 21 72 22 73 28 74 30 75 23 76 24 77
REMARK SMILES IDX 25 78 26 79 27 80 53 81 54 82 63 83 55 84 56 85 62 86 64 87
REMARK SMILES IDX 57 88 58 89 59 90 60 91 61 92 37 93 38 94 47 95 39 96 40 97
REMARK SMILES IDX 46 98 48 99 41 100 42 101 43 102 44 103 45 104
REMARK H PARENT 3 6 93 25 7 35 69 54 35 65
REMARK Flexibility Score: inf
ROOT
ATOM      1  C   UNL A   1      33.967  29.754  26.518  1.00  0.00     0.042 C 
ENDROOT
BRANCH   1   2
ATOM      2  C   UNL A   1      33.442  28.639  25.630  1.00  0.00     0.118 C 
BRANCH   2   3
ATOM      3  N   UNL A   1      33.909  28.741  24.256  1.00  0.00    -0.351 N 
ATOM      4  O   UNL A   1      33.937  28.221  22.051  1.00  0.00    -0.267 OA
ATOM      5  C   UNL A   1      33.613  27.925  23.194  1.00  0.00     0.272 C 
ATOM      6  H   UNL A   1      34.515  29.493  24.064  1.00  0.00     0.163 HD
BRANCH   5   7
ATOM      7  C   UNL A   1      32.797  26.691  23.411  1.00  0.00     0.163 C 
ATOM      8  N   UNL A   1      33.301  25.535  23.761  1.00  0.00    -0.158 NA
ATOM      9  C   UNL A   1      31.348  26.645  23.218  1.00  0.00     0.091 C 
ATOM     10  N   UNL A   1      32.215  24.654  23.790  1.00  0.00    -0.196 N 
ATOM     11  C   UNL A   1      30.972  25.264  23.559  1.00  0.00     0.282 C 
ATOM     12  C   UNL A   1      30.475  27.563  22.801  1.00  0.00     0.099 C 
ATOM     13  O   UNL A   1      29.836  24.824  23.565  1.00  0.00    -0.267 OA
BRANCH  10  14
ATOM     14  C   UNL A   1      32.470  23.263  23.821  1.00  0.00     0.069 A 
ATOM     15  C   UNL A   1      32.042  22.421  22.783  1.00  0.00     0.030 A 
ATOM     16  C   UNL A   1      33.084  22.685  24.943  1.00  0.00     0.030 A 
ATOM     17  C   UNL A   1      32.228  21.034  22.865  1.00  0.00     0.021 A 
ATOM     18  C   UNL A   1      33.245  21.302  25.047  1.00  0.00     0.021 A 
ATOM     19  C   UNL A   1      32.824  20.483  24.003  1.00  0.00     0.054 A 
BRANCH  19  20
ATOM     20  S   UNL A   1      32.984  18.727  24.139  1.00  0.00     0.124 S 
ATOM     21  O   UNL A   1      32.369  18.126  22.978  1.00  0.00    -0.237 OA
ATOM     22  O   UNL A   1      34.346  18.433  24.527  1.00  0.00    -0.237 OA
ATOM     23  O   UNL A   1      32.084  18.307  25.414  1.00  0.00    -0.744 OA
ENDBRANCH  19  20
ENDBRANCH  10  14
BRANCH  12  24
ATOM     24  N   UNL A   1      30.709  28.811  22.284  1.00  0.00    -0.361 N 
ATOM     25  H   UNL A   1      31.544  28.928  21.777  1.00  0.00     0.166 HD
BRANCH  24  26
ATOM     26  C   UNL A   1      29.881  29.937  22.402  1.00  0.00     0.038 A 
ATOM     27  C   UNL A   1      29.683  30.504  23.667  1.00  0.00     0.026 A 
ATOM     28  C   UNL A   1      29.286  30.550  21.293  1.00  0.00     0.026 A 
ATOM     29  C   UNL A   1      28.890  31.642  23.825  1.00  0.00     0.002 A 
ATOM     30  C   UNL A   1      28.472  31.675  21.451  1.00  0.00     0.002 A 
ATOM     31  C   UNL A   1      28.277  32.222  22.718  1.00  0.00     0.000 A 
ENDBRANCH  24  26
ENDBRANCH  12  24
ENDBRANCH   5   7
ENDBRANCH   2   3
ENDBRANCH   1   2
BRANCH   1  32
ATOM     32  C   UNL A   1      34.815  29.274  27.687  1.00  0.00     0.118 C 
BRANCH  32  33
ATOM     33  N   UNL A   1      34.983  30.275  28.736  1.00  0.00    -0.352 N 
ATOM     34  C   UNL A   1      36.096  30.580  29.488  1.00  0.00     0.251 C 
ATOM     35  H   UNL A   1      34.182  30.812  28.935  1.00  0.00     0.163 HD
ATOM     36  O   UNL A   1      36.010  31.375  30.419  1.00  0.00    -0.269 OA
BRANCH  34  37
ATOM     37  C   UNL A   1      37.383  29.914  29.196  1.00  0.00     0.039 A 
ATOM     38  C   UNL A   1      37.863  29.901  27.883  1.00  0.00     0.014 A 
ATOM     39  C   UNL A   1      38.138  29.346  30.223  1.00  0.00     0.014 A 
ATOM     40  C   UNL A   1      39.148  29.416  27.621  1.00  0.00     0.010 A 
ATOM     41  C   UNL A   1      39.448  28.956  29.977  1.00  0.00     0.010 A 
ATOM     42  C   UNL A   1      39.972  28.996  28.676  1.00  0.00    -0.014 A 
BRANCH  42  43
ATOM     43  C   UNL A   1      41.386  28.587  28.470  1.00  0.00     0.031 A 
ATOM     44  C   UNL A   1      42.470  29.629  28.493  1.00  0.00     0.074 A 
ATOM     45  C   UNL A   1      41.682  27.311  28.147  1.00  0.00     0.049 A 
ATOM     46  N   UNL A   1      43.722  29.531  28.133  1.00  0.00    -0.248 NA
ATOM     47  C   UNL A   1      42.076  30.974  28.942  1.00  0.00     0.031 C 
ATOM     48  C   UNL A   1      40.722  26.209  28.065  1.00  0.00     0.029 A 
ATOM     49  N   UNL A   1      42.879  26.732  27.805  1.00  0.00    -0.354 N 
ATOM     50  C   UNL A   1      44.257  30.806  28.277  1.00  0.00     0.074 A 
ATOM     51  C   UNL A   1      43.179  31.669  28.713  1.00  0.00     0.031 C 
ATOM     52  C   UNL A   1      41.369  25.086  27.716  1.00  0.00     0.029 A 
ATOM     53  C   UNL A   1      42.778  25.395  27.498  1.00  0.00     0.049 A 
ATOM     54  H   UNL A   1      43.729  27.227  27.781  1.00  0.00     0.167 HD
ATOM     55  C   UNL A   1      45.533  31.218  28.084  1.00  0.00     0.037 A 
ATOM     56  C   UNL A   1      43.711  24.522  27.072  1.00  0.00     0.037 A 
ATOM     57  C   UNL A   1      46.606  30.347  27.686  1.00  0.00     0.049 A 
ATOM     58  C   UNL A   1      45.122  24.999  26.861  1.00  0.00     0.074 A 
ATOM     59  C   UNL A   1      47.943  30.656  27.502  1.00  0.00     0.029 A 
ATOM     60  N   UNL A   1      46.468  28.993  27.420  1.00  0.00    -0.354 N 
ATOM     61  N   UNL A   1      45.616  26.204  27.019  1.00  0.00    -0.248 NA
ATOM     62  C   UNL A   1      46.102  24.000  26.411  1.00  0.00     0.031 C 
ATOM     63  C   UNL A   1      48.607  29.493  27.098  1.00  0.00     0.029 A 
ATOM     64  C   UNL A   1      47.692  28.451  27.070  1.00  0.00     0.049 A 
ATOM     65  H   UNL A   1      45.623  28.491  27.475  1.00  0.00     0.167 HD
ATOM     66  C   UNL A   1      46.971  26.101  26.722  1.00  0.00     0.074 A 
ATOM     67  C   UNL A   1      47.218  24.717  26.372  1.00  0.00     0.031 C 
ATOM     68  C   UNL A   1      47.923  27.065  26.745  1.00  0.00     0.037 A 
BRANCH  55  69
ATOM     69  C   UNL A   1      45.822  32.678  28.299  1.00  0.00     0.058 A 
ATOM     70  C   UNL A   1      46.195  33.177  29.557  1.00  0.00     0.135 A 
ATOM     71  C   UNL A   1      45.711  33.592  27.240  1.00  0.00     0.135 A 
ATOM     72  F   UNL A   1      46.299  32.348  30.609  1.00  0.00    -0.206 F 
ATOM     73  C   UNL A   1      46.396  34.536  29.772  1.00  0.00     0.059 A 
ATOM     74  C   UNL A   1      45.938  34.953  27.423  1.00  0.00     0.059 A 
ATOM     75  F   UNL A   1      45.361  33.170  26.014  1.00  0.00    -0.206 F 
ATOM     76  C   UNL A   1      46.255  35.418  28.700  1.00  0.00     0.060 A 
BRANCH  76  77
ATOM     77  S   UNL A   1      46.480  37.184  28.998  1.00  0.00     0.124 S 
ATOM     78  O   UNL A   1      47.244  37.580  27.819  1.00  0.00    -0.237 OA
ATOM     79  O   UNL A   1      45.107  37.671  29.056  1.00  0.00    -0.237 OA
ATOM     80  O   UNL A   1      47.210  37.224  30.261  1.00  0.00    -0.744 OA
ENDBRANCH  76  77
ENDBRANCH  55  69
BRANCH  56  81
ATOM     81  C   UNL A   1      43.345  23.099  26.848  1.00  0.00     0.058 A 
ATOM     82  C   UNL A   1      43.261  22.584  25.545  1.00  0.00     0.135 A 
ATOM     83  C   UNL A   1      43.105  22.221  27.915  1.00  0.00     0.135 A 
ATOM     84  F   UNL A   1      43.475  23.386  24.492  1.00  0.00    -0.206 F 
ATOM     85  C   UNL A   1      42.947  21.250  25.308  1.00  0.00     0.059 A 
ATOM     86  C   UNL A   1      42.810  20.877  27.704  1.00  0.00     0.059 A 
ATOM     87  F   UNL A   1      43.189  22.663  29.180  1.00  0.00    -0.206 F 
ATOM     88  C   UNL A   1      42.729  20.402  26.395  1.00  0.00     0.060 A 
BRANCH  88  89
ATOM     89  S   UNL A   1      42.390  18.657  26.076  1.00  0.00     0.124 S 
ATOM     90  O   UNL A   1      42.731  18.052  27.358  1.00  0.00    -0.237 OA
ATOM     91  O   UNL A   1      40.971  18.678  25.735  1.00  0.00    -0.237 OA
ATOM     92  O   UNL A   1      43.287  18.340  24.968  1.00  0.00    -0.744 OA
ENDBRANCH  88  89
ENDBRANCH  56  81
BRANCH  68  93
ATOM     93  C   UNL A   1      49.335  26.654  26.436  1.00  0.00     0.058 A 
ATOM     94  C   UNL A   1      50.111  25.931  27.353  1.00  0.00     0.135 A 
ATOM     95  C   UNL A   1      49.886  26.924  25.173  1.00  0.00     0.135 A 
ATOM     96  F   UNL A   1      49.633  25.655  28.576  1.00  0.00    -0.206 F 
ATOM     97  C   UNL A   1      51.394  25.496  27.031  1.00  0.00     0.059 A 
ATOM     98  C   UNL A   1      51.157  26.480  24.822  1.00  0.00     0.059 A 
ATOM     99  F   UNL A   1      49.179  27.606  24.258  1.00  0.00    -0.206 F 
ATOM    100  C   UNL A   1      51.906  25.772  25.761  1.00  0.00     0.060 A 
BRANCH 100 101
ATOM    101  S   UNL A   1      53.547  25.153  25.334  1.00  0.00     0.124 S 
ATOM    102  O   UNL A   1      53.598  25.419  23.901  1.00  0.00    -0.237 OA
ATOM    103  O   UNL A   1      54.419  25.979  26.163  1.00  0.00    -0.237 OA
ATOM    104  O   UNL A   1      53.487  23.744  25.711  1.00  0.00    -0.744 OA
ENDBRANCH 100 101
ENDBRANCH  68  93
ENDBRANCH  42  43
ENDBRANCH  34  37
ENDBRANCH  32  33
ENDBRANCH   1  32
TORSDOF 17
ENDMDL
MODEL 2
REMARK VINA RESULT:     -13.3      6.473     12.248
REMARK SMILES O=C(NCCCNC(=O)c1ccc(-c2c3nc(c(-c4c(F)cc(S(=O)(=O)[O-])cc4F)c4ccc([nH]4)c(-c4c(F)cc(S(=O)(=O)[O-])cc4F)c4nc(c(-c5c(F)cc(S(=O)(=O)[O-])cc5F)c5ccc2[nH]5)C=C4)C=C3)cc1)C1=NN(c2ccc(S(=O)(=O)[O-])cc2)C(=O)/C1=C/Nc1ccccc1
REMARK SMILES IDX 5 1 4 2 3 3 1 4 2 5 76 7 77 8 91 9 78 10 89 11 92 12 90 13
REMARK SMILES IDX 79 14 80 15 88 16 81 17 87 18 82 19 83 20 84 21 85 22 86 23
REMARK SMILES IDX 93 24 94 26 95 27 99 28 96 29 98 30 97 31 6 32 7 33 8 34
REMARK SMILES IDX 9 36 10 37 11 38 75 39 12 40 74 41 13 42 14 43 15 44 68 45
REMARK SMILES IDX 16 46 73 47 67 48 69 49 17 50 72 51 66 52 65 53 18 55 52 56
REMARK SMILES IDX 31 57 51 58 32 59 35 60 50 61 70 62 33 63 34 64 49 66 71 67
REMARK SMILES IDX 36 68 19 69 20 70 29 71 21 72 22 73 28 74 30 75 23 76 24 77
REMARK SMILES IDX 25 78 26 79 27 80 53 81 54 82 63 83 55 84 56 85 62 86 64 87
REMARK SMILES IDX 57 88 58 89 59 90 60 91 61 92 37 93 38 94 47 95 39 96 40 97
REMARK SMILES IDX 46 98 48 99 41 100 42 101 43 102 44 103 45 104
REMARK H PARENT 3 6 93 25 7 35 69 54 35 65
REMARK Flexibility Score: inf
ROOT
ATOM      1  C   UNL A   1      38.093  22.492  25.720  1.00  0.00     0.042 C 
ENDROOT
BRANCH   1   2
ATOM      2  C   UNL A   1      36.661  22.953  25.518  1.00  0.00     0.118 C 
BRANCH   2   3
ATOM      3  N   UNL A   1      35.788  22.601  26.628  1.00  0.00    -0.351 N 
ATOM      4  O   UNL A   1      33.814  22.062  27.600  1.00  0.00    -0.267 OA
ATOM      5  C   UNL A   1      34.418  22.536  26.646  1.00  0.00     0.272 C 
ATOM      6  H   UNL A   1      36.240  22.381  27.475  1.00  0.00     0.163 HD
BRANCH   5   7
ATOM      7  C   UNL A   1      33.639  22.966  25.446  1.00  0.00     0.163 C 
ATOM      8  N   UNL A   1      33.272  24.202  25.217  1.00  0.00    -0.158 NA
ATOM      9  C   UNL A   1      33.175  22.036  24.417  1.00  0.00     0.091 C 
ATOM     10  N   UNL A   1      32.520  24.150  24.039  1.00  0.00    -0.196 N 
ATOM     11  C   UNL A   1      32.484  22.884  23.433  1.00  0.00     0.282 C 
ATOM     12  C   UNL A   1      33.269  20.709  24.307  1.00  0.00     0.099 C 
ATOM     13  O   UNL A   1      31.983  22.494  22.394  1.00  0.00    -0.267 OA
BRANCH  10  14
ATOM     14  C   UNL A   1      31.716  25.263  23.698  1.00  0.00     0.069 A 
ATOM     15  C   UNL A   1      32.142  26.206  22.749  1.00  0.00     0.030 A 
ATOM     16  C   UNL A   1      30.506  25.490  24.372  1.00  0.00     0.030 A 
ATOM     17  C   UNL A   1      31.373  27.347  22.481  1.00  0.00     0.021 A 
ATOM     18  C   UNL A   1      29.749  26.639  24.133  1.00  0.00     0.021 A 
ATOM     19  C   UNL A   1      30.183  27.558  23.182  1.00  0.00     0.054 A 
BRANCH  19  20
ATOM     20  S   UNL A   1      29.256  29.037  22.899  1.00  0.00     0.124 S 
ATOM     21  O   UNL A   1      27.859  28.682  22.796  1.00  0.00    -0.237 OA
ATOM     22  O   UNL A   1      29.727  30.043  23.826  1.00  0.00    -0.237 OA
ATOM     23  O   UNL A   1      29.712  29.563  21.441  1.00  0.00    -0.744 OA
ENDBRANCH  19  20
ENDBRANCH  10  14
BRANCH  12  24
ATOM     24  N   UNL A   1      33.716  19.793  25.223  1.00  0.00    -0.361 N 
ATOM     25  H   UNL A   1      34.146  20.152  26.031  1.00  0.00     0.166 HD
BRANCH  24  26
ATOM     26  C   UNL A   1      33.624  18.397  25.126  1.00  0.00     0.038 A 
ATOM     27  C   UNL A   1      34.549  17.708  24.331  1.00  0.00     0.026 A 
ATOM     28  C   UNL A   1      32.673  17.657  25.839  1.00  0.00     0.026 A 
ATOM     29  C   UNL A   1      34.510  16.316  24.231  1.00  0.00     0.002 A 
ATOM     30  C   UNL A   1      32.616  16.266  25.721  1.00  0.00     0.002 A 
ATOM     31  C   UNL A   1      33.537  15.596  24.919  1.00  0.00     0.000 A 
ENDBRANCH  24  26
ENDBRANCH  12  24
ENDBRANCH   5   7
ENDBRANCH   2   3
ENDBRANCH   1   2
BRANCH   1  32
ATOM     32  C   UNL A   1      38.949  23.452  26.533  1.00  0.00     0.118 C 
BRANCH  32  33
ATOM     33  N   UNL A   1      40.364  23.415  26.179  1.00  0.00    -0.352 N 
ATOM     34  C   UNL A   1      41.368  24.311  26.477  1.00  0.00     0.251 C 
ATOM     35  H   UNL A   1      40.643  22.634  25.648  1.00  0.00     0.163 HD
ATOM     36  O   UNL A   1      42.482  24.173  25.980  1.00  0.00    -0.269 OA
BRANCH  34  37
ATOM     37  C   UNL A   1      41.085  25.460  27.363  1.00  0.00     0.039 A 
ATOM     38  C   UNL A   1      40.094  25.340  28.342  1.00  0.00     0.014 A 
ATOM     39  C   UNL A   1      41.830  26.635  27.260  1.00  0.00     0.014 A 
ATOM     40  C   UNL A   1      39.927  26.358  29.285  1.00  0.00     0.010 A 
ATOM     41  C   UNL A   1      41.730  27.599  28.255  1.00  0.00     0.010 A 
ATOM     42  C   UNL A   1      40.784  27.469  29.284  1.00  0.00    -0.014 A 
BRANCH  42  43
ATOM     43  C   UNL A   1      40.732  28.519  30.334  1.00  0.00     0.031 A 
ATOM     44  C   UNL A   1      41.644  28.422  31.526  1.00  0.00     0.074 A 
ATOM     45  C   UNL A   1      39.793  29.486  30.279  1.00  0.00     0.049 A 
ATOM     46  N   UNL A   1      41.621  29.097  32.645  1.00  0.00    -0.248 NA
ATOM     47  C   UNL A   1      42.697  27.395  31.463  1.00  0.00     0.031 C 
ATOM     48  C   UNL A   1      38.830  29.676  29.193  1.00  0.00     0.029 A 
ATOM     49  N   UNL A   1      39.480  30.478  31.174  1.00  0.00    -0.354 N 
ATOM     50  C   UNL A   1      42.630  28.555  33.432  1.00  0.00     0.074 A 
ATOM     51  C   UNL A   1      43.213  27.464  32.680  1.00  0.00     0.031 C 
ATOM     52  C   UNL A   1      38.050  30.732  29.475  1.00  0.00     0.029 A 
ATOM     53  C   UNL A   1      38.418  31.260  30.784  1.00  0.00     0.049 A 
ATOM     54  H   UNL A   1      39.970  30.618  32.016  1.00  0.00     0.167 HD
ATOM     55  C   UNL A   1      43.046  28.941  34.662  1.00  0.00     0.037 A 
ATOM     56  C   UNL A   1      37.800  32.277  31.417  1.00  0.00     0.037 A 
ATOM     57  C   UNL A   1      42.486  30.049  35.388  1.00  0.00     0.049 A 
ATOM     58  C   UNL A   1      38.276  32.689  32.783  1.00  0.00     0.074 A 
ATOM     59  C   UNL A   1      42.862  30.548  36.624  1.00  0.00     0.029 A 
ATOM     60  N   UNL A   1      41.435  30.837  34.942  1.00  0.00    -0.354 N 
ATOM     61  N   UNL A   1      39.243  32.178  33.507  1.00  0.00    -0.248 NA
ATOM     62  C   UNL A   1      37.576  33.814  33.420  1.00  0.00     0.031 C 
ATOM     63  C   UNL A   1      42.020  31.621  36.934  1.00  0.00     0.029 A 
ATOM     64  C   UNL A   1      41.146  31.815  35.876  1.00  0.00     0.049 A 
ATOM     65  H   UNL A   1      40.966  30.717  34.084  1.00  0.00     0.167 HD
ATOM     66  C   UNL A   1      39.291  32.940  34.669  1.00  0.00     0.074 A 
ATOM     67  C   UNL A   1      38.253  33.945  34.553  1.00  0.00     0.031 C 
ATOM     68  C   UNL A   1      40.123  32.822  35.732  1.00  0.00     0.037 A 
BRANCH  55  69
ATOM     69  C   UNL A   1      44.159  28.148  35.290  1.00  0.00     0.058 A 
ATOM     70  C   UNL A   1      43.899  27.044  36.119  1.00  0.00     0.135 A 
ATOM     71  C   UNL A   1      45.499  28.503  35.076  1.00  0.00     0.135 A 
ATOM     72  F   UNL A   1      42.634  26.671  36.372  1.00  0.00    -0.206 F 
ATOM     73  C   UNL A   1      44.926  26.353  36.754  1.00  0.00     0.059 A 
ATOM     74  C   UNL A   1      46.545  27.807  35.676  1.00  0.00     0.059 A 
ATOM     75  F   UNL A   1      45.806  29.549  34.290  1.00  0.00    -0.206 F 
ATOM     76  C   UNL A   1      46.245  26.749  36.534  1.00  0.00     0.060 A 
BRANCH  76  77
ATOM     77  S   UNL A   1      47.566  25.870  37.393  1.00  0.00     0.124 S 
ATOM     78  O   UNL A   1      47.165  24.481  37.196  1.00  0.00    -0.237 OA
ATOM     79  O   UNL A   1      48.755  26.295  36.663  1.00  0.00    -0.237 OA
ATOM     80  O   UNL A   1      47.466  26.363  38.763  1.00  0.00    -0.744 OA
ENDBRANCH  76  77
ENDBRANCH  55  69
BRANCH  56  81
ATOM     81  C   UNL A   1      36.683  32.994  30.748  1.00  0.00     0.058 A 
ATOM     82  C   UNL A   1      35.359  32.794  31.166  1.00  0.00     0.135 A 
ATOM     83  C   UNL A   1      36.911  33.910  29.710  1.00  0.00     0.135 A 
ATOM     84  F   UNL A   1      35.091  31.922  32.149  1.00  0.00    -0.206 F 
ATOM     85  C   UNL A   1      34.299  33.473  30.576  1.00  0.00     0.059 A 
ATOM     86  C   UNL A   1      35.869  34.618  29.119  1.00  0.00     0.059 A 
ATOM     87  F   UNL A   1      38.162  34.148  29.286  1.00  0.00    -0.206 F 
ATOM     88  C   UNL A   1      34.564  34.388  29.556  1.00  0.00     0.060 A 
BRANCH  88  89
ATOM     89  S   UNL A   1      33.186  35.314  28.845  1.00  0.00     0.124 S 
ATOM     90  O   UNL A   1      32.472  35.743  30.041  1.00  0.00    -0.237 OA
ATOM     91  O   UNL A   1      33.875  36.364  28.100  1.00  0.00    -0.237 OA
ATOM     92  O   UNL A   1      32.504  34.319  28.022  1.00  0.00    -0.744 OA
ENDBRANCH  88  89
ENDBRANCH  56  81
BRANCH  68  93
ATOM     93  C   UNL A   1      39.990  33.834  36.835  1.00  0.00     0.058 A 
ATOM     94  C   UNL A   1      40.651  35.069  36.788  1.00  0.00     0.135 A 
ATOM     95  C   UNL A   1      39.127  33.588  37.915  1.00  0.00     0.135 A 
ATOM     96  F   UNL A   1      41.493  35.348  35.780  1.00  0.00    -0.206 F 
ATOM     97  C   UNL A   1      40.468  36.027  37.781  1.00  0.00     0.059 A 
ATOM     98  C   UNL A   1      38.911  34.540  38.907  1.00  0.00     0.059 A 
ATOM     99  F   UNL A   1      38.465  32.423  38.001  1.00  0.00    -0.206 F 
ATOM    100  C   UNL A   1      39.592  35.754  38.834  1.00  0.00     0.060 A 
BRANCH 100 101
ATOM    101  S   UNL A   1      39.317  37.026  40.085  1.00  0.00     0.124 S 
ATOM    102  O   UNL A   1      38.581  38.031  39.326  1.00  0.00    -0.237 OA
ATOM    103  O   UNL A   1      38.549  36.308  41.098  1.00  0.00    -0.237 OA
ATOM    104  O   UNL A   1      40.668  37.405  40.487  1.00  0.00    -0.744 OA
ENDBRANCH 100 101
ENDBRANCH  68  93
ENDBRANCH  42  43
ENDBRANCH  34  37
ENDBRANCH  32  33
ENDBRANCH   1  32
TORSDOF 17
ENDMDL
MODEL 3
REMARK VINA RESULT:     -13.2      2.902      8.934
REMARK SMILES O=C(NCCCNC(=O)c1ccc(-c2c3nc(c(-c4c(F)cc(S(=O)(=O)[O-])cc4F)c4ccc([nH]4)c(-c4c(F)cc(S(=O)(=O)[O-])cc4F)c4nc(c(-c5c(F)cc(S(=O)(=O)[O-])cc5F)c5ccc2[nH]5)C=C4)C=C3)cc1)C1=NN(c2ccc(S(=O)(=O)[O-])cc2)C(=O)/C1=C/Nc1ccccc1
REMARK SMILES IDX 5 1 4 2 3 3 1 4 2 5 76 7 77 8 91 9 78 10 89 11 92 12 90 13
REMARK SMILES IDX 79 14 80 15 88 16 81 17 87 18 82 19 83 20 84 21 85 22 86 23
REMARK SMILES IDX 93 24 94 26 95 27 99 28 96 29 98 30 97 31 6 32 7 33 8 34
REMARK SMILES IDX 9 36 10 37 11 38 75 39 12 40 74 41 13 42 14 43 15 44 68 45
REMARK SMILES IDX 16 46 73 47 67 48 69 49 17 50 72 51 66 52 65 53 18 55 52 56
REMARK SMILES IDX 31 57 51 58 32 59 35 60 50 61 70 62 33 63 34 64 49 66 71 67
REMARK SMILES IDX 36 68 19 69 20 70 29 71 21 72 22 73 28 74 30 75 23 76 24 77
REMARK SMILES IDX 25 78 26 79 27 80 53 81 54 82 63 83 55 84 56 85 62 86 64 87
REMARK SMILES IDX 57 88 58 89 59 90 60 91 61 92 37 93 38 94 47 95 39 96 40 97
REMARK SMILES IDX 46 98 48 99 41 100 42 101 43 102 44 103 45 104
REMARK H PARENT 3 6 93 25 7 35 69 54 35 65
REMARK Flexibility Score: inf
ROOT
ATOM      1  C   UNL A   1      37.736  21.337  25.178  1.00  0.00     0.042 C 
ENDROOT
BRANCH   1   2
ATOM      2  C   UNL A   1      36.817  22.533  25.352  1.00  0.00     0.118 C 
BRANCH   2   3
ATOM      3  N   UNL A   1      36.005  22.455  26.557  1.00  0.00    -0.351 N 
ATOM      4  O   UNL A   1      34.068  22.424  27.731  1.00  0.00    -0.267 OA
ATOM      5  C   UNL A   1      34.661  22.691  26.694  1.00  0.00     0.272 C 
ATOM      6  H   UNL A   1      36.482  22.199  27.379  1.00  0.00     0.163 HD
BRANCH   5   7
ATOM      7  C   UNL A   1      33.874  23.198  25.529  1.00  0.00     0.163 C 
ATOM      8  N   UNL A   1      33.487  24.441  25.395  1.00  0.00    -0.158 NA
ATOM      9  C   UNL A   1      33.425  22.342  24.432  1.00  0.00     0.091 C 
ATOM     10  N   UNL A   1      32.736  24.468  24.215  1.00  0.00    -0.196 N 
ATOM     11  C   UNL A   1      32.720  23.251  23.515  1.00  0.00     0.282 C 
ATOM     12  C   UNL A   1      33.539  21.029  24.222  1.00  0.00     0.099 C 
ATOM     13  O   UNL A   1      32.224  22.932  22.449  1.00  0.00    -0.267 OA
BRANCH  10  14
ATOM     14  C   UNL A   1      31.914  25.590  23.959  1.00  0.00     0.069 A 
ATOM     15  C   UNL A   1      30.534  25.556  24.215  1.00  0.00     0.030 A 
ATOM     16  C   UNL A   1      32.455  26.736  23.356  1.00  0.00     0.030 A 
ATOM     17  C   UNL A   1      29.718  26.644  23.880  1.00  0.00     0.021 A 
ATOM     18  C   UNL A   1      31.644  27.813  22.991  1.00  0.00     0.021 A 
ATOM     19  C   UNL A   1      30.280  27.765  23.262  1.00  0.00     0.054 A 
BRANCH  19  20
ATOM     20  S   UNL A   1      29.235  29.103  22.767  1.00  0.00     0.124 S 
ATOM     21  O   UNL A   1      29.652  29.540  21.455  1.00  0.00    -0.237 OA
ATOM     22  O   UNL A   1      27.868  28.732  23.056  1.00  0.00    -0.237 OA
ATOM     23  O   UNL A   1      29.567  30.312  23.788  1.00  0.00    -0.744 OA
ENDBRANCH  19  20
ENDBRANCH  10  14
BRANCH  12  24
ATOM     24  N   UNL A   1      34.002  20.052  25.065  1.00  0.00    -0.361 N 
ATOM     25  H   UNL A   1      34.579  20.347  25.806  1.00  0.00     0.166 HD
BRANCH  24  26
ATOM     26  C   UNL A   1      33.737  18.678  24.983  1.00  0.00     0.038 A 
ATOM     27  C   UNL A   1      34.607  17.861  24.250  1.00  0.00     0.026 A 
ATOM     28  C   UNL A   1      32.662  18.080  25.653  1.00  0.00     0.026 A 
ATOM     29  C   UNL A   1      34.396  16.484  24.167  1.00  0.00     0.002 A 
ATOM     30  C   UNL A   1      32.434  16.705  25.551  1.00  0.00     0.002 A 
ATOM     31  C   UNL A   1      33.303  15.907  24.809  1.00  0.00     0.000 A 
ENDBRANCH  24  26
ENDBRANCH  12  24
ENDBRANCH   5   7
ENDBRANCH   2   3
ENDBRANCH   1   2
BRANCH   1  32
ATOM     32  C   UNL A   1      38.955  21.348  26.090  1.00  0.00     0.118 C 
BRANCH  32  33
ATOM     33  N   UNL A   1      39.740  20.119  26.029  1.00  0.00    -0.352 N 
ATOM     34  C   UNL A   1      41.103  19.942  26.117  1.00  0.00     0.251 C 
ATOM     35  H   UNL A   1      39.217  19.293  25.908  1.00  0.00     0.163 HD
ATOM     36  O   UNL A   1      41.593  18.835  25.916  1.00  0.00    -0.269 OA
BRANCH  34  37
ATOM     37  C   UNL A   1      41.974  21.100  26.412  1.00  0.00     0.039 A 
ATOM     38  C   UNL A   1      42.450  21.883  25.355  1.00  0.00     0.014 A 
ATOM     39  C   UNL A   1      42.280  21.440  27.730  1.00  0.00     0.014 A 
ATOM     40  C   UNL A   1      43.140  23.068  25.629  1.00  0.00     0.010 A 
ATOM     41  C   UNL A   1      42.878  22.664  28.000  1.00  0.00     0.010 A 
ATOM     42  C   UNL A   1      43.307  23.497  26.955  1.00  0.00    -0.014 A 
BRANCH  42  43
ATOM     43  C   UNL A   1      43.923  24.805  27.299  1.00  0.00     0.031 A 
ATOM     44  C   UNL A   1      43.054  25.924  27.802  1.00  0.00     0.074 A 
ATOM     45  C   UNL A   1      45.231  25.024  27.049  1.00  0.00     0.049 A 
ATOM     46  N   UNL A   1      43.340  27.189  27.958  1.00  0.00    -0.248 NA
ATOM     47  C   UNL A   1      41.663  25.575  28.133  1.00  0.00     0.031 C 
ATOM     48  C   UNL A   1      46.177  24.032  26.536  1.00  0.00     0.029 A 
ATOM     49  N   UNL A   1      45.984  26.165  27.173  1.00  0.00    -0.354 N 
ATOM     50  C   UNL A   1      42.158  27.794  28.370  1.00  0.00     0.074 A 
ATOM     51  C   UNL A   1      41.142  26.763  28.394  1.00  0.00     0.031 C 
ATOM     52  C   UNL A   1      47.387  24.601  26.409  1.00  0.00     0.029 A 
ATOM     53  C   UNL A   1      47.292  26.009  26.779  1.00  0.00     0.049 A 
ATOM     54  H   UNL A   1      45.621  27.015  27.512  1.00  0.00     0.167 HD
ATOM     55  C   UNL A   1      41.942  29.086  28.716  1.00  0.00     0.037 A 
ATOM     56  C   UNL A   1      48.297  26.904  26.707  1.00  0.00     0.037 A 
ATOM     57  C   UNL A   1      42.965  30.097  28.725  1.00  0.00     0.049 A 
ATOM     58  C   UNL A   1      48.036  28.334  27.093  1.00  0.00     0.074 A 
ATOM     59  C   UNL A   1      42.860  31.426  29.098  1.00  0.00     0.029 A 
ATOM     60  N   UNL A   1      44.285  29.889  28.353  1.00  0.00    -0.354 N 
ATOM     61  N   UNL A   1      46.918  28.887  27.498  1.00  0.00    -0.248 NA
ATOM     62  C   UNL A   1      49.172  29.263  27.011  1.00  0.00     0.031 C 
ATOM     63  C   UNL A   1      44.112  32.027  28.924  1.00  0.00     0.029 A 
ATOM     64  C   UNL A   1      45.005  31.063  28.482  1.00  0.00     0.049 A 
ATOM     65  H   UNL A   1      44.656  29.030  28.044  1.00  0.00     0.167 HD
ATOM     66  C   UNL A   1      47.223  30.220  27.752  1.00  0.00     0.074 A 
ATOM     67  C   UNL A   1      48.630  30.391  27.452  1.00  0.00     0.031 C 
ATOM     68  C   UNL A   1      46.412  31.209  28.200  1.00  0.00     0.037 A 
BRANCH  55  69
ATOM     69  C   UNL A   1      40.540  29.467  29.107  1.00  0.00     0.058 A 
ATOM     70  C   UNL A   1      39.528  29.631  28.147  1.00  0.00     0.135 A 
ATOM     71  C   UNL A   1      40.208  29.685  30.452  1.00  0.00     0.135 A 
ATOM     72  F   UNL A   1      39.797  29.451  26.844  1.00  0.00    -0.206 F 
ATOM     73  C   UNL A   1      38.250  30.049  28.502  1.00  0.00     0.059 A 
ATOM     74  C   UNL A   1      38.927  30.074  30.835  1.00  0.00     0.059 A 
ATOM     75  F   UNL A   1      41.136  29.540  31.412  1.00  0.00    -0.206 F 
ATOM     76  C   UNL A   1      37.962  30.278  29.848  1.00  0.00     0.060 A 
BRANCH  76  77
ATOM     77  S   UNL A   1      36.312  30.857  30.292  1.00  0.00     0.124 S 
ATOM     78  O   UNL A   1      35.556  30.525  29.090  1.00  0.00    -0.237 OA
ATOM     79  O   UNL A   1      36.005  30.058  31.474  1.00  0.00    -0.237 OA
ATOM     80  O   UNL A   1      36.508  32.283  30.537  1.00  0.00    -0.744 OA
ENDBRANCH  76  77
ENDBRANCH  55  69
BRANCH  56  81
ATOM     81  C   UNL A   1      49.650  26.463  26.279  1.00  0.00     0.058 A 
ATOM     82  C   UNL A   1      50.086  26.680  24.963  1.00  0.00     0.135 A 
ATOM     83  C   UNL A   1      50.543  25.850  27.171  1.00  0.00     0.135 A 
ATOM     84  F   UNL A   1      49.265  27.256  24.072  1.00  0.00    -0.206 F 
ATOM     85  C   UNL A   1      51.357  26.302  24.545  1.00  0.00     0.059 A 
ATOM     86  C   UNL A   1      51.828  25.482  26.782  1.00  0.00     0.059 A 
ATOM     87  F   UNL A   1      50.179  25.634  28.445  1.00  0.00    -0.206 F 
ATOM     88  C   UNL A   1      52.224  25.708  25.463  1.00  0.00     0.060 A 
BRANCH  88  89
ATOM     89  S   UNL A   1      53.895  25.285  24.927  1.00  0.00     0.124 S 
ATOM     90  O   UNL A   1      53.948  25.909  23.610  1.00  0.00    -0.237 OA
ATOM     91  O   UNL A   1      54.716  25.906  25.963  1.00  0.00    -0.237 OA
ATOM     92  O   UNL A   1      53.890  23.825  24.936  1.00  0.00    -0.744 OA
ENDBRANCH  88  89
ENDBRANCH  56  81
BRANCH  68  93
ATOM     93  C   UNL A   1      47.031  32.555  28.448  1.00  0.00     0.058 A 
ATOM     94  C   UNL A   1      47.633  32.877  29.672  1.00  0.00     0.135 A 
ATOM     95  C   UNL A   1      47.085  33.506  27.415  1.00  0.00     0.135 A 
ATOM     96  F   UNL A   1      47.601  32.006  30.692  1.00  0.00    -0.206 F 
ATOM     97  C   UNL A   1      48.264  34.103  29.869  1.00  0.00     0.059 A 
ATOM     98  C   UNL A   1      47.729  34.728  27.583  1.00  0.00     0.059 A 
ATOM     99  F   UNL A   1      46.529  33.241  26.222  1.00  0.00    -0.206 F 
ATOM    100  C   UNL A   1      48.310  35.020  28.816  1.00  0.00     0.060 A 
BRANCH 100 101
ATOM    101  S   UNL A   1      49.180  36.582  29.064  1.00  0.00     0.124 S 
ATOM    102  O   UNL A   1      49.033  37.211  27.756  1.00  0.00    -0.237 OA
ATOM    103  O   UNL A   1      48.422  37.194  30.151  1.00  0.00    -0.237 OA
ATOM    104  O   UNL A   1      50.535  36.164  29.412  1.00  0.00    -0.744 OA
ENDBRANCH 100 101
ENDBRANCH  68  93
ENDBRANCH  42  43
ENDBRANCH  34  37
ENDBRANCH  32  33
ENDBRANCH   1  32
TORSDOF 17
ENDMDL
