MODEL 1
REMARK VINA RESULT:     -13.0      0.000      0.000
REMARK SMILES CC1(C)C(n2c(SCC(=O)NCCCNC(=O)c3ccc(-c4c5nc(c(-c6c(F)cc(S(=O)(=O)[O-])cc6F)c6ccc([nH]6)c(-c6c(F)cc(S(=O)(=O)[O-])cc6F)c6nc(c(-c7c(F)cc(S(=O)(=O)[O-])cc7F)c7ccc4[nH]7)C=C6)C=C5)cc3)nc3cnccc32)C1(C)C
REMARK SMILES IDX 13 1 12 2 11 3 9 4 10 5 8 7 7 8 6 9 5 10 90 11 84 12 85 13
REMARK SMILES IDX 89 14 86 15 88 16 87 17 4 18 1 19 2 20 3 21 91 22 92 23
REMARK SMILES IDX 93 24 14 25 15 26 16 27 17 29 18 30 19 31 83 32 20 33 82 34
REMARK SMILES IDX 21 35 22 36 23 37 76 38 24 39 81 40 75 41 77 42 25 43 80 44
REMARK SMILES IDX 74 45 73 46 26 48 60 49 39 50 59 51 40 52 43 53 58 54 78 55
REMARK SMILES IDX 41 56 42 57 57 59 79 60 44 61 27 62 28 63 37 64 29 65 30 66
REMARK SMILES IDX 36 67 38 68 31 69 32 70 33 71 34 72 35 73 61 74 62 75 71 76
REMARK SMILES IDX 63 77 64 78 70 79 72 80 65 81 66 82 67 83 68 84 69 85 45 86
REMARK SMILES IDX 46 87 55 88 47 89 48 90 54 91 56 92 49 93 50 94 51 95 52 96
REMARK SMILES IDX 53 97
REMARK H PARENT 11 6 15 28 77 47 43 58
REMARK Flexibility Score: inf
ROOT
ATOM      1  C   UNL A   1      36.701  22.686  23.708  1.00  0.00     0.042 C 
ENDROOT
BRANCH   1   2
ATOM      2  C   UNL A   1      35.337  23.311  23.431  1.00  0.00     0.117 C 
BRANCH   2   3
ATOM      3  N   UNL A   1      34.301  22.299  23.464  1.00  0.00    -0.355 N 
ATOM      4  C   UNL A   1      32.959  22.478  23.548  1.00  0.00     0.230 C 
ATOM      5  O   UNL A   1      32.284  21.522  23.948  1.00  0.00    -0.274 OA
ATOM      6  H   UNL A   1      34.609  21.365  23.420  1.00  0.00     0.163 HD
BRANCH   4   7
ATOM      7  C   UNL A   1      32.349  23.765  23.063  1.00  0.00     0.178 C 
BRANCH   7   8
ATOM      8  S   UNL A   1      30.703  24.111  23.615  1.00  0.00    -0.078 SA
BRANCH   8   9
ATOM      9  C   UNL A   1      30.399  25.803  23.767  1.00  0.00     0.169 A 
ATOM     10  N   UNL A   1      31.131  26.862  24.278  1.00  0.00    -0.315 N 
ATOM     11  C   UNL A   1      30.458  28.025  23.918  1.00  0.00     0.072 A 
ATOM     12  N   UNL A   1      29.220  26.219  23.342  1.00  0.00    -0.221 NA
ATOM     13  C   UNL A   1      29.241  27.578  23.412  1.00  0.00     0.108 A 
ATOM     14  C   UNL A   1      30.747  29.389  24.000  1.00  0.00     0.049 A 
ATOM     15  C   UNL A   1      28.265  28.505  23.036  1.00  0.00     0.141 A 
ATOM     16  C   UNL A   1      29.721  30.236  23.589  1.00  0.00     0.113 A 
ATOM     17  N   UNL A   1      28.512  29.837  23.133  1.00  0.00    -0.262 NA
BRANCH  10  18
ATOM     18  C   UNL A   1      32.433  26.915  24.929  1.00  0.00     0.102 C 
ATOM     19  C   UNL A   1      33.876  28.344  26.635  1.00  0.00     0.014 C 
ATOM     20  C   UNL A   1      32.691  27.438  26.346  1.00  0.00    -0.007 C 
ATOM     21  C   UNL A   1      31.510  27.740  27.242  1.00  0.00     0.014 C 
ATOM     22  C   UNL A   1      33.042  25.977  25.962  1.00  0.00    -0.007 C 
ATOM     23  C   UNL A   1      34.513  25.621  25.760  1.00  0.00     0.014 C 
ATOM     24  C   UNL A   1      32.262  24.879  26.658  1.00  0.00     0.014 C 
ENDBRANCH  10  18
ENDBRANCH   8   9
ENDBRANCH   7   8
ENDBRANCH   4   7
ENDBRANCH   2   3
ENDBRANCH   1   2
BRANCH   1  25
ATOM     25  C   UNL A   1      37.313  23.123  25.043  1.00  0.00     0.118 C 
BRANCH  25  26
ATOM     26  N   UNL A   1      38.293  22.203  25.587  1.00  0.00    -0.352 N 
ATOM     27  C   UNL A   1      39.361  22.327  26.429  1.00  0.00     0.251 C 
ATOM     28  H   UNL A   1      38.158  21.277  25.279  1.00  0.00     0.163 HD
ATOM     29  O   UNL A   1      39.967  21.285  26.692  1.00  0.00    -0.269 OA
BRANCH  27  30
ATOM     30  C   UNL A   1      39.863  23.615  26.970  1.00  0.00     0.039 A 
ATOM     31  C   UNL A   1      41.087  23.799  27.615  1.00  0.00     0.014 A 
ATOM     32  C   UNL A   1      38.993  24.712  26.844  1.00  0.00     0.014 A 
ATOM     33  C   UNL A   1      41.371  24.997  28.252  1.00  0.00     0.010 A 
ATOM     34  C   UNL A   1      39.295  25.930  27.433  1.00  0.00     0.010 A 
ATOM     35  C   UNL A   1      40.454  26.046  28.193  1.00  0.00    -0.014 A 
BRANCH  35  36
ATOM     36  C   UNL A   1      40.796  27.290  28.868  1.00  0.00     0.031 A 
ATOM     37  C   UNL A   1      41.962  28.019  28.287  1.00  0.00     0.074 A 
ATOM     38  C   UNL A   1      40.043  27.791  29.868  1.00  0.00     0.049 A 
ATOM     39  N   UNL A   1      43.081  28.325  28.860  1.00  0.00    -0.248 NA
ATOM     40  C   UNL A   1      41.937  28.319  26.845  1.00  0.00     0.031 C 
ATOM     41  C   UNL A   1      38.758  27.303  30.376  1.00  0.00     0.029 A 
ATOM     42  N   UNL A   1      40.236  28.926  30.590  1.00  0.00    -0.354 N 
ATOM     43  C   UNL A   1      43.829  29.022  27.912  1.00  0.00     0.074 A 
ATOM     44  C   UNL A   1      43.138  28.865  26.658  1.00  0.00     0.031 C 
ATOM     45  C   UNL A   1      38.183  28.263  31.134  1.00  0.00     0.029 A 
ATOM     46  C   UNL A   1      39.112  29.370  31.275  1.00  0.00     0.049 A 
ATOM     47  H   UNL A   1      41.101  29.396  30.622  1.00  0.00     0.167 HD
ATOM     48  C   UNL A   1      44.875  29.824  28.260  1.00  0.00     0.037 A 
ATOM     49  C   UNL A   1      38.947  30.591  31.848  1.00  0.00     0.037 A 
ATOM     50  C   UNL A   1      45.330  29.540  29.595  1.00  0.00     0.049 A 
ATOM     51  C   UNL A   1      40.309  31.153  32.063  1.00  0.00     0.074 A 
ATOM     52  C   UNL A   1      45.893  28.436  30.204  1.00  0.00     0.029 A 
ATOM     53  N   UNL A   1      44.890  30.350  30.614  1.00  0.00    -0.354 N 
ATOM     54  N   UNL A   1      41.170  30.647  32.908  1.00  0.00    -0.248 NA
ATOM     55  C   UNL A   1      40.890  31.950  30.990  1.00  0.00     0.031 C 
ATOM     56  C   UNL A   1      45.316  28.402  31.505  1.00  0.00     0.029 A 
ATOM     57  C   UNL A   1      44.493  29.523  31.636  1.00  0.00     0.049 A 
ATOM     58  H   UNL A   1      44.865  31.334  30.613  1.00  0.00     0.167 HD
ATOM     59  C   UNL A   1      42.393  30.703  32.254  1.00  0.00     0.074 A 
ATOM     60  C   UNL A   1      42.169  31.577  31.103  1.00  0.00     0.031 C 
ATOM     61  C   UNL A   1      43.394  29.814  32.531  1.00  0.00     0.037 A 
BRANCH  48  62
ATOM     62  C   UNL A   1      45.295  31.067  27.515  1.00  0.00     0.058 A 
ATOM     63  C   UNL A   1      46.591  31.150  26.964  1.00  0.00     0.135 A 
ATOM     64  C   UNL A   1      44.578  32.282  27.574  1.00  0.00     0.135 A 
ATOM     65  F   UNL A   1      47.361  30.055  26.858  1.00  0.00    -0.206 F 
ATOM     66  C   UNL A   1      47.161  32.363  26.575  1.00  0.00     0.059 A 
ATOM     67  C   UNL A   1      45.110  33.494  27.145  1.00  0.00     0.059 A 
ATOM     68  F   UNL A   1      43.369  32.369  28.141  1.00  0.00    -0.206 F 
ATOM     69  C   UNL A   1      46.417  33.533  26.689  1.00  0.00     0.060 A 
BRANCH  69  70
ATOM     70  S   UNL A   1      47.195  35.115  26.316  1.00  0.00     0.124 S 
ATOM     71  O   UNL A   1      46.034  35.985  26.162  1.00  0.00    -0.237 OA
ATOM     72  O   UNL A   1      48.010  35.338  27.506  1.00  0.00    -0.237 OA
ATOM     73  O   UNL A   1      47.944  34.842  25.093  1.00  0.00    -0.744 OA
ENDBRANCH  69  70
ENDBRANCH  48  62
BRANCH  49  74
ATOM     74  C   UNL A   1      37.702  31.407  31.884  1.00  0.00     0.058 A 
ATOM     75  C   UNL A   1      37.047  31.714  33.090  1.00  0.00     0.135 A 
ATOM     76  C   UNL A   1      37.261  32.120  30.749  1.00  0.00     0.135 A 
ATOM     77  F   UNL A   1      37.418  31.113  34.231  1.00  0.00    -0.206 F 
ATOM     78  C   UNL A   1      36.037  32.685  33.169  1.00  0.00     0.059 A 
ATOM     79  C   UNL A   1      36.252  33.081  30.799  1.00  0.00     0.059 A 
ATOM     80  F   UNL A   1      37.861  31.967  29.559  1.00  0.00    -0.206 F 
ATOM     81  C   UNL A   1      35.657  33.375  32.018  1.00  0.00     0.060 A 
BRANCH  81  82
ATOM     82  S   UNL A   1      34.460  34.728  32.134  1.00  0.00     0.124 S 
ATOM     83  O   UNL A   1      35.206  35.730  32.888  1.00  0.00    -0.237 OA
ATOM     84  O   UNL A   1      34.213  35.040  30.731  1.00  0.00    -0.237 OA
ATOM     85  O   UNL A   1      33.334  34.127  32.843  1.00  0.00    -0.744 OA
ENDBRANCH  81  82
ENDBRANCH  49  74
BRANCH  61  86
ATOM     86  C   UNL A   1      43.235  28.891  33.713  1.00  0.00     0.058 A 
ATOM     87  C   UNL A   1      43.490  29.268  35.044  1.00  0.00     0.135 A 
ATOM     88  C   UNL A   1      42.616  27.648  33.512  1.00  0.00     0.135 A 
ATOM     89  F   UNL A   1      43.974  30.482  35.336  1.00  0.00    -0.206 F 
ATOM     90  C   UNL A   1      43.178  28.436  36.121  1.00  0.00     0.059 A 
ATOM     91  C   UNL A   1      42.266  26.816  34.572  1.00  0.00     0.059 A 
ATOM     92  F   UNL A   1      42.282  27.257  32.271  1.00  0.00    -0.206 F 
ATOM     93  C   UNL A   1      42.560  27.211  35.875  1.00  0.00     0.060 A 
BRANCH  93  94
ATOM     94  S   UNL A   1      42.081  26.176  37.274  1.00  0.00     0.124 S 
ATOM     95  O   UNL A   1      40.745  26.675  37.581  1.00  0.00    -0.237 OA
ATOM     96  O   UNL A   1      42.140  24.831  36.711  1.00  0.00    -0.237 OA
ATOM     97  O   UNL A   1      43.101  26.468  38.280  1.00  0.00    -0.744 OA
ENDBRANCH  93  94
ENDBRANCH  61  86
ENDBRANCH  35  36
ENDBRANCH  27  30
ENDBRANCH  25  26
ENDBRANCH   1  25
TORSDOF 16
ENDMDL
MODEL 2
REMARK VINA RESULT:     -12.8      1.185      2.274
REMARK SMILES CC1(C)C(n2c(SCC(=O)NCCCNC(=O)c3ccc(-c4c5nc(c(-c6c(F)cc(S(=O)(=O)[O-])cc6F)c6ccc([nH]6)c(-c6c(F)cc(S(=O)(=O)[O-])cc6F)c6nc(c(-c7c(F)cc(S(=O)(=O)[O-])cc7F)c7ccc4[nH]7)C=C6)C=C5)cc3)nc3cnccc32)C1(C)C
REMARK SMILES IDX 13 1 12 2 11 3 9 4 10 5 8 7 7 8 6 9 5 10 90 11 84 12 85 13
REMARK SMILES IDX 89 14 86 15 88 16 87 17 4 18 1 19 2 20 3 21 91 22 92 23
REMARK SMILES IDX 93 24 14 25 15 26 16 27 17 29 18 30 19 31 83 32 20 33 82 34
REMARK SMILES IDX 21 35 22 36 23 37 76 38 24 39 81 40 75 41 77 42 25 43 80 44
REMARK SMILES IDX 74 45 73 46 26 48 60 49 39 50 59 51 40 52 43 53 58 54 78 55
REMARK SMILES IDX 41 56 42 57 57 59 79 60 44 61 27 62 28 63 37 64 29 65 30 66
REMARK SMILES IDX 36 67 38 68 31 69 32 70 33 71 34 72 35 73 61 74 62 75 71 76
REMARK SMILES IDX 63 77 64 78 70 79 72 80 65 81 66 82 67 83 68 84 69 85 45 86
REMARK SMILES IDX 46 87 55 88 47 89 48 90 54 91 56 92 49 93 50 94 51 95 52 96
REMARK SMILES IDX 53 97
REMARK H PARENT 11 6 15 28 77 47 43 58
REMARK Flexibility Score: inf
ROOT
ATOM      1  C   UNL A   1      36.497  21.055  25.201  1.00  0.00     0.042 C 
ENDROOT
BRANCH   1   2
ATOM      2  C   UNL A   1      35.176  21.572  24.640  1.00  0.00     0.117 C 
BRANCH   2   3
ATOM      3  N   UNL A   1      34.139  21.509  25.650  1.00  0.00    -0.355 N 
ATOM      4  C   UNL A   1      33.713  22.499  26.474  1.00  0.00     0.230 C 
ATOM      5  O   UNL A   1      33.115  22.162  27.502  1.00  0.00    -0.274 OA
ATOM      6  H   UNL A   1      33.687  20.640  25.751  1.00  0.00     0.163 HD
BRANCH   4   7
ATOM      7  C   UNL A   1      33.888  23.936  26.063  1.00  0.00     0.178 C 
BRANCH   7   8
ATOM      8  S   UNL A   1      32.405  24.864  25.798  1.00  0.00    -0.078 SA
BRANCH   8   9
ATOM      9  C   UNL A   1      32.656  26.566  25.936  1.00  0.00     0.169 A 
ATOM     10  N   UNL A   1      31.913  27.673  25.562  1.00  0.00    -0.315 N 
ATOM     11  C   UNL A   1      32.526  28.780  26.139  1.00  0.00     0.072 A 
ATOM     12  N   UNL A   1      33.797  26.939  26.484  1.00  0.00    -0.221 NA
ATOM     13  C   UNL A   1      33.732  28.290  26.632  1.00  0.00     0.108 A 
ATOM     14  C   UNL A   1      32.194  30.132  26.261  1.00  0.00     0.049 A 
ATOM     15  C   UNL A   1      34.656  29.171  27.203  1.00  0.00     0.141 A 
ATOM     16  C   UNL A   1      33.168  30.928  26.857  1.00  0.00     0.113 A 
ATOM     17  N   UNL A   1      34.366  30.493  27.307  1.00  0.00    -0.262 NA
BRANCH  10  18
ATOM     18  C   UNL A   1      30.643  27.796  24.859  1.00  0.00     0.102 C 
ATOM     19  C   UNL A   1      29.251  29.427  23.299  1.00  0.00     0.014 C 
ATOM     20  C   UNL A   1      30.442  28.510  23.519  1.00  0.00    -0.007 C 
ATOM     21  C   UNL A   1      31.657  28.956  22.736  1.00  0.00     0.014 C 
ATOM     22  C   UNL A   1      30.107  27.004  23.674  1.00  0.00    -0.007 C 
ATOM     23  C   UNL A   1      28.637  26.597  23.749  1.00  0.00     0.014 C 
ATOM     24  C   UNL A   1      30.947  26.029  22.872  1.00  0.00     0.014 C 
ENDBRANCH  10  18
ENDBRANCH   8   9
ENDBRANCH   7   8
ENDBRANCH   4   7
ENDBRANCH   2   3
ENDBRANCH   1   2
BRANCH   1  25
ATOM     25  C   UNL A   1      37.523  22.163  25.466  1.00  0.00     0.118 C 
BRANCH  25  26
ATOM     26  N   UNL A   1      38.900  21.710  25.512  1.00  0.00    -0.352 N 
ATOM     27  C   UNL A   1      40.037  22.161  26.119  1.00  0.00     0.251 C 
ATOM     28  H   UNL A   1      39.049  20.891  24.987  1.00  0.00     0.163 HD
ATOM     29  O   UNL A   1      41.051  21.480  25.944  1.00  0.00    -0.269 OA
BRANCH  27  30
ATOM     30  C   UNL A   1      40.136  23.425  26.891  1.00  0.00     0.039 A 
ATOM     31  C   UNL A   1      39.320  24.544  26.719  1.00  0.00     0.014 A 
ATOM     32  C   UNL A   1      41.175  23.484  27.837  1.00  0.00     0.014 A 
ATOM     33  C   UNL A   1      39.624  25.738  27.356  1.00  0.00     0.010 A 
ATOM     34  C   UNL A   1      41.451  24.660  28.516  1.00  0.00     0.010 A 
ATOM     35  C   UNL A   1      40.714  25.802  28.222  1.00  0.00    -0.014 A 
BRANCH  35  36
ATOM     36  C   UNL A   1      40.992  27.073  28.876  1.00  0.00     0.031 A 
ATOM     37  C   UNL A   1      42.131  27.842  28.293  1.00  0.00     0.074 A 
ATOM     38  C   UNL A   1      40.205  27.559  29.857  1.00  0.00     0.049 A 
ATOM     39  N   UNL A   1      43.228  28.210  28.872  1.00  0.00    -0.248 NA
ATOM     40  C   UNL A   1      42.109  28.112  26.845  1.00  0.00     0.031 C 
ATOM     41  C   UNL A   1      38.937  27.024  30.360  1.00  0.00     0.029 A 
ATOM     42  N   UNL A   1      40.338  28.716  30.557  1.00  0.00    -0.354 N 
ATOM     43  C   UNL A   1      43.955  28.921  27.919  1.00  0.00     0.074 A 
ATOM     44  C   UNL A   1      43.288  28.708  26.660  1.00  0.00     0.031 C 
ATOM     45  C   UNL A   1      38.311  27.972  31.093  1.00  0.00     0.029 A 
ATOM     46  C   UNL A   1      39.187  29.122  31.221  1.00  0.00     0.049 A 
ATOM     47  H   UNL A   1      41.180  29.225  30.590  1.00  0.00     0.167 HD
ATOM     48  C   UNL A   1      44.960  29.776  28.262  1.00  0.00     0.037 A 
ATOM     49  C   UNL A   1      38.961  30.345  31.767  1.00  0.00     0.037 A 
ATOM     50  C   UNL A   1      45.412  29.539  29.607  1.00  0.00     0.049 A 
ATOM     51  C   UNL A   1      40.293  30.973  31.987  1.00  0.00     0.074 A 
ATOM     52  C   UNL A   1      46.016  28.473  30.245  1.00  0.00     0.029 A 
ATOM     53  N   UNL A   1      44.923  30.348  30.606  1.00  0.00    -0.354 N 
ATOM     54  N   UNL A   1      41.166  30.523  32.850  1.00  0.00    -0.248 NA
ATOM     55  C   UNL A   1      40.851  31.773  30.903  1.00  0.00     0.031 C 
ATOM     56  C   UNL A   1      45.425  28.440  31.540  1.00  0.00     0.029 A 
ATOM     57  C   UNL A   1      44.551  29.525  31.639  1.00  0.00     0.049 A 
ATOM     58  H   UNL A   1      44.855  31.329  30.584  1.00  0.00     0.167 HD
ATOM     59  C   UNL A   1      42.393  30.620  32.209  1.00  0.00     0.074 A 
ATOM     60  C   UNL A   1      42.144  31.461  31.038  1.00  0.00     0.031 C 
ATOM     61  C   UNL A   1      43.430  29.783  32.515  1.00  0.00     0.037 A 
BRANCH  48  62
ATOM     62  C   UNL A   1      45.333  31.021  27.497  1.00  0.00     0.058 A 
ATOM     63  C   UNL A   1      46.620  31.138  26.930  1.00  0.00     0.135 A 
ATOM     64  C   UNL A   1      44.579  32.215  27.549  1.00  0.00     0.135 A 
ATOM     65  F   UNL A   1      47.422  30.065  26.829  1.00  0.00    -0.206 F 
ATOM     66  C   UNL A   1      47.147  32.363  26.520  1.00  0.00     0.059 A 
ATOM     67  C   UNL A   1      45.068  33.437  27.099  1.00  0.00     0.059 A 
ATOM     68  F   UNL A   1      43.374  32.271  28.128  1.00  0.00    -0.206 F 
ATOM     69  C   UNL A   1      46.368  33.511  26.627  1.00  0.00     0.060 A 
BRANCH  69  70
ATOM     70  S   UNL A   1      47.093  35.110  26.226  1.00  0.00     0.124 S 
ATOM     71  O   UNL A   1      45.904  35.915  25.968  1.00  0.00    -0.237 OA
ATOM     72  O   UNL A   1      47.827  35.425  27.448  1.00  0.00    -0.237 OA
ATOM     73  O   UNL A   1      47.922  34.822  25.060  1.00  0.00    -0.744 OA
ENDBRANCH  69  70
ENDBRANCH  48  62
BRANCH  49  74
ATOM     74  C   UNL A   1      37.680  31.106  31.773  1.00  0.00     0.058 A 
ATOM     75  C   UNL A   1      37.015  31.436  32.967  1.00  0.00     0.135 A 
ATOM     76  C   UNL A   1      37.204  31.746  30.609  1.00  0.00     0.135 A 
ATOM     77  F   UNL A   1      37.416  30.905  34.132  1.00  0.00    -0.206 F 
ATOM     78  C   UNL A   1      35.962  32.363  33.007  1.00  0.00     0.059 A 
ATOM     79  C   UNL A   1      36.153  32.662  30.621  1.00  0.00     0.059 A 
ATOM     80  F   UNL A   1      37.807  31.567  29.424  1.00  0.00    -0.206 F 
ATOM     81  C   UNL A   1      35.548  32.984  31.829  1.00  0.00     0.060 A 
BRANCH  81  82
ATOM     82  S   UNL A   1      34.292  34.285  31.890  1.00  0.00     0.124 S 
ATOM     83  O   UNL A   1      35.059  35.426  32.377  1.00  0.00    -0.237 OA
ATOM     84  O   UNL A   1      33.856  34.355  30.500  1.00  0.00    -0.237 OA
ATOM     85  O   UNL A   1      33.300  33.757  32.824  1.00  0.00    -0.744 OA
ENDBRANCH  81  82
ENDBRANCH  49  74
BRANCH  61  86
ATOM     86  C   UNL A   1      43.298  28.877  33.714  1.00  0.00     0.058 A 
ATOM     87  C   UNL A   1      43.542  29.286  35.038  1.00  0.00     0.135 A 
ATOM     88  C   UNL A   1      42.716  27.614  33.536  1.00  0.00     0.135 A 
ATOM     89  F   UNL A   1      43.989  30.519  35.307  1.00  0.00    -0.206 F 
ATOM     90  C   UNL A   1      43.254  28.465  36.130  1.00  0.00     0.059 A 
ATOM     91  C   UNL A   1      42.390  26.790  34.611  1.00  0.00     0.059 A 
ATOM     92  F   UNL A   1      42.393  27.190  32.302  1.00  0.00    -0.206 F 
ATOM     93  C   UNL A   1      42.673  27.218  35.906  1.00  0.00     0.060 A 
BRANCH  93  94
ATOM     94  S   UNL A   1      42.224  26.195  37.324  1.00  0.00     0.124 S 
ATOM     95  O   UNL A   1      42.410  24.845  36.801  1.00  0.00    -0.237 OA
ATOM     96  O   UNL A   1      43.184  26.618  38.339  1.00  0.00    -0.237 OA
ATOM     97  O   UNL A   1      40.837  26.573  37.594  1.00  0.00    -0.744 OA
ENDBRANCH  93  94
ENDBRANCH  61  86
ENDBRANCH  35  36
ENDBRANCH  27  30
ENDBRANCH  25  26
ENDBRANCH   1  25
TORSDOF 16
ENDMDL
MODEL 3
REMARK VINA RESULT:     -12.5      2.871      9.362
REMARK SMILES CC1(C)C(n2c(SCC(=O)NCCCNC(=O)c3ccc(-c4c5nc(c(-c6c(F)cc(S(=O)(=O)[O-])cc6F)c6ccc([nH]6)c(-c6c(F)cc(S(=O)(=O)[O-])cc6F)c6nc(c(-c7c(F)cc(S(=O)(=O)[O-])cc7F)c7ccc4[nH]7)C=C6)C=C5)cc3)nc3cnccc32)C1(C)C
REMARK SMILES IDX 13 1 12 2 11 3 9 4 10 5 8 7 7 8 6 9 5 10 90 11 84 12 85 13
REMARK SMILES IDX 89 14 86 15 88 16 87 17 4 18 1 19 2 20 3 21 91 22 92 23
REMARK SMILES IDX 93 24 14 25 15 26 16 27 17 29 18 30 19 31 83 32 20 33 82 34
REMARK SMILES IDX 21 35 22 36 23 37 76 38 24 39 81 40 75 41 77 42 25 43 80 44
REMARK SMILES IDX 74 45 73 46 26 48 60 49 39 50 59 51 40 52 43 53 58 54 78 55
REMARK SMILES IDX 41 56 42 57 57 59 79 60 44 61 27 62 28 63 37 64 29 65 30 66
REMARK SMILES IDX 36 67 38 68 31 69 32 70 33 71 34 72 35 73 61 74 62 75 71 76
REMARK SMILES IDX 63 77 64 78 70 79 72 80 65 81 66 82 67 83 68 84 69 85 45 86
REMARK SMILES IDX 46 87 55 88 47 89 48 90 54 91 56 92 49 93 50 94 51 95 52 96
REMARK SMILES IDX 53 97
REMARK H PARENT 11 6 15 28 77 47 43 58
REMARK Flexibility Score: inf
ROOT
ATOM      1  C   UNL A   1      31.796  28.440  27.309  1.00  0.00     0.042 C 
ENDROOT
BRANCH   1   2
ATOM      2  C   UNL A   1      31.471  27.411  26.230  1.00  0.00     0.117 C 
BRANCH   2   3
ATOM      3  N   UNL A   1      31.815  26.078  26.683  1.00  0.00    -0.355 N 
ATOM      4  C   UNL A   1      31.152  24.918  26.449  1.00  0.00     0.230 C 
ATOM      5  O   UNL A   1      31.371  23.976  27.218  1.00  0.00    -0.274 OA
ATOM      6  H   UNL A   1      32.632  26.006  27.229  1.00  0.00     0.163 HD
BRANCH   4   7
ATOM      7  C   UNL A   1      30.279  24.794  25.230  1.00  0.00     0.178 C 
BRANCH   7   8
ATOM      8  S   UNL A   1      31.094  24.365  23.719  1.00  0.00    -0.078 SA
BRANCH   8   9
ATOM      9  C   UNL A   1      32.035  22.925  23.861  1.00  0.00     0.169 A 
ATOM     10  N   UNL A   1      33.264  22.642  24.431  1.00  0.00    -0.315 N 
ATOM     11  C   UNL A   1      33.396  21.257  24.430  1.00  0.00     0.072 A 
ATOM     12  N   UNL A   1      31.526  21.845  23.298  1.00  0.00    -0.221 NA
ATOM     13  C   UNL A   1      32.337  20.809  23.647  1.00  0.00     0.108 A 
ATOM     14  C   UNL A   1      34.314  20.359  24.983  1.00  0.00     0.049 A 
ATOM     15  C   UNL A   1      32.219  19.447  23.355  1.00  0.00     0.141 A 
ATOM     16  C   UNL A   1      34.107  19.024  24.650  1.00  0.00     0.113 A 
ATOM     17  N   UNL A   1      33.115  18.559  23.858  1.00  0.00    -0.262 NA
BRANCH  10  18
ATOM     18  C   UNL A   1      34.246  23.492  25.090  1.00  0.00     0.102 C 
ATOM     19  C   UNL A   1      36.841  23.708  25.597  1.00  0.00     0.014 C 
ATOM     20  C   UNL A   1      35.684  23.715  24.611  1.00  0.00    -0.007 C 
ATOM     21  C   UNL A   1      36.092  23.196  23.250  1.00  0.00     0.014 C 
ATOM     22  C   UNL A   1      34.698  24.904  24.744  1.00  0.00    -0.007 C 
ATOM     23  C   UNL A   1      34.878  25.859  25.922  1.00  0.00     0.014 C 
ATOM     24  C   UNL A   1      34.307  25.616  23.464  1.00  0.00     0.014 C 
ENDBRANCH  10  18
ENDBRANCH   8   9
ENDBRANCH   7   8
ENDBRANCH   4   7
ENDBRANCH   2   3
ENDBRANCH   1   2
BRANCH   1  25
ATOM     25  C   UNL A   1      33.241  28.947  27.254  1.00  0.00     0.118 C 
BRANCH  25  26
ATOM     26  N   UNL A   1      33.416  30.317  27.695  1.00  0.00    -0.352 N 
ATOM     27  C   UNL A   1      34.494  31.085  28.032  1.00  0.00     0.251 C 
ATOM     28  H   UNL A   1      32.565  30.806  27.766  1.00  0.00     0.163 HD
ATOM     29  O   UNL A   1      34.249  32.254  28.344  1.00  0.00    -0.269 OA
BRANCH  27  30
ATOM     30  C   UNL A   1      35.891  30.590  28.113  1.00  0.00     0.039 A 
ATOM     31  C   UNL A   1      36.312  29.302  27.781  1.00  0.00     0.014 A 
ATOM     32  C   UNL A   1      36.836  31.504  28.610  1.00  0.00     0.014 A 
ATOM     33  C   UNL A   1      37.601  28.886  28.079  1.00  0.00     0.010 A 
ATOM     34  C   UNL A   1      38.141  31.110  28.862  1.00  0.00     0.010 A 
ATOM     35  C   UNL A   1      38.499  29.782  28.657  1.00  0.00    -0.014 A 
BRANCH  35  36
ATOM     36  C   UNL A   1      39.846  29.306  28.945  1.00  0.00     0.031 A 
ATOM     37  C   UNL A   1      40.204  29.284  30.394  1.00  0.00     0.074 A 
ATOM     38  C   UNL A   1      40.655  28.822  27.982  1.00  0.00     0.049 A 
ATOM     39  N   UNL A   1      41.158  29.923  30.992  1.00  0.00    -0.248 NA
ATOM     40  C   UNL A   1      39.303  28.572  31.316  1.00  0.00     0.031 C 
ATOM     41  C   UNL A   1      40.346  28.573  26.570  1.00  0.00     0.029 A 
ATOM     42  N   UNL A   1      41.924  28.351  28.096  1.00  0.00    -0.354 N 
ATOM     43  C   UNL A   1      41.096  29.551  32.335  1.00  0.00     0.074 A 
ATOM     44  C   UNL A   1      39.858  28.834  32.499  1.00  0.00     0.031 C 
ATOM     45  C   UNL A   1      41.303  27.781  26.037  1.00  0.00     0.029 A 
ATOM     46  C   UNL A   1      42.351  27.580  27.022  1.00  0.00     0.049 A 
ATOM     47  H   UNL A   1      42.494  28.539  28.877  1.00  0.00     0.167 HD
ATOM     48  C   UNL A   1      42.153  29.712  33.181  1.00  0.00     0.037 A 
ATOM     49  C   UNL A   1      43.451  26.783  26.989  1.00  0.00     0.037 A 
ATOM     50  C   UNL A   1      43.117  30.635  32.644  1.00  0.00     0.049 A 
ATOM     51  C   UNL A   1      44.364  27.264  28.062  1.00  0.00     0.074 A 
ATOM     52  C   UNL A   1      43.088  31.978  32.325  1.00  0.00     0.029 A 
ATOM     53  N   UNL A   1      44.221  30.119  32.006  1.00  0.00    -0.354 N 
ATOM     54  N   UNL A   1      44.957  28.429  28.032  1.00  0.00    -0.248 NA
ATOM     55  C   UNL A   1      44.217  26.678  29.389  1.00  0.00     0.031 C 
ATOM     56  C   UNL A   1      43.858  32.087  31.133  1.00  0.00     0.029 A 
ATOM     57  C   UNL A   1      44.367  30.821  30.836  1.00  0.00     0.049 A 
ATOM     58  H   UNL A   1      44.796  29.389  32.327  1.00  0.00     0.167 HD
ATOM     59  C   UNL A   1      44.880  28.907  29.333  1.00  0.00     0.074 A 
ATOM     60  C   UNL A   1      44.474  27.754  30.138  1.00  0.00     0.031 C 
ATOM     61  C   UNL A   1      44.867  30.246  29.605  1.00  0.00     0.037 A 
BRANCH  48  62
ATOM     62  C   UNL A   1      42.466  28.813  34.351  1.00  0.00     0.058 A 
ATOM     63  C   UNL A   1      42.623  29.367  35.639  1.00  0.00     0.135 A 
ATOM     64  C   UNL A   1      42.902  27.478  34.205  1.00  0.00     0.135 A 
ATOM     65  F   UNL A   1      42.241  30.630  35.892  1.00  0.00    -0.206 F 
ATOM     66  C   UNL A   1      43.239  28.673  36.681  1.00  0.00     0.059 A 
ATOM     67  C   UNL A   1      43.473  26.751  35.245  1.00  0.00     0.059 A 
ATOM     68  F   UNL A   1      42.885  26.849  33.023  1.00  0.00    -0.206 F 
ATOM     69  C   UNL A   1      43.679  27.370  36.467  1.00  0.00     0.060 A 
BRANCH  69  70
ATOM     70  S   UNL A   1      44.594  26.522  37.765  1.00  0.00     0.124 S 
ATOM     71  O   UNL A   1      45.912  26.388  37.156  1.00  0.00    -0.237 OA
ATOM     72  O   UNL A   1      44.493  27.467  38.873  1.00  0.00    -0.237 OA
ATOM     73  O   UNL A   1      43.852  25.277  37.942  1.00  0.00    -0.744 OA
ENDBRANCH  69  70
ENDBRANCH  48  62
BRANCH  49  74
ATOM     74  C   UNL A   1      43.579  25.453  26.330  1.00  0.00     0.058 A 
ATOM     75  C   UNL A   1      44.516  25.215  25.309  1.00  0.00     0.135 A 
ATOM     76  C   UNL A   1      42.950  24.308  26.865  1.00  0.00     0.135 A 
ATOM     77  F   UNL A   1      45.190  26.237  24.760  1.00  0.00    -0.206 F 
ATOM     78  C   UNL A   1      44.827  23.920  24.865  1.00  0.00     0.059 A 
ATOM     79  C   UNL A   1      43.235  23.014  26.433  1.00  0.00     0.059 A 
ATOM     80  F   UNL A   1      42.095  24.405  27.894  1.00  0.00    -0.206 F 
ATOM     81  C   UNL A   1      44.191  22.824  25.446  1.00  0.00     0.060 A 
BRANCH  81  82
ATOM     82  S   UNL A   1      44.690  21.146  24.984  1.00  0.00     0.124 S 
ATOM     83  O   UNL A   1      43.698  20.332  25.678  1.00  0.00    -0.237 OA
ATOM     84  O   UNL A   1      44.579  21.183  23.530  1.00  0.00    -0.237 OA
ATOM     85  O   UNL A   1      46.052  21.041  25.499  1.00  0.00    -0.744 OA
ENDBRANCH  81  82
ENDBRANCH  49  74
BRANCH  61  86
ATOM     86  C   UNL A   1      45.149  31.215  28.484  1.00  0.00     0.058 A 
ATOM     87  C   UNL A   1      44.191  31.619  27.536  1.00  0.00     0.135 A 
ATOM     88  C   UNL A   1      46.370  31.905  28.489  1.00  0.00     0.135 A 
ATOM     89  F   UNL A   1      42.960  31.094  27.533  1.00  0.00    -0.206 F 
ATOM     90  C   UNL A   1      44.447  32.636  26.615  1.00  0.00     0.059 A 
ATOM     91  C   UNL A   1      46.636  32.945  27.601  1.00  0.00     0.059 A 
ATOM     92  F   UNL A   1      47.302  31.617  29.413  1.00  0.00    -0.206 F 
ATOM     93  C   UNL A   1      45.674  33.298  26.657  1.00  0.00     0.060 A 
BRANCH  93  94
ATOM     94  S   UNL A   1      45.968  34.669  25.520  1.00  0.00     0.124 S 
ATOM     95  O   UNL A   1      45.117  34.318  24.389  1.00  0.00    -0.237 OA
ATOM     96  O   UNL A   1      45.540  35.826  26.299  1.00  0.00    -0.237 OA
ATOM     97  O   UNL A   1      47.406  34.598  25.264  1.00  0.00    -0.744 OA
ENDBRANCH  93  94
ENDBRANCH  61  86
ENDBRANCH  35  36
ENDBRANCH  27  30
ENDBRANCH  25  26
ENDBRANCH   1  25
TORSDOF 16
ENDMDL
