MODEL 1
REMARK VINA RESULT:     -11.6      0.000      0.000
REMARK SMILES C[C@H]1CC[C@H](CNC(=O)NCc2ccc(C(=O)NCCCNC(=O)c3ccc(-c4c5nc(c(-c6c(F)cc(S(=O)(=O)[O-])cc6F)c6ccc([nH]6)c(-c6c(F)cc(S(=O)(=O)[O-])cc6F)c6nc(c(-c7c(F)cc(S(=O)(=O)[O-])cc7F)c7ccc4[nH]7)C=C6)C=C5)cc3)o2)CC1
REMARK SMILES IDX 19 1 18 2 16 3 17 4 15 6 12 7 13 8 91 9 14 10 11 11 10 12
REMARK SMILES IDX 7 13 8 14 9 16 6 18 5 19 1 20 2 21 93 22 3 23 92 24 4 25
REMARK SMILES IDX 20 26 21 27 22 28 23 29 24 31 25 32 26 33 90 34 27 35 89 36
REMARK SMILES IDX 28 37 29 38 30 39 83 40 31 41 88 42 82 43 84 44 32 45 87 46
REMARK SMILES IDX 81 47 80 48 33 50 67 51 46 52 66 53 47 54 50 55 65 56 85 57
REMARK SMILES IDX 48 58 49 59 64 61 86 62 51 63 34 64 35 65 44 66 36 67 37 68
REMARK SMILES IDX 43 69 45 70 38 71 39 72 40 73 41 74 42 75 68 76 69 77 78 78
REMARK SMILES IDX 70 79 71 80 77 81 79 82 72 83 73 84 74 85 75 86 76 87 52 88
REMARK SMILES IDX 53 89 62 90 54 91 55 92 61 93 63 94 56 95 57 96 58 97 59 98
REMARK SMILES IDX 60 99
REMARK H PARENT 18 5 7 15 10 17 22 30 84 49 50 60
REMARK Flexibility Score: inf
ROOT
ATOM      1  C   UNL A   1      33.640  28.723  24.886  1.00  0.00     0.118 C 
ENDROOT
BRANCH   1   2
ATOM      2  N   UNL A   1      34.060  28.242  23.584  1.00  0.00    -0.349 N 
ATOM      3  C   UNL A   1      33.402  27.459  22.664  1.00  0.00     0.286 C 
ATOM      4  O   UNL A   1      33.928  27.384  21.549  1.00  0.00    -0.266 OA
ATOM      5  H   UNL A   1      34.965  28.521  23.313  1.00  0.00     0.163 HD
BRANCH   3   6
ATOM      6  C   UNL A   1      32.162  26.780  22.998  1.00  0.00     0.191 A 
ATOM      7  C   UNL A   1      30.997  24.993  23.617  1.00  0.00     0.124 A 
ATOM      8  C   UNL A   1      30.097  26.031  23.518  1.00  0.00     0.048 A 
ATOM      9  O   UNL A   1      32.245  25.441  23.292  1.00  0.00    -0.454 OA
ATOM     10  C   UNL A   1      30.843  27.175  23.140  1.00  0.00     0.056 A 
BRANCH   7  11
ATOM     11  C   UNL A   1      30.839  23.557  23.979  1.00  0.00     0.193 C 
BRANCH  11  12
ATOM     12  N   UNL A   1      30.255  23.404  25.291  1.00  0.00    -0.331 N 
ATOM     13  N   UNL A   1      31.787  22.116  26.538  1.00  0.00    -0.338 N 
ATOM     14  C   UNL A   1      30.702  22.893  26.441  1.00  0.00     0.315 C 
ATOM     15  H   UNL A   1      32.135  22.039  27.456  1.00  0.00     0.165 HD
ATOM     16  O   UNL A   1      30.091  23.160  27.478  1.00  0.00    -0.249 OA
ATOM     17  H   UNL A   1      29.334  23.747  25.351  1.00  0.00     0.165 HD
BRANCH  13  18
ATOM     18  C   UNL A   1      32.556  21.362  25.564  1.00  0.00     0.121 C 
BRANCH  18  19
ATOM     19  C   UNL A   1      33.863  22.086  25.198  1.00  0.00     0.008 C 
ATOM     20  C   UNL A   1      37.884  23.788  25.682  1.00  0.00     0.007 C 
ATOM     21  C   UNL A   1      36.562  23.084  25.979  1.00  0.00    -0.014 C 
ATOM     22  C   UNL A   1      36.389  21.846  25.090  1.00  0.00     0.003 C 
ATOM     23  C   UNL A   1      35.382  24.043  25.793  1.00  0.00     0.003 C 
ATOM     24  C   UNL A   1      35.062  21.141  25.366  1.00  0.00     0.006 C 
ATOM     25  C   UNL A   1      34.047  23.351  26.056  1.00  0.00     0.006 C 
ENDBRANCH  18  19
ENDBRANCH  13  18
ENDBRANCH  11  12
ENDBRANCH   7  11
ENDBRANCH   3   6
ENDBRANCH   1   2
BRANCH   1  26
ATOM     26  C   UNL A   1      34.013  27.759  26.010  1.00  0.00     0.042 C 
BRANCH  26  27
ATOM     27  C   UNL A   1      33.470  28.160  27.382  1.00  0.00     0.118 C 
BRANCH  27  28
ATOM     28  N   UNL A   1      33.381  29.606  27.539  1.00  0.00    -0.352 N 
ATOM     29  C   UNL A   1      34.278  30.512  28.047  1.00  0.00     0.251 C 
ATOM     30  H   UNL A   1      32.534  29.999  27.229  1.00  0.00     0.163 HD
ATOM     31  O   UNL A   1      33.890  31.657  28.272  1.00  0.00    -0.269 OA
BRANCH  29  32
ATOM     32  C   UNL A   1      35.685  30.145  28.333  1.00  0.00     0.039 A 
ATOM     33  C   UNL A   1      36.618  30.220  27.292  1.00  0.00     0.014 A 
ATOM     34  C   UNL A   1      36.083  29.655  29.581  1.00  0.00     0.014 A 
ATOM     35  C   UNL A   1      37.947  29.851  27.513  1.00  0.00     0.010 A 
ATOM     36  C   UNL A   1      37.424  29.345  29.817  1.00  0.00     0.010 A 
ATOM     37  C   UNL A   1      38.369  29.433  28.785  1.00  0.00    -0.014 A 
BRANCH  37  38
ATOM     38  C   UNL A   1      39.793  29.089  29.039  1.00  0.00     0.031 A 
ATOM     39  C   UNL A   1      40.734  30.104  29.630  1.00  0.00     0.074 A 
ATOM     40  C   UNL A   1      40.251  27.869  28.697  1.00  0.00     0.049 A 
ATOM     41  N   UNL A   1      42.012  29.991  29.893  1.00  0.00    -0.248 NA
ATOM     42  C   UNL A   1      40.173  31.427  29.945  1.00  0.00     0.031 C 
ATOM     43  C   UNL A   1      39.452  26.812  28.070  1.00  0.00     0.029 A 
ATOM     44  N   UNL A   1      41.498  27.311  28.821  1.00  0.00    -0.354 N 
ATOM     45  C   UNL A   1      42.410  31.226  30.391  1.00  0.00     0.074 A 
ATOM     46  C   UNL A   1      41.247  32.089  30.350  1.00  0.00     0.031 C 
ATOM     47  C   UNL A   1      40.222  25.727  27.890  1.00  0.00     0.029 A 
ATOM     48  C   UNL A   1      41.573  26.018  28.359  1.00  0.00     0.049 A 
ATOM     49  H   UNL A   1      42.267  27.791  29.206  1.00  0.00     0.167 HD
ATOM     50  C   UNL A   1      43.625  31.604  30.858  1.00  0.00     0.037 A 
ATOM     51  C   UNL A   1      42.611  25.160  28.321  1.00  0.00     0.037 A 
ATOM     52  C   UNL A   1      44.774  30.737  30.920  1.00  0.00     0.049 A 
ATOM     53  C   UNL A   1      43.942  25.592  28.870  1.00  0.00     0.074 A 
ATOM     54  C   UNL A   1      46.036  31.011  31.422  1.00  0.00     0.029 A 
ATOM     55  N   UNL A   1      44.803  29.426  30.468  1.00  0.00    -0.354 N 
ATOM     56  N   UNL A   1      44.286  26.749  29.384  1.00  0.00    -0.248 NA
ATOM     57  C   UNL A   1      45.023  24.597  28.844  1.00  0.00     0.031 C 
ATOM     58  C   UNL A   1      46.835  29.875  31.247  1.00  0.00     0.029 A 
ATOM     59  C   UNL A   1      46.061  28.881  30.670  1.00  0.00     0.049 A 
ATOM     60  H   UNL A   1      44.041  28.953  30.063  1.00  0.00     0.167 HD
ATOM     61  C   UNL A   1      45.617  26.615  29.762  1.00  0.00     0.074 A 
ATOM     62  C   UNL A   1      46.010  25.260  29.431  1.00  0.00     0.031 C 
ATOM     63  C   UNL A   1      46.438  27.531  30.332  1.00  0.00     0.037 A 
BRANCH  50  64
ATOM     64  C   UNL A   1      43.770  33.021  31.344  1.00  0.00     0.058 A 
ATOM     65  C   UNL A   1      43.420  33.389  32.654  1.00  0.00     0.135 A 
ATOM     66  C   UNL A   1      44.281  34.020  30.499  1.00  0.00     0.135 A 
ATOM     67  F   UNL A   1      42.915  32.476  33.499  1.00  0.00    -0.206 F 
ATOM     68  C   UNL A   1      43.537  34.702  33.097  1.00  0.00     0.059 A 
ATOM     69  C   UNL A   1      44.429  35.335  30.930  1.00  0.00     0.059 A 
ATOM     70  F   UNL A   1      44.634  33.724  29.239  1.00  0.00    -0.206 F 
ATOM     71  C   UNL A   1      44.037  35.670  32.225  1.00  0.00     0.060 A 
BRANCH  71  72
ATOM     72  S   UNL A   1      44.169  37.374  32.810  1.00  0.00     0.124 S 
ATOM     73  O   UNL A   1      43.940  38.121  31.577  1.00  0.00    -0.237 OA
ATOM     74  O   UNL A   1      43.103  37.450  33.804  1.00  0.00    -0.237 OA
ATOM     75  O   UNL A   1      45.526  37.444  33.343  1.00  0.00    -0.744 OA
ENDBRANCH  71  72
ENDBRANCH  50  64
BRANCH  51  76
ATOM     76  C   UNL A   1      42.417  23.792  27.775  1.00  0.00     0.058 A 
ATOM     77  C   UNL A   1      42.380  23.572  26.390  1.00  0.00     0.135 A 
ATOM     78  C   UNL A   1      42.293  22.680  28.620  1.00  0.00     0.135 A 
ATOM     79  F   UNL A   1      42.489  24.605  25.543  1.00  0.00    -0.206 F 
ATOM     80  C   UNL A   1      42.217  22.295  25.861  1.00  0.00     0.059 A 
ATOM     81  C   UNL A   1      42.151  21.392  28.115  1.00  0.00     0.059 A 
ATOM     82  F   UNL A   1      42.342  22.839  29.952  1.00  0.00    -0.206 F 
ATOM     83  C   UNL A   1      42.107  21.211  26.732  1.00  0.00     0.060 A 
BRANCH  83  84
ATOM     84  S   UNL A   1      41.964  19.550  26.038  1.00  0.00     0.124 S 
ATOM     85  O   UNL A   1      42.836  19.643  24.873  1.00  0.00    -0.237 OA
ATOM     86  O   UNL A   1      42.446  18.714  27.134  1.00  0.00    -0.237 OA
ATOM     87  O   UNL A   1      40.537  19.429  25.753  1.00  0.00    -0.744 OA
ENDBRANCH  83  84
ENDBRANCH  51  76
BRANCH  63  88
ATOM     88  C   UNL A   1      47.837  27.085  30.655  1.00  0.00     0.058 A 
ATOM     89  C   UNL A   1      48.127  26.366  31.826  1.00  0.00     0.135 A 
ATOM     90  C   UNL A   1      48.896  27.372  29.781  1.00  0.00     0.135 A 
ATOM     91  F   UNL A   1      47.150  26.071  32.697  1.00  0.00    -0.206 F 
ATOM     92  C   UNL A   1      49.427  25.976  32.134  1.00  0.00     0.059 A 
ATOM     93  C   UNL A   1      50.199  26.973  30.058  1.00  0.00     0.059 A 
ATOM     94  F   UNL A   1      48.669  28.049  28.643  1.00  0.00    -0.206 F 
ATOM     95  C   UNL A   1      50.458  26.291  31.247  1.00  0.00     0.060 A 
BRANCH  95  96
ATOM     96  S   UNL A   1      52.142  25.784  31.655  1.00  0.00     0.124 S 
ATOM     97  O   UNL A   1      51.933  24.410  32.098  1.00  0.00    -0.237 OA
ATOM     98  O   UNL A   1      52.837  25.941  30.381  1.00  0.00    -0.237 OA
ATOM     99  O   UNL A   1      52.536  26.727  32.698  1.00  0.00    -0.744 OA
ENDBRANCH  95  96
ENDBRANCH  63  88
ENDBRANCH  37  38
ENDBRANCH  29  32
ENDBRANCH  27  28
ENDBRANCH  26  27
ENDBRANCH   1  26
TORSDOF 17
ENDMDL
MODEL 2
REMARK VINA RESULT:     -11.5      2.745      3.417
REMARK SMILES C[C@H]1CC[C@H](CNC(=O)NCc2ccc(C(=O)NCCCNC(=O)c3ccc(-c4c5nc(c(-c6c(F)cc(S(=O)(=O)[O-])cc6F)c6ccc([nH]6)c(-c6c(F)cc(S(=O)(=O)[O-])cc6F)c6nc(c(-c7c(F)cc(S(=O)(=O)[O-])cc7F)c7ccc4[nH]7)C=C6)C=C5)cc3)o2)CC1
REMARK SMILES IDX 19 1 18 2 16 3 17 4 15 6 12 7 13 8 91 9 14 10 11 11 10 12
REMARK SMILES IDX 7 13 8 14 9 16 6 18 5 19 1 20 2 21 93 22 3 23 92 24 4 25
REMARK SMILES IDX 20 26 21 27 22 28 23 29 24 31 25 32 26 33 90 34 27 35 89 36
REMARK SMILES IDX 28 37 29 38 30 39 83 40 31 41 88 42 82 43 84 44 32 45 87 46
REMARK SMILES IDX 81 47 80 48 33 50 67 51 46 52 66 53 47 54 50 55 65 56 85 57
REMARK SMILES IDX 48 58 49 59 64 61 86 62 51 63 34 64 35 65 44 66 36 67 37 68
REMARK SMILES IDX 43 69 45 70 38 71 39 72 40 73 41 74 42 75 68 76 69 77 78 78
REMARK SMILES IDX 70 79 71 80 77 81 79 82 72 83 73 84 74 85 75 86 76 87 52 88
REMARK SMILES IDX 53 89 62 90 54 91 55 92 61 93 63 94 56 95 57 96 58 97 59 98
REMARK SMILES IDX 60 99
REMARK H PARENT 18 5 7 15 10 17 22 30 84 49 50 60
REMARK Flexibility Score: inf
ROOT
ATOM      1  C   UNL A   1      33.174  29.332  26.346  1.00  0.00     0.118 C 
ENDROOT
BRANCH   1   2
ATOM      2  N   UNL A   1      33.667  29.280  24.983  1.00  0.00    -0.349 N 
ATOM      3  C   UNL A   1      33.109  28.735  23.849  1.00  0.00     0.286 C 
ATOM      4  O   UNL A   1      33.665  29.029  22.785  1.00  0.00    -0.266 OA
ATOM      5  H   UNL A   1      34.545  29.704  24.846  1.00  0.00     0.163 HD
BRANCH   3   6
ATOM      6  C   UNL A   1      31.936  27.882  23.918  1.00  0.00     0.191 A 
ATOM      7  C   UNL A   1      30.943  25.914  24.185  1.00  0.00     0.124 A 
ATOM      8  C   UNL A   1      29.936  26.841  24.030  1.00  0.00     0.048 A 
ATOM      9  O   UNL A   1      32.154  26.539  24.107  1.00  0.00    -0.454 OA
ATOM     10  C   UNL A   1      30.570  28.100  23.878  1.00  0.00     0.056 A 
BRANCH   7  11
ATOM     11  C   UNL A   1      30.926  24.439  24.393  1.00  0.00     0.193 C 
BRANCH  11  12
ATOM     12  N   UNL A   1      30.180  24.079  25.575  1.00  0.00    -0.331 N 
ATOM     13  N   UNL A   1      31.291  22.219  26.504  1.00  0.00    -0.338 N 
ATOM     14  C   UNL A   1      30.390  23.206  26.563  1.00  0.00     0.315 C 
ATOM     15  H   UNL A   1      31.512  21.835  27.384  1.00  0.00     0.165 HD
ATOM     16  O   UNL A   1      29.728  23.320  27.597  1.00  0.00    -0.249 OA
ATOM     17  H   UNL A   1      29.340  24.583  25.674  1.00  0.00     0.165 HD
BRANCH  13  18
ATOM     18  C   UNL A   1      32.010  21.597  25.407  1.00  0.00     0.121 C 
BRANCH  18  19
ATOM     19  C   UNL A   1      33.506  21.450  25.727  1.00  0.00     0.008 C 
ATOM     20  C   UNL A   1      37.858  21.587  25.146  1.00  0.00     0.007 C 
ATOM     21  C   UNL A   1      36.357  21.705  24.892  1.00  0.00    -0.014 C 
ATOM     22  C   UNL A   1      35.714  22.698  25.867  1.00  0.00     0.003 C 
ATOM     23  C   UNL A   1      35.679  20.335  25.000  1.00  0.00     0.003 C 
ATOM     24  C   UNL A   1      34.208  22.814  25.636  1.00  0.00     0.006 C 
ATOM     25  C   UNL A   1      34.171  20.434  24.780  1.00  0.00     0.006 C 
ENDBRANCH  18  19
ENDBRANCH  13  18
ENDBRANCH  11  12
ENDBRANCH   7  11
ENDBRANCH   3   6
ENDBRANCH   1   2
BRANCH   1  26
ATOM     26  C   UNL A   1      33.856  30.421  27.170  1.00  0.00     0.042 C 
BRANCH  26  27
ATOM     27  C   UNL A   1      35.141  29.966  27.863  1.00  0.00     0.118 C 
BRANCH  27  28
ATOM     28  N   UNL A   1      35.283  30.541  29.194  1.00  0.00    -0.352 N 
ATOM     29  C   UNL A   1      36.354  30.566  30.053  1.00  0.00     0.251 C 
ATOM     30  H   UNL A   1      34.475  30.986  29.536  1.00  0.00     0.163 HD
ATOM     31  O   UNL A   1      36.165  30.926  31.214  1.00  0.00    -0.269 OA
BRANCH  29  32
ATOM     32  C   UNL A   1      37.714  30.166  29.622  1.00  0.00     0.039 A 
ATOM     33  C   UNL A   1      38.679  29.918  30.605  1.00  0.00     0.014 A 
ATOM     34  C   UNL A   1      38.076  30.108  28.273  1.00  0.00     0.014 A 
ATOM     35  C   UNL A   1      39.982  29.571  30.240  1.00  0.00     0.010 A 
ATOM     36  C   UNL A   1      39.361  29.701  27.908  1.00  0.00     0.010 A 
ATOM     37  C   UNL A   1      40.330  29.435  28.886  1.00  0.00    -0.014 A 
BRANCH  37  38
ATOM     38  C   UNL A   1      41.700  29.015  28.492  1.00  0.00     0.031 A 
ATOM     39  C   UNL A   1      42.823  30.016  28.432  1.00  0.00     0.074 A 
ATOM     40  C   UNL A   1      41.925  27.733  28.144  1.00  0.00     0.049 A 
ATOM     41  N   UNL A   1      44.072  29.836  28.082  1.00  0.00    -0.248 NA
ATOM     42  C   UNL A   1      42.495  31.404  28.790  1.00  0.00     0.031 C 
ATOM     43  C   UNL A   1      40.910  26.676  28.112  1.00  0.00     0.029 A 
ATOM     44  N   UNL A   1      43.075  27.099  27.748  1.00  0.00    -0.354 N 
ATOM     45  C   UNL A   1      44.675  31.085  28.165  1.00  0.00     0.074 A 
ATOM     46  C   UNL A   1      43.643  32.024  28.554  1.00  0.00     0.031 C 
ATOM     47  C   UNL A   1      41.489  25.522  27.742  1.00  0.00     0.029 A 
ATOM     48  C   UNL A   1      42.905  25.760  27.484  1.00  0.00     0.049 A 
ATOM     49  H   UNL A   1      43.941  27.559  27.660  1.00  0.00     0.167 HD
ATOM     50  C   UNL A   1      45.972  31.420  27.956  1.00  0.00     0.037 A 
ATOM     51  C   UNL A   1      43.790  24.827  27.083  1.00  0.00     0.037 A 
ATOM     52  C   UNL A   1      47.002  30.480  27.592  1.00  0.00     0.049 A 
ATOM     53  C   UNL A   1      45.229  25.215  26.884  1.00  0.00     0.074 A 
ATOM     54  C   UNL A   1      48.355  30.712  27.405  1.00  0.00     0.029 A 
ATOM     55  N   UNL A   1      46.796  29.128  27.361  1.00  0.00    -0.354 N 
ATOM     56  N   UNL A   1      45.790  26.393  27.016  1.00  0.00    -0.248 NA
ATOM     57  C   UNL A   1      46.155  24.144  26.492  1.00  0.00     0.031 C 
ATOM     58  C   UNL A   1      48.960  29.506  27.034  1.00  0.00     0.029 A 
ATOM     59  C   UNL A   1      47.992  28.515  27.025  1.00  0.00     0.049 A 
ATOM     60  H   UNL A   1      45.926  28.672  27.426  1.00  0.00     0.167 HD
ATOM     61  C   UNL A   1      47.140  26.202  26.745  1.00  0.00     0.074 A 
ATOM     62  C   UNL A   1      47.311  24.792  26.456  1.00  0.00     0.031 C 
ATOM     63  C   UNL A   1      48.146  27.111  26.736  1.00  0.00     0.037 A 
BRANCH  50  64
ATOM     64  C   UNL A   1      46.349  32.867  28.121  1.00  0.00     0.058 A 
ATOM     65  C   UNL A   1      46.797  33.374  29.352  1.00  0.00     0.135 A 
ATOM     66  C   UNL A   1      46.280  33.755  27.035  1.00  0.00     0.135 A 
ATOM     67  F   UNL A   1      46.870  32.572  30.426  1.00  0.00    -0.206 F 
ATOM     68  C   UNL A   1      47.128  34.716  29.509  1.00  0.00     0.059 A 
ATOM     69  C   UNL A   1      46.630  35.096  27.164  1.00  0.00     0.059 A 
ATOM     70  F   UNL A   1      45.862  33.324  25.834  1.00  0.00    -0.206 F 
ATOM     71  C   UNL A   1      47.035  35.571  28.410  1.00  0.00     0.060 A 
BRANCH  71  72
ATOM     72  S   UNL A   1      47.454  37.314  28.633  1.00  0.00     0.124 S 
ATOM     73  O   UNL A   1      48.863  37.227  29.006  1.00  0.00    -0.237 OA
ATOM     74  O   UNL A   1      47.181  37.875  27.314  1.00  0.00    -0.237 OA
ATOM     75  O   UNL A   1      46.549  37.747  29.694  1.00  0.00    -0.744 OA
ENDBRANCH  71  72
ENDBRANCH  50  64
BRANCH  51  76
ATOM     76  C   UNL A   1      43.342  23.425  26.881  1.00  0.00     0.058 A 
ATOM     77  C   UNL A   1      43.213  22.892  25.590  1.00  0.00     0.135 A 
ATOM     78  C   UNL A   1      43.062  22.585  27.969  1.00  0.00     0.135 A 
ATOM     79  F   UNL A   1      43.464  23.659  24.519  1.00  0.00    -0.206 F 
ATOM     80  C   UNL A   1      42.811  21.576  25.383  1.00  0.00     0.059 A 
ATOM     81  C   UNL A   1      42.680  21.259  27.787  1.00  0.00     0.059 A 
ATOM     82  F   UNL A   1      43.190  23.044  29.223  1.00  0.00    -0.206 F 
ATOM     83  C   UNL A   1      42.551  20.766  26.489  1.00  0.00     0.060 A 
BRANCH  83  84
ATOM     84  S   UNL A   1      42.097  19.040  26.213  1.00  0.00     0.124 S 
ATOM     85  O   UNL A   1      42.283  18.472  27.543  1.00  0.00    -0.237 OA
ATOM     86  O   UNL A   1      40.716  19.153  25.753  1.00  0.00    -0.237 OA
ATOM     87  O   UNL A   1      43.052  18.602  25.199  1.00  0.00    -0.744 OA
ENDBRANCH  83  84
ENDBRANCH  51  76
BRANCH  63  88
ATOM     88  C   UNL A   1      49.525  26.599  26.428  1.00  0.00     0.058 A 
ATOM     89  C   UNL A   1      50.338  26.031  27.422  1.00  0.00     0.135 A 
ATOM     90  C   UNL A   1      50.035  26.668  25.123  1.00  0.00     0.135 A 
ATOM     91  F   UNL A   1      49.899  25.946  28.687  1.00  0.00    -0.206 F 
ATOM     92  C   UNL A   1      51.624  25.581  27.138  1.00  0.00     0.059 A 
ATOM     93  C   UNL A   1      51.309  26.204  24.811  1.00  0.00     0.059 A 
ATOM     94  F   UNL A   1      49.293  27.194  24.134  1.00  0.00    -0.206 F 
ATOM     95  C   UNL A   1      52.103  25.679  25.830  1.00  0.00     0.060 A 
BRANCH  95  96
ATOM     96  S   UNL A   1      53.773  25.094  25.470  1.00  0.00     0.124 S 
ATOM     97  O   UNL A   1      53.564  23.653  25.376  1.00  0.00    -0.237 OA
ATOM     98  O   UNL A   1      54.082  25.773  24.216  1.00  0.00    -0.237 OA
ATOM     99  O   UNL A   1      54.545  25.543  26.625  1.00  0.00    -0.744 OA
ENDBRANCH  95  96
ENDBRANCH  63  88
ENDBRANCH  37  38
ENDBRANCH  29  32
ENDBRANCH  27  28
ENDBRANCH  26  27
ENDBRANCH   1  26
TORSDOF 17
ENDMDL
MODEL 3
REMARK VINA RESULT:     -11.4      4.999     10.694
REMARK SMILES C[C@H]1CC[C@H](CNC(=O)NCc2ccc(C(=O)NCCCNC(=O)c3ccc(-c4c5nc(c(-c6c(F)cc(S(=O)(=O)[O-])cc6F)c6ccc([nH]6)c(-c6c(F)cc(S(=O)(=O)[O-])cc6F)c6nc(c(-c7c(F)cc(S(=O)(=O)[O-])cc7F)c7ccc4[nH]7)C=C6)C=C5)cc3)o2)CC1
REMARK SMILES IDX 19 1 18 2 16 3 17 4 15 6 12 7 13 8 91 9 14 10 11 11 10 12
REMARK SMILES IDX 7 13 8 14 9 16 6 18 5 19 1 20 2 21 93 22 3 23 92 24 4 25
REMARK SMILES IDX 20 26 21 27 22 28 23 29 24 31 25 32 26 33 90 34 27 35 89 36
REMARK SMILES IDX 28 37 29 38 30 39 83 40 31 41 88 42 82 43 84 44 32 45 87 46
REMARK SMILES IDX 81 47 80 48 33 50 67 51 46 52 66 53 47 54 50 55 65 56 85 57
REMARK SMILES IDX 48 58 49 59 64 61 86 62 51 63 34 64 35 65 44 66 36 67 37 68
REMARK SMILES IDX 43 69 45 70 38 71 39 72 40 73 41 74 42 75 68 76 69 77 78 78
REMARK SMILES IDX 70 79 71 80 77 81 79 82 72 83 73 84 74 85 75 86 76 87 52 88
REMARK SMILES IDX 53 89 62 90 54 91 55 92 61 93 63 94 56 95 57 96 58 97 59 98
REMARK SMILES IDX 60 99
REMARK H PARENT 18 5 7 15 10 17 22 30 84 49 50 60
REMARK Flexibility Score: inf
ROOT
ATOM      1  C   UNL A   1      43.930  22.050  25.530  1.00  0.00     0.118 C 
ENDROOT
BRANCH   1   2
ATOM      2  N   UNL A   1      43.376  20.755  25.872  1.00  0.00    -0.349 N 
ATOM      3  C   UNL A   1      42.088  20.387  26.187  1.00  0.00     0.286 C 
ATOM      4  O   UNL A   1      41.873  19.171  26.228  1.00  0.00    -0.266 OA
ATOM      5  H   UNL A   1      44.028  20.016  25.880  1.00  0.00     0.163 HD
BRANCH   3   6
ATOM      6  C   UNL A   1      41.059  21.379  26.441  1.00  0.00     0.191 A 
ATOM      7  C   UNL A   1      38.975  22.136  26.309  1.00  0.00     0.124 A 
ATOM      8  C   UNL A   1      39.682  23.066  27.038  1.00  0.00     0.048 A 
ATOM      9  O   UNL A   1      39.807  21.120  25.937  1.00  0.00    -0.454 OA
ATOM     10  C   UNL A   1      41.008  22.574  27.137  1.00  0.00     0.056 A 
BRANCH   7  11
ATOM     11  C   UNL A   1      37.551  22.072  25.877  1.00  0.00     0.193 C 
BRANCH  11  12
ATOM     12  N   UNL A   1      37.417  22.306  24.458  1.00  0.00    -0.331 N 
ATOM     13  N   UNL A   1      35.102  22.292  24.013  1.00  0.00    -0.338 N 
ATOM     14  C   UNL A   1      36.371  22.527  23.659  1.00  0.00     0.315 C 
ATOM     15  H   UNL A   1      34.443  22.741  23.435  1.00  0.00     0.165 HD
ATOM     16  O   UNL A   1      36.579  22.986  22.533  1.00  0.00    -0.249 OA
ATOM     17  H   UNL A   1      38.277  22.303  23.980  1.00  0.00     0.165 HD
BRANCH  13  18
ATOM     18  C   UNL A   1      34.498  21.508  25.075  1.00  0.00     0.121 C 
BRANCH  18  19
ATOM     19  C   UNL A   1      34.091  20.111  24.581  1.00  0.00     0.008 C 
ATOM     20  C   UNL A   1      33.226  15.805  24.706  1.00  0.00     0.007 C 
ATOM     21  C   UNL A   1      33.623  17.218  25.130  1.00  0.00    -0.014 C 
ATOM     22  C   UNL A   1      32.460  18.196  24.934  1.00  0.00     0.003 C 
ATOM     23  C   UNL A   1      34.856  17.691  24.352  1.00  0.00     0.003 C 
ATOM     24  C   UNL A   1      32.849  19.617  25.339  1.00  0.00     0.006 C 
ATOM     25  C   UNL A   1      35.253  19.114  24.738  1.00  0.00     0.006 C 
ENDBRANCH  18  19
ENDBRANCH  13  18
ENDBRANCH  11  12
ENDBRANCH   7  11
ENDBRANCH   3   6
ENDBRANCH   1   2
BRANCH   1  26
ATOM     26  C   UNL A   1      44.747  22.652  26.670  1.00  0.00     0.042 C 
BRANCH  26  27
ATOM     27  C   UNL A   1      44.460  24.132  26.931  1.00  0.00     0.118 C 
BRANCH  27  28
ATOM     28  N   UNL A   1      43.744  24.758  25.828  1.00  0.00    -0.352 N 
ATOM     29  C   UNL A   1      42.779  25.734  25.822  1.00  0.00     0.251 C 
ATOM     30  H   UNL A   1      43.993  24.424  24.937  1.00  0.00     0.163 HD
ATOM     31  O   UNL A   1      42.169  25.948  24.775  1.00  0.00    -0.269 OA
BRANCH  29  32
ATOM     32  C   UNL A   1      42.453  26.522  27.035  1.00  0.00     0.039 A 
ATOM     33  C   UNL A   1      43.125  27.732  27.242  1.00  0.00     0.014 A 
ATOM     34  C   UNL A   1      41.563  26.053  28.005  1.00  0.00     0.014 A 
ATOM     35  C   UNL A   1      42.871  28.488  28.389  1.00  0.00     0.010 A 
ATOM     36  C   UNL A   1      41.264  26.839  29.120  1.00  0.00     0.010 A 
ATOM     37  C   UNL A   1      41.919  28.060  29.328  1.00  0.00    -0.014 A 
BRANCH  37  38
ATOM     38  C   UNL A   1      41.607  28.886  30.525  1.00  0.00     0.031 A 
ATOM     39  C   UNL A   1      42.429  28.763  31.779  1.00  0.00     0.074 A 
ATOM     40  C   UNL A   1      40.549  29.721  30.494  1.00  0.00     0.049 A 
ATOM     41  N   UNL A   1      42.285  29.380  32.925  1.00  0.00    -0.248 NA
ATOM     42  C   UNL A   1      43.545  27.805  31.751  1.00  0.00     0.031 C 
ATOM     43  C   UNL A   1      39.643  29.896  29.356  1.00  0.00     0.029 A 
ATOM     44  N   UNL A   1      40.054  30.576  31.446  1.00  0.00    -0.354 N 
ATOM     45  C   UNL A   1      43.280  28.878  33.757  1.00  0.00     0.074 A 
ATOM     46  C   UNL A   1      43.992  27.872  32.997  1.00  0.00     0.031 C 
ATOM     47  C   UNL A   1      38.719  30.819  29.668  1.00  0.00     0.029 A 
ATOM     48  C   UNL A   1      38.948  31.281  31.032  1.00  0.00     0.049 A 
ATOM     49  H   UNL A   1      40.453  30.676  32.340  1.00  0.00     0.167 HD
ATOM     50  C   UNL A   1      43.586  29.234  35.028  1.00  0.00     0.037 A 
ATOM     51  C   UNL A   1      38.203  32.200  31.678  1.00  0.00     0.037 A 
ATOM     52  C   UNL A   1      42.891  30.252  35.774  1.00  0.00     0.049 A 
ATOM     53  C   UNL A   1      38.579  32.599  33.078  1.00  0.00     0.074 A 
ATOM     54  C   UNL A   1      43.156  30.720  37.050  1.00  0.00     0.029 A 
ATOM     55  N   UNL A   1      41.793  30.964  35.311  1.00  0.00    -0.354 N 
ATOM     56  N   UNL A   1      39.555  32.149  33.830  1.00  0.00    -0.248 NA
ATOM     57  C   UNL A   1      37.758  33.639  33.712  1.00  0.00     0.031 C 
ATOM     58  C   UNL A   1      42.202  31.693  37.368  1.00  0.00     0.029 A 
ATOM     59  C   UNL A   1      41.364  31.859  36.277  1.00  0.00     0.049 A 
ATOM     60  H   UNL A   1      41.380  30.848  34.425  1.00  0.00     0.167 HD
ATOM     61  C   UNL A   1      39.479  32.866  35.018  1.00  0.00     0.074 A 
ATOM     62  C   UNL A   1      38.371  33.789  34.878  1.00  0.00     0.031 C 
ATOM     63  C   UNL A   1      40.257  32.769  36.124  1.00  0.00     0.037 A 
BRANCH  50  64
ATOM     64  C   UNL A   1      44.730  28.516  35.692  1.00  0.00     0.058 A 
ATOM     65  C   UNL A   1      46.051  28.981  35.585  1.00  0.00     0.135 A 
ATOM     66  C   UNL A   1      44.503  27.360  36.457  1.00  0.00     0.135 A 
ATOM     67  F   UNL A   1      46.325  30.074  34.855  1.00  0.00    -0.206 F 
ATOM     68  C   UNL A   1      47.110  28.307  36.183  1.00  0.00     0.059 A 
ATOM     69  C   UNL A   1      45.546  26.684  37.085  1.00  0.00     0.059 A 
ATOM     70  F   UNL A   1      43.260  26.873  36.595  1.00  0.00    -0.206 F 
ATOM     71  C   UNL A   1      46.848  27.155  36.927  1.00  0.00     0.060 A 
BRANCH  71  72
ATOM     72  S   UNL A   1      48.235  26.282  37.685  1.00  0.00     0.124 S 
ATOM     73  O   UNL A   1      48.373  25.130  36.798  1.00  0.00    -0.237 OA
ATOM     74  O   UNL A   1      49.307  27.269  37.613  1.00  0.00    -0.237 OA
ATOM     75  O   UNL A   1      47.752  25.983  39.030  1.00  0.00    -0.744 OA
ENDBRANCH  71  72
ENDBRANCH  50  64
BRANCH  51  76
ATOM     76  C   UNL A   1      37.050  32.831  30.986  1.00  0.00     0.058 A 
ATOM     77  C   UNL A   1      37.251  33.844  30.036  1.00  0.00     0.135 A 
ATOM     78  C   UNL A   1      35.733  32.420  31.239  1.00  0.00     0.135 A 
ATOM     79  F   UNL A   1      38.492  34.273  29.765  1.00  0.00    -0.206 F 
ATOM     80  C   UNL A   1      36.184  34.434  29.367  1.00  0.00     0.059 A 
ATOM     81  C   UNL A   1      34.652  32.981  30.566  1.00  0.00     0.059 A 
ATOM     82  F   UNL A   1      35.493  31.442  32.126  1.00  0.00    -0.206 F 
ATOM     83  C   UNL A   1      34.888  33.993  29.636  1.00  0.00     0.060 A 
BRANCH  83  84
ATOM     84  S   UNL A   1      33.514  34.716  28.713  1.00  0.00     0.124 S 
ATOM     85  O   UNL A   1      33.184  33.640  27.787  1.00  0.00    -0.237 OA
ATOM     86  O   UNL A   1      32.537  34.976  29.767  1.00  0.00    -0.237 OA
ATOM     87  O   UNL A   1      34.107  35.908  28.113  1.00  0.00    -0.744 OA
ENDBRANCH  83  84
ENDBRANCH  51  76
BRANCH  63  88
ATOM     88  C   UNL A   1      39.948  33.705  37.259  1.00  0.00     0.058 A 
ATOM     89  C   UNL A   1      39.061  33.347  38.287  1.00  0.00     0.135 A 
ATOM     90  C   UNL A   1      40.552  34.969  37.325  1.00  0.00     0.135 A 
ATOM     91  F   UNL A   1      38.452  32.150  38.268  1.00  0.00    -0.206 F 
ATOM     92  C   UNL A   1      38.757  34.224  39.323  1.00  0.00     0.059 A 
ATOM     93  C   UNL A   1      40.281  35.855  38.363  1.00  0.00     0.059 A 
ATOM     94  F   UNL A   1      41.416  35.356  36.372  1.00  0.00    -0.206 F 
ATOM     95  C   UNL A   1      39.368  35.480  39.348  1.00  0.00     0.060 A 
BRANCH  95  96
ATOM     96  S   UNL A   1      38.969  36.614  40.695  1.00  0.00     0.124 S 
ATOM     97  O   UNL A   1      38.505  37.787  39.961  1.00  0.00    -0.237 OA
ATOM     98  O   UNL A   1      37.944  35.882  41.432  1.00  0.00    -0.237 OA
ATOM     99  O   UNL A   1      40.242  36.771  41.392  1.00  0.00    -0.744 OA
ENDBRANCH  95  96
ENDBRANCH  63  88
ENDBRANCH  37  38
ENDBRANCH  29  32
ENDBRANCH  27  28
ENDBRANCH  26  27
ENDBRANCH   1  26
TORSDOF 17
ENDMDL
