MODEL 1
REMARK VINA RESULT:     -11.4      0.000      0.000
REMARK SMILES C[C@H]1C[NH2+]C[C@@H](CC(=O)NCCCNC(=O)c2ccc(-c3c4nc(c(-c5c(F)cc(S(=O)(=O)[O-])cc5F)c5ccc([nH]5)c(-c5c(F)cc(S(=O)(=O)[O-])cc5F)c5nc(c(-c6c(F)cc(S(=O)(=O)[O-])cc6F)c6ccc3[nH]6)C=C5)C=C4)cc2)C1
REMARK SMILES IDX 13 1 12 2 11 3 10 4 8 5 9 6 7 8 6 9 1 10 2 11 3 12 83 13
REMARK SMILES IDX 4 14 5 15 14 18 15 19 16 21 17 22 18 23 82 24 19 25 81 26
REMARK SMILES IDX 20 27 21 28 22 29 75 30 23 31 80 32 74 33 76 34 24 35 79 36
REMARK SMILES IDX 73 37 72 38 25 40 59 41 38 42 58 43 39 44 42 45 57 46 77 47
REMARK SMILES IDX 40 48 41 49 56 51 78 52 43 53 26 54 27 55 36 56 28 57 29 58
REMARK SMILES IDX 35 59 37 60 30 61 31 62 32 63 33 64 34 65 60 66 61 67 70 68
REMARK SMILES IDX 62 69 63 70 69 71 71 72 64 73 65 74 66 75 67 76 68 77 44 78
REMARK SMILES IDX 45 79 54 80 46 81 47 82 53 83 55 84 48 85 49 86 50 87 51 88
REMARK SMILES IDX 52 89
REMARK H PARENT 10 7 4 16 4 17 14 20 76 39 42 50
REMARK Flexibility Score: inf
ROOT
ATOM      1  C   UNL A   1      38.210  24.229  26.310  1.00  0.00     0.118 C 
ENDROOT
BRANCH   1   2
ATOM      2  C   UNL A   1      37.334  23.060  25.872  1.00  0.00     0.042 C 
BRANCH   2   3
ATOM      3  C   UNL A   1      36.126  23.457  25.021  1.00  0.00     0.117 C 
BRANCH   3   4
ATOM      4  N   UNL A   1      34.939  23.740  25.821  1.00  0.00    -0.356 N 
ATOM      5  C   UNL A   1      33.631  23.393  25.651  1.00  0.00     0.220 C 
ATOM      6  O   UNL A   1      32.819  23.765  26.501  1.00  0.00    -0.275 OA
ATOM      7  H   UNL A   1      35.113  24.277  26.627  1.00  0.00     0.163 HD
BRANCH   5   8
ATOM      8  C   UNL A   1      33.177  22.574  24.458  1.00  0.00     0.109 C 
BRANCH   8   9
ATOM      9  C   UNL A   1      32.588  21.201  24.842  1.00  0.00     0.054 C 
ATOM     10  C   UNL A   1      32.513  17.991  22.647  1.00  0.00     0.013 C 
ATOM     11  C   UNL A   1      32.287  18.810  23.922  1.00  0.00     0.041 C 
ATOM     12  C   UNL A   1      33.215  18.342  25.046  1.00  0.00     0.263 C 
ATOM     13  C   UNL A   1      32.513  20.290  23.616  1.00  0.00     0.019 C 
ATOM     14  N   UNL A   1      33.055  19.182  26.237  1.00  0.00    -0.346 N 
ATOM     15  C   UNL A   1      33.437  20.564  25.951  1.00  0.00     0.264 C 
ATOM     16  H   UNL A   1      33.646  18.818  26.984  1.00  0.00     0.346 HD
ATOM     17  H   UNL A   1      32.075  19.165  26.520  1.00  0.00     0.346 HD
ENDBRANCH   8   9
ENDBRANCH   5   8
ENDBRANCH   3   4
ENDBRANCH   2   3
ENDBRANCH   1   2
BRANCH   1  18
ATOM     18  N   UNL A   1      39.620  23.950  26.098  1.00  0.00    -0.352 N 
ATOM     19  C   UNL A   1      40.734  24.624  26.540  1.00  0.00     0.251 C 
ATOM     20  H   UNL A   1      39.807  23.152  25.551  1.00  0.00     0.163 HD
ATOM     21  O   UNL A   1      41.819  24.369  26.018  1.00  0.00    -0.269 OA
BRANCH  19  22
ATOM     22  C   UNL A   1      40.660  25.650  27.613  1.00  0.00     0.039 A 
ATOM     23  C   UNL A   1      41.663  26.626  27.676  1.00  0.00     0.014 A 
ATOM     24  C   UNL A   1      39.677  25.620  28.605  1.00  0.00     0.014 A 
ATOM     25  C   UNL A   1      41.651  27.589  28.692  1.00  0.00     0.010 A 
ATOM     26  C   UNL A   1      39.624  26.624  29.577  1.00  0.00     0.010 A 
ATOM     27  C   UNL A   1      40.616  27.615  29.640  1.00  0.00    -0.014 A 
BRANCH  27  28
ATOM     28  C   UNL A   1      40.559  28.659  30.702  1.00  0.00     0.031 A 
ATOM     29  C   UNL A   1      41.429  28.549  31.929  1.00  0.00     0.074 A 
ATOM     30  C   UNL A   1      39.673  29.671  30.602  1.00  0.00     0.049 A 
ATOM     31  N   UNL A   1      41.447  29.303  32.999  1.00  0.00    -0.248 NA
ATOM     32  C   UNL A   1      42.388  27.433  31.968  1.00  0.00     0.031 C 
ATOM     33  C   UNL A   1      38.740  29.873  29.491  1.00  0.00     0.029 A 
ATOM     34  N   UNL A   1      39.396  30.711  31.456  1.00  0.00    -0.354 N 
ATOM     35  C   UNL A   1      42.392  28.738  33.849  1.00  0.00     0.074 A 
ATOM     36  C   UNL A   1      42.907  27.561  33.182  1.00  0.00     0.031 C 
ATOM     37  C   UNL A   1      37.997  30.966  29.731  1.00  0.00     0.029 A 
ATOM     38  C   UNL A   1      38.372  31.523  31.027  1.00  0.00     0.049 A 
ATOM     39  H   UNL A   1      39.886  30.861  32.298  1.00  0.00     0.167 HD
ATOM     40  C   UNL A   1      42.803  29.168  35.067  1.00  0.00     0.037 A 
ATOM     41  C   UNL A   1      37.783  32.582  31.617  1.00  0.00     0.037 A 
ATOM     42  C   UNL A   1      42.329  30.367  35.706  1.00  0.00     0.049 A 
ATOM     43  C   UNL A   1      38.267  33.048  32.964  1.00  0.00     0.074 A 
ATOM     44  C   UNL A   1      42.769  30.940  36.889  1.00  0.00     0.029 A 
ATOM     45  N   UNL A   1      41.311  31.175  35.226  1.00  0.00    -0.354 N 
ATOM     46  N   UNL A   1      39.222  32.548  33.711  1.00  0.00    -0.248 NA
ATOM     47  C   UNL A   1      37.595  34.217  33.549  1.00  0.00     0.031 C 
ATOM     48  C   UNL A   1      41.986  32.070  37.145  1.00  0.00     0.029 A 
ATOM     49  C   UNL A   1      41.085  32.222  36.104  1.00  0.00     0.049 A 
ATOM     50  H   UNL A   1      40.821  31.027  34.386  1.00  0.00     0.167 HD
ATOM     51  C   UNL A   1      39.274  33.350  34.846  1.00  0.00     0.074 A 
ATOM     52  C   UNL A   1      38.267  34.377  34.681  1.00  0.00     0.031 C 
ATOM     53  C   UNL A   1      40.081  33.241  35.929  1.00  0.00     0.037 A 
BRANCH  40  54
ATOM     54  C   UNL A   1      43.825  28.342  35.799  1.00  0.00     0.058 A 
ATOM     55  C   UNL A   1      43.451  27.322  36.687  1.00  0.00     0.135 A 
ATOM     56  C   UNL A   1      45.195  28.528  35.555  1.00  0.00     0.135 A 
ATOM     57  F   UNL A   1      42.154  27.110  36.965  1.00  0.00    -0.206 F 
ATOM     58  C   UNL A   1      44.400  26.527  37.321  1.00  0.00     0.059 A 
ATOM     59  C   UNL A   1      46.161  27.729  36.160  1.00  0.00     0.059 A 
ATOM     60  F   UNL A   1      45.607  29.489  34.713  1.00  0.00    -0.206 F 
ATOM     61  C   UNL A   1      45.753  26.737  37.050  1.00  0.00     0.060 A 
BRANCH  61  62
ATOM     62  S   UNL A   1      46.970  25.680  37.863  1.00  0.00     0.124 S 
ATOM     63  O   UNL A   1      46.769  24.415  37.164  1.00  0.00    -0.237 OA
ATOM     64  O   UNL A   1      48.224  26.369  37.579  1.00  0.00    -0.237 OA
ATOM     65  O   UNL A   1      46.553  25.696  39.263  1.00  0.00    -0.744 OA
ENDBRANCH  61  62
ENDBRANCH  40  54
BRANCH  41  66
ATOM     66  C   UNL A   1      36.653  33.275  30.941  1.00  0.00     0.058 A 
ATOM     67  C   UNL A   1      35.334  33.116  31.390  1.00  0.00     0.135 A 
ATOM     68  C   UNL A   1      36.872  34.107  29.832  1.00  0.00     0.135 A 
ATOM     69  F   UNL A   1      35.074  32.323  32.441  1.00  0.00    -0.206 F 
ATOM     70  C   UNL A   1      34.268  33.743  30.754  1.00  0.00     0.059 A 
ATOM     71  C   UNL A   1      35.825  34.764  29.194  1.00  0.00     0.059 A 
ATOM     72  F   UNL A   1      38.119  34.303  29.373  1.00  0.00    -0.206 F 
ATOM     73  C   UNL A   1      34.525  34.567  29.655  1.00  0.00     0.060 A 
BRANCH  73  74
ATOM     74  S   UNL A   1      33.141  35.413  28.860  1.00  0.00     0.124 S 
ATOM     75  O   UNL A   1      33.831  36.416  28.059  1.00  0.00    -0.237 OA
ATOM     76  O   UNL A   1      32.502  34.329  28.118  1.00  0.00    -0.237 OA
ATOM     77  O   UNL A   1      32.371  35.924  29.990  1.00  0.00    -0.744 OA
ENDBRANCH  73  74
ENDBRANCH  41  66
BRANCH  53  78
ATOM     78  C   UNL A   1      39.923  34.262  37.020  1.00  0.00     0.058 A 
ATOM     79  C   UNL A   1      40.513  35.531  36.925  1.00  0.00     0.135 A 
ATOM     80  C   UNL A   1      39.115  33.994  38.138  1.00  0.00     0.135 A 
ATOM     81  F   UNL A   1      41.302  35.833  35.881  1.00  0.00    -0.206 F 
ATOM     82  C   UNL A   1      40.318  36.498  37.906  1.00  0.00     0.059 A 
ATOM     83  C   UNL A   1      38.888  34.954  39.120  1.00  0.00     0.059 A 
ATOM     84  F   UNL A   1      38.522  32.797  38.272  1.00  0.00    -0.206 F 
ATOM     85  C   UNL A   1      39.500  36.201  38.999  1.00  0.00     0.060 A 
BRANCH  85  86
ATOM     86  S   UNL A   1      39.210  37.482  40.238  1.00  0.00     0.124 S 
ATOM     87  O   UNL A   1      38.685  36.699  41.351  1.00  0.00    -0.237 OA
ATOM     88  O   UNL A   1      40.545  38.041  40.431  1.00  0.00    -0.237 OA
ATOM     89  O   UNL A   1      38.253  38.372  39.588  1.00  0.00    -0.744 OA
ENDBRANCH  85  86
ENDBRANCH  53  78
ENDBRANCH  27  28
ENDBRANCH  19  22
ENDBRANCH   1  18
TORSDOF 14
ENDMDL
MODEL 2
REMARK VINA RESULT:     -11.4      1.273      2.401
REMARK SMILES C[C@H]1C[NH2+]C[C@@H](CC(=O)NCCCNC(=O)c2ccc(-c3c4nc(c(-c5c(F)cc(S(=O)(=O)[O-])cc5F)c5ccc([nH]5)c(-c5c(F)cc(S(=O)(=O)[O-])cc5F)c5nc(c(-c6c(F)cc(S(=O)(=O)[O-])cc6F)c6ccc3[nH]6)C=C5)C=C4)cc2)C1
REMARK SMILES IDX 13 1 12 2 11 3 10 4 8 5 9 6 7 8 6 9 1 10 2 11 3 12 83 13
REMARK SMILES IDX 4 14 5 15 14 18 15 19 16 21 17 22 18 23 82 24 19 25 81 26
REMARK SMILES IDX 20 27 21 28 22 29 75 30 23 31 80 32 74 33 76 34 24 35 79 36
REMARK SMILES IDX 73 37 72 38 25 40 59 41 38 42 58 43 39 44 42 45 57 46 77 47
REMARK SMILES IDX 40 48 41 49 56 51 78 52 43 53 26 54 27 55 36 56 28 57 29 58
REMARK SMILES IDX 35 59 37 60 30 61 31 62 32 63 33 64 34 65 60 66 61 67 70 68
REMARK SMILES IDX 62 69 63 70 69 71 71 72 64 73 65 74 66 75 67 76 68 77 44 78
REMARK SMILES IDX 45 79 54 80 46 81 47 82 53 83 55 84 48 85 49 86 50 87 51 88
REMARK SMILES IDX 52 89
REMARK H PARENT 10 7 4 16 4 17 14 20 76 39 42 50
REMARK Flexibility Score: inf
ROOT
ATOM      1  C   UNL A   1      38.280  24.131  26.516  1.00  0.00     0.118 C 
ENDROOT
BRANCH   1   2
ATOM      2  C   UNL A   1      37.398  23.706  25.348  1.00  0.00     0.042 C 
BRANCH   2   3
ATOM      3  C   UNL A   1      35.895  23.855  25.601  1.00  0.00     0.117 C 
BRANCH   3   4
ATOM      4  N   UNL A   1      35.414  22.993  26.674  1.00  0.00    -0.356 N 
ATOM      5  C   UNL A   1      34.177  22.481  26.935  1.00  0.00     0.220 C 
ATOM      6  O   UNL A   1      34.048  21.758  27.926  1.00  0.00    -0.275 OA
ATOM      7  H   UNL A   1      36.104  22.734  27.325  1.00  0.00     0.163 HD
BRANCH   5   8
ATOM      8  C   UNL A   1      32.989  22.783  26.042  1.00  0.00     0.109 C 
BRANCH   8   9
ATOM      9  C   UNL A   1      32.036  23.847  26.624  1.00  0.00     0.054 C 
ATOM     10  C   UNL A   1      31.698  27.553  25.490  1.00  0.00     0.013 C 
ATOM     11  C   UNL A   1      31.331  26.309  26.306  1.00  0.00     0.041 C 
ATOM     12  C   UNL A   1      29.949  25.783  25.913  1.00  0.00     0.263 C 
ATOM     13  C   UNL A   1      32.398  25.235  26.093  1.00  0.00     0.019 C 
ATOM     14  N   UNL A   1      29.637  24.545  26.635  1.00  0.00    -0.346 N 
ATOM     15  C   UNL A   1      30.584  23.488  26.281  1.00  0.00     0.264 C 
ATOM     16  H   UNL A   1      28.693  24.245  26.392  1.00  0.00     0.346 HD
ATOM     17  H   UNL A   1      29.706  24.725  27.637  1.00  0.00     0.346 HD
ENDBRANCH   8   9
ENDBRANCH   5   8
ENDBRANCH   3   4
ENDBRANCH   2   3
ENDBRANCH   1   2
BRANCH   1  18
ATOM     18  N   UNL A   1      39.681  23.844  26.262  1.00  0.00    -0.352 N 
ATOM     19  C   UNL A   1      40.810  24.533  26.637  1.00  0.00     0.251 C 
ATOM     20  H   UNL A   1      39.848  23.027  25.738  1.00  0.00     0.163 HD
ATOM     21  O   UNL A   1      41.875  24.258  26.084  1.00  0.00    -0.269 OA
BRANCH  19  22
ATOM     22  C   UNL A   1      40.776  25.597  27.673  1.00  0.00     0.039 A 
ATOM     23  C   UNL A   1      39.714  25.609  28.587  1.00  0.00     0.014 A 
ATOM     24  C   UNL A   1      41.717  26.630  27.711  1.00  0.00     0.014 A 
ATOM     25  C   UNL A   1      39.626  26.616  29.556  1.00  0.00     0.010 A 
ATOM     26  C   UNL A   1      41.667  27.594  28.722  1.00  0.00     0.010 A 
ATOM     27  C   UNL A   1      40.616  27.606  29.651  1.00  0.00    -0.014 A 
BRANCH  27  28
ATOM     28  C   UNL A   1      40.565  28.659  30.705  1.00  0.00     0.031 A 
ATOM     29  C   UNL A   1      41.440  28.558  31.929  1.00  0.00     0.074 A 
ATOM     30  C   UNL A   1      39.680  29.671  30.601  1.00  0.00     0.049 A 
ATOM     31  N   UNL A   1      41.463  29.319  32.993  1.00  0.00    -0.248 NA
ATOM     32  C   UNL A   1      42.398  27.441  31.973  1.00  0.00     0.031 C 
ATOM     33  C   UNL A   1      38.742  29.865  29.492  1.00  0.00     0.029 A 
ATOM     34  N   UNL A   1      39.407  30.718  31.448  1.00  0.00    -0.354 N 
ATOM     35  C   UNL A   1      42.411  28.760  33.844  1.00  0.00     0.074 A 
ATOM     36  C   UNL A   1      42.922  27.578  33.184  1.00  0.00     0.031 C 
ATOM     37  C   UNL A   1      38.001  30.960  29.727  1.00  0.00     0.029 A 
ATOM     38  C   UNL A   1      38.382  31.528  31.017  1.00  0.00     0.049 A 
ATOM     39  H   UNL A   1      39.900  30.874  32.286  1.00  0.00     0.167 HD
ATOM     40  C   UNL A   1      42.827  29.199  35.057  1.00  0.00     0.037 A 
ATOM     41  C   UNL A   1      37.796  32.592  31.600  1.00  0.00     0.037 A 
ATOM     42  C   UNL A   1      42.358  30.404  35.688  1.00  0.00     0.049 A 
ATOM     43  C   UNL A   1      38.287  33.067  32.942  1.00  0.00     0.074 A 
ATOM     44  C   UNL A   1      42.802  30.986  36.865  1.00  0.00     0.029 A 
ATOM     45  N   UNL A   1      41.338  31.209  35.206  1.00  0.00    -0.354 N 
ATOM     46  N   UNL A   1      39.244  32.573  33.689  1.00  0.00    -0.248 NA
ATOM     47  C   UNL A   1      37.618  34.241  33.521  1.00  0.00     0.031 C 
ATOM     48  C   UNL A   1      42.022  32.119  37.116  1.00  0.00     0.029 A 
ATOM     49  C   UNL A   1      41.117  32.264  36.077  1.00  0.00     0.049 A 
ATOM     50  H   UNL A   1      40.844  31.055  34.369  1.00  0.00     0.167 HD
ATOM     51  C   UNL A   1      39.301  33.383  34.818  1.00  0.00     0.074 A 
ATOM     52  C   UNL A   1      38.295  34.410  34.649  1.00  0.00     0.031 C 
ATOM     53  C   UNL A   1      40.113  33.282  35.898  1.00  0.00     0.037 A 
BRANCH  40  54
ATOM     54  C   UNL A   1      43.851  28.379  35.791  1.00  0.00     0.058 A 
ATOM     55  C   UNL A   1      45.228  28.587  35.617  1.00  0.00     0.135 A 
ATOM     56  C   UNL A   1      43.448  27.420  36.735  1.00  0.00     0.135 A 
ATOM     57  F   UNL A   1      45.667  29.484  34.719  1.00  0.00    -0.206 F 
ATOM     58  C   UNL A   1      46.170  27.861  36.339  1.00  0.00     0.059 A 
ATOM     59  C   UNL A   1      44.373  26.699  37.486  1.00  0.00     0.059 A 
ATOM     60  F   UNL A   1      42.143  27.182  36.942  1.00  0.00    -0.206 F 
ATOM     61  C   UNL A   1      45.732  26.920  37.273  1.00  0.00     0.060 A 
BRANCH  61  62
ATOM     62  S   UNL A   1      46.968  26.004  38.218  1.00  0.00     0.124 S 
ATOM     63  O   UNL A   1      48.031  26.995  38.342  1.00  0.00    -0.237 OA
ATOM     64  O   UNL A   1      46.250  25.686  39.448  1.00  0.00    -0.237 OA
ATOM     65  O   UNL A   1      47.273  24.861  37.361  1.00  0.00    -0.744 OA
ENDBRANCH  61  62
ENDBRANCH  40  54
BRANCH  41  66
ATOM     66  C   UNL A   1      36.665  33.280  30.924  1.00  0.00     0.058 A 
ATOM     67  C   UNL A   1      35.345  33.115  31.371  1.00  0.00     0.135 A 
ATOM     68  C   UNL A   1      36.881  34.114  29.816  1.00  0.00     0.135 A 
ATOM     69  F   UNL A   1      35.088  32.319  32.420  1.00  0.00    -0.206 F 
ATOM     70  C   UNL A   1      34.277  33.738  30.734  1.00  0.00     0.059 A 
ATOM     71  C   UNL A   1      35.832  34.768  29.178  1.00  0.00     0.059 A 
ATOM     72  F   UNL A   1      38.128  34.317  29.360  1.00  0.00    -0.206 F 
ATOM     73  C   UNL A   1      34.532  34.564  29.637  1.00  0.00     0.060 A 
BRANCH  73  74
ATOM     74  S   UNL A   1      33.145  35.405  28.841  1.00  0.00     0.124 S 
ATOM     75  O   UNL A   1      33.833  36.403  28.031  1.00  0.00    -0.237 OA
ATOM     76  O   UNL A   1      32.505  34.317  28.107  1.00  0.00    -0.237 OA
ATOM     77  O   UNL A   1      32.379  35.923  29.970  1.00  0.00    -0.744 OA
ENDBRANCH  73  74
ENDBRANCH  41  66
BRANCH  53  78
ATOM     78  C   UNL A   1      39.960  34.311  36.982  1.00  0.00     0.058 A 
ATOM     79  C   UNL A   1      40.590  35.562  36.897  1.00  0.00     0.135 A 
ATOM     80  C   UNL A   1      39.119  34.073  38.081  1.00  0.00     0.135 A 
ATOM     81  F   UNL A   1      41.412  35.836  35.870  1.00  0.00    -0.206 F 
ATOM     82  C   UNL A   1      40.402  36.538  37.869  1.00  0.00     0.059 A 
ATOM     83  C   UNL A   1      38.898  35.042  39.054  1.00  0.00     0.059 A 
ATOM     84  F   UNL A   1      38.486  32.895  38.206  1.00  0.00    -0.206 F 
ATOM     85  C   UNL A   1      39.550  36.270  38.944  1.00  0.00     0.060 A 
BRANCH  85  86
ATOM     86  S   UNL A   1      39.270  37.564  40.171  1.00  0.00     0.124 S 
ATOM     87  O   UNL A   1      40.578  38.208  40.222  1.00  0.00    -0.237 OA
ATOM     88  O   UNL A   1      38.200  38.349  39.562  1.00  0.00    -0.237 OA
ATOM     89  O   UNL A   1      38.889  36.820  41.368  1.00  0.00    -0.744 OA
ENDBRANCH  85  86
ENDBRANCH  53  78
ENDBRANCH  27  28
ENDBRANCH  19  22
ENDBRANCH   1  18
TORSDOF 14
ENDMDL
MODEL 3
REMARK VINA RESULT:     -11.3      5.763     12.151
REMARK SMILES C[C@H]1C[NH2+]C[C@@H](CC(=O)NCCCNC(=O)c2ccc(-c3c4nc(c(-c5c(F)cc(S(=O)(=O)[O-])cc5F)c5ccc([nH]5)c(-c5c(F)cc(S(=O)(=O)[O-])cc5F)c5nc(c(-c6c(F)cc(S(=O)(=O)[O-])cc6F)c6ccc3[nH]6)C=C5)C=C4)cc2)C1
REMARK SMILES IDX 13 1 12 2 11 3 10 4 8 5 9 6 7 8 6 9 1 10 2 11 3 12 83 13
REMARK SMILES IDX 4 14 5 15 14 18 15 19 16 21 17 22 18 23 82 24 19 25 81 26
REMARK SMILES IDX 20 27 21 28 22 29 75 30 23 31 80 32 74 33 76 34 24 35 79 36
REMARK SMILES IDX 73 37 72 38 25 40 59 41 38 42 58 43 39 44 42 45 57 46 77 47
REMARK SMILES IDX 40 48 41 49 56 51 78 52 43 53 26 54 27 55 36 56 28 57 29 58
REMARK SMILES IDX 35 59 37 60 30 61 31 62 32 63 33 64 34 65 60 66 61 67 70 68
REMARK SMILES IDX 62 69 63 70 69 71 71 72 64 73 65 74 66 75 67 76 68 77 44 78
REMARK SMILES IDX 45 79 54 80 46 81 47 82 53 83 55 84 48 85 49 86 50 87 51 88
REMARK SMILES IDX 52 89
REMARK H PARENT 10 7 4 16 4 17 14 20 76 39 42 50
REMARK Flexibility Score: inf
ROOT
ATOM      1  C   UNL A   1      34.635  32.750  28.059  1.00  0.00     0.118 C 
ENDROOT
BRANCH   1   2
ATOM      2  C   UNL A   1      33.747  33.881  28.563  1.00  0.00     0.042 C 
BRANCH   2   3
ATOM      3  C   UNL A   1      34.322  34.656  29.752  1.00  0.00     0.117 C 
BRANCH   3   4
ATOM      4  N   UNL A   1      33.814  34.182  31.035  1.00  0.00    -0.356 N 
ATOM      5  C   UNL A   1      34.305  33.267  31.919  1.00  0.00     0.220 C 
ATOM      6  O   UNL A   1      33.665  33.060  32.953  1.00  0.00    -0.275 OA
ATOM      7  H   UNL A   1      32.966  34.597  31.312  1.00  0.00     0.163 HD
BRANCH   5   8
ATOM      8  C   UNL A   1      35.599  32.522  31.652  1.00  0.00     0.109 C 
BRANCH   8   9
ATOM      9  C   UNL A   1      36.652  32.698  32.765  1.00  0.00     0.054 C 
ATOM     10  C   UNL A   1      39.828  30.529  33.345  1.00  0.00     0.013 C 
ATOM     11  C   UNL A   1      38.872  31.695  33.615  1.00  0.00     0.041 C 
ATOM     12  C   UNL A   1      39.525  33.033  33.259  1.00  0.00     0.263 C 
ATOM     13  C   UNL A   1      37.588  31.490  32.811  1.00  0.00     0.019 C 
ATOM     14  N   UNL A   1      38.579  34.139  33.439  1.00  0.00    -0.346 N 
ATOM     15  C   UNL A   1      37.438  33.996  32.534  1.00  0.00     0.264 C 
ATOM     16  H   UNL A   1      39.054  35.020  33.244  1.00  0.00     0.346 HD
ATOM     17  H   UNL A   1      38.238  34.125  34.400  1.00  0.00     0.346 HD
ENDBRANCH   8   9
ENDBRANCH   5   8
ENDBRANCH   3   4
ENDBRANCH   2   3
ENDBRANCH   1   2
BRANCH   1  18
ATOM     18  N   UNL A   1      33.922  31.485  28.020  1.00  0.00    -0.352 N 
ATOM     19  C   UNL A   1      34.399  30.198  27.951  1.00  0.00     0.251 C 
ATOM     20  H   UNL A   1      32.940  31.563  28.046  1.00  0.00     0.163 HD
ATOM     21  O   UNL A   1      33.616  29.297  27.655  1.00  0.00    -0.269 OA
BRANCH  19  22
ATOM     22  C   UNL A   1      35.826  29.872  28.210  1.00  0.00     0.039 A 
ATOM     23  C   UNL A   1      36.198  29.471  29.500  1.00  0.00     0.014 A 
ATOM     24  C   UNL A   1      36.815  30.035  27.237  1.00  0.00     0.014 A 
ATOM     25  C   UNL A   1      37.538  29.190  29.795  1.00  0.00     0.010 A 
ATOM     26  C   UNL A   1      38.141  29.687  27.513  1.00  0.00     0.010 A 
ATOM     27  C   UNL A   1      38.522  29.270  28.797  1.00  0.00    -0.014 A 
BRANCH  27  28
ATOM     28  C   UNL A   1      39.945  28.930  29.079  1.00  0.00     0.031 A 
ATOM     29  C   UNL A   1      40.888  29.976  29.617  1.00  0.00     0.074 A 
ATOM     30  C   UNL A   1      40.413  27.699  28.785  1.00  0.00     0.049 A 
ATOM     31  N   UNL A   1      42.177  29.896  29.829  1.00  0.00    -0.248 NA
ATOM     32  C   UNL A   1      40.311  31.292  29.936  1.00  0.00     0.031 C 
ATOM     33  C   UNL A   1      39.621  26.606  28.218  1.00  0.00     0.029 A 
ATOM     34  N   UNL A   1      41.674  27.166  28.902  1.00  0.00    -0.354 N 
ATOM     35  C   UNL A   1      42.570  31.153  30.276  1.00  0.00     0.074 A 
ATOM     36  C   UNL A   1      41.388  31.987  30.278  1.00  0.00     0.031 C 
ATOM     37  C   UNL A   1      40.411  25.535  28.037  1.00  0.00     0.029 A 
ATOM     38  C   UNL A   1      41.773  25.874  28.440  1.00  0.00     0.049 A 
ATOM     39  H   UNL A   1      42.435  27.662  29.280  1.00  0.00     0.167 HD
ATOM     40  C   UNL A   1      43.801  31.570  30.662  1.00  0.00     0.037 A 
ATOM     41  C   UNL A   1      42.841  25.058  28.329  1.00  0.00     0.037 A 
ATOM     42  C   UNL A   1      44.965  30.726  30.711  1.00  0.00     0.049 A 
ATOM     43  C   UNL A   1      44.194  25.542  28.778  1.00  0.00     0.074 A 
ATOM     44  C   UNL A   1      46.228  31.032  31.193  1.00  0.00     0.029 A 
ATOM     45  N   UNL A   1      45.018  29.417  30.260  1.00  0.00    -0.354 N 
ATOM     46  N   UNL A   1      44.526  26.707  29.278  1.00  0.00    -0.248 NA
ATOM     47  C   UNL A   1      45.317  24.602  28.646  1.00  0.00     0.031 C 
ATOM     48  C   UNL A   1      47.054  29.922  30.993  1.00  0.00     0.029 A 
ATOM     49  C   UNL A   1      46.298  28.912  30.421  1.00  0.00     0.049 A 
ATOM     50  H   UNL A   1      44.258  28.919  29.880  1.00  0.00     0.167 HD
ATOM     51  C   UNL A   1      45.891  26.636  29.533  1.00  0.00     0.074 A 
ATOM     52  C   UNL A   1      46.321  25.308  29.148  1.00  0.00     0.031 C 
ATOM     53  C   UNL A   1      46.714  27.587  30.037  1.00  0.00     0.037 A 
BRANCH  40  54
ATOM     54  C   UNL A   1      43.963  33.008  31.073  1.00  0.00     0.058 A 
ATOM     55  C   UNL A   1      44.417  33.986  30.174  1.00  0.00     0.135 A 
ATOM     56  C   UNL A   1      43.590  33.425  32.361  1.00  0.00     0.135 A 
ATOM     57  F   UNL A   1      44.796  33.638  28.934  1.00  0.00    -0.206 F 
ATOM     58  C   UNL A   1      44.514  35.323  30.544  1.00  0.00     0.059 A 
ATOM     59  C   UNL A   1      43.657  34.761  32.745  1.00  0.00     0.059 A 
ATOM     60  F   UNL A   1      43.147  32.530  33.259  1.00  0.00    -0.206 F 
ATOM     61  C   UNL A   1      44.130  35.702  31.832  1.00  0.00     0.060 A 
BRANCH  61  62
ATOM     62  S   UNL A   1      44.241  37.445  32.288  1.00  0.00     0.124 S 
ATOM     63  O   UNL A   1      43.347  37.500  33.440  1.00  0.00    -0.237 OA
ATOM     64  O   UNL A   1      45.661  37.604  32.579  1.00  0.00    -0.237 OA
ATOM     65  O   UNL A   1      43.767  38.139  31.092  1.00  0.00    -0.744 OA
ENDBRANCH  61  62
ENDBRANCH  40  54
BRANCH  41  66
ATOM     66  C   UNL A   1      42.679  23.697  27.755  1.00  0.00     0.058 A 
ATOM     67  C   UNL A   1      42.456  22.584  28.581  1.00  0.00     0.135 A 
ATOM     68  C   UNL A   1      42.746  23.481  26.370  1.00  0.00     0.135 A 
ATOM     69  F   UNL A   1      42.394  22.739  29.912  1.00  0.00    -0.206 F 
ATOM     70  C   UNL A   1      42.322  21.303  28.056  1.00  0.00     0.059 A 
ATOM     71  C   UNL A   1      42.591  22.212  25.820  1.00  0.00     0.059 A 
ATOM     72  F   UNL A   1      42.942  24.515  25.536  1.00  0.00    -0.206 F 
ATOM     73  C   UNL A   1      42.391  21.128  26.672  1.00  0.00     0.060 A 
BRANCH  73  74
ATOM     74  S   UNL A   1      42.174  19.467  25.994  1.00  0.00     0.124 S 
ATOM     75  O   UNL A   1      40.737  19.435  25.752  1.00  0.00    -0.237 OA
ATOM     76  O   UNL A   1      43.022  19.506  24.807  1.00  0.00    -0.237 OA
ATOM     77  O   UNL A   1      42.655  18.604  27.069  1.00  0.00    -0.744 OA
ENDBRANCH  73  74
ENDBRANCH  41  66
BRANCH  53  78
ATOM     78  C   UNL A   1      48.163  27.231  30.215  1.00  0.00     0.058 A 
ATOM     79  C   UNL A   1      49.105  27.473  29.205  1.00  0.00     0.135 A 
ATOM     80  C   UNL A   1      48.626  26.708  31.434  1.00  0.00     0.135 A 
ATOM     81  F   UNL A   1      48.713  27.963  28.018  1.00  0.00    -0.206 F 
ATOM     82  C   UNL A   1      50.456  27.199  29.391  1.00  0.00     0.059 A 
ATOM     83  C   UNL A   1      49.975  26.448  31.651  1.00  0.00     0.059 A 
ATOM     84  F   UNL A   1      47.765  26.465  32.436  1.00  0.00    -0.206 F 
ATOM     85  C   UNL A   1      50.883  26.690  30.620  1.00  0.00     0.060 A 
BRANCH  85  86
ATOM     86  S   UNL A   1      52.645  26.389  30.869  1.00  0.00     0.124 S 
ATOM     87  O   UNL A   1      53.119  26.263  29.495  1.00  0.00    -0.237 OA
ATOM     88  O   UNL A   1      53.072  27.593  31.578  1.00  0.00    -0.237 OA
ATOM     89  O   UNL A   1      52.673  25.162  31.658  1.00  0.00    -0.744 OA
ENDBRANCH  85  86
ENDBRANCH  53  78
ENDBRANCH  27  28
ENDBRANCH  19  22
ENDBRANCH   1  18
TORSDOF 14
ENDMDL
