MODEL 1
REMARK VINA RESULT:     -10.5      0.000      0.000
REMARK SMILES CCc1ccc(CNC(=O)CCC(=O)NCCCNC(=O)c2ccc(-c3c4nc(c(-c5c(F)cc(S(=O)(=O)[O-])cc5F)c5ccc([nH]5)c(-c5c(F)cc(S(=O)(=O)[O-])cc5F)c5nc(c(-c6c(F)cc(S(=O)(=O)[O-])cc6F)c6ccc3[nH]6)C=C5)C=C4)cc2)cc1
REMARK SMILES IDX 16 1 15 2 13 3 14 4 12 6 11 7 9 8 8 9 10 11 7 12 6 13 3 14
REMARK SMILES IDX 4 15 89 16 5 17 88 18 2 19 1 20 17 21 18 22 19 23 20 24
REMARK SMILES IDX 21 26 22 27 23 28 87 29 24 30 86 31 25 32 26 33 27 34 80 35
REMARK SMILES IDX 28 36 85 37 79 38 81 39 29 40 84 41 78 42 77 43 30 45 64 46
REMARK SMILES IDX 43 47 63 48 44 49 47 50 62 51 82 52 45 53 46 54 61 56 83 57
REMARK SMILES IDX 48 58 31 59 32 60 41 61 33 62 34 63 40 64 42 65 35 66 36 67
REMARK SMILES IDX 37 68 38 69 39 70 65 71 66 72 75 73 67 74 68 75 74 76 76 77
REMARK SMILES IDX 69 78 70 79 71 80 72 81 73 82 49 83 50 84 59 85 51 86 52 87
REMARK SMILES IDX 58 88 60 89 53 90 54 91 55 92 56 93 57 94
REMARK H PARENT 15 5 8 10 19 25 81 44 47 55
REMARK Flexibility Score: inf
ROOT
ATOM      1  C   UNL A   1      34.042  33.687  29.499  1.00  0.00     0.117 C 
ENDROOT
BRANCH   1   2
ATOM      2  N   UNL A   1      33.185  34.772  29.071  1.00  0.00    -0.356 N 
ATOM      3  C   UNL A   1      33.057  36.028  29.601  1.00  0.00     0.220 C 
ATOM      4  O   UNL A   1      33.031  37.018  28.870  1.00  0.00    -0.275 OA
ATOM      5  H   UNL A   1      32.615  34.581  28.291  1.00  0.00     0.163 HD
BRANCH   3   6
ATOM      6  C   UNL A   1      32.697  36.165  31.053  1.00  0.00     0.110 C 
BRANCH   6   7
ATOM      7  C   UNL A   1      33.902  36.767  31.783  1.00  0.00     0.110 C 
BRANCH   7   8
ATOM      8  C   UNL A   1      33.853  36.471  33.269  1.00  0.00     0.220 C 
ATOM      9  N   UNL A   1      34.243  35.273  33.797  1.00  0.00    -0.352 N 
ATOM     10  H   UNL A   1      34.342  35.286  34.776  1.00  0.00     0.163 HD
ATOM     11  O   UNL A   1      33.507  37.362  34.049  1.00  0.00    -0.275 OA
BRANCH   9  12
ATOM     12  C   UNL A   1      34.541  33.974  33.193  1.00  0.00     0.151 C 
BRANCH  12  13
ATOM     13  C   UNL A   1      36.008  33.702  32.868  1.00  0.00    -0.029 A 
ATOM     14  C   UNL A   1      38.793  33.213  32.388  1.00  0.00    -0.048 A 
ATOM     15  C   UNL A   1      38.155  32.688  33.508  1.00  0.00     0.004 A 
ATOM     16  C   UNL A   1      38.028  33.984  31.502  1.00  0.00     0.004 A 
ATOM     17  C   UNL A   1      36.814  32.989  33.766  1.00  0.00     0.006 A 
ATOM     18  C   UNL A   1      36.649  34.203  31.724  1.00  0.00     0.006 A 
BRANCH  14  19
ATOM     19  C   UNL A   1      40.276  32.983  32.206  1.00  0.00     0.032 C 
ATOM     20  C   UNL A   1      40.933  34.040  31.326  1.00  0.00     0.009 C 
ENDBRANCH  14  19
ENDBRANCH  12  13
ENDBRANCH   9  12
ENDBRANCH   7   8
ENDBRANCH   6   7
ENDBRANCH   3   6
ENDBRANCH   1   2
BRANCH   1  21
ATOM     21  C   UNL A   1      35.075  33.184  28.484  1.00  0.00     0.042 C 
BRANCH  21  22
ATOM     22  C   UNL A   1      35.731  31.811  28.689  1.00  0.00     0.118 C 
BRANCH  22  23
ATOM     23  N   UNL A   1      35.577  31.230  30.012  1.00  0.00    -0.352 N 
ATOM     24  C   UNL A   1      36.474  30.499  30.759  1.00  0.00     0.251 C 
ATOM     25  H   UNL A   1      34.702  31.383  30.437  1.00  0.00     0.163 HD
ATOM     26  O   UNL A   1      36.138  30.082  31.867  1.00  0.00    -0.269 OA
BRANCH  24  27
ATOM     27  C   UNL A   1      37.831  30.171  30.250  1.00  0.00     0.039 A 
ATOM     28  C   UNL A   1      38.823  29.827  31.174  1.00  0.00     0.014 A 
ATOM     29  C   UNL A   1      38.164  30.283  28.896  1.00  0.00     0.014 A 
ATOM     30  C   UNL A   1      40.126  29.539  30.740  1.00  0.00     0.010 A 
ATOM     31  C   UNL A   1      39.463  29.963  28.461  1.00  0.00     0.010 A 
ATOM     32  C   UNL A   1      40.459  29.576  29.374  1.00  0.00    -0.014 A 
BRANCH  32  33
ATOM     33  C   UNL A   1      41.822  29.162  28.911  1.00  0.00     0.031 A 
ATOM     34  C   UNL A   1      42.964  30.147  28.834  1.00  0.00     0.074 A 
ATOM     35  C   UNL A   1      42.037  27.885  28.528  1.00  0.00     0.049 A 
ATOM     36  N   UNL A   1      44.199  29.953  28.440  1.00  0.00    -0.248 NA
ATOM     37  C   UNL A   1      42.678  31.530  29.239  1.00  0.00     0.031 C 
ATOM     38  C   UNL A   1      41.024  26.829  28.517  1.00  0.00     0.029 A 
ATOM     39  N   UNL A   1      43.171  27.256  28.066  1.00  0.00    -0.354 N 
ATOM     40  C   UNL A   1      44.838  31.185  28.542  1.00  0.00     0.074 A 
ATOM     41  C   UNL A   1      43.837  32.130  28.997  1.00  0.00     0.031 C 
ATOM     42  C   UNL A   1      41.583  25.685  28.090  1.00  0.00     0.029 A 
ATOM     43  C   UNL A   1      42.984  25.928  27.759  1.00  0.00     0.049 A 
ATOM     44  H   UNL A   1      44.036  27.715  27.966  1.00  0.00     0.167 HD
ATOM     45  C   UNL A   1      46.135  31.500  28.297  1.00  0.00     0.037 A 
ATOM     46  C   UNL A   1      43.833  25.005  27.259  1.00  0.00     0.037 A 
ATOM     47  C   UNL A   1      47.138  30.559  27.855  1.00  0.00     0.049 A 
ATOM     48  C   UNL A   1      45.263  25.383  26.976  1.00  0.00     0.074 A 
ATOM     49  C   UNL A   1      48.488  30.783  27.634  1.00  0.00     0.029 A 
ATOM     50  N   UNL A   1      46.906  29.224  27.559  1.00  0.00    -0.354 N 
ATOM     51  N   UNL A   1      45.858  26.540  27.141  1.00  0.00    -0.248 NA
ATOM     52  C   UNL A   1      46.139  24.329  26.444  1.00  0.00     0.031 C 
ATOM     53  C   UNL A   1      49.058  29.600  27.151  1.00  0.00     0.029 A 
ATOM     54  C   UNL A   1      48.080  28.620  27.132  1.00  0.00     0.049 A 
ATOM     55  H   UNL A   1      46.035  28.772  27.641  1.00  0.00     0.167 HD
ATOM     56  C   UNL A   1      47.184  26.343  26.765  1.00  0.00     0.074 A 
ATOM     57  C   UNL A   1      47.307  24.955  26.374  1.00  0.00     0.031 C 
ATOM     58  C   UNL A   1      48.205  27.235  26.749  1.00  0.00     0.037 A 
BRANCH  45  59
ATOM     59  C   UNL A   1      46.562  32.933  28.498  1.00  0.00     0.058 A 
ATOM     60  C   UNL A   1      46.482  33.880  27.464  1.00  0.00     0.135 A 
ATOM     61  C   UNL A   1      46.998  33.380  29.758  1.00  0.00     0.135 A 
ATOM     62  F   UNL A   1      46.076  33.511  26.240  1.00  0.00    -0.206 F 
ATOM     63  C   UNL A   1      46.852  35.207  27.662  1.00  0.00     0.059 A 
ATOM     64  C   UNL A   1      47.343  34.711  29.985  1.00  0.00     0.059 A 
ATOM     65  F   UNL A   1      47.084  32.523  30.787  1.00  0.00    -0.206 F 
ATOM     66  C   UNL A   1      47.283  35.613  28.925  1.00  0.00     0.060 A 
BRANCH  66  67
ATOM     67  S   UNL A   1      47.762  37.338  29.166  1.00  0.00     0.124 S 
ATOM     68  O   UNL A   1      48.459  37.622  27.910  1.00  0.00    -0.237 OA
ATOM     69  O   UNL A   1      46.466  38.000  29.328  1.00  0.00    -0.237 OA
ATOM     70  O   UNL A   1      48.597  37.301  30.351  1.00  0.00    -0.744 OA
ENDBRANCH  66  67
ENDBRANCH  45  59
BRANCH  46  71
ATOM     71  C   UNL A   1      43.353  23.618  27.000  1.00  0.00     0.058 A 
ATOM     72  C   UNL A   1      43.081  23.175  25.697  1.00  0.00     0.135 A 
ATOM     73  C   UNL A   1      43.158  22.708  28.052  1.00  0.00     0.135 A 
ATOM     74  F   UNL A   1      43.239  24.010  24.659  1.00  0.00    -0.206 F 
ATOM     75  C   UNL A   1      42.619  21.887  25.445  1.00  0.00     0.059 A 
ATOM     76  C   UNL A   1      42.725  21.405  27.822  1.00  0.00     0.059 A 
ATOM     77  F   UNL A   1      43.413  23.076  29.317  1.00  0.00    -0.206 F 
ATOM     78  C   UNL A   1      42.448  21.007  26.516  1.00  0.00     0.060 A 
BRANCH  78  79
ATOM     79  S   UNL A   1      41.896  19.322  26.172  1.00  0.00     0.124 S 
ATOM     80  O   UNL A   1      42.266  18.634  27.406  1.00  0.00    -0.237 OA
ATOM     81  O   UNL A   1      40.464  19.508  25.952  1.00  0.00    -0.237 OA
ATOM     82  O   UNL A   1      42.662  18.952  24.989  1.00  0.00    -0.744 OA
ENDBRANCH  78  79
ENDBRANCH  46  71
BRANCH  58  83
ATOM     83  C   UNL A   1      49.566  26.737  26.336  1.00  0.00     0.058 A 
ATOM     84  C   UNL A   1      50.083  26.967  25.050  1.00  0.00     0.135 A 
ATOM     85  C   UNL A   1      50.387  26.064  27.257  1.00  0.00     0.135 A 
ATOM     86  F   UNL A   1      49.341  27.598  24.127  1.00  0.00    -0.206 F 
ATOM     87  C   UNL A   1      51.353  26.528  24.686  1.00  0.00     0.059 A 
ATOM     88  C   UNL A   1      51.671  25.643  26.924  1.00  0.00     0.059 A 
ATOM     89  F   UNL A   1      49.948  25.824  28.503  1.00  0.00    -0.206 F 
ATOM     90  C   UNL A   1      52.142  25.870  25.632  1.00  0.00     0.060 A 
BRANCH  90  91
ATOM     91  S   UNL A   1      53.802  25.339  25.158  1.00  0.00     0.124 S 
ATOM     92  O   UNL A   1      54.627  26.042  26.135  1.00  0.00    -0.237 OA
ATOM     93  O   UNL A   1      53.724  23.890  25.319  1.00  0.00    -0.237 OA
ATOM     94  O   UNL A   1      53.928  25.805  23.780  1.00  0.00    -0.744 OA
ENDBRANCH  90  91
ENDBRANCH  58  83
ENDBRANCH  32  33
ENDBRANCH  24  27
ENDBRANCH  22  23
ENDBRANCH  21  22
ENDBRANCH   1  21
TORSDOF 18
ENDMDL
MODEL 2
REMARK VINA RESULT:     -10.4      3.036      4.291
REMARK SMILES CCc1ccc(CNC(=O)CCC(=O)NCCCNC(=O)c2ccc(-c3c4nc(c(-c5c(F)cc(S(=O)(=O)[O-])cc5F)c5ccc([nH]5)c(-c5c(F)cc(S(=O)(=O)[O-])cc5F)c5nc(c(-c6c(F)cc(S(=O)(=O)[O-])cc6F)c6ccc3[nH]6)C=C5)C=C4)cc2)cc1
REMARK SMILES IDX 16 1 15 2 13 3 14 4 12 6 11 7 9 8 8 9 10 11 7 12 6 13 3 14
REMARK SMILES IDX 4 15 89 16 5 17 88 18 2 19 1 20 17 21 18 22 19 23 20 24
REMARK SMILES IDX 21 26 22 27 23 28 87 29 24 30 86 31 25 32 26 33 27 34 80 35
REMARK SMILES IDX 28 36 85 37 79 38 81 39 29 40 84 41 78 42 77 43 30 45 64 46
REMARK SMILES IDX 43 47 63 48 44 49 47 50 62 51 82 52 45 53 46 54 61 56 83 57
REMARK SMILES IDX 48 58 31 59 32 60 41 61 33 62 34 63 40 64 42 65 35 66 36 67
REMARK SMILES IDX 37 68 38 69 39 70 65 71 66 72 75 73 67 74 68 75 74 76 76 77
REMARK SMILES IDX 69 78 70 79 71 80 72 81 73 82 49 83 50 84 59 85 51 86 52 87
REMARK SMILES IDX 58 88 60 89 53 90 54 91 55 92 56 93 57 94
REMARK H PARENT 15 5 8 10 19 25 81 44 47 55
REMARK Flexibility Score: inf
ROOT
ATOM      1  C   UNL A   1      34.468  34.445  30.472  1.00  0.00     0.117 C 
ENDROOT
BRANCH   1   2
ATOM      2  N   UNL A   1      33.900  33.770  31.619  1.00  0.00    -0.356 N 
ATOM      3  C   UNL A   1      34.541  33.131  32.646  1.00  0.00     0.220 C 
ATOM      4  O   UNL A   1      34.197  33.316  33.814  1.00  0.00    -0.275 OA
ATOM      5  H   UNL A   1      32.916  33.770  31.668  1.00  0.00     0.163 HD
BRANCH   3   6
ATOM      6  C   UNL A   1      35.493  32.016  32.319  1.00  0.00     0.110 C 
BRANCH   6   7
ATOM      7  C   UNL A   1      36.898  32.456  32.747  1.00  0.00     0.110 C 
BRANCH   7   8
ATOM      8  C   UNL A   1      37.295  31.828  34.068  1.00  0.00     0.220 C 
ATOM      9  N   UNL A   1      38.059  30.697  34.149  1.00  0.00    -0.352 N 
ATOM     10  H   UNL A   1      38.400  30.515  35.054  1.00  0.00     0.163 HD
ATOM     11  O   UNL A   1      36.974  32.385  35.121  1.00  0.00    -0.275 OA
BRANCH   9  12
ATOM     12  C   UNL A   1      38.470  29.706  33.155  1.00  0.00     0.151 C 
BRANCH  12  13
ATOM     13  C   UNL A   1      39.937  29.283  33.190  1.00  0.00    -0.029 A 
ATOM     14  C   UNL A   1      42.651  28.360  33.270  1.00  0.00    -0.048 A 
ATOM     15  C   UNL A   1      41.685  27.683  32.532  1.00  0.00     0.004 A 
ATOM     16  C   UNL A   1      42.254  29.508  33.969  1.00  0.00     0.004 A 
ATOM     17  C   UNL A   1      40.352  28.104  32.555  1.00  0.00     0.006 A 
ATOM     18  C   UNL A   1      40.922  29.979  33.908  1.00  0.00     0.006 A 
BRANCH  14  19
ATOM     19  C   UNL A   1      44.055  27.803  33.336  1.00  0.00     0.032 C 
ATOM     20  C   UNL A   1      44.118  26.318  33.000  1.00  0.00     0.009 C 
ENDBRANCH  14  19
ENDBRANCH  12  13
ENDBRANCH   9  12
ENDBRANCH   7   8
ENDBRANCH   6   7
ENDBRANCH   3   6
ENDBRANCH   1   2
BRANCH   1  21
ATOM     21  C   UNL A   1      33.953  34.013  29.094  1.00  0.00     0.042 C 
BRANCH  21  22
ATOM     22  C   UNL A   1      34.717  32.941  28.304  1.00  0.00     0.118 C 
BRANCH  22  23
ATOM     23  N   UNL A   1      33.965  31.740  27.981  1.00  0.00    -0.352 N 
ATOM     24  C   UNL A   1      34.379  30.427  27.949  1.00  0.00     0.251 C 
ATOM     25  H   UNL A   1      33.019  31.888  27.752  1.00  0.00     0.163 HD
ATOM     26  O   UNL A   1      33.577  29.549  27.635  1.00  0.00    -0.269 OA
BRANCH  24  27
ATOM     27  C   UNL A   1      35.782  30.042  28.256  1.00  0.00     0.039 A 
ATOM     28  C   UNL A   1      36.723  30.077  27.223  1.00  0.00     0.014 A 
ATOM     29  C   UNL A   1      36.162  29.564  29.515  1.00  0.00     0.014 A 
ATOM     30  C   UNL A   1      38.051  29.693  27.461  1.00  0.00     0.010 A 
ATOM     31  C   UNL A   1      37.501  29.210  29.759  1.00  0.00     0.010 A 
ATOM     32  C   UNL A   1      38.467  29.280  28.740  1.00  0.00    -0.014 A 
BRANCH  32  33
ATOM     33  C   UNL A   1      39.909  28.978  29.010  1.00  0.00     0.031 A 
ATOM     34  C   UNL A   1      40.837  30.011  29.603  1.00  0.00     0.074 A 
ATOM     35  C   UNL A   1      40.405  27.762  28.696  1.00  0.00     0.049 A 
ATOM     36  N   UNL A   1      42.114  29.914  29.883  1.00  0.00    -0.248 NA
ATOM     37  C   UNL A   1      40.259  31.327  29.908  1.00  0.00     0.031 C 
ATOM     38  C   UNL A   1      39.640  26.673  28.088  1.00  0.00     0.029 A 
ATOM     39  N   UNL A   1      41.670  27.236  28.833  1.00  0.00    -0.354 N 
ATOM     40  C   UNL A   1      42.496  31.152  30.391  1.00  0.00     0.074 A 
ATOM     41  C   UNL A   1      41.320  31.998  30.339  1.00  0.00     0.031 C 
ATOM     42  C   UNL A   1      40.441  25.608  27.922  1.00  0.00     0.029 A 
ATOM     43  C   UNL A   1      41.789  25.944  28.374  1.00  0.00     0.049 A 
ATOM     44  H   UNL A   1      42.421  27.739  29.225  1.00  0.00     0.167 HD
ATOM     45  C   UNL A   1      43.704  31.546  30.868  1.00  0.00     0.037 A 
ATOM     46  C   UNL A   1      42.855  25.120  28.310  1.00  0.00     0.037 A 
ATOM     47  C   UNL A   1      44.874  30.703  30.932  1.00  0.00     0.049 A 
ATOM     48  C   UNL A   1      44.190  25.586  28.828  1.00  0.00     0.074 A 
ATOM     49  C   UNL A   1      46.124  31.005  31.450  1.00  0.00     0.029 A 
ATOM     50  N   UNL A   1      44.949  29.401  30.459  1.00  0.00    -0.354 N 
ATOM     51  N   UNL A   1      44.510  26.740  29.361  1.00  0.00    -0.248 NA
ATOM     52  C   UNL A   1      45.308  24.635  28.742  1.00  0.00     0.031 C 
ATOM     53  C   UNL A   1      46.967  29.909  31.239  1.00  0.00     0.029 A 
ATOM     54  C   UNL A   1      46.228  28.898  30.648  1.00  0.00     0.049 A 
ATOM     55  H   UNL A   1      44.203  28.907  30.049  1.00  0.00     0.167 HD
ATOM     56  C   UNL A   1      45.856  26.642  29.703  1.00  0.00     0.074 A 
ATOM     57  C   UNL A   1      46.288  25.312  29.326  1.00  0.00     0.031 C 
ATOM     58  C   UNL A   1      46.658  27.571  30.280  1.00  0.00     0.037 A 
BRANCH  45  59
ATOM     59  C   UNL A   1      43.835  32.964  31.367  1.00  0.00     0.058 A 
ATOM     60  C   UNL A   1      44.194  34.018  30.512  1.00  0.00     0.135 A 
ATOM     61  C   UNL A   1      43.539  33.283  32.704  1.00  0.00     0.135 A 
ATOM     62  F   UNL A   1      44.493  33.774  29.226  1.00  0.00    -0.206 F 
ATOM     63  C   UNL A   1      44.289  35.329  30.971  1.00  0.00     0.059 A 
ATOM     64  C   UNL A   1      43.597  34.592  33.176  1.00  0.00     0.059 A 
ATOM     65  F   UNL A   1      43.178  32.319  33.566  1.00  0.00    -0.206 F 
ATOM     66  C   UNL A   1      43.990  35.607  32.304  1.00  0.00     0.060 A 
BRANCH  66  67
ATOM     67  S   UNL A   1      44.120  37.311  32.887  1.00  0.00     0.124 S 
ATOM     68  O   UNL A   1      43.064  37.350  33.901  1.00  0.00    -0.237 OA
ATOM     69  O   UNL A   1      45.488  37.358  33.405  1.00  0.00    -0.237 OA
ATOM     70  O   UNL A   1      43.875  38.103  31.697  1.00  0.00    -0.744 OA
ENDBRANCH  66  67
ENDBRANCH  45  59
BRANCH  46  71
ATOM     71  C   UNL A   1      42.703  23.752  27.739  1.00  0.00     0.058 A 
ATOM     72  C   UNL A   1      42.827  23.523  26.360  1.00  0.00     0.135 A 
ATOM     73  C   UNL A   1      42.430  22.646  28.561  1.00  0.00     0.135 A 
ATOM     74  F   UNL A   1      43.075  24.548  25.530  1.00  0.00    -0.206 F 
ATOM     75  C   UNL A   1      42.672  22.253  25.814  1.00  0.00     0.059 A 
ATOM     76  C   UNL A   1      42.300  21.362  28.041  1.00  0.00     0.059 A 
ATOM     77  F   UNL A   1      42.311  22.807  29.888  1.00  0.00    -0.206 F 
ATOM     78  C   UNL A   1      42.412  21.177  26.664  1.00  0.00     0.060 A 
BRANCH  78  79
ATOM     79  S   UNL A   1      42.263  19.524  25.949  1.00  0.00     0.124 S 
ATOM     80  O   UNL A   1      40.846  19.481  25.603  1.00  0.00    -0.237 OA
ATOM     81  O   UNL A   1      43.192  19.593  24.824  1.00  0.00    -0.237 OA
ATOM     82  O   UNL A   1      42.675  18.648  27.039  1.00  0.00    -0.744 OA
ENDBRANCH  78  79
ENDBRANCH  46  71
BRANCH  58  83
ATOM     83  C   UNL A   1      48.080  27.180  30.584  1.00  0.00     0.058 A 
ATOM     84  C   UNL A   1      49.139  27.489  29.715  1.00  0.00     0.135 A 
ATOM     85  C   UNL A   1      48.396  26.529  31.790  1.00  0.00     0.135 A 
ATOM     86  F   UNL A   1      48.897  28.104  28.547  1.00  0.00    -0.206 F 
ATOM     87  C   UNL A   1      50.455  27.149  30.019  1.00  0.00     0.059 A 
ATOM     88  C   UNL A   1      49.707  26.206  32.127  1.00  0.00     0.059 A 
ATOM     89  F   UNL A   1      47.425  26.215  32.662  1.00  0.00    -0.206 F 
ATOM     90  C   UNL A   1      50.729  26.510  31.230  1.00  0.00     0.060 A 
BRANCH  90  91
ATOM     91  S   UNL A   1      52.445  26.108  31.628  1.00  0.00     0.124 S 
ATOM     92  O   UNL A   1      52.302  24.804  32.266  1.00  0.00    -0.237 OA
ATOM     93  O   UNL A   1      53.077  26.104  30.312  1.00  0.00    -0.237 OA
ATOM     94  O   UNL A   1      52.854  27.197  32.510  1.00  0.00    -0.744 OA
ENDBRANCH  90  91
ENDBRANCH  58  83
ENDBRANCH  32  33
ENDBRANCH  24  27
ENDBRANCH  22  23
ENDBRANCH  21  22
ENDBRANCH   1  21
TORSDOF 18
ENDMDL
MODEL 3
REMARK VINA RESULT:     -10.4      5.612     11.516
REMARK SMILES CCc1ccc(CNC(=O)CCC(=O)NCCCNC(=O)c2ccc(-c3c4nc(c(-c5c(F)cc(S(=O)(=O)[O-])cc5F)c5ccc([nH]5)c(-c5c(F)cc(S(=O)(=O)[O-])cc5F)c5nc(c(-c6c(F)cc(S(=O)(=O)[O-])cc6F)c6ccc3[nH]6)C=C5)C=C4)cc2)cc1
REMARK SMILES IDX 16 1 15 2 13 3 14 4 12 6 11 7 9 8 8 9 10 11 7 12 6 13 3 14
REMARK SMILES IDX 4 15 89 16 5 17 88 18 2 19 1 20 17 21 18 22 19 23 20 24
REMARK SMILES IDX 21 26 22 27 23 28 87 29 24 30 86 31 25 32 26 33 27 34 80 35
REMARK SMILES IDX 28 36 85 37 79 38 81 39 29 40 84 41 78 42 77 43 30 45 64 46
REMARK SMILES IDX 43 47 63 48 44 49 47 50 62 51 82 52 45 53 46 54 61 56 83 57
REMARK SMILES IDX 48 58 31 59 32 60 41 61 33 62 34 63 40 64 42 65 35 66 36 67
REMARK SMILES IDX 37 68 38 69 39 70 65 71 66 72 75 73 67 74 68 75 74 76 76 77
REMARK SMILES IDX 69 78 70 79 71 80 72 81 73 82 49 83 50 84 59 85 51 86 52 87
REMARK SMILES IDX 58 88 60 89 53 90 54 91 55 92 56 93 57 94
REMARK H PARENT 15 5 8 10 19 25 81 44 47 55
REMARK Flexibility Score: inf
ROOT
ATOM      1  C   UNL A   1      35.003  21.872  24.716  1.00  0.00     0.117 C 
ENDROOT
BRANCH   1   2
ATOM      2  N   UNL A   1      34.035  21.104  25.469  1.00  0.00    -0.356 N 
ATOM      3  C   UNL A   1      32.697  20.939  25.233  1.00  0.00     0.220 C 
ATOM      4  O   UNL A   1      32.179  19.824  25.302  1.00  0.00    -0.275 OA
ATOM      5  H   UNL A   1      34.387  20.635  26.261  1.00  0.00     0.163 HD
BRANCH   3   6
ATOM      6  C   UNL A   1      31.825  22.159  25.139  1.00  0.00     0.110 C 
BRANCH   6   7
ATOM      7  C   UNL A   1      31.849  22.860  26.502  1.00  0.00     0.110 C 
BRANCH   7   8
ATOM      8  C   UNL A   1      30.501  23.469  26.834  1.00  0.00     0.220 C 
ATOM      9  N   UNL A   1      30.001  24.559  26.179  1.00  0.00    -0.352 N 
ATOM     10  H   UNL A   1      29.048  24.725  26.359  1.00  0.00     0.163 HD
ATOM     11  O   UNL A   1      29.790  22.929  27.685  1.00  0.00    -0.275 OA
BRANCH   9  12
ATOM     12  C   UNL A   1      30.604  25.529  25.264  1.00  0.00     0.151 C 
BRANCH  12  13
ATOM     13  C   UNL A   1      31.673  26.443  25.859  1.00  0.00    -0.029 A 
ATOM     14  C   UNL A   1      33.591  28.263  26.971  1.00  0.00    -0.048 A 
ATOM     15  C   UNL A   1      32.263  28.280  27.384  1.00  0.00     0.004 A 
ATOM     16  C   UNL A   1      33.959  27.324  25.996  1.00  0.00     0.004 A 
ATOM     17  C   UNL A   1      31.323  27.434  26.788  1.00  0.00     0.006 A 
ATOM     18  C   UNL A   1      33.020  26.409  25.468  1.00  0.00     0.006 A 
BRANCH  14  19
ATOM     19  C   UNL A   1      34.555  29.281  27.536  1.00  0.00     0.032 C 
ATOM     20  C   UNL A   1      34.021  30.706  27.457  1.00  0.00     0.009 C 
ENDBRANCH  14  19
ENDBRANCH  12  13
ENDBRANCH   9  12
ENDBRANCH   7   8
ENDBRANCH   6   7
ENDBRANCH   3   6
ENDBRANCH   1   2
BRANCH   1  21
ATOM     21  C   UNL A   1      35.172  23.344  25.112  1.00  0.00     0.042 C 
BRANCH  21  22
ATOM     22  C   UNL A   1      36.447  23.789  25.844  1.00  0.00     0.118 C 
BRANCH  22  23
ATOM     23  N   UNL A   1      37.566  22.864  25.779  1.00  0.00    -0.352 N 
ATOM     24  C   UNL A   1      38.853  23.011  26.248  1.00  0.00     0.251 C 
ATOM     25  H   UNL A   1      37.376  22.007  25.335  1.00  0.00     0.163 HD
ATOM     26  O   UNL A   1      39.664  22.101  26.078  1.00  0.00    -0.269 OA
BRANCH  24  27
ATOM     27  C   UNL A   1      39.301  24.254  26.928  1.00  0.00     0.039 A 
ATOM     28  C   UNL A   1      38.887  24.478  28.244  1.00  0.00     0.014 A 
ATOM     29  C   UNL A   1      40.043  25.237  26.265  1.00  0.00     0.014 A 
ATOM     30  C   UNL A   1      39.261  25.653  28.915  1.00  0.00     0.010 A 
ATOM     31  C   UNL A   1      40.444  26.399  26.950  1.00  0.00     0.010 A 
ATOM     32  C   UNL A   1      40.069  26.618  28.287  1.00  0.00    -0.014 A 
BRANCH  32  33
ATOM     33  C   UNL A   1      40.553  27.815  29.047  1.00  0.00     0.031 A 
ATOM     34  C   UNL A   1      41.929  27.854  29.669  1.00  0.00     0.074 A 
ATOM     35  C   UNL A   1      39.738  28.879  29.205  1.00  0.00     0.049 A 
ATOM     36  N   UNL A   1      42.494  28.806  30.371  1.00  0.00    -0.248 NA
ATOM     37  C   UNL A   1      42.773  26.664  29.491  1.00  0.00     0.031 C 
ATOM     38  C   UNL A   1      38.371  28.975  28.689  1.00  0.00     0.029 A 
ATOM     39  N   UNL A   1      39.930  30.080  29.850  1.00  0.00    -0.354 N 
ATOM     40  C   UNL A   1      43.754  28.333  30.724  1.00  0.00     0.074 A 
ATOM     41  C   UNL A   1      43.853  26.988  30.192  1.00  0.00     0.031 C 
ATOM     42  C   UNL A   1      37.857  30.170  29.020  1.00  0.00     0.029 A 
ATOM     43  C   UNL A   1      38.838  30.916  29.805  1.00  0.00     0.049 A 
ATOM     44  H   UNL A   1      40.772  30.319  30.300  1.00  0.00     0.167 HD
ATOM     45  C   UNL A   1      44.742  28.961  31.412  1.00  0.00     0.037 A 
ATOM     46  C   UNL A   1      38.634  32.139  30.338  1.00  0.00     0.037 A 
ATOM     47  C   UNL A   1      44.652  30.304  31.934  1.00  0.00     0.049 A 
ATOM     48  C   UNL A   1      39.739  32.807  31.114  1.00  0.00     0.074 A 
ATOM     49  C   UNL A   1      45.625  31.036  32.597  1.00  0.00     0.029 A 
ATOM     50  N   UNL A   1      43.529  31.115  31.863  1.00  0.00    -0.354 N 
ATOM     51  N   UNL A   1      40.944  32.365  31.380  1.00  0.00    -0.248 NA
ATOM     52  C   UNL A   1      39.458  34.145  31.657  1.00  0.00     0.031 C 
ATOM     53  C   UNL A   1      45.073  32.265  32.974  1.00  0.00     0.029 A 
ATOM     54  C   UNL A   1      43.776  32.327  32.493  1.00  0.00     0.049 A 
ATOM     55  H   UNL A   1      42.681  30.867  31.429  1.00  0.00     0.167 HD
ATOM     56  C   UNL A   1      41.575  33.381  32.092  1.00  0.00     0.074 A 
ATOM     57  C   UNL A   1      40.622  34.466  32.207  1.00  0.00     0.031 C 
ATOM     58  C   UNL A   1      42.831  33.411  32.601  1.00  0.00     0.037 A 
BRANCH  45  59
ATOM     59  C   UNL A   1      46.025  28.202  31.650  1.00  0.00     0.058 A 
ATOM     60  C   UNL A   1      46.235  27.454  32.820  1.00  0.00     0.135 A 
ATOM     61  C   UNL A   1      47.032  28.174  30.670  1.00  0.00     0.135 A 
ATOM     62  F   UNL A   1      45.310  27.446  33.792  1.00  0.00    -0.206 F 
ATOM     63  C   UNL A   1      47.409  26.735  33.024  1.00  0.00     0.059 A 
ATOM     64  C   UNL A   1      48.201  27.436  30.840  1.00  0.00     0.059 A 
ATOM     65  F   UNL A   1      46.883  28.861  29.526  1.00  0.00    -0.206 F 
ATOM     66  C   UNL A   1      48.387  26.733  32.030  1.00  0.00     0.060 A 
BRANCH  66  67
ATOM     67  S   UNL A   1      49.907  25.798  32.309  1.00  0.00     0.124 S 
ATOM     68  O   UNL A   1      50.450  25.719  30.952  1.00  0.00    -0.237 OA
ATOM     69  O   UNL A   1      50.642  26.669  33.228  1.00  0.00    -0.237 OA
ATOM     70  O   UNL A   1      49.444  24.544  32.872  1.00  0.00    -0.744 OA
ENDBRANCH  66  67
ENDBRANCH  45  59
BRANCH  46  71
ATOM     71  C   UNL A   1      37.325  32.825  30.146  1.00  0.00     0.058 A 
ATOM     72  C   UNL A   1      37.125  33.724  29.088  1.00  0.00     0.135 A 
ATOM     73  C   UNL A   1      36.248  32.594  31.018  1.00  0.00     0.135 A 
ATOM     74  F   UNL A   1      38.126  33.989  28.234  1.00  0.00    -0.206 F 
ATOM     75  C   UNL A   1      35.911  34.380  28.908  1.00  0.00     0.059 A 
ATOM     76  C   UNL A   1      35.016  33.217  30.841  1.00  0.00     0.059 A 
ATOM     77  F   UNL A   1      36.383  31.736  32.041  1.00  0.00    -0.206 F 
ATOM     78  C   UNL A   1      34.861  34.117  29.788  1.00  0.00     0.060 A 
BRANCH  78  79
ATOM     79  S   UNL A   1      33.274  34.937  29.515  1.00  0.00     0.124 S 
ATOM     80  O   UNL A   1      32.755  35.032  30.876  1.00  0.00    -0.237 OA
ATOM     81  O   UNL A   1      33.683  36.197  28.900  1.00  0.00    -0.237 OA
ATOM     82  O   UNL A   1      32.568  34.017  28.633  1.00  0.00    -0.744 OA
ENDBRANCH  78  79
ENDBRANCH  46  71
BRANCH  58  83
ATOM     83  C   UNL A   1      43.277  34.670  33.297  1.00  0.00     0.058 A 
ATOM     84  C   UNL A   1      43.757  35.782  32.587  1.00  0.00     0.135 A 
ATOM     85  C   UNL A   1      43.175  34.785  34.694  1.00  0.00     0.135 A 
ATOM     86  F   UNL A   1      43.884  35.728  31.251  1.00  0.00    -0.206 F 
ATOM     87  C   UNL A   1      44.141  36.953  33.237  1.00  0.00     0.059 A 
ATOM     88  C   UNL A   1      43.524  35.955  35.362  1.00  0.00     0.059 A 
ATOM     89  F   UNL A   1      42.715  33.756  35.424  1.00  0.00    -0.206 F 
ATOM     90  C   UNL A   1      44.017  37.030  34.626  1.00  0.00     0.060 A 
BRANCH  90  91
ATOM     91  S   UNL A   1      44.483  38.567  35.452  1.00  0.00     0.124 S 
ATOM     92  O   UNL A   1      43.737  39.555  34.680  1.00  0.00    -0.237 OA
ATOM     93  O   UNL A   1      44.014  38.342  36.816  1.00  0.00    -0.237 OA
ATOM     94  O   UNL A   1      45.934  38.613  35.294  1.00  0.00    -0.744 OA
ENDBRANCH  90  91
ENDBRANCH  58  83
ENDBRANCH  32  33
ENDBRANCH  24  27
ENDBRANCH  22  23
ENDBRANCH  21  22
ENDBRANCH   1  21
TORSDOF 18
ENDMDL
