MODEL 1
REMARK VINA RESULT:     -12.1      0.000      0.000
REMARK SMILES CCOc1cc(OCC)cc(-c2ccc([C@@H](C)C(=O)NCCCNC(=O)c3ccc(-c4c5nc(c(-c6c(F)cc(S(=O)(=O)[O-])cc6F)c6ccc([nH]6)c(-c6c(F)cc(S(=O)(=O)[O-])cc6F)c6nc(c(-c7c(F)cc(S(=O)(=O)[O-])cc7F)c7ccc4[nH]7)C=C6)C=C5)cc3)cc2F)c1
REMARK SMILES IDX 21 1 20 2 18 3 19 4 16 6 17 7 15 8 12 9 13 10 94 11 14 12
REMARK SMILES IDX 93 13 95 14 11 15 4 16 5 17 96 18 6 19 10 20 3 21 2 22 1 23
REMARK SMILES IDX 7 24 8 25 9 26 22 27 23 28 24 29 25 30 26 32 27 33 28 34
REMARK SMILES IDX 92 35 29 36 91 37 30 38 31 39 32 40 85 41 33 42 90 43 84 44
REMARK SMILES IDX 86 45 34 46 89 47 83 48 82 49 35 51 69 52 48 53 68 54 49 55
REMARK SMILES IDX 52 56 67 57 87 58 50 59 51 60 66 62 88 63 53 64 36 65 37 66
REMARK SMILES IDX 46 67 38 68 39 69 45 70 47 71 40 72 41 73 42 74 43 75 44 76
REMARK SMILES IDX 70 77 71 78 80 79 72 80 73 81 79 82 81 83 74 84 75 85 76 86
REMARK SMILES IDX 77 87 78 88 54 89 55 90 64 91 56 92 57 93 63 94 65 95 58 96
REMARK SMILES IDX 59 97 60 98 61 99 62 100
REMARK H PARENT 20 5 24 31 86 50 52 61
REMARK Flexibility Score: inf
ROOT
ATOM      1  C   UNL A   1      38.277  22.676  25.858  1.00  0.00     0.117 C 
ENDROOT
BRANCH   1   2
ATOM      2  N   UNL A   1      37.074  21.895  26.070  1.00  0.00    -0.356 N 
ATOM      3  C   UNL A   1      35.908  21.791  25.376  1.00  0.00     0.227 C 
ATOM      4  O   UNL A   1      35.056  21.031  25.856  1.00  0.00    -0.274 OA
ATOM      5  H   UNL A   1      37.108  21.326  26.874  1.00  0.00     0.163 HD
BRANCH   3   6
ATOM      6  C   UNL A   1      35.605  22.540  24.070  1.00  0.00     0.105 C 
ATOM      7  C   UNL A   1      36.756  22.572  23.067  1.00  0.00     0.023 C 
BRANCH   6   8
ATOM      8  C   UNL A   1      34.903  23.868  24.286  1.00  0.00    -0.033 A 
ATOM      9  C   UNL A   1      33.438  26.295  24.657  1.00  0.00     0.018 A 
ATOM     10  C   UNL A   1      33.978  25.576  25.738  1.00  0.00     0.012 A 
ATOM     11  C   UNL A   1      33.669  25.768  23.380  1.00  0.00     0.131 A 
ATOM     12  C   UNL A   1      34.733  24.420  25.554  1.00  0.00     0.005 A 
ATOM     13  C   UNL A   1      34.366  24.569  23.194  1.00  0.00     0.044 A 
ATOM     14  F   UNL A   1      33.226  26.404  22.284  1.00  0.00    -0.206 F 
BRANCH   9  15
ATOM     15  C   UNL A   1      32.663  27.528  24.914  1.00  0.00    -0.008 A 
ATOM     16  C   UNL A   1      32.180  29.531  26.209  1.00  0.00     0.123 A 
ATOM     17  C   UNL A   1      31.295  29.976  25.229  1.00  0.00     0.092 A 
ATOM     18  C   UNL A   1      32.850  28.314  26.057  1.00  0.00     0.055 A 
ATOM     19  C   UNL A   1      31.062  29.200  24.094  1.00  0.00     0.123 A 
ATOM     20  C   UNL A   1      31.727  27.982  23.965  1.00  0.00     0.055 A 
BRANCH  16  21
ATOM     21  O   UNL A   1      32.279  30.246  27.371  1.00  0.00    -0.494 OA
BRANCH  21  22
ATOM     22  C   UNL A   1      33.068  31.437  27.253  1.00  0.00     0.226 C 
ATOM     23  C   UNL A   1      34.423  31.287  27.931  1.00  0.00     0.049 C 
ENDBRANCH  21  22
ENDBRANCH  16  21
BRANCH  19  24
ATOM     24  O   UNL A   1      30.201  29.724  23.171  1.00  0.00    -0.494 OA
BRANCH  24  25
ATOM     25  C   UNL A   1      28.945  29.073  22.957  1.00  0.00     0.226 C 
ATOM     26  C   UNL A   1      27.764  30.009  23.176  1.00  0.00     0.049 C 
ENDBRANCH  24  25
ENDBRANCH  19  24
ENDBRANCH   9  15
ENDBRANCH   6   8
ENDBRANCH   3   6
ENDBRANCH   1   2
BRANCH   1  27
ATOM     27  C   UNL A   1      39.472  22.144  26.647  1.00  0.00     0.042 C 
BRANCH  27  28
ATOM     28  C   UNL A   1      40.379  23.230  27.215  1.00  0.00     0.118 C 
BRANCH  28  29
ATOM     29  N   UNL A   1      41.018  24.016  26.169  1.00  0.00    -0.352 N 
ATOM     30  C   UNL A   1      41.266  25.364  26.083  1.00  0.00     0.251 C 
ATOM     31  H   UNL A   1      41.323  23.493  25.392  1.00  0.00     0.163 HD
ATOM     32  O   UNL A   1      41.622  25.829  25.003  1.00  0.00    -0.269 OA
BRANCH  30  33
ATOM     33  C   UNL A   1      41.102  26.260  27.254  1.00  0.00     0.039 A 
ATOM     34  C   UNL A   1      42.055  27.263  27.469  1.00  0.00     0.014 A 
ATOM     35  C   UNL A   1      40.065  26.087  28.173  1.00  0.00     0.014 A 
ATOM     36  C   UNL A   1      41.936  28.119  28.568  1.00  0.00     0.010 A 
ATOM     37  C   UNL A   1      39.901  26.990  29.223  1.00  0.00     0.010 A 
ATOM     38  C   UNL A   1      40.840  28.009  29.439  1.00  0.00    -0.014 A 
BRANCH  38  39
ATOM     39  C   UNL A   1      40.665  28.945  30.581  1.00  0.00     0.031 A 
ATOM     40  C   UNL A   1      41.518  28.808  31.814  1.00  0.00     0.074 A 
ATOM     41  C   UNL A   1      39.695  29.880  30.533  1.00  0.00     0.049 A 
ATOM     42  N   UNL A   1      41.471  29.485  32.933  1.00  0.00    -0.248 NA
ATOM     43  C   UNL A   1      42.543  27.751  31.799  1.00  0.00     0.031 C 
ATOM     44  C   UNL A   1      38.772  30.082  29.414  1.00  0.00     0.029 A 
ATOM     45  N   UNL A   1      39.318  30.830  31.448  1.00  0.00    -0.354 N 
ATOM     46  C   UNL A   1      42.441  28.926  33.758  1.00  0.00     0.074 A 
ATOM     47  C   UNL A   1      43.027  27.822  33.030  1.00  0.00     0.031 C 
ATOM     48  C   UNL A   1      37.952  31.106  29.700  1.00  0.00     0.029 A 
ATOM     49  C   UNL A   1      38.264  31.610  31.033  1.00  0.00     0.049 A 
ATOM     50  H   UNL A   1      39.759  30.942  32.321  1.00  0.00     0.167 HD
ATOM     51  C   UNL A   1      42.823  29.311  34.999  1.00  0.00     0.037 A 
ATOM     52  C   UNL A   1      37.618  32.614  31.657  1.00  0.00     0.037 A 
ATOM     53  C   UNL A   1      42.254  30.430  35.707  1.00  0.00     0.049 A 
ATOM     54  C   UNL A   1      38.066  33.031  33.032  1.00  0.00     0.074 A 
ATOM     55  C   UNL A   1      42.615  30.943  36.940  1.00  0.00     0.029 A 
ATOM     56  N   UNL A   1      41.203  31.209  35.243  1.00  0.00    -0.354 N 
ATOM     57  N   UNL A   1      39.028  32.533  33.770  1.00  0.00    -0.248 NA
ATOM     58  C   UNL A   1      37.345  34.149  33.654  1.00  0.00     0.031 C 
ATOM     59  C   UNL A   1      41.754  32.004  37.243  1.00  0.00     0.029 A 
ATOM     60  C   UNL A   1      40.888  32.184  36.175  1.00  0.00     0.049 A 
ATOM     61  H   UNL A   1      40.748  31.086  34.379  1.00  0.00     0.167 HD
ATOM     62  C   UNL A   1      39.045  33.292  34.936  1.00  0.00     0.074 A 
ATOM     63  C   UNL A   1      38.005  34.290  34.797  1.00  0.00     0.031 C 
ATOM     64  C   UNL A   1      39.850  33.173  36.020  1.00  0.00     0.037 A 
BRANCH  51  65
ATOM     65  C   UNL A   1      43.911  28.517  35.672  1.00  0.00     0.058 A 
ATOM     66  C   UNL A   1      43.624  27.385  36.451  1.00  0.00     0.135 A 
ATOM     67  C   UNL A   1      45.260  28.879  35.519  1.00  0.00     0.135 A 
ATOM     68  F   UNL A   1      42.352  27.000  36.643  1.00  0.00    -0.206 F 
ATOM     69  C   UNL A   1      44.630  26.662  37.086  1.00  0.00     0.059 A 
ATOM     70  C   UNL A   1      46.285  28.153  36.121  1.00  0.00     0.059 A 
ATOM     71  F   UNL A   1      45.592  29.951  34.783  1.00  0.00    -0.206 F 
ATOM     72  C   UNL A   1      45.958  27.057  36.918  1.00  0.00     0.060 A 
BRANCH  72  73
ATOM     73  S   UNL A   1      47.250  26.117  37.757  1.00  0.00     0.124 S 
ATOM     74  O   UNL A   1      46.639  24.794  37.841  1.00  0.00    -0.237 OA
ATOM     75  O   UNL A   1      48.374  26.238  36.835  1.00  0.00    -0.237 OA
ATOM     76  O   UNL A   1      47.408  26.816  39.029  1.00  0.00    -0.744 OA
ENDBRANCH  72  73
ENDBRANCH  51  65
BRANCH  52  77
ATOM     77  C   UNL A   1      36.502  33.316  30.968  1.00  0.00     0.058 A 
ATOM     78  C   UNL A   1      35.183  33.187  31.426  1.00  0.00     0.135 A 
ATOM     79  C   UNL A   1      36.733  34.153  29.865  1.00  0.00     0.135 A 
ATOM     80  F   UNL A   1      34.911  32.394  32.474  1.00  0.00    -0.206 F 
ATOM     81  C   UNL A   1      34.129  33.854  30.811  1.00  0.00     0.059 A 
ATOM     82  C   UNL A   1      35.699  34.852  29.249  1.00  0.00     0.059 A 
ATOM     83  F   UNL A   1      37.980  34.322  29.399  1.00  0.00    -0.206 F 
ATOM     84  C   UNL A   1      34.398  34.689  29.725  1.00  0.00     0.060 A 
BRANCH  84  85
ATOM     85  S   UNL A   1      33.028  35.597  28.977  1.00  0.00     0.124 S 
ATOM     86  O   UNL A   1      32.294  36.046  30.154  1.00  0.00    -0.237 OA
ATOM     87  O   UNL A   1      33.723  36.634  28.223  1.00  0.00    -0.237 OA
ATOM     88  O   UNL A   1      32.359  34.585  28.163  1.00  0.00    -0.744 OA
ENDBRANCH  84  85
ENDBRANCH  52  77
BRANCH  64  89
ATOM     89  C   UNL A   1      39.658  34.164  37.135  1.00  0.00     0.058 A 
ATOM     90  C   UNL A   1      38.933  33.842  38.292  1.00  0.00     0.135 A 
ATOM     91  C   UNL A   1      40.248  35.437  37.064  1.00  0.00     0.135 A 
ATOM     92  F   UNL A   1      38.342  32.642  38.407  1.00  0.00    -0.206 F 
ATOM     93  C   UNL A   1      38.781  34.754  39.331  1.00  0.00     0.059 A 
ATOM     94  C   UNL A   1      40.132  36.354  38.103  1.00  0.00     0.059 A 
ATOM     95  F   UNL A   1      40.962  35.791  35.983  1.00  0.00    -0.206 F 
ATOM     96  C   UNL A   1      39.387  36.007  39.229  1.00  0.00     0.060 A 
BRANCH  96  97
ATOM     97  S   UNL A   1      39.211  37.170  40.598  1.00  0.00     0.124 S 
ATOM     98  O   UNL A   1      40.589  37.613  40.786  1.00  0.00    -0.237 OA
ATOM     99  O   UNL A   1      38.294  38.165  40.049  1.00  0.00    -0.237 OA
ATOM    100  O   UNL A   1      38.663  36.348  41.674  1.00  0.00    -0.744 OA
ENDBRANCH  96  97
ENDBRANCH  64  89
ENDBRANCH  38  39
ENDBRANCH  30  33
ENDBRANCH  28  29
ENDBRANCH  27  28
ENDBRANCH   1  27
TORSDOF 19
ENDMDL
MODEL 2
REMARK VINA RESULT:     -11.9      0.675      8.348
REMARK SMILES CCOc1cc(OCC)cc(-c2ccc([C@@H](C)C(=O)NCCCNC(=O)c3ccc(-c4c5nc(c(-c6c(F)cc(S(=O)(=O)[O-])cc6F)c6ccc([nH]6)c(-c6c(F)cc(S(=O)(=O)[O-])cc6F)c6nc(c(-c7c(F)cc(S(=O)(=O)[O-])cc7F)c7ccc4[nH]7)C=C6)C=C5)cc3)cc2F)c1
REMARK SMILES IDX 21 1 20 2 18 3 19 4 16 6 17 7 15 8 12 9 13 10 94 11 14 12
REMARK SMILES IDX 93 13 95 14 11 15 4 16 5 17 96 18 6 19 10 20 3 21 2 22 1 23
REMARK SMILES IDX 7 24 8 25 9 26 22 27 23 28 24 29 25 30 26 32 27 33 28 34
REMARK SMILES IDX 92 35 29 36 91 37 30 38 31 39 32 40 85 41 33 42 90 43 84 44
REMARK SMILES IDX 86 45 34 46 89 47 83 48 82 49 35 51 69 52 48 53 68 54 49 55
REMARK SMILES IDX 52 56 67 57 87 58 50 59 51 60 66 62 88 63 53 64 36 65 37 66
REMARK SMILES IDX 46 67 38 68 39 69 45 70 47 71 40 72 41 73 42 74 43 75 44 76
REMARK SMILES IDX 70 77 71 78 80 79 72 80 73 81 79 82 81 83 74 84 75 85 76 86
REMARK SMILES IDX 77 87 78 88 54 89 55 90 64 91 56 92 57 93 63 94 65 95 58 96
REMARK SMILES IDX 59 97 60 98 61 99 62 100
REMARK H PARENT 20 5 24 31 86 50 52 61
REMARK Flexibility Score: inf
ROOT
ATOM      1  C   UNL A   1      37.976  22.934  25.899  1.00  0.00     0.117 C 
ENDROOT
BRANCH   1   2
ATOM      2  N   UNL A   1      36.814  22.099  26.131  1.00  0.00    -0.356 N 
ATOM      3  C   UNL A   1      35.659  21.912  25.435  1.00  0.00     0.227 C 
ATOM      4  O   UNL A   1      34.844  21.126  25.935  1.00  0.00    -0.274 OA
ATOM      5  H   UNL A   1      36.871  21.560  26.953  1.00  0.00     0.163 HD
BRANCH   3   6
ATOM      6  C   UNL A   1      35.327  22.601  24.102  1.00  0.00     0.105 C 
ATOM      7  C   UNL A   1      36.480  22.651  23.101  1.00  0.00     0.023 C 
BRANCH   6   8
ATOM      8  C   UNL A   1      34.564  23.902  24.270  1.00  0.00    -0.033 A 
ATOM      9  C   UNL A   1      33.254  26.410  24.677  1.00  0.00     0.018 A 
ATOM     10  C   UNL A   1      33.809  26.050  23.436  1.00  0.00     0.012 A 
ATOM     11  C   UNL A   1      33.361  25.465  25.705  1.00  0.00     0.131 A 
ATOM     12  C   UNL A   1      34.404  24.808  23.224  1.00  0.00     0.005 A 
ATOM     13  C   UNL A   1      34.021  24.246  25.518  1.00  0.00     0.044 A 
ATOM     14  F   UNL A   1      32.828  25.702  26.914  1.00  0.00    -0.206 F 
BRANCH   9  15
ATOM     15  C   UNL A   1      32.615  27.734  24.834  1.00  0.00    -0.008 A 
ATOM     16  C   UNL A   1      30.889  29.364  24.299  1.00  0.00     0.123 A 
ATOM     17  C   UNL A   1      31.319  30.190  25.336  1.00  0.00     0.092 A 
ATOM     18  C   UNL A   1      31.537  28.153  24.044  1.00  0.00     0.055 A 
ATOM     19  C   UNL A   1      32.410  29.817  26.119  1.00  0.00     0.123 A 
ATOM     20  C   UNL A   1      33.056  28.613  25.842  1.00  0.00     0.055 A 
BRANCH  16  21
ATOM     21  O   UNL A   1      29.907  29.824  23.464  1.00  0.00    -0.494 OA
BRANCH  21  22
ATOM     22  C   UNL A   1      29.000  28.806  23.020  1.00  0.00     0.226 C 
ATOM     23  C   UNL A   1      27.579  29.336  22.886  1.00  0.00     0.049 C 
ENDBRANCH  21  22
ENDBRANCH  16  21
BRANCH  19  24
ATOM     24  O   UNL A   1      32.748  30.672  27.131  1.00  0.00    -0.494 OA
BRANCH  24  25
ATOM     25  C   UNL A   1      33.993  30.476  27.807  1.00  0.00     0.226 C 
ATOM     26  C   UNL A   1      34.930  31.667  27.651  1.00  0.00     0.049 C 
ENDBRANCH  24  25
ENDBRANCH  19  24
ENDBRANCH   9  15
ENDBRANCH   6   8
ENDBRANCH   3   6
ENDBRANCH   1   2
BRANCH   1  27
ATOM     27  C   UNL A   1      39.250  22.353  26.510  1.00  0.00     0.042 C 
BRANCH  27  28
ATOM     28  C   UNL A   1      40.180  23.394  27.121  1.00  0.00     0.118 C 
BRANCH  28  29
ATOM     29  N   UNL A   1      40.877  24.172  26.107  1.00  0.00    -0.352 N 
ATOM     30  C   UNL A   1      41.180  25.511  26.053  1.00  0.00     0.251 C 
ATOM     31  H   UNL A   1      41.182  23.651  25.329  1.00  0.00     0.163 HD
ATOM     32  O   UNL A   1      41.583  25.981  24.991  1.00  0.00    -0.269 OA
BRANCH  30  33
ATOM     33  C   UNL A   1      41.020  26.392  27.235  1.00  0.00     0.039 A 
ATOM     34  C   UNL A   1      40.014  26.094  28.162  1.00  0.00     0.014 A 
ATOM     35  C   UNL A   1      41.801  27.536  27.411  1.00  0.00     0.014 A 
ATOM     36  C   UNL A   1      39.830  26.909  29.283  1.00  0.00     0.010 A 
ATOM     37  C   UNL A   1      41.672  28.302  28.569  1.00  0.00     0.010 A 
ATOM     38  C   UNL A   1      40.678  28.004  29.513  1.00  0.00    -0.014 A 
BRANCH  38  39
ATOM     39  C   UNL A   1      40.536  28.850  30.728  1.00  0.00     0.031 A 
ATOM     40  C   UNL A   1      39.491  29.933  30.781  1.00  0.00     0.074 A 
ATOM     41  C   UNL A   1      41.387  28.684  31.758  1.00  0.00     0.049 A 
ATOM     42  N   UNL A   1      39.257  30.811  31.723  1.00  0.00    -0.248 NA
ATOM     43  C   UNL A   1      38.611  30.066  29.609  1.00  0.00     0.031 C 
ATOM     44  C   UNL A   1      42.473  27.700  31.807  1.00  0.00     0.029 A 
ATOM     45  N   UNL A   1      41.483  29.340  32.960  1.00  0.00    -0.354 N 
ATOM     46  C   UNL A   1      38.220  31.609  31.252  1.00  0.00     0.074 A 
ATOM     47  C   UNL A   1      37.904  31.143  29.919  1.00  0.00     0.031 C 
ATOM     48  C   UNL A   1      43.107  27.803  32.986  1.00  0.00     0.029 A 
ATOM     49  C   UNL A   1      42.502  28.881  33.762  1.00  0.00     0.049 A 
ATOM     50  H   UNL A   1      40.879  30.072  33.223  1.00  0.00     0.167 HD
ATOM     51  C   UNL A   1      37.576  32.622  31.879  1.00  0.00     0.037 A 
ATOM     52  C   UNL A   1      42.906  29.284  34.981  1.00  0.00     0.037 A 
ATOM     53  C   UNL A   1      37.877  33.062  33.218  1.00  0.00     0.049 A 
ATOM     54  C   UNL A   1      42.170  30.406  35.664  1.00  0.00     0.074 A 
ATOM     55  C   UNL A   1      37.241  34.035  33.969  1.00  0.00     0.029 A 
ATOM     56  N   UNL A   1      38.903  32.556  34.005  1.00  0.00    -0.354 N 
ATOM     57  N   UNL A   1      41.150  31.105  35.228  1.00  0.00    -0.248 NA
ATOM     58  C   UNL A   1      42.636  30.787  37.004  1.00  0.00     0.031 C 
ATOM     59  C   UNL A   1      37.909  34.149  35.193  1.00  0.00     0.029 A 
ATOM     60  C   UNL A   1      38.931  33.213  35.225  1.00  0.00     0.049 A 
ATOM     61  H   UNL A   1      39.520  31.838  33.737  1.00  0.00     0.167 HD
ATOM     62  C   UNL A   1      40.835  31.995  36.250  1.00  0.00     0.074 A 
ATOM     63  C   UNL A   1      41.766  31.735  37.330  1.00  0.00     0.031 C 
ATOM     64  C   UNL A   1      39.863  32.939  36.291  1.00  0.00     0.037 A 
BRANCH  51  65
ATOM     65  C   UNL A   1      36.478  33.324  31.125  1.00  0.00     0.058 A 
ATOM     66  C   UNL A   1      36.755  34.185  30.052  1.00  0.00     0.135 A 
ATOM     67  C   UNL A   1      35.131  33.118  31.465  1.00  0.00     0.135 A 
ATOM     68  F   UNL A   1      38.025  34.430  29.690  1.00  0.00    -0.206 F 
ATOM     69  C   UNL A   1      35.739  34.847  29.367  1.00  0.00     0.059 A 
ATOM     70  C   UNL A   1      34.097  33.746  30.776  1.00  0.00     0.059 A 
ATOM     71  F   UNL A   1      34.808  32.302  32.482  1.00  0.00    -0.206 F 
ATOM     72  C   UNL A   1      34.413  34.623  29.740  1.00  0.00     0.060 A 
BRANCH  72  73
ATOM     73  S   UNL A   1      33.109  35.498  28.850  1.00  0.00     0.124 S 
ATOM     74  O   UNL A   1      33.881  36.473  28.087  1.00  0.00    -0.237 OA
ATOM     75  O   UNL A   1      32.491  34.430  28.071  1.00  0.00    -0.237 OA
ATOM     76  O   UNL A   1      32.280  36.051  29.917  1.00  0.00    -0.744 OA
ENDBRANCH  72  73
ENDBRANCH  51  65
BRANCH  52  77
ATOM     77  C   UNL A   1      44.045  28.597  35.648  1.00  0.00     0.058 A 
ATOM     78  C   UNL A   1      43.829  27.467  36.451  1.00  0.00     0.135 A 
ATOM     79  C   UNL A   1      45.368  29.029  35.469  1.00  0.00     0.135 A 
ATOM     80  F   UNL A   1      42.581  27.018  36.656  1.00  0.00    -0.206 F 
ATOM     81  C   UNL A   1      44.882  26.796  37.063  1.00  0.00     0.059 A 
ATOM     82  C   UNL A   1      46.441  28.359  36.050  1.00  0.00     0.059 A 
ATOM     83  F   UNL A   1      45.627  30.095  34.697  1.00  0.00    -0.206 F 
ATOM     84  C   UNL A   1      46.186  27.247  36.852  1.00  0.00     0.060 A 
BRANCH  84  85
ATOM     85  S   UNL A   1      47.546  26.328  37.603  1.00  0.00     0.124 S 
ATOM     86  O   UNL A   1      47.146  24.949  37.350  1.00  0.00    -0.237 OA
ATOM     87  O   UNL A   1      48.697  26.808  36.844  1.00  0.00    -0.237 OA
ATOM     88  O   UNL A   1      47.508  26.751  39.000  1.00  0.00    -0.744 OA
ENDBRANCH  84  85
ENDBRANCH  52  77
BRANCH  64  89
ATOM     89  C   UNL A   1      39.737  33.746  37.554  1.00  0.00     0.058 A 
ATOM     90  C   UNL A   1      40.414  34.963  37.723  1.00  0.00     0.135 A 
ATOM     91  C   UNL A   1      38.888  33.318  38.588  1.00  0.00     0.135 A 
ATOM     92  F   UNL A   1      41.242  35.414  36.768  1.00  0.00    -0.206 F 
ATOM     93  C   UNL A   1      40.271  35.718  38.883  1.00  0.00     0.059 A 
ATOM     94  C   UNL A   1      38.709  34.070  39.744  1.00  0.00     0.059 A 
ATOM     95  F   UNL A   1      38.209  32.165  38.472  1.00  0.00    -0.206 F 
ATOM     96  C   UNL A   1      39.415  35.264  39.887  1.00  0.00     0.060 A 
BRANCH  96  97
ATOM     97  S   UNL A   1      39.212  36.269  41.374  1.00  0.00     0.124 S 
ATOM     98  O   UNL A   1      38.005  35.692  41.955  1.00  0.00    -0.237 OA
ATOM     99  O   UNL A   1      40.452  36.009  42.099  1.00  0.00    -0.237 OA
ATOM    100  O   UNL A   1      39.072  37.625  40.850  1.00  0.00    -0.744 OA
ENDBRANCH  96  97
ENDBRANCH  64  89
ENDBRANCH  38  39
ENDBRANCH  30  33
ENDBRANCH  28  29
ENDBRANCH  27  28
ENDBRANCH   1  27
TORSDOF 19
ENDMDL
MODEL 3
REMARK VINA RESULT:     -11.9      2.201      4.121
REMARK SMILES CCOc1cc(OCC)cc(-c2ccc([C@@H](C)C(=O)NCCCNC(=O)c3ccc(-c4c5nc(c(-c6c(F)cc(S(=O)(=O)[O-])cc6F)c6ccc([nH]6)c(-c6c(F)cc(S(=O)(=O)[O-])cc6F)c6nc(c(-c7c(F)cc(S(=O)(=O)[O-])cc7F)c7ccc4[nH]7)C=C6)C=C5)cc3)cc2F)c1
REMARK SMILES IDX 21 1 20 2 18 3 19 4 16 6 17 7 15 8 12 9 13 10 94 11 14 12
REMARK SMILES IDX 93 13 95 14 11 15 4 16 5 17 96 18 6 19 10 20 3 21 2 22 1 23
REMARK SMILES IDX 7 24 8 25 9 26 22 27 23 28 24 29 25 30 26 32 27 33 28 34
REMARK SMILES IDX 92 35 29 36 91 37 30 38 31 39 32 40 85 41 33 42 90 43 84 44
REMARK SMILES IDX 86 45 34 46 89 47 83 48 82 49 35 51 69 52 48 53 68 54 49 55
REMARK SMILES IDX 52 56 67 57 87 58 50 59 51 60 66 62 88 63 53 64 36 65 37 66
REMARK SMILES IDX 46 67 38 68 39 69 45 70 47 71 40 72 41 73 42 74 43 75 44 76
REMARK SMILES IDX 70 77 71 78 80 79 72 80 73 81 79 82 81 83 74 84 75 85 76 86
REMARK SMILES IDX 77 87 78 88 54 89 55 90 64 91 56 92 57 93 63 94 65 95 58 96
REMARK SMILES IDX 59 97 60 98 61 99 62 100
REMARK H PARENT 20 5 24 31 86 50 52 61
REMARK Flexibility Score: inf
ROOT
ATOM      1  C   UNL A   1      43.851  22.080  25.277  1.00  0.00     0.117 C 
ENDROOT
BRANCH   1   2
ATOM      2  N   UNL A   1      43.074  20.931  25.698  1.00  0.00    -0.356 N 
ATOM      3  C   UNL A   1      41.897  20.810  26.370  1.00  0.00     0.227 C 
ATOM      4  O   UNL A   1      41.514  19.654  26.592  1.00  0.00    -0.274 OA
ATOM      5  H   UNL A   1      43.476  20.067  25.446  1.00  0.00     0.163 HD
BRANCH   3   6
ATOM      6  C   UNL A   1      41.045  21.995  26.849  1.00  0.00     0.105 C 
ATOM      7  C   UNL A   1      41.047  22.218  28.360  1.00  0.00     0.023 C 
BRANCH   6   8
ATOM      8  C   UNL A   1      39.678  22.058  26.192  1.00  0.00    -0.033 A 
ATOM      9  C   UNL A   1      37.045  22.085  25.080  1.00  0.00     0.018 A 
ATOM     10  C   UNL A   1      37.613  23.223  25.681  1.00  0.00     0.012 A 
ATOM     11  C   UNL A   1      37.845  20.937  25.038  1.00  0.00     0.131 A 
ATOM     12  C   UNL A   1      38.914  23.223  26.180  1.00  0.00     0.005 A 
ATOM     13  C   UNL A   1      39.125  20.912  25.601  1.00  0.00     0.044 A 
ATOM     14  F   UNL A   1      37.404  19.814  24.449  1.00  0.00    -0.206 F 
BRANCH   9  15
ATOM     15  C   UNL A   1      35.666  22.153  24.548  1.00  0.00    -0.008 A 
ATOM     16  C   UNL A   1      34.014  22.966  22.958  1.00  0.00     0.123 A 
ATOM     17  C   UNL A   1      33.067  22.070  23.454  1.00  0.00     0.092 A 
ATOM     18  C   UNL A   1      35.297  23.013  23.507  1.00  0.00     0.055 A 
ATOM     19  C   UNL A   1      33.393  21.224  24.512  1.00  0.00     0.123 A 
ATOM     20  C   UNL A   1      34.673  21.294  25.059  1.00  0.00     0.055 A 
BRANCH  16  21
ATOM     21  O   UNL A   1      33.620  23.877  22.017  1.00  0.00    -0.494 OA
BRANCH  21  22
ATOM     22  C   UNL A   1      33.173  25.123  22.567  1.00  0.00     0.226 C 
ATOM     23  C   UNL A   1      32.675  26.071  21.485  1.00  0.00     0.049 C 
ENDBRANCH  21  22
ENDBRANCH  16  21
BRANCH  19  24
ATOM     24  O   UNL A   1      32.415  20.359  24.916  1.00  0.00    -0.494 OA
BRANCH  24  25
ATOM     25  C   UNL A   1      32.557  18.969  24.605  1.00  0.00     0.226 C 
ATOM     26  C   UNL A   1      32.276  18.673  23.138  1.00  0.00     0.049 C 
ENDBRANCH  24  25
ENDBRANCH  19  24
ENDBRANCH   9  15
ENDBRANCH   6   8
ENDBRANCH   3   6
ENDBRANCH   1   2
BRANCH   1  27
ATOM     27  C   UNL A   1      44.549  22.779  26.444  1.00  0.00     0.042 C 
BRANCH  27  28
ATOM     28  C   UNL A   1      44.055  24.196  26.708  1.00  0.00     0.118 C 
BRANCH  28  29
ATOM     29  N   UNL A   1      43.077  24.631  25.722  1.00  0.00    -0.352 N 
ATOM     30  C   UNL A   1      41.998  25.474  25.838  1.00  0.00     0.251 C 
ATOM     31  H   UNL A   1      43.211  24.259  24.821  1.00  0.00     0.163 HD
ATOM     32  O   UNL A   1      41.185  25.519  24.917  1.00  0.00    -0.269 OA
BRANCH  30  33
ATOM     33  C   UNL A   1      41.793  26.312  27.044  1.00  0.00     0.039 A 
ATOM     34  C   UNL A   1      42.528  27.497  27.170  1.00  0.00     0.014 A 
ATOM     35  C   UNL A   1      40.940  25.918  28.077  1.00  0.00     0.014 A 
ATOM     36  C   UNL A   1      42.365  28.306  28.298  1.00  0.00     0.010 A 
ATOM     37  C   UNL A   1      40.718  26.764  29.164  1.00  0.00     0.010 A 
ATOM     38  C   UNL A   1      41.435  27.962  29.292  1.00  0.00    -0.014 A 
BRANCH  38  39
ATOM     39  C   UNL A   1      41.207  28.836  30.473  1.00  0.00     0.031 A 
ATOM     40  C   UNL A   1      42.052  28.680  31.709  1.00  0.00     0.074 A 
ATOM     41  C   UNL A   1      40.198  29.729  30.455  1.00  0.00     0.049 A 
ATOM     42  N   UNL A   1      41.963  29.304  32.857  1.00  0.00    -0.248 NA
ATOM     43  C   UNL A   1      43.123  27.671  31.659  1.00  0.00     0.031 C 
ATOM     44  C   UNL A   1      39.278  29.941  29.334  1.00  0.00     0.029 A 
ATOM     45  N   UNL A   1      39.769  30.619  31.407  1.00  0.00    -0.354 N 
ATOM     46  C   UNL A   1      42.948  28.751  33.669  1.00  0.00     0.074 A 
ATOM     47  C   UNL A   1      43.590  27.708  32.899  1.00  0.00     0.031 C 
ATOM     48  C   UNL A   1      38.410  30.914  29.655  1.00  0.00     0.029 A 
ATOM     49  C   UNL A   1      38.686  31.370  31.014  1.00  0.00     0.049 A 
ATOM     50  H   UNL A   1      40.195  30.711  32.289  1.00  0.00     0.167 HD
ATOM     51  C   UNL A   1      43.300  29.096  34.930  1.00  0.00     0.037 A 
ATOM     52  C   UNL A   1      37.990  32.316  31.673  1.00  0.00     0.037 A 
ATOM     53  C   UNL A   1      42.674  30.155  35.680  1.00  0.00     0.049 A 
ATOM     54  C   UNL A   1      38.404  32.690  33.071  1.00  0.00     0.074 A 
ATOM     55  C   UNL A   1      42.999  30.627  36.940  1.00  0.00     0.029 A 
ATOM     56  N   UNL A   1      41.594  30.908  35.238  1.00  0.00    -0.354 N 
ATOM     57  N   UNL A   1      39.379  32.201  33.799  1.00  0.00    -0.248 NA
ATOM     58  C   UNL A   1      37.628  33.746  33.734  1.00  0.00     0.031 C 
ATOM     59  C   UNL A   1      42.089  31.635  37.278  1.00  0.00     0.029 A 
ATOM     60  C   UNL A   1      41.227  31.825  36.209  1.00  0.00     0.049 A 
ATOM     61  H   UNL A   1      41.155  30.805  34.364  1.00  0.00     0.167 HD
ATOM     62  C   UNL A   1      39.351  32.906  34.997  1.00  0.00     0.074 A 
ATOM     63  C   UNL A   1      38.268  33.864  34.890  1.00  0.00     0.031 C 
ATOM     64  C   UNL A   1      40.148  32.774  36.085  1.00  0.00     0.037 A 
BRANCH  51  65
ATOM     65  C   UNL A   1      44.415  28.320  35.580  1.00  0.00     0.058 A 
ATOM     66  C   UNL A   1      44.163  27.178  36.358  1.00  0.00     0.135 A 
ATOM     67  C   UNL A   1      45.753  28.710  35.407  1.00  0.00     0.135 A 
ATOM     68  F   UNL A   1      42.903  26.767  36.568  1.00  0.00    -0.206 F 
ATOM     69  C   UNL A   1      45.194  26.473  36.971  1.00  0.00     0.059 A 
ATOM     70  C   UNL A   1      46.803  28.003  35.988  1.00  0.00     0.059 A 
ATOM     71  F   UNL A   1      46.051  29.792  34.672  1.00  0.00    -0.206 F 
ATOM     72  C   UNL A   1      46.511  26.896  36.784  1.00  0.00     0.060 A 
BRANCH  72  73
ATOM     73  S   UNL A   1      47.835  25.978  37.597  1.00  0.00     0.124 S 
ATOM     74  O   UNL A   1      47.985  24.832  36.704  1.00  0.00    -0.237 OA
ATOM     75  O   UNL A   1      48.934  26.937  37.585  1.00  0.00    -0.237 OA
ATOM     76  O   UNL A   1      47.283  25.677  38.914  1.00  0.00    -0.744 OA
ENDBRANCH  72  73
ENDBRANCH  51  65
BRANCH  52  77
ATOM     77  C   UNL A   1      36.851  32.999  31.002  1.00  0.00     0.058 A 
ATOM     78  C   UNL A   1      37.079  34.000  30.046  1.00  0.00     0.135 A 
ATOM     79  C   UNL A   1      35.521  32.644  31.274  1.00  0.00     0.135 A 
ATOM     80  F   UNL A   1      38.333  34.377  29.755  1.00  0.00    -0.206 F 
ATOM     81  C   UNL A   1      36.028  34.633  29.390  1.00  0.00     0.059 A 
ATOM     82  C   UNL A   1      34.454  33.246  30.613  1.00  0.00     0.059 A 
ATOM     83  F   UNL A   1      35.252  31.682  32.169  1.00  0.00    -0.206 F 
ATOM     84  C   UNL A   1      34.719  34.245  29.677  1.00  0.00     0.060 A 
BRANCH  84  85
ATOM     85  S   UNL A   1      33.370  35.034  28.772  1.00  0.00     0.124 S 
ATOM     86  O   UNL A   1      32.846  33.919  27.993  1.00  0.00    -0.237 OA
ATOM     87  O   UNL A   1      32.516  35.515  29.852  1.00  0.00    -0.237 OA
ATOM     88  O   UNL A   1      34.044  36.078  28.005  1.00  0.00    -0.744 OA
ENDBRANCH  84  85
ENDBRANCH  52  77
BRANCH  64  89
ATOM     89  C   UNL A   1      39.900  33.705  37.240  1.00  0.00     0.058 A 
ATOM     90  C   UNL A   1      40.469  34.986  37.290  1.00  0.00     0.135 A 
ATOM     91  C   UNL A   1      39.043  33.326  38.286  1.00  0.00     0.135 A 
ATOM     92  F   UNL A   1      41.300  35.395  36.319  1.00  0.00    -0.206 F 
ATOM     93  C   UNL A   1      40.214  35.853  38.348  1.00  0.00     0.059 A 
ATOM     94  C   UNL A   1      38.753  34.187  39.340  1.00  0.00     0.059 A 
ATOM     95  F   UNL A   1      38.465  32.114  38.281  1.00  0.00    -0.206 F 
ATOM     96  C   UNL A   1      39.353  35.445  39.368  1.00  0.00     0.060 A 
BRANCH  96  97
ATOM     97  S   UNL A   1      39.004  36.591  40.719  1.00  0.00     0.124 S 
ATOM     98  O   UNL A   1      37.853  35.955  41.352  1.00  0.00    -0.237 OA
ATOM     99  O   UNL A   1      40.246  36.559  41.485  1.00  0.00    -0.237 OA
ATOM    100  O   UNL A   1      38.729  37.850  40.033  1.00  0.00    -0.744 OA
ENDBRANCH  96  97
ENDBRANCH  64  89
ENDBRANCH  38  39
ENDBRANCH  30  33
ENDBRANCH  28  29
ENDBRANCH  27  28
ENDBRANCH   1  27
TORSDOF 19
ENDMDL
