MODEL 1
REMARK VINA RESULT:     -12.1      0.000      0.000
REMARK SMILES O=C(C[C@H]1C[C@H]2CC[C@@H](C1)N2C(=O)c1c[nH]c(=O)[nH]1)NCCCNC(=O)c1ccc(-c2c3nc(c(-c4c(F)cc(S(=O)(=O)[O-])cc4F)c4ccc([nH]4)c(-c4c(F)cc(S(=O)(=O)[O-])cc4F)c4nc(c(-c5c(F)cc(S(=O)(=O)[O-])cc5F)c5ccc2[nH]5)C=C4)C=C3)cc1
REMARK SMILES IDX 22 1 21 2 20 3 1 4 2 5 3 7 4 8 5 9 10 10 6 11 9 12 7 13
REMARK SMILES IDX 11 14 8 15 12 16 13 17 14 18 15 19 19 20 16 21 17 22 18 25
REMARK SMILES IDX 23 26 24 27 25 28 26 30 27 31 28 32 92 33 29 34 91 35 30 36
REMARK SMILES IDX 31 37 32 38 85 39 33 40 90 41 84 42 86 43 34 44 89 45 83 46
REMARK SMILES IDX 82 47 35 49 69 50 48 51 68 52 49 53 52 54 67 55 87 56 50 57
REMARK SMILES IDX 51 58 66 60 88 61 53 62 36 63 37 64 46 65 38 66 39 67 45 68
REMARK SMILES IDX 47 69 40 70 41 71 42 72 43 73 44 74 70 75 71 76 80 77 72 78
REMARK SMILES IDX 73 79 79 80 81 81 74 82 75 83 76 84 77 85 78 86 54 87 55 88
REMARK SMILES IDX 64 89 56 90 57 91 63 92 65 93 58 94 59 95 60 96 61 97 62 98
REMARK H PARENT 20 6 19 23 16 24 24 29 86 48 52 59
REMARK Flexibility Score: inf
ROOT
ATOM      1  C   UNL A   1      42.307  22.192  27.810  1.00  0.00     0.042 C 
ENDROOT
BRANCH   1   2
ATOM      2  C   UNL A   1      41.655  21.548  26.586  1.00  0.00     0.117 C 
BRANCH   2   3
ATOM      3  N   UNL A   1      40.384  22.169  26.274  1.00  0.00    -0.356 N 
ATOM      4  O   UNL A   1      39.242  20.265  25.726  1.00  0.00    -0.275 OA
ATOM      5  C   UNL A   1      39.280  21.487  25.834  1.00  0.00     0.220 C 
ATOM      6  H   UNL A   1      40.308  23.143  26.386  1.00  0.00     0.163 HD
BRANCH   5   7
ATOM      7  C   UNL A   1      38.132  22.363  25.341  1.00  0.00     0.103 C 
BRANCH   7   8
ATOM      8  C   UNL A   1      36.996  21.686  24.536  1.00  0.00     0.002 C 
ATOM      9  C   UNL A   1      35.914  20.942  25.371  1.00  0.00     0.029 C 
ATOM     10  C   UNL A   1      36.298  22.708  23.581  1.00  0.00     0.029 C 
ATOM     11  C   UNL A   1      34.726  21.805  25.824  1.00  0.00     0.086 C 
ATOM     12  C   UNL A   1      35.064  23.412  24.189  1.00  0.00     0.086 C 
ATOM     13  C   UNL A   1      35.132  23.060  26.600  1.00  0.00     0.027 C 
ATOM     14  N   UNL A   1      34.141  22.379  24.635  1.00  0.00    -0.331 N 
ATOM     15  C   UNL A   1      35.383  24.124  25.512  1.00  0.00     0.027 C 
BRANCH  14  16
ATOM     16  C   UNL A   1      32.838  22.134  24.287  1.00  0.00     0.272 C 
ATOM     17  O   UNL A   1      32.515  21.348  23.398  1.00  0.00    -0.267 OA
BRANCH  16  18
ATOM     18  C   UNL A   1      31.779  22.797  25.071  1.00  0.00     0.125 A 
ATOM     19  C   UNL A   1      31.092  23.914  24.788  1.00  0.00     0.119 A 
ATOM     20  N   UNL A   1      31.277  22.252  26.230  1.00  0.00    -0.302 N 
ATOM     21  N   UNL A   1      30.165  24.111  25.781  1.00  0.00    -0.312 N 
ATOM     22  C   UNL A   1      30.257  23.067  26.715  1.00  0.00     0.323 A 
ATOM     23  H   UNL A   1      31.591  21.418  26.649  1.00  0.00     0.172 HD
ATOM     24  H   UNL A   1      29.534  24.866  25.832  1.00  0.00     0.171 HD
ATOM     25  O   UNL A   1      29.587  22.916  27.722  1.00  0.00    -0.248 OA
ENDBRANCH  16  18
ENDBRANCH  14  16
ENDBRANCH   7   8
ENDBRANCH   5   7
ENDBRANCH   2   3
ENDBRANCH   1   2
BRANCH   1  26
ATOM     26  C   UNL A   1      43.327  23.293  27.512  1.00  0.00     0.118 C 
BRANCH  26  27
ATOM     27  N   UNL A   1      43.066  23.998  26.268  1.00  0.00    -0.352 N 
ATOM     28  C   UNL A   1      42.510  25.234  26.042  1.00  0.00     0.251 C 
ATOM     29  H   UNL A   1      43.334  23.511  25.456  1.00  0.00     0.163 HD
ATOM     30  O   UNL A   1      42.248  25.557  24.885  1.00  0.00    -0.269 OA
BRANCH  28  31
ATOM     31  C   UNL A   1      42.200  26.163  27.155  1.00  0.00     0.039 A 
ATOM     32  C   UNL A   1      41.139  25.841  28.007  1.00  0.00     0.014 A 
ATOM     33  C   UNL A   1      42.897  27.359  27.346  1.00  0.00     0.014 A 
ATOM     34  C   UNL A   1      40.817  26.684  29.074  1.00  0.00     0.010 A 
ATOM     35  C   UNL A   1      42.627  28.159  28.460  1.00  0.00     0.010 A 
ATOM     36  C   UNL A   1      41.581  27.834  29.337  1.00  0.00    -0.014 A 
BRANCH  36  37
ATOM     37  C   UNL A   1      41.294  28.672  30.536  1.00  0.00     0.031 A 
ATOM     38  C   UNL A   1      42.125  28.553  31.788  1.00  0.00     0.074 A 
ATOM     39  C   UNL A   1      40.262  29.539  30.501  1.00  0.00     0.049 A 
ATOM     40  N   UNL A   1      42.040  29.237  32.902  1.00  0.00    -0.248 NA
ATOM     41  C   UNL A   1      43.172  27.520  31.802  1.00  0.00     0.031 C 
ATOM     42  C   UNL A   1      39.338  29.705  29.375  1.00  0.00     0.029 A 
ATOM     43  N   UNL A   1      39.817  30.449  31.428  1.00  0.00    -0.354 N 
ATOM     44  C   UNL A   1      43.017  28.719  33.747  1.00  0.00     0.074 A 
ATOM     45  C   UNL A   1      43.639  27.621  33.039  1.00  0.00     0.031 C 
ATOM     46  C   UNL A   1      38.468  30.686  29.660  1.00  0.00     0.029 A 
ATOM     47  C   UNL A   1      38.743  31.196  31.000  1.00  0.00     0.049 A 
ATOM     48  H   UNL A   1      40.227  30.557  32.316  1.00  0.00     0.167 HD
ATOM     49  C   UNL A   1      43.378  29.133  34.986  1.00  0.00     0.037 A 
ATOM     50  C   UNL A   1      38.059  32.183  31.610  1.00  0.00     0.037 A 
ATOM     51  C   UNL A   1      42.760  30.234  35.684  1.00  0.00     0.049 A 
ATOM     52  C   UNL A   1      38.488  32.632  32.980  1.00  0.00     0.074 A 
ATOM     53  C   UNL A   1      43.091  30.764  36.920  1.00  0.00     0.029 A 
ATOM     54  N   UNL A   1      41.682  30.970  35.214  1.00  0.00    -0.354 N 
ATOM     55  N   UNL A   1      39.463  32.180  33.731  1.00  0.00    -0.248 NA
ATOM     56  C   UNL A   1      37.731  33.740  33.579  1.00  0.00     0.031 C 
ATOM     57  C   UNL A   1      42.179  31.783  37.220  1.00  0.00     0.029 A 
ATOM     58  C   UNL A   1      41.320  31.933  36.144  1.00  0.00     0.049 A 
ATOM     59  H   UNL A   1      41.238  30.829  34.346  1.00  0.00     0.167 HD
ATOM     60  C   UNL A   1      39.455  32.966  34.879  1.00  0.00     0.074 A 
ATOM     61  C   UNL A   1      38.393  33.936  34.711  1.00  0.00     0.031 C 
ATOM     62  C   UNL A   1      40.255  32.891  35.973  1.00  0.00     0.037 A 
BRANCH  49  63
ATOM     63  C   UNL A   1      44.500  28.396  35.672  1.00  0.00     0.058 A 
ATOM     64  C   UNL A   1      44.258  27.301  36.519  1.00  0.00     0.135 A 
ATOM     65  C   UNL A   1      45.839  28.758  35.446  1.00  0.00     0.135 A 
ATOM     66  F   UNL A   1      42.999  26.917  36.782  1.00  0.00    -0.206 F 
ATOM     67  C   UNL A   1      45.296  26.613  37.138  1.00  0.00     0.059 A 
ATOM     68  C   UNL A   1      46.895  28.065  36.031  1.00  0.00     0.059 A 
ATOM     69  F   UNL A   1      46.133  29.795  34.646  1.00  0.00    -0.206 F 
ATOM     70  C   UNL A   1      46.613  27.001  36.886  1.00  0.00     0.060 A 
BRANCH  70  71
ATOM     71  S   UNL A   1      47.948  26.091  37.691  1.00  0.00     0.124 S 
ATOM     72  O   UNL A   1      48.468  27.094  38.615  1.00  0.00    -0.237 OA
ATOM     73  O   UNL A   1      47.237  24.973  38.305  1.00  0.00    -0.237 OA
ATOM     74  O   UNL A   1      48.834  25.737  36.587  1.00  0.00    -0.744 OA
ENDBRANCH  70  71
ENDBRANCH  49  63
BRANCH  50  75
ATOM     75  C   UNL A   1      36.917  32.836  30.914  1.00  0.00     0.058 A 
ATOM     76  C   UNL A   1      37.129  33.800  29.917  1.00  0.00     0.135 A 
ATOM     77  C   UNL A   1      35.589  32.505  31.228  1.00  0.00     0.135 A 
ATOM     78  F   UNL A   1      38.379  34.157  29.583  1.00  0.00    -0.206 F 
ATOM     79  C   UNL A   1      36.068  34.428  29.270  1.00  0.00     0.059 A 
ATOM     80  C   UNL A   1      34.513  33.096  30.573  1.00  0.00     0.059 A 
ATOM     81  F   UNL A   1      35.331  31.576  32.161  1.00  0.00    -0.206 F 
ATOM     82  C   UNL A   1      34.763  34.066  29.604  1.00  0.00     0.060 A 
BRANCH  82  83
ATOM     83  S   UNL A   1      33.395  34.852  28.726  1.00  0.00     0.124 S 
ATOM     84  O   UNL A   1      33.015  33.811  27.778  1.00  0.00    -0.237 OA
ATOM     85  O   UNL A   1      32.448  35.110  29.806  1.00  0.00    -0.237 OA
ATOM     86  O   UNL A   1      34.010  36.042  28.145  1.00  0.00    -0.744 OA
ENDBRANCH  82  83
ENDBRANCH  50  75
BRANCH  62  87
ATOM     87  C   UNL A   1      40.033  33.914  37.056  1.00  0.00     0.058 A 
ATOM     88  C   UNL A   1      39.157  33.683  38.130  1.00  0.00     0.135 A 
ATOM     89  C   UNL A   1      40.705  35.147  37.017  1.00  0.00     0.135 A 
ATOM     90  F   UNL A   1      38.486  32.524  38.218  1.00  0.00    -0.206 F 
ATOM     91  C   UNL A   1      38.912  34.658  39.092  1.00  0.00     0.059 A 
ATOM     92  C   UNL A   1      40.503  36.123  37.989  1.00  0.00     0.059 A 
ATOM     93  F   UNL A   1      41.569  35.417  36.025  1.00  0.00    -0.206 F 
ATOM     94  C   UNL A   1      39.584  35.879  39.009  1.00  0.00     0.060 A 
BRANCH  94  95
ATOM     95  S   UNL A   1      39.241  37.144  40.249  1.00  0.00     0.124 S 
ATOM     96  O   UNL A   1      38.474  36.388  41.235  1.00  0.00    -0.237 OA
ATOM     97  O   UNL A   1      40.580  37.550  40.662  1.00  0.00    -0.237 OA
ATOM     98  O   UNL A   1      38.488  38.151  39.508  1.00  0.00    -0.744 OA
ENDBRANCH  94  95
ENDBRANCH  62  87
ENDBRANCH  36  37
ENDBRANCH  28  31
ENDBRANCH  26  27
ENDBRANCH   1  26
TORSDOF 16
ENDMDL
MODEL 2
REMARK VINA RESULT:     -12.0      6.329     12.075
REMARK SMILES O=C(C[C@H]1C[C@H]2CC[C@@H](C1)N2C(=O)c1c[nH]c(=O)[nH]1)NCCCNC(=O)c1ccc(-c2c3nc(c(-c4c(F)cc(S(=O)(=O)[O-])cc4F)c4ccc([nH]4)c(-c4c(F)cc(S(=O)(=O)[O-])cc4F)c4nc(c(-c5c(F)cc(S(=O)(=O)[O-])cc5F)c5ccc2[nH]5)C=C4)C=C3)cc1
REMARK SMILES IDX 22 1 21 2 20 3 1 4 2 5 3 7 4 8 5 9 10 10 6 11 9 12 7 13
REMARK SMILES IDX 11 14 8 15 12 16 13 17 14 18 15 19 19 20 16 21 17 22 18 25
REMARK SMILES IDX 23 26 24 27 25 28 26 30 27 31 28 32 92 33 29 34 91 35 30 36
REMARK SMILES IDX 31 37 32 38 85 39 33 40 90 41 84 42 86 43 34 44 89 45 83 46
REMARK SMILES IDX 82 47 35 49 69 50 48 51 68 52 49 53 52 54 67 55 87 56 50 57
REMARK SMILES IDX 51 58 66 60 88 61 53 62 36 63 37 64 46 65 38 66 39 67 45 68
REMARK SMILES IDX 47 69 40 70 41 71 42 72 43 73 44 74 70 75 71 76 80 77 72 78
REMARK SMILES IDX 73 79 79 80 81 81 74 82 75 83 76 84 77 85 78 86 54 87 55 88
REMARK SMILES IDX 64 89 56 90 57 91 63 92 65 93 58 94 59 95 60 96 61 97 62 98
REMARK H PARENT 20 6 19 23 16 24 24 29 86 48 52 59
REMARK Flexibility Score: inf
ROOT
ATOM      1  C   UNL A   1      35.784  32.965  28.203  1.00  0.00     0.042 C 
ENDROOT
BRANCH   1   2
ATOM      2  C   UNL A   1      34.555  32.062  28.306  1.00  0.00     0.117 C 
BRANCH   2   3
ATOM      3  N   UNL A   1      34.580  31.015  27.305  1.00  0.00    -0.356 N 
ATOM      4  O   UNL A   1      32.325  30.654  27.186  1.00  0.00    -0.275 OA
ATOM      5  C   UNL A   1      33.468  30.363  26.843  1.00  0.00     0.220 C 
ATOM      6  H   UNL A   1      35.453  30.756  26.933  1.00  0.00     0.163 HD
BRANCH   5   7
ATOM      7  C   UNL A   1      33.748  29.141  25.973  1.00  0.00     0.103 C 
BRANCH   7   8
ATOM      8  C   UNL A   1      32.957  27.843  26.268  1.00  0.00     0.002 C 
ATOM      9  C   UNL A   1      31.500  27.789  25.724  1.00  0.00     0.029 C 
ATOM     10  C   UNL A   1      33.740  26.584  25.773  1.00  0.00     0.029 C 
ATOM     11  C   UNL A   1      31.354  27.245  24.295  1.00  0.00     0.086 C 
ATOM     12  C   UNL A   1      33.388  26.135  24.337  1.00  0.00     0.086 C 
ATOM     13  C   UNL A   1      32.211  27.979  23.261  1.00  0.00     0.027 C 
ATOM     14  N   UNL A   1      31.949  25.929  24.279  1.00  0.00    -0.331 N 
ATOM     15  C   UNL A   1      33.574  27.259  23.306  1.00  0.00     0.027 C 
BRANCH  14  16
ATOM     16  C   UNL A   1      31.218  24.815  23.953  1.00  0.00     0.272 C 
ATOM     17  O   UNL A   1      30.821  24.580  22.814  1.00  0.00    -0.267 OA
BRANCH  16  18
ATOM     18  C   UNL A   1      30.963  23.824  25.016  1.00  0.00     0.125 A 
ATOM     19  C   UNL A   1      31.572  22.651  25.242  1.00  0.00     0.119 A 
ATOM     20  N   UNL A   1      30.058  24.053  26.027  1.00  0.00    -0.302 N 
ATOM     21  N   UNL A   1      31.040  22.102  26.382  1.00  0.00    -0.312 N 
ATOM     22  C   UNL A   1      30.073  22.973  26.908  1.00  0.00     0.323 A 
ATOM     23  H   UNL A   1      29.491  24.852  26.113  1.00  0.00     0.172 HD
ATOM     24  H   UNL A   1      31.296  21.234  26.771  1.00  0.00     0.171 HD
ATOM     25  O   UNL A   1      29.402  22.811  27.912  1.00  0.00    -0.248 OA
ENDBRANCH  16  18
ENDBRANCH  14  16
ENDBRANCH   7   8
ENDBRANCH   5   7
ENDBRANCH   2   3
ENDBRANCH   1   2
BRANCH   1  26
ATOM     26  C   UNL A   1      36.720  32.948  29.413  1.00  0.00     0.118 C 
BRANCH  26  27
ATOM     27  N   UNL A   1      36.283  32.047  30.466  1.00  0.00    -0.352 N 
ATOM     28  C   UNL A   1      36.826  30.867  30.915  1.00  0.00     0.251 C 
ATOM     29  H   UNL A   1      35.464  32.329  30.935  1.00  0.00     0.163 HD
ATOM     30  O   UNL A   1      36.188  30.196  31.723  1.00  0.00    -0.269 OA
BRANCH  28  31
ATOM     31  C   UNL A   1      38.140  30.382  30.429  1.00  0.00     0.039 A 
ATOM     32  C   UNL A   1      38.268  30.072  29.071  1.00  0.00     0.014 A 
ATOM     33  C   UNL A   1      39.226  30.182  31.285  1.00  0.00     0.014 A 
ATOM     34  C   UNL A   1      39.491  29.619  28.568  1.00  0.00     0.010 A 
ATOM     35  C   UNL A   1      40.470  29.807  30.767  1.00  0.00     0.010 A 
ATOM     36  C   UNL A   1      40.618  29.517  29.403  1.00  0.00    -0.014 A 
BRANCH  36  37
ATOM     37  C   UNL A   1      41.942  29.131  28.838  1.00  0.00     0.031 A 
ATOM     38  C   UNL A   1      43.063  30.132  28.724  1.00  0.00     0.074 A 
ATOM     39  C   UNL A   1      42.130  27.867  28.407  1.00  0.00     0.049 A 
ATOM     40  N   UNL A   1      44.289  29.951  28.298  1.00  0.00    -0.248 NA
ATOM     41  C   UNL A   1      42.767  31.518  29.114  1.00  0.00     0.031 C 
ATOM     42  C   UNL A   1      41.107  26.817  28.401  1.00  0.00     0.029 A 
ATOM     43  N   UNL A   1      43.244  27.244  27.902  1.00  0.00    -0.354 N 
ATOM     44  C   UNL A   1      44.908  31.195  28.370  1.00  0.00     0.074 A 
ATOM     45  C   UNL A   1      43.903  32.134  28.818  1.00  0.00     0.031 C 
ATOM     46  C   UNL A   1      41.652  25.674  27.957  1.00  0.00     0.029 A 
ATOM     47  C   UNL A   1      43.050  25.912  27.613  1.00  0.00     0.049 A 
ATOM     48  H   UNL A   1      44.101  27.705  27.758  1.00  0.00     0.167 HD
ATOM     49  C   UNL A   1      46.198  31.521  28.109  1.00  0.00     0.037 A 
ATOM     50  C   UNL A   1      43.899  24.983  27.132  1.00  0.00     0.037 A 
ATOM     51  C   UNL A   1      47.199  30.579  27.671  1.00  0.00     0.049 A 
ATOM     52  C   UNL A   1      45.328  25.368  26.862  1.00  0.00     0.074 A 
ATOM     53  C   UNL A   1      48.544  30.802  27.433  1.00  0.00     0.029 A 
ATOM     54  N   UNL A   1      46.965  29.239  27.398  1.00  0.00    -0.354 N 
ATOM     55  N   UNL A   1      45.912  26.532  27.008  1.00  0.00    -0.248 NA
ATOM     56  C   UNL A   1      46.218  24.303  26.377  1.00  0.00     0.031 C 
ATOM     57  C   UNL A   1      49.111  29.611  26.964  1.00  0.00     0.029 A 
ATOM     58  C   UNL A   1      48.135  28.628  26.972  1.00  0.00     0.049 A 
ATOM     59  H   UNL A   1      46.095  28.787  27.494  1.00  0.00     0.167 HD
ATOM     60  C   UNL A   1      47.245  26.336  26.661  1.00  0.00     0.074 A 
ATOM     61  C   UNL A   1      47.383  24.935  26.320  1.00  0.00     0.031 C 
ATOM     62  C   UNL A   1      48.262  27.233  26.627  1.00  0.00     0.037 A 
BRANCH  49  63
ATOM     63  C   UNL A   1      46.609  32.960  28.295  1.00  0.00     0.058 A 
ATOM     64  C   UNL A   1      46.523  33.895  27.250  1.00  0.00     0.135 A 
ATOM     65  C   UNL A   1      47.050  33.423  29.546  1.00  0.00     0.135 A 
ATOM     66  F   UNL A   1      46.120  33.508  26.029  1.00  0.00    -0.206 F 
ATOM     67  C   UNL A   1      46.888  35.226  27.429  1.00  0.00     0.059 A 
ATOM     68  C   UNL A   1      47.391  34.756  29.756  1.00  0.00     0.059 A 
ATOM     69  F   UNL A   1      47.151  32.577  30.583  1.00  0.00    -0.206 F 
ATOM     70  C   UNL A   1      47.319  35.648  28.687  1.00  0.00     0.060 A 
BRANCH  70  71
ATOM     71  S   UNL A   1      47.779  37.380  28.903  1.00  0.00     0.124 S 
ATOM     72  O   UNL A   1      48.032  37.788  27.525  1.00  0.00    -0.237 OA
ATOM     73  O   UNL A   1      46.583  37.944  29.522  1.00  0.00    -0.237 OA
ATOM     74  O   UNL A   1      48.956  37.316  29.763  1.00  0.00    -0.744 OA
ENDBRANCH  70  71
ENDBRANCH  49  63
BRANCH  50  75
ATOM     75  C   UNL A   1      43.427  23.590  26.905  1.00  0.00     0.058 A 
ATOM     76  C   UNL A   1      43.164  23.113  25.611  1.00  0.00     0.135 A 
ATOM     77  C   UNL A   1      43.235  22.703  27.976  1.00  0.00     0.135 A 
ATOM     78  F   UNL A   1      43.326  23.922  24.552  1.00  0.00    -0.206 F 
ATOM     79  C   UNL A   1      42.709  21.818  25.388  1.00  0.00     0.059 A 
ATOM     80  C   UNL A   1      42.811  21.394  27.776  1.00  0.00     0.059 A 
ATOM     81  F   UNL A   1      43.490  23.102  29.232  1.00  0.00    -0.206 F 
ATOM     82  C   UNL A   1      42.539  20.964  26.478  1.00  0.00     0.060 A 
BRANCH  82  83
ATOM     83  S   UNL A   1      41.992  19.270  26.175  1.00  0.00     0.124 S 
ATOM     84  O   UNL A   1      42.775  18.913  24.997  1.00  0.00    -0.237 OA
ATOM     85  O   UNL A   1      42.365  18.601  27.417  1.00  0.00    -0.237 OA
ATOM     86  O   UNL A   1      40.555  19.416  25.957  1.00  0.00    -0.744 OA
ENDBRANCH  82  83
ENDBRANCH  50  75
BRANCH  62  87
ATOM     87  C   UNL A   1      49.623  26.714  26.242  1.00  0.00     0.058 A 
ATOM     88  C   UNL A   1      50.482  26.114  27.178  1.00  0.00     0.135 A 
ATOM     89  C   UNL A   1      50.077  26.823  24.917  1.00  0.00     0.135 A 
ATOM     90  F   UNL A   1      50.103  25.984  28.459  1.00  0.00    -0.206 F 
ATOM     91  C   UNL A   1      51.762  25.694  26.827  1.00  0.00     0.059 A 
ATOM     92  C   UNL A   1      51.339  26.376  24.536  1.00  0.00     0.059 A 
ATOM     93  F   UNL A   1      49.293  27.372  23.976  1.00  0.00    -0.206 F 
ATOM     94  C   UNL A   1      52.184  25.837  25.504  1.00  0.00     0.060 A 
BRANCH  94  95
ATOM     95  S   UNL A   1      53.854  25.310  25.065  1.00  0.00     0.124 S 
ATOM     96  O   UNL A   1      53.664  23.878  24.858  1.00  0.00    -0.237 OA
ATOM     97  O   UNL A   1      54.125  26.094  23.864  1.00  0.00    -0.237 OA
ATOM     98  O   UNL A   1      54.645  25.675  26.236  1.00  0.00    -0.744 OA
ENDBRANCH  94  95
ENDBRANCH  62  87
ENDBRANCH  36  37
ENDBRANCH  28  31
ENDBRANCH  26  27
ENDBRANCH   1  26
TORSDOF 16
ENDMDL
MODEL 3
REMARK VINA RESULT:     -12.0      6.569     12.196
REMARK SMILES O=C(C[C@H]1C[C@H]2CC[C@@H](C1)N2C(=O)c1c[nH]c(=O)[nH]1)NCCCNC(=O)c1ccc(-c2c3nc(c(-c4c(F)cc(S(=O)(=O)[O-])cc4F)c4ccc([nH]4)c(-c4c(F)cc(S(=O)(=O)[O-])cc4F)c4nc(c(-c5c(F)cc(S(=O)(=O)[O-])cc5F)c5ccc2[nH]5)C=C4)C=C3)cc1
REMARK SMILES IDX 22 1 21 2 20 3 1 4 2 5 3 7 4 8 5 9 10 10 6 11 9 12 7 13
REMARK SMILES IDX 11 14 8 15 12 16 13 17 14 18 15 19 19 20 16 21 17 22 18 25
REMARK SMILES IDX 23 26 24 27 25 28 26 30 27 31 28 32 92 33 29 34 91 35 30 36
REMARK SMILES IDX 31 37 32 38 85 39 33 40 90 41 84 42 86 43 34 44 89 45 83 46
REMARK SMILES IDX 82 47 35 49 69 50 48 51 68 52 49 53 52 54 67 55 87 56 50 57
REMARK SMILES IDX 51 58 66 60 88 61 53 62 36 63 37 64 46 65 38 66 39 67 45 68
REMARK SMILES IDX 47 69 40 70 41 71 42 72 43 73 44 74 70 75 71 76 80 77 72 78
REMARK SMILES IDX 73 79 79 80 81 81 74 82 75 83 76 84 77 85 78 86 54 87 55 88
REMARK SMILES IDX 64 89 56 90 57 91 63 92 65 93 58 94 59 95 60 96 61 97 62 98
REMARK H PARENT 20 6 19 23 16 24 24 29 86 48 52 59
REMARK Flexibility Score: inf
ROOT
ATOM      1  C   UNL A   1      35.049  33.028  29.356  1.00  0.00     0.042 C 
ENDROOT
BRANCH   1   2
ATOM      2  C   UNL A   1      35.058  32.274  28.026  1.00  0.00     0.117 C 
BRANCH   2   3
ATOM      3  N   UNL A   1      34.253  31.071  28.092  1.00  0.00    -0.356 N 
ATOM      4  O   UNL A   1      35.682  29.687  26.965  1.00  0.00    -0.275 OA
ATOM      5  C   UNL A   1      34.607  29.874  27.528  1.00  0.00     0.220 C 
ATOM      6  H   UNL A   1      33.397  31.116  28.574  1.00  0.00     0.163 HD
BRANCH   5   7
ATOM      7  C   UNL A   1      33.510  28.814  27.514  1.00  0.00     0.103 C 
BRANCH   7   8
ATOM      8  C   UNL A   1      32.220  29.114  26.711  1.00  0.00     0.002 C 
ATOM      9  C   UNL A   1      32.398  29.971  25.424  1.00  0.00     0.029 C 
ATOM     10  C   UNL A   1      31.463  27.794  26.352  1.00  0.00     0.029 C 
ATOM     11  C   UNL A   1      32.701  29.177  24.144  1.00  0.00     0.086 C 
ATOM     12  C   UNL A   1      31.841  27.193  24.978  1.00  0.00     0.086 C 
ATOM     13  C   UNL A   1      33.916  28.253  24.261  1.00  0.00     0.027 C 
ATOM     14  N   UNL A   1      31.630  28.224  23.973  1.00  0.00    -0.331 N 
ATOM     15  C   UNL A   1      33.350  26.940  24.840  1.00  0.00     0.027 C 
BRANCH  14  16
ATOM     16  C   UNL A   1      30.833  28.233  22.858  1.00  0.00     0.272 C 
ATOM     17  O   UNL A   1      30.821  27.324  22.030  1.00  0.00    -0.267 OA
BRANCH  16  18
ATOM     18  C   UNL A   1      29.896  29.362  22.690  1.00  0.00     0.125 A 
ATOM     19  C   UNL A   1      29.786  30.224  21.669  1.00  0.00     0.119 A 
ATOM     20  N   UNL A   1      28.894  29.620  23.596  1.00  0.00    -0.302 N 
ATOM     21  N   UNL A   1      28.731  31.064  21.927  1.00  0.00    -0.312 N 
ATOM     22  C   UNL A   1      28.140  30.703  23.148  1.00  0.00     0.323 A 
ATOM     23  H   UNL A   1      28.735  29.119  24.428  1.00  0.00     0.172 HD
ATOM     24  H   UNL A   1      28.435  31.803  21.348  1.00  0.00     0.171 HD
ATOM     25  O   UNL A   1      27.181  31.227  23.687  1.00  0.00    -0.248 OA
ENDBRANCH  16  18
ENDBRANCH  14  16
ENDBRANCH   7   8
ENDBRANCH   5   7
ENDBRANCH   2   3
ENDBRANCH   1   2
BRANCH   1  26
ATOM     26  C   UNL A   1      36.249  32.771  30.269  1.00  0.00     0.118 C 
BRANCH  26  27
ATOM     27  N   UNL A   1      36.018  31.716  31.241  1.00  0.00    -0.352 N 
ATOM     28  C   UNL A   1      36.726  30.566  31.496  1.00  0.00     0.251 C 
ATOM     29  H   UNL A   1      35.226  31.848  31.810  1.00  0.00     0.163 HD
ATOM     30  O   UNL A   1      36.247  29.741  32.272  1.00  0.00    -0.269 OA
BRANCH  28  31
ATOM     31  C   UNL A   1      38.028  30.294  30.842  1.00  0.00     0.039 A 
ATOM     32  C   UNL A   1      39.143  30.074  31.657  1.00  0.00     0.014 A 
ATOM     33  C   UNL A   1      38.182  30.296  29.453  1.00  0.00     0.014 A 
ATOM     34  C   UNL A   1      40.389  29.805  31.083  1.00  0.00     0.010 A 
ATOM     35  C   UNL A   1      39.409  29.947  28.881  1.00  0.00     0.010 A 
ATOM     36  C   UNL A   1      40.529  29.700  29.688  1.00  0.00    -0.014 A 
BRANCH  36  37
ATOM     37  C   UNL A   1      41.838  29.312  29.090  1.00  0.00     0.031 A 
ATOM     38  C   UNL A   1      42.962  30.307  28.961  1.00  0.00     0.074 A 
ATOM     39  C   UNL A   1      42.010  28.051  28.645  1.00  0.00     0.049 A 
ATOM     40  N   UNL A   1      44.177  30.124  28.507  1.00  0.00    -0.248 NA
ATOM     41  C   UNL A   1      42.682  31.692  29.370  1.00  0.00     0.031 C 
ATOM     42  C   UNL A   1      40.981  27.007  28.651  1.00  0.00     0.029 A 
ATOM     43  N   UNL A   1      43.108  27.426  28.109  1.00  0.00    -0.354 N 
ATOM     44  C   UNL A   1      44.805  31.364  28.576  1.00  0.00     0.074 A 
ATOM     45  C   UNL A   1      43.815  32.305  29.055  1.00  0.00     0.031 C 
ATOM     46  C   UNL A   1      41.509  25.864  28.185  1.00  0.00     0.029 A 
ATOM     47  C   UNL A   1      42.901  26.098  27.812  1.00  0.00     0.049 A 
ATOM     48  H   UNL A   1      43.965  27.884  27.951  1.00  0.00     0.167 HD
ATOM     49  C   UNL A   1      46.090  31.686  28.291  1.00  0.00     0.037 A 
ATOM     50  C   UNL A   1      43.734  25.169  27.304  1.00  0.00     0.037 A 
ATOM     51  C   UNL A   1      47.076  30.742  27.822  1.00  0.00     0.049 A 
ATOM     52  C   UNL A   1      45.159  25.548  27.007  1.00  0.00     0.074 A 
ATOM     53  C   UNL A   1      48.418  30.960  27.556  1.00  0.00     0.029 A 
ATOM     54  N   UNL A   1      46.829  29.406  27.542  1.00  0.00    -0.354 N 
ATOM     55  N   UNL A   1      45.753  26.709  27.150  1.00  0.00    -0.248 NA
ATOM     56  C   UNL A   1      46.033  24.484  26.493  1.00  0.00     0.031 C 
ATOM     57  C   UNL A   1      48.968  29.770  27.065  1.00  0.00     0.029 A 
ATOM     58  C   UNL A   1      47.986  28.793  27.085  1.00  0.00     0.049 A 
ATOM     59  H   UNL A   1      45.959  28.958  27.652  1.00  0.00     0.167 HD
ATOM     60  C   UNL A   1      47.077  26.508  26.772  1.00  0.00     0.074 A 
ATOM     61  C   UNL A   1      47.199  25.110  26.416  1.00  0.00     0.031 C 
ATOM     62  C   UNL A   1      48.098  27.400  26.724  1.00  0.00     0.037 A 
BRANCH  49  63
ATOM     63  C   UNL A   1      46.514  33.120  28.481  1.00  0.00     0.058 A 
ATOM     64  C   UNL A   1      46.451  34.055  27.433  1.00  0.00     0.135 A 
ATOM     65  C   UNL A   1      46.943  33.580  29.737  1.00  0.00     0.135 A 
ATOM     66  F   UNL A   1      46.060  33.671  26.208  1.00  0.00    -0.206 F 
ATOM     67  C   UNL A   1      46.827  35.382  27.616  1.00  0.00     0.059 A 
ATOM     68  C   UNL A   1      47.295  34.910  29.950  1.00  0.00     0.059 A 
ATOM     69  F   UNL A   1      47.023  32.734  30.775  1.00  0.00    -0.206 F 
ATOM     70  C   UNL A   1      47.246  35.801  28.879  1.00  0.00     0.060 A 
BRANCH  70  71
ATOM     71  S   UNL A   1      47.721  37.529  29.100  1.00  0.00     0.124 S 
ATOM     72  O   UNL A   1      49.026  37.557  28.447  1.00  0.00    -0.237 OA
ATOM     73  O   UNL A   1      46.650  38.237  28.405  1.00  0.00    -0.237 OA
ATOM     74  O   UNL A   1      47.742  37.695  30.549  1.00  0.00    -0.744 OA
ENDBRANCH  70  71
ENDBRANCH  49  63
BRANCH  50  75
ATOM     75  C   UNL A   1      43.249  23.781  27.075  1.00  0.00     0.058 A 
ATOM     76  C   UNL A   1      42.949  23.320  25.783  1.00  0.00     0.135 A 
ATOM     77  C   UNL A   1      43.083  22.883  28.142  1.00  0.00     0.135 A 
ATOM     78  F   UNL A   1      43.086  24.140  24.730  1.00  0.00    -0.206 F 
ATOM     79  C   UNL A   1      42.482  22.029  25.559  1.00  0.00     0.059 A 
ATOM     80  C   UNL A   1      42.647  21.578  27.939  1.00  0.00     0.059 A 
ATOM     81  F   UNL A   1      43.373  23.267  29.394  1.00  0.00    -0.206 F 
ATOM     82  C   UNL A   1      42.337  21.164  26.644  1.00  0.00     0.060 A 
BRANCH  82  83
ATOM     83  S   UNL A   1      41.774  19.475  26.337  1.00  0.00     0.124 S 
ATOM     84  O   UNL A   1      40.336  19.666  26.189  1.00  0.00    -0.237 OA
ATOM     85  O   UNL A   1      42.502  19.127  25.121  1.00  0.00    -0.237 OA
ATOM     86  O   UNL A   1      42.196  18.759  27.538  1.00  0.00    -0.744 OA
ENDBRANCH  82  83
ENDBRANCH  50  75
BRANCH  62  87
ATOM     87  C   UNL A   1      49.447  26.877  26.305  1.00  0.00     0.058 A 
ATOM     88  C   UNL A   1      50.346  26.314  27.227  1.00  0.00     0.135 A 
ATOM     89  C   UNL A   1      49.849  26.945  24.961  1.00  0.00     0.135 A 
ATOM     90  F   UNL A   1      50.017  26.226  28.525  1.00  0.00    -0.206 F 
ATOM     91  C   UNL A   1      51.615  25.891  26.841  1.00  0.00     0.059 A 
ATOM     92  C   UNL A   1      51.099  26.493  24.547  1.00  0.00     0.059 A 
ATOM     93  F   UNL A   1      49.025  27.455  24.032  1.00  0.00    -0.206 F 
ATOM     94  C   UNL A   1      51.985  25.992  25.499  1.00  0.00     0.060 A 
BRANCH  94  95
ATOM     95  S   UNL A   1      53.641  25.461  25.014  1.00  0.00     0.124 S 
ATOM     96  O   UNL A   1      53.677  25.862  23.611  1.00  0.00    -0.237 OA
ATOM     97  O   UNL A   1      54.492  26.231  25.916  1.00  0.00    -0.237 OA
ATOM     98  O   UNL A   1      53.621  24.022  25.255  1.00  0.00    -0.744 OA
ENDBRANCH  94  95
ENDBRANCH  62  87
ENDBRANCH  36  37
ENDBRANCH  28  31
ENDBRANCH  26  27
ENDBRANCH   1  26
TORSDOF 16
ENDMDL
