MODEL 1
REMARK VINA RESULT:     -11.4      0.000      0.000
REMARK SMILES CCOc1cc(OCC)cc(-c2ccc([C@@H](C)C(=O)NCCCNC(=O)c3ccc(-c4c5nc(c(-c6c(F)cc(S(=O)(=O)[O-])cc6F)c6ccc([nH]6)c(-c6c(F)cc(S(=O)(=O)[O-])cc6F)c6nc(c(-c7c(F)cc(S(=O)(=O)[O-])cc7F)c7ccc4[nH]7)C=C6)C=C5)cc3)cc2)c1
REMARK SMILES IDX 21 1 20 2 18 3 19 4 16 6 17 7 15 8 12 9 13 10 94 11 14 12
REMARK SMILES IDX 93 13 11 14 4 15 5 16 95 17 6 18 10 19 3 20 2 21 1 22 7 23
REMARK SMILES IDX 8 24 9 25 22 26 23 27 24 28 25 29 26 31 27 32 28 33 92 34
REMARK SMILES IDX 29 35 91 36 30 37 31 38 32 39 85 40 33 41 90 42 84 43 86 44
REMARK SMILES IDX 34 45 89 46 83 47 82 48 35 50 69 51 48 52 68 53 49 54 52 55
REMARK SMILES IDX 67 56 87 57 50 58 51 59 66 61 88 62 53 63 36 64 37 65 46 66
REMARK SMILES IDX 38 67 39 68 45 69 47 70 40 71 41 72 42 73 43 74 44 75 70 76
REMARK SMILES IDX 71 77 80 78 72 79 73 80 79 81 81 82 74 83 75 84 76 85 77 86
REMARK SMILES IDX 78 87 54 88 55 89 64 90 56 91 57 92 63 93 65 94 58 95 59 96
REMARK SMILES IDX 60 97 61 98 62 99
REMARK H PARENT 20 5 24 30 86 49 52 60
REMARK Flexibility Score: inf
ROOT
ATOM      1  C   UNL A   1      43.666  22.002  25.301  1.00  0.00     0.117 C 
ENDROOT
BRANCH   1   2
ATOM      2  N   UNL A   1      42.786  20.878  25.558  1.00  0.00    -0.356 N 
ATOM      3  C   UNL A   1      41.562  20.787  26.145  1.00  0.00     0.227 C 
ATOM      4  O   UNL A   1      41.080  19.649  26.225  1.00  0.00    -0.274 OA
ATOM      5  H   UNL A   1      43.144  20.014  25.248  1.00  0.00     0.163 HD
BRANCH   3   6
ATOM      6  C   UNL A   1      40.771  21.985  26.690  1.00  0.00     0.105 C 
ATOM      7  C   UNL A   1      40.902  22.210  28.196  1.00  0.00     0.023 C 
BRANCH   6   8
ATOM      8  C   UNL A   1      39.357  22.067  26.142  1.00  0.00    -0.036 A 
ATOM      9  C   UNL A   1      36.780  22.328  24.950  1.00  0.00    -0.018 A 
ATOM     10  C   UNL A   1      37.469  21.105  24.964  1.00  0.00     0.009 A 
ATOM     11  C   UNL A   1      37.402  23.416  25.578  1.00  0.00     0.009 A 
ATOM     12  C   UNL A   1      38.709  20.965  25.584  1.00  0.00     0.005 A 
ATOM     13  C   UNL A   1      38.677  23.294  26.145  1.00  0.00     0.005 A 
BRANCH   9  14
ATOM     14  C   UNL A   1      35.472  22.439  24.272  1.00  0.00    -0.011 A 
ATOM     15  C   UNL A   1      33.154  21.759  23.976  1.00  0.00     0.123 A 
ATOM     16  C   UNL A   1      32.942  22.805  23.079  1.00  0.00     0.092 A 
ATOM     17  C   UNL A   1      34.409  21.570  24.556  1.00  0.00     0.055 A 
ATOM     18  C   UNL A   1      33.989  23.668  22.754  1.00  0.00     0.123 A 
ATOM     19  C   UNL A   1      35.239  23.463  23.336  1.00  0.00     0.055 A 
BRANCH  15  20
ATOM     20  O   UNL A   1      32.148  20.854  24.174  1.00  0.00    -0.494 OA
BRANCH  20  21
ATOM     21  C   UNL A   1      32.578  19.641  24.805  1.00  0.00     0.226 C 
ATOM     22  C   UNL A   1      32.525  18.458  23.848  1.00  0.00     0.049 C 
ENDBRANCH  20  21
ENDBRANCH  15  20
BRANCH  18  23
ATOM     23  O   UNL A   1      33.681  24.680  21.886  1.00  0.00    -0.494 OA
BRANCH  23  24
ATOM     24  C   UNL A   1      33.428  25.983  22.419  1.00  0.00     0.226 C 
ATOM     25  C   UNL A   1      31.956  26.365  22.335  1.00  0.00     0.049 C 
ENDBRANCH  23  24
ENDBRANCH  18  23
ENDBRANCH   9  14
ENDBRANCH   6   8
ENDBRANCH   3   6
ENDBRANCH   1   2
BRANCH   1  26
ATOM     26  C   UNL A   1      44.256  22.598  26.578  1.00  0.00     0.042 C 
BRANCH  26  27
ATOM     27  C   UNL A   1      43.849  24.043  26.843  1.00  0.00     0.118 C 
BRANCH  27  28
ATOM     28  N   UNL A   1      42.980  24.573  25.802  1.00  0.00    -0.352 N 
ATOM     29  C   UNL A   1      41.954  25.484  25.857  1.00  0.00     0.251 C 
ATOM     30  H   UNL A   1      43.158  24.215  24.902  1.00  0.00     0.163 HD
ATOM     31  O   UNL A   1      41.229  25.603  24.871  1.00  0.00    -0.269 OA
BRANCH  29  32
ATOM     32  C   UNL A   1      41.699  26.310  27.062  1.00  0.00     0.039 A 
ATOM     33  C   UNL A   1      42.451  27.477  27.238  1.00  0.00     0.014 A 
ATOM     34  C   UNL A   1      40.794  25.922  28.054  1.00  0.00     0.014 A 
ATOM     35  C   UNL A   1      42.265  28.268  28.374  1.00  0.00     0.010 A 
ATOM     36  C   UNL A   1      40.551  26.753  29.149  1.00  0.00     0.010 A 
ATOM     37  C   UNL A   1      41.293  27.929  29.328  1.00  0.00    -0.014 A 
BRANCH  37  38
ATOM     38  C   UNL A   1      41.053  28.796  30.513  1.00  0.00     0.031 A 
ATOM     39  C   UNL A   1      41.884  28.641  31.761  1.00  0.00     0.074 A 
ATOM     40  C   UNL A   1      40.057  29.703  30.477  1.00  0.00     0.049 A 
ATOM     41  N   UNL A   1      41.809  29.299  32.889  1.00  0.00    -0.248 NA
ATOM     42  C   UNL A   1      42.917  27.593  31.747  1.00  0.00     0.031 C 
ATOM     43  C   UNL A   1      39.141  29.907  29.351  1.00  0.00     0.029 A 
ATOM     44  N   UNL A   1      39.643  30.622  31.409  1.00  0.00    -0.354 N 
ATOM     45  C   UNL A   1      42.775  28.741  33.720  1.00  0.00     0.074 A 
ATOM     46  C   UNL A   1      43.384  27.655  32.985  1.00  0.00     0.031 C 
ATOM     47  C   UNL A   1      38.293  30.904  29.649  1.00  0.00     0.029 A 
ATOM     48  C   UNL A   1      38.583  31.391  30.994  1.00  0.00     0.049 A 
ATOM     49  H   UNL A   1      40.066  30.719  32.293  1.00  0.00     0.167 HD
ATOM     50  C   UNL A   1      43.140  29.117  34.971  1.00  0.00     0.037 A 
ATOM     51  C   UNL A   1      37.918  32.379  31.623  1.00  0.00     0.037 A 
ATOM     52  C   UNL A   1      42.544  30.214  35.691  1.00  0.00     0.049 A 
ATOM     53  C   UNL A   1      38.358  32.796  32.999  1.00  0.00     0.074 A 
ATOM     54  C   UNL A   1      42.876  30.706  36.941  1.00  0.00     0.029 A 
ATOM     55  N   UNL A   1      41.490  30.987  35.225  1.00  0.00    -0.354 N 
ATOM     56  N   UNL A   1      39.316  32.300  33.744  1.00  0.00    -0.248 NA
ATOM     57  C   UNL A   1      37.635  33.918  33.614  1.00  0.00     0.031 C 
ATOM     58  C   UNL A   1      42.000  31.755  37.247  1.00  0.00     0.029 A 
ATOM     59  C   UNL A   1      41.150  31.945  36.168  1.00  0.00     0.049 A 
ATOM     60  H   UNL A   1      41.049  30.874  34.352  1.00  0.00     0.167 HD
ATOM     61  C   UNL A   1      39.323  33.057  34.910  1.00  0.00     0.074 A 
ATOM     62  C   UNL A   1      38.288  34.060  34.759  1.00  0.00     0.031 C 
ATOM     63  C   UNL A   1      40.111  32.930  36.007  1.00  0.00     0.037 A 
BRANCH  50  64
ATOM     64  C   UNL A   1      44.245  28.339  35.636  1.00  0.00     0.058 A 
ATOM     65  C   UNL A   1      45.595  28.685  35.464  1.00  0.00     0.135 A 
ATOM     66  C   UNL A   1      43.952  27.251  36.475  1.00  0.00     0.135 A 
ATOM     67  F   UNL A   1      45.934  29.707  34.662  1.00  0.00    -0.206 F 
ATOM     68  C   UNL A   1      46.616  27.961  36.071  1.00  0.00     0.059 A 
ATOM     69  C   UNL A   1      44.957  26.530  37.115  1.00  0.00     0.059 A 
ATOM     70  F   UNL A   1      42.680  26.875  36.678  1.00  0.00    -0.206 F 
ATOM     71  C   UNL A   1      46.288  26.882  36.893  1.00  0.00     0.060 A 
BRANCH  71  72
ATOM     72  S   UNL A   1      47.626  25.951  37.670  1.00  0.00     0.124 S 
ATOM     73  O   UNL A   1      48.673  26.050  36.658  1.00  0.00    -0.237 OA
ATOM     74  O   UNL A   1      47.859  26.703  38.898  1.00  0.00    -0.237 OA
ATOM     75  O   UNL A   1      47.053  24.621  37.851  1.00  0.00    -0.744 OA
ENDBRANCH  71  72
ENDBRANCH  50  64
BRANCH  51  76
ATOM     76  C   UNL A   1      36.788  33.062  30.938  1.00  0.00     0.058 A 
ATOM     77  C   UNL A   1      37.020  34.003  29.925  1.00  0.00     0.135 A 
ATOM     78  C   UNL A   1      35.455  32.765  31.262  1.00  0.00     0.135 A 
ATOM     79  F   UNL A   1      38.277  34.324  29.582  1.00  0.00    -0.206 F 
ATOM     80  C   UNL A   1      35.971  34.636  29.265  1.00  0.00     0.059 A 
ATOM     81  C   UNL A   1      34.389  33.365  30.599  1.00  0.00     0.059 A 
ATOM     82  F   UNL A   1      35.181  31.858  32.213  1.00  0.00    -0.206 F 
ATOM     83  C   UNL A   1      34.658  34.307  29.607  1.00  0.00     0.060 A 
BRANCH  83  84
ATOM     84  S   UNL A   1      33.307  35.090  28.699  1.00  0.00     0.124 S 
ATOM     85  O   UNL A   1      34.028  36.041  27.861  1.00  0.00    -0.237 OA
ATOM     86  O   UNL A   1      32.704  33.955  28.006  1.00  0.00    -0.237 OA
ATOM     87  O   UNL A   1      32.486  35.673  29.757  1.00  0.00    -0.744 OA
ENDBRANCH  83  84
ENDBRANCH  51  76
BRANCH  63  88
ATOM     88  C   UNL A   1      39.888  33.915  37.123  1.00  0.00     0.058 A 
ATOM     89  C   UNL A   1      39.145  33.577  38.265  1.00  0.00     0.135 A 
ATOM     90  C   UNL A   1      40.435  35.206  37.054  1.00  0.00     0.135 A 
ATOM     91  F   UNL A   1      38.598  32.358  38.378  1.00  0.00    -0.206 F 
ATOM     92  C   UNL A   1      38.916  34.500  39.281  1.00  0.00     0.059 A 
ATOM     93  C   UNL A   1      40.242  36.136  38.072  1.00  0.00     0.059 A 
ATOM     94  F   UNL A   1      41.165  35.577  35.990  1.00  0.00    -0.206 F 
ATOM     95  C   UNL A   1      39.464  35.779  39.172  1.00  0.00     0.060 A 
BRANCH  95  96
ATOM     96  S   UNL A   1      39.158  36.969  40.495  1.00  0.00     0.124 S 
ATOM     97  O   UNL A   1      40.448  36.989  41.175  1.00  0.00    -0.237 OA
ATOM     98  O   UNL A   1      38.812  38.179  39.756  1.00  0.00    -0.237 OA
ATOM     99  O   UNL A   1      38.061  36.365  41.246  1.00  0.00    -0.744 OA
ENDBRANCH  95  96
ENDBRANCH  63  88
ENDBRANCH  37  38
ENDBRANCH  29  32
ENDBRANCH  27  28
ENDBRANCH  26  27
ENDBRANCH   1  26
TORSDOF 19
ENDMDL
MODEL 2
REMARK VINA RESULT:     -11.2      4.951     11.959
REMARK SMILES CCOc1cc(OCC)cc(-c2ccc([C@@H](C)C(=O)NCCCNC(=O)c3ccc(-c4c5nc(c(-c6c(F)cc(S(=O)(=O)[O-])cc6F)c6ccc([nH]6)c(-c6c(F)cc(S(=O)(=O)[O-])cc6F)c6nc(c(-c7c(F)cc(S(=O)(=O)[O-])cc7F)c7ccc4[nH]7)C=C6)C=C5)cc3)cc2)c1
REMARK SMILES IDX 21 1 20 2 18 3 19 4 16 6 17 7 15 8 12 9 13 10 94 11 14 12
REMARK SMILES IDX 93 13 11 14 4 15 5 16 95 17 6 18 10 19 3 20 2 21 1 22 7 23
REMARK SMILES IDX 8 24 9 25 22 26 23 27 24 28 25 29 26 31 27 32 28 33 92 34
REMARK SMILES IDX 29 35 91 36 30 37 31 38 32 39 85 40 33 41 90 42 84 43 86 44
REMARK SMILES IDX 34 45 89 46 83 47 82 48 35 50 69 51 48 52 68 53 49 54 52 55
REMARK SMILES IDX 67 56 87 57 50 58 51 59 66 61 88 62 53 63 36 64 37 65 46 66
REMARK SMILES IDX 38 67 39 68 45 69 47 70 40 71 41 72 42 73 43 74 44 75 70 76
REMARK SMILES IDX 71 77 80 78 72 79 73 80 79 81 81 82 74 83 75 84 76 85 77 86
REMARK SMILES IDX 78 87 54 88 55 89 64 90 56 91 57 92 63 93 65 94 58 95 59 96
REMARK SMILES IDX 60 97 61 98 62 99
REMARK H PARENT 20 5 24 30 86 49 52 60
REMARK Flexibility Score: inf
ROOT
ATOM      1  C   UNL A   1      35.025  33.940  30.969  1.00  0.00     0.117 C 
ENDROOT
BRANCH   1   2
ATOM      2  N   UNL A   1      36.433  34.285  31.020  1.00  0.00    -0.356 N 
ATOM      3  C   UNL A   1      37.420  33.979  31.906  1.00  0.00     0.227 C 
ATOM      4  O   UNL A   1      38.536  34.458  31.662  1.00  0.00    -0.274 OA
ATOM      5  H   UNL A   1      36.731  34.849  30.270  1.00  0.00     0.163 HD
BRANCH   3   6
ATOM      6  C   UNL A   1      37.229  33.095  33.147  1.00  0.00     0.105 C 
ATOM      7  C   UNL A   1      36.821  33.846  34.413  1.00  0.00     0.023 C 
BRANCH   6   8
ATOM      8  C   UNL A   1      38.335  32.070  33.326  1.00  0.00    -0.036 A 
ATOM      9  C   UNL A   1      40.374  30.153  33.869  1.00  0.00    -0.018 A 
ATOM     10  C   UNL A   1      39.157  29.790  33.271  1.00  0.00     0.009 A 
ATOM     11  C   UNL A   1      40.560  31.511  34.161  1.00  0.00     0.009 A 
ATOM     12  C   UNL A   1      38.176  30.732  32.966  1.00  0.00     0.005 A 
ATOM     13  C   UNL A   1      39.550  32.451  33.914  1.00  0.00     0.005 A 
BRANCH   9  14
ATOM     14  C   UNL A   1      41.384  29.123  34.189  1.00  0.00    -0.011 A 
ATOM     15  C   UNL A   1      42.511  27.652  35.766  1.00  0.00     0.123 A 
ATOM     16  C   UNL A   1      43.196  27.028  34.725  1.00  0.00     0.092 A 
ATOM     17  C   UNL A   1      41.625  28.696  35.502  1.00  0.00     0.055 A 
ATOM     18  C   UNL A   1      43.000  27.450  33.410  1.00  0.00     0.123 A 
ATOM     19  C   UNL A   1      42.117  28.500  33.161  1.00  0.00     0.055 A 
BRANCH  15  20
ATOM     20  O   UNL A   1      42.821  27.305  37.053  1.00  0.00    -0.494 OA
BRANCH  20  21
ATOM     21  C   UNL A   1      44.228  27.315  37.330  1.00  0.00     0.226 C 
ATOM     22  C   UNL A   1      44.783  28.732  37.377  1.00  0.00     0.049 C 
ENDBRANCH  20  21
ENDBRANCH  15  20
BRANCH  18  23
ATOM     23  O   UNL A   1      43.694  26.763  32.452  1.00  0.00    -0.494 OA
BRANCH  23  24
ATOM     24  C   UNL A   1      44.724  25.862  32.867  1.00  0.00     0.226 C 
ATOM     25  C   UNL A   1      44.494  24.446  32.358  1.00  0.00     0.049 C 
ENDBRANCH  23  24
ENDBRANCH  18  23
ENDBRANCH   9  14
ENDBRANCH   6   8
ENDBRANCH   3   6
ENDBRANCH   1   2
BRANCH   1  26
ATOM     26  C   UNL A   1      34.773  32.564  30.355  1.00  0.00     0.042 C 
BRANCH  26  27
ATOM     27  C   UNL A   1      34.580  32.576  28.843  1.00  0.00     0.118 C 
BRANCH  27  28
ATOM     28  N   UNL A   1      34.002  31.334  28.350  1.00  0.00    -0.352 N 
ATOM     29  C   UNL A   1      34.584  30.141  28.001  1.00  0.00     0.251 C 
ATOM     30  H   UNL A   1      33.022  31.354  28.247  1.00  0.00     0.163 HD
ATOM     31  O   UNL A   1      33.900  29.312  27.405  1.00  0.00    -0.269 OA
BRANCH  29  32
ATOM     32  C   UNL A   1      36.001  29.835  28.316  1.00  0.00     0.039 A 
ATOM     33  C   UNL A   1      36.958  30.013  27.310  1.00  0.00     0.014 A 
ATOM     34  C   UNL A   1      36.394  29.308  29.550  1.00  0.00     0.014 A 
ATOM     35  C   UNL A   1      38.299  29.707  27.554  1.00  0.00     0.010 A 
ATOM     36  C   UNL A   1      37.744  29.079  29.819  1.00  0.00     0.010 A 
ATOM     37  C   UNL A   1      38.711  29.263  28.821  1.00  0.00    -0.014 A 
BRANCH  37  38
ATOM     38  C   UNL A   1      40.145  28.986  29.102  1.00  0.00     0.031 A 
ATOM     39  C   UNL A   1      40.756  27.656  28.748  1.00  0.00     0.074 A 
ATOM     40  C   UNL A   1      40.891  29.928  29.715  1.00  0.00     0.049 A 
ATOM     41  N   UNL A   1      41.982  27.237  28.928  1.00  0.00    -0.248 NA
ATOM     42  C   UNL A   1      39.868  26.658  28.131  1.00  0.00     0.031 C 
ATOM     43  C   UNL A   1      40.399  31.232  30.167  1.00  0.00     0.029 A 
ATOM     44  N   UNL A   1      42.217  29.934  30.068  1.00  0.00    -0.354 N 
ATOM     45  C   UNL A   1      42.011  25.928  28.458  1.00  0.00     0.074 A 
ATOM     46  C   UNL A   1      40.666  25.604  28.035  1.00  0.00     0.031 C 
ATOM     47  C   UNL A   1      41.415  31.920  30.711  1.00  0.00     0.029 A 
ATOM     48  C   UNL A   1      42.621  31.099  30.675  1.00  0.00     0.049 A 
ATOM     49  H   UNL A   1      42.822  29.175  29.902  1.00  0.00     0.167 HD
ATOM     50  C   UNL A   1      43.066  25.082  28.362  1.00  0.00     0.037 A 
ATOM     51  C   UNL A   1      43.827  31.467  31.149  1.00  0.00     0.037 A 
ATOM     52  C   UNL A   1      44.409  25.416  28.765  1.00  0.00     0.049 A 
ATOM     53  C   UNL A   1      44.988  30.523  31.007  1.00  0.00     0.074 A 
ATOM     54  C   UNL A   1      45.556  24.649  28.662  1.00  0.00     0.029 A 
ATOM     55  N   UNL A   1      44.784  26.617  29.350  1.00  0.00    -0.354 N 
ATOM     56  N   UNL A   1      45.010  29.313  30.500  1.00  0.00    -0.248 NA
ATOM     57  C   UNL A   1      46.292  30.999  31.488  1.00  0.00     0.031 C 
ATOM     58  C   UNL A   1      46.619  25.372  29.218  1.00  0.00     0.029 A 
ATOM     59  C   UNL A   1      46.142  26.607  29.627  1.00  0.00     0.049 A 
ATOM     60  H   UNL A   1      44.175  27.367  29.540  1.00  0.00     0.167 HD
ATOM     61  C   UNL A   1      46.330  28.888  30.587  1.00  0.00     0.074 A 
ATOM     62  C   UNL A   1      47.081  29.981  31.173  1.00  0.00     0.031 C 
ATOM     63  C   UNL A   1      46.872  27.699  30.220  1.00  0.00     0.037 A 
BRANCH  50  64
ATOM     64  C   UNL A   1      42.810  23.714  27.787  1.00  0.00     0.058 A 
ATOM     65  C   UNL A   1      42.802  23.488  26.401  1.00  0.00     0.135 A 
ATOM     66  C   UNL A   1      42.595  22.609  28.629  1.00  0.00     0.135 A 
ATOM     67  F   UNL A   1      42.987  24.508  25.549  1.00  0.00    -0.206 F 
ATOM     68  C   UNL A   1      42.556  22.225  25.870  1.00  0.00     0.059 A 
ATOM     69  C   UNL A   1      42.376  21.333  28.119  1.00  0.00     0.059 A 
ATOM     70  F   UNL A   1      42.594  22.766  29.962  1.00  0.00    -0.206 F 
ATOM     71  C   UNL A   1      42.341  21.153  26.737  1.00  0.00     0.060 A 
BRANCH  71  72
ATOM     72  S   UNL A   1      42.020  19.523  26.031  1.00  0.00     0.124 S 
ATOM     73  O   UNL A   1      40.592  19.609  25.739  1.00  0.00    -0.237 OA
ATOM     74  O   UNL A   1      42.903  19.505  24.870  1.00  0.00    -0.237 OA
ATOM     75  O   UNL A   1      42.386  18.608  27.108  1.00  0.00    -0.744 OA
ENDBRANCH  71  72
ENDBRANCH  50  64
BRANCH  51  76
ATOM     76  C   UNL A   1      43.999  32.807  31.770  1.00  0.00     0.058 A 
ATOM     77  C   UNL A   1      44.201  33.949  30.982  1.00  0.00     0.135 A 
ATOM     78  C   UNL A   1      43.933  32.977  33.162  1.00  0.00     0.135 A 
ATOM     79  F   UNL A   1      44.275  33.838  29.647  1.00  0.00    -0.206 F 
ATOM     80  C   UNL A   1      44.347  35.210  31.550  1.00  0.00     0.059 A 
ATOM     81  C   UNL A   1      44.050  34.232  33.753  1.00  0.00     0.059 A 
ATOM     82  F   UNL A   1      43.724  31.917  33.959  1.00  0.00    -0.206 F 
ATOM     83  C   UNL A   1      44.265  35.343  32.937  1.00  0.00     0.060 A 
BRANCH  83  84
ATOM     84  S   UNL A   1      44.392  36.994  33.658  1.00  0.00     0.124 S 
ATOM     85  O   UNL A   1      45.278  37.660  32.710  1.00  0.00    -0.237 OA
ATOM     86  O   UNL A   1      43.002  37.439  33.655  1.00  0.00    -0.237 OA
ATOM     87  O   UNL A   1      44.956  36.740  34.981  1.00  0.00    -0.744 OA
ENDBRANCH  83  84
ENDBRANCH  51  76
BRANCH  63  88
ATOM     88  C   UNL A   1      48.353  27.531  30.429  1.00  0.00     0.058 A 
ATOM     89  C   UNL A   1      48.870  26.979  31.611  1.00  0.00     0.135 A 
ATOM     90  C   UNL A   1      49.263  27.917  29.432  1.00  0.00     0.135 A 
ATOM     91  F   UNL A   1      48.043  26.598  32.598  1.00  0.00    -0.206 F 
ATOM     92  C   UNL A   1      50.241  26.852  31.815  1.00  0.00     0.059 A 
ATOM     93  C   UNL A   1      50.636  27.773  29.603  1.00  0.00     0.059 A 
ATOM     94  F   UNL A   1      48.821  28.439  28.277  1.00  0.00    -0.206 F 
ATOM     95  C   UNL A   1      51.116  27.258  30.806  1.00  0.00     0.060 A 
BRANCH  95  96
ATOM     96  S   UNL A   1      52.893  27.093  31.082  1.00  0.00     0.124 S 
ATOM     97  O   UNL A   1      52.957  25.852  31.846  1.00  0.00    -0.237 OA
ATOM     98  O   UNL A   1      53.418  27.027  29.721  1.00  0.00    -0.237 OA
ATOM     99  O   UNL A   1      53.235  28.304  31.821  1.00  0.00    -0.744 OA
ENDBRANCH  95  96
ENDBRANCH  63  88
ENDBRANCH  37  38
ENDBRANCH  29  32
ENDBRANCH  27  28
ENDBRANCH  26  27
ENDBRANCH   1  26
TORSDOF 19
ENDMDL
MODEL 3
REMARK VINA RESULT:     -11.1      0.362      2.262
REMARK SMILES CCOc1cc(OCC)cc(-c2ccc([C@@H](C)C(=O)NCCCNC(=O)c3ccc(-c4c5nc(c(-c6c(F)cc(S(=O)(=O)[O-])cc6F)c6ccc([nH]6)c(-c6c(F)cc(S(=O)(=O)[O-])cc6F)c6nc(c(-c7c(F)cc(S(=O)(=O)[O-])cc7F)c7ccc4[nH]7)C=C6)C=C5)cc3)cc2)c1
REMARK SMILES IDX 21 1 20 2 18 3 19 4 16 6 17 7 15 8 12 9 13 10 94 11 14 12
REMARK SMILES IDX 93 13 11 14 4 15 5 16 95 17 6 18 10 19 3 20 2 21 1 22 7 23
REMARK SMILES IDX 8 24 9 25 22 26 23 27 24 28 25 29 26 31 27 32 28 33 92 34
REMARK SMILES IDX 29 35 91 36 30 37 31 38 32 39 85 40 33 41 90 42 84 43 86 44
REMARK SMILES IDX 34 45 89 46 83 47 82 48 35 50 69 51 48 52 68 53 49 54 52 55
REMARK SMILES IDX 67 56 87 57 50 58 51 59 66 61 88 62 53 63 36 64 37 65 46 66
REMARK SMILES IDX 38 67 39 68 45 69 47 70 40 71 41 72 42 73 43 74 44 75 70 76
REMARK SMILES IDX 71 77 80 78 72 79 73 80 79 81 81 82 74 83 75 84 76 85 77 86
REMARK SMILES IDX 78 87 54 88 55 89 64 90 56 91 57 92 63 93 65 94 58 95 59 96
REMARK SMILES IDX 60 97 61 98 62 99
REMARK H PARENT 20 5 24 30 86 49 52 60
REMARK Flexibility Score: inf
ROOT
ATOM      1  C   UNL A   1      43.823  21.941  25.450  1.00  0.00     0.117 C 
ENDROOT
BRANCH   1   2
ATOM      2  N   UNL A   1      42.974  20.818  25.799  1.00  0.00    -0.356 N 
ATOM      3  C   UNL A   1      41.756  20.742  26.400  1.00  0.00     0.227 C 
ATOM      4  O   UNL A   1      41.304  19.602  26.572  1.00  0.00    -0.274 OA
ATOM      5  H   UNL A   1      43.353  19.942  25.554  1.00  0.00     0.163 HD
BRANCH   3   6
ATOM      6  C   UNL A   1      40.936  21.959  26.856  1.00  0.00     0.105 C 
ATOM      7  C   UNL A   1      40.935  22.202  28.364  1.00  0.00     0.023 C 
BRANCH   6   8
ATOM      8  C   UNL A   1      39.579  22.052  26.181  1.00  0.00    -0.036 A 
ATOM      9  C   UNL A   1      36.957  22.104  25.064  1.00  0.00    -0.018 A 
ATOM     10  C   UNL A   1      37.505  23.218  25.719  1.00  0.00     0.009 A 
ATOM     11  C   UNL A   1      37.769  20.967  24.953  1.00  0.00     0.009 A 
ATOM     12  C   UNL A   1      38.802  23.209  26.228  1.00  0.00     0.005 A 
ATOM     13  C   UNL A   1      39.050  20.933  25.520  1.00  0.00     0.005 A 
BRANCH   9  14
ATOM     14  C   UNL A   1      35.572  22.148  24.549  1.00  0.00    -0.011 A 
ATOM     15  C   UNL A   1      33.916  22.908  22.936  1.00  0.00     0.123 A 
ATOM     16  C   UNL A   1      32.958  22.062  23.493  1.00  0.00     0.092 A 
ATOM     17  C   UNL A   1      35.205  22.960  23.467  1.00  0.00     0.055 A 
ATOM     18  C   UNL A   1      33.285  21.265  24.590  1.00  0.00     0.123 A 
ATOM     19  C   UNL A   1      34.575  21.331  25.114  1.00  0.00     0.055 A 
BRANCH  15  20
ATOM     20  O   UNL A   1      33.530  23.772  21.948  1.00  0.00    -0.494 OA
BRANCH  20  21
ATOM     21  C   UNL A   1      32.675  24.828  22.406  1.00  0.00     0.226 C 
ATOM     22  C   UNL A   1      33.470  26.068  22.791  1.00  0.00     0.049 C 
ENDBRANCH  20  21
ENDBRANCH  15  20
BRANCH  18  23
ATOM     23  O   UNL A   1      32.290  20.447  25.053  1.00  0.00    -0.494 OA
BRANCH  23  24
ATOM     24  C   UNL A   1      32.515  19.035  25.063  1.00  0.00     0.226 C 
ATOM     25  C   UNL A   1      33.316  18.568  23.855  1.00  0.00     0.049 C 
ENDBRANCH  23  24
ENDBRANCH  18  23
ENDBRANCH   9  14
ENDBRANCH   6   8
ENDBRANCH   3   6
ENDBRANCH   1   2
BRANCH   1  26
ATOM     26  C   UNL A   1      44.456  22.609  26.669  1.00  0.00     0.042 C 
BRANCH  26  27
ATOM     27  C   UNL A   1      44.027  24.055  26.888  1.00  0.00     0.118 C 
BRANCH  27  28
ATOM     28  N   UNL A   1      43.108  24.520  25.860  1.00  0.00    -0.352 N 
ATOM     29  C   UNL A   1      42.040  25.381  25.923  1.00  0.00     0.251 C 
ATOM     30  H   UNL A   1      43.281  24.153  24.962  1.00  0.00     0.163 HD
ATOM     31  O   UNL A   1      41.286  25.445  24.954  1.00  0.00    -0.269 OA
BRANCH  29  32
ATOM     32  C   UNL A   1      41.774  26.218  27.119  1.00  0.00     0.039 A 
ATOM     33  C   UNL A   1      42.502  27.404  27.273  1.00  0.00     0.014 A 
ATOM     34  C   UNL A   1      40.885  25.825  28.122  1.00  0.00     0.014 A 
ATOM     35  C   UNL A   1      42.305  28.207  28.399  1.00  0.00     0.010 A 
ATOM     36  C   UNL A   1      40.631  26.666  29.206  1.00  0.00     0.010 A 
ATOM     37  C   UNL A   1      41.347  27.860  29.365  1.00  0.00    -0.014 A 
BRANCH  37  38
ATOM     38  C   UNL A   1      41.097  28.738  30.539  1.00  0.00     0.031 A 
ATOM     39  C   UNL A   1      41.920  28.600  31.793  1.00  0.00     0.074 A 
ATOM     40  C   UNL A   1      40.096  29.640  30.487  1.00  0.00     0.049 A 
ATOM     41  N   UNL A   1      41.836  29.270  32.914  1.00  0.00    -0.248 NA
ATOM     42  C   UNL A   1      42.959  27.558  31.796  1.00  0.00     0.031 C 
ATOM     43  C   UNL A   1      39.185  29.827  29.354  1.00  0.00     0.029 A 
ATOM     44  N   UNL A   1      39.672  30.565  31.408  1.00  0.00    -0.354 N 
ATOM     45  C   UNL A   1      42.800  28.726  33.756  1.00  0.00     0.074 A 
ATOM     46  C   UNL A   1      43.419  27.635  33.036  1.00  0.00     0.031 C 
ATOM     47  C   UNL A   1      38.331  30.822  29.636  1.00  0.00     0.029 A 
ATOM     48  C   UNL A   1      38.610  31.325  30.978  1.00  0.00     0.049 A 
ATOM     49  H   UNL A   1      40.089  30.674  32.293  1.00  0.00     0.167 HD
ATOM     50  C   UNL A   1      43.156  29.117  35.005  1.00  0.00     0.037 A 
ATOM     51  C   UNL A   1      37.936  32.316  31.593  1.00  0.00     0.037 A 
ATOM     52  C   UNL A   1      42.550  30.218  35.710  1.00  0.00     0.049 A 
ATOM     53  C   UNL A   1      38.366  32.750  32.966  1.00  0.00     0.074 A 
ATOM     54  C   UNL A   1      42.872  30.726  36.956  1.00  0.00     0.029 A 
ATOM     55  N   UNL A   1      41.495  30.981  35.230  1.00  0.00    -0.354 N 
ATOM     56  N   UNL A   1      39.323  32.266  33.722  1.00  0.00    -0.248 NA
ATOM     57  C   UNL A   1      37.634  33.874  33.566  1.00  0.00     0.031 C 
ATOM     58  C   UNL A   1      41.989  31.773  37.246  1.00  0.00     0.029 A 
ATOM     59  C   UNL A   1      41.144  31.947  36.161  1.00  0.00     0.049 A 
ATOM     60  H   UNL A   1      41.060  30.856  34.355  1.00  0.00     0.167 HD
ATOM     61  C   UNL A   1      39.318  33.036  34.880  1.00  0.00     0.074 A 
ATOM     62  C   UNL A   1      38.280  34.032  34.713  1.00  0.00     0.031 C 
ATOM     63  C   UNL A   1      40.101  32.925  35.983  1.00  0.00     0.037 A 
BRANCH  50  64
ATOM     64  C   UNL A   1      44.261  28.352  35.684  1.00  0.00     0.058 A 
ATOM     65  C   UNL A   1      44.005  27.172  36.402  1.00  0.00     0.135 A 
ATOM     66  C   UNL A   1      45.594  28.787  35.598  1.00  0.00     0.135 A 
ATOM     67  F   UNL A   1      42.748  26.717  36.529  1.00  0.00    -0.206 F 
ATOM     68  C   UNL A   1      45.024  26.469  37.037  1.00  0.00     0.059 A 
ATOM     69  C   UNL A   1      46.633  28.084  36.203  1.00  0.00     0.059 A 
ATOM     70  F   UNL A   1      45.898  29.907  34.924  1.00  0.00    -0.206 F 
ATOM     71  C   UNL A   1      46.336  26.935  36.935  1.00  0.00     0.060 A 
BRANCH  71  72
ATOM     72  S   UNL A   1      47.645  26.014  37.768  1.00  0.00     0.124 S 
ATOM     73  O   UNL A   1      48.837  26.707  37.289  1.00  0.00    -0.237 OA
ATOM     74  O   UNL A   1      47.321  26.211  39.176  1.00  0.00    -0.237 OA
ATOM     75  O   UNL A   1      47.471  24.651  37.272  1.00  0.00    -0.744 OA
ENDBRANCH  71  72
ENDBRANCH  50  64
BRANCH  51  76
ATOM     76  C   UNL A   1      36.807  32.985  30.894  1.00  0.00     0.058 A 
ATOM     77  C   UNL A   1      37.037  34.008  29.962  1.00  0.00     0.135 A 
ATOM     78  C   UNL A   1      35.477  32.596  31.122  1.00  0.00     0.135 A 
ATOM     79  F   UNL A   1      38.290  34.418  29.713  1.00  0.00    -0.206 F 
ATOM     80  C   UNL A   1      35.990  34.630  29.291  1.00  0.00     0.059 A 
ATOM     81  C   UNL A   1      34.415  33.185  30.443  1.00  0.00     0.059 A 
ATOM     82  F   UNL A   1      35.206  31.610  31.992  1.00  0.00    -0.206 F 
ATOM     83  C   UNL A   1      34.682  34.209  29.534  1.00  0.00     0.060 A 
BRANCH  83  84
ATOM     84  S   UNL A   1      33.338  34.982  28.608  1.00  0.00     0.124 S 
ATOM     85  O   UNL A   1      32.564  35.603  29.677  1.00  0.00    -0.237 OA
ATOM     86  O   UNL A   1      34.057  35.895  27.726  1.00  0.00    -0.237 OA
ATOM     87  O   UNL A   1      32.699  33.852  27.939  1.00  0.00    -0.744 OA
ENDBRANCH  83  84
ENDBRANCH  51  76
BRANCH  63  88
ATOM     88  C   UNL A   1      39.867  33.920  37.087  1.00  0.00     0.058 A 
ATOM     89  C   UNL A   1      40.430  35.205  37.050  1.00  0.00     0.135 A 
ATOM     90  C   UNL A   1      39.062  33.588  38.189  1.00  0.00     0.135 A 
ATOM     91  F   UNL A   1      41.210  35.572  36.022  1.00  0.00    -0.206 F 
ATOM     92  C   UNL A   1      40.237  36.114  38.087  1.00  0.00     0.059 A 
ATOM     93  C   UNL A   1      38.832  34.490  39.223  1.00  0.00     0.059 A 
ATOM     94  F   UNL A   1      38.489  32.377  38.268  1.00  0.00    -0.206 F 
ATOM     95  C   UNL A   1      39.441  35.744  39.172  1.00  0.00     0.060 A 
BRANCH  95  96
ATOM     96  S   UNL A   1      39.199  36.928  40.513  1.00  0.00     0.124 S 
ATOM     97  O   UNL A   1      38.580  38.046  39.809  1.00  0.00    -0.237 OA
ATOM     98  O   UNL A   1      38.329  36.195  41.428  1.00  0.00    -0.237 OA
ATOM     99  O   UNL A   1      40.554  37.166  41.003  1.00  0.00    -0.744 OA
ENDBRANCH  95  96
ENDBRANCH  63  88
ENDBRANCH  37  38
ENDBRANCH  29  32
ENDBRANCH  27  28
ENDBRANCH  26  27
ENDBRANCH   1  26
TORSDOF 19
ENDMDL
