MODEL 1
REMARK VINA RESULT:     -12.8      0.000      0.000
REMARK SMILES CCOC(=O)c1c(NC(=O)c2ncccc2C(=O)NCCCNC(=O)c2ccc(-c3c4nc(c(-c5c(F)cc(S(=O)(=O)[O-])cc5F)c5ccc([nH]5)c(-c5c(F)cc(S(=O)(=O)[O-])cc5F)c5nc(c(-c6c(F)cc(S(=O)(=O)[O-])cc6F)c6ccc3[nH]6)C=C5)C=C4)cc2)sc2c1CC[C@H](C)C2
REMARK SMILES IDX 20 1 19 2 17 3 18 4 16 6 11 7 12 8 13 9 15 10 14 11 9 12
REMARK SMILES IDX 8 13 10 15 7 16 6 17 94 18 92 19 93 20 95 21 99 22 96 23
REMARK SMILES IDX 97 24 98 25 4 26 5 27 3 28 2 29 1 30 21 31 22 32 23 33 24 34
REMARK SMILES IDX 25 36 26 37 27 38 91 39 28 40 90 41 29 42 30 43 31 44 84 45
REMARK SMILES IDX 32 46 89 47 83 48 85 49 33 50 88 51 82 52 81 53 34 55 68 56
REMARK SMILES IDX 47 57 67 58 48 59 51 60 66 61 86 62 49 63 50 64 65 66 87 67
REMARK SMILES IDX 52 68 35 69 36 70 45 71 37 72 38 73 44 74 46 75 39 76 40 77
REMARK SMILES IDX 41 78 42 79 43 80 69 81 70 82 79 83 71 84 72 85 78 86 80 87
REMARK SMILES IDX 73 88 74 89 75 90 76 91 77 92 53 93 54 94 63 95 55 96 56 97
REMARK SMILES IDX 62 98 64 99 57 100 58 101 59 102 60 103 61 104
REMARK H PARENT 19 5 8 14 23 35 85 54 51 65
REMARK Flexibility Score: inf
ROOT
ATOM      1  C   UNL A   1      31.746  28.003  26.251  1.00  0.00     0.118 C 
ENDROOT
BRANCH   1   2
ATOM      2  N   UNL A   1      31.243  26.727  26.753  1.00  0.00    -0.352 N 
ATOM      3  C   UNL A   1      31.180  25.476  26.185  1.00  0.00     0.253 C 
ATOM      4  O   UNL A   1      30.723  24.549  26.845  1.00  0.00    -0.269 OA
ATOM      5  H   UNL A   1      30.882  26.771  27.668  1.00  0.00     0.163 HD
BRANCH   3   6
ATOM      6  C   UNL A   1      31.676  25.209  24.821  1.00  0.00     0.071 A 
ATOM      7  C   UNL A   1      33.016  24.934  24.554  1.00  0.00     0.141 A 
ATOM      8  N   UNL A   1      33.505  24.773  23.282  1.00  0.00    -0.250 NA
ATOM      9  C   UNL A   1      32.647  24.910  22.255  1.00  0.00     0.112 A 
ATOM     10  C   UNL A   1      30.826  25.362  23.716  1.00  0.00     0.018 A 
ATOM     11  C   UNL A   1      31.306  25.185  22.421  1.00  0.00     0.021 A 
BRANCH   7  12
ATOM     12  C   UNL A   1      34.097  24.991  25.567  1.00  0.00     0.275 C 
ATOM     13  N   UNL A   1      34.758  23.908  26.073  1.00  0.00    -0.311 N 
ATOM     14  H   UNL A   1      35.356  24.147  26.817  1.00  0.00     0.171 HD
ATOM     15  O   UNL A   1      34.409  26.108  25.998  1.00  0.00    -0.267 OA
BRANCH  13  16
ATOM     16  C   UNL A   1      34.784  22.568  25.790  1.00  0.00     0.110 A 
ATOM     17  C   UNL A   1      35.618  21.619  25.223  1.00  0.00     0.098 A 
ATOM     18  C   UNL A   1      34.921  20.342  25.112  1.00  0.00    -0.017 A 
ATOM     19  S   UNL A   1      33.303  21.904  26.331  1.00  0.00    -0.122 S 
ATOM     20  C   UNL A   1      33.656  20.398  25.665  1.00  0.00     0.011 A 
ATOM     21  C   UNL A   1      35.448  19.048  24.547  1.00  0.00     0.038 C 
ATOM     22  C   UNL A   1      32.653  19.287  25.696  1.00  0.00     0.050 C 
ATOM     23  C   UNL A   1      34.305  18.058  24.230  1.00  0.00     0.008 C 
ATOM     24  C   UNL A   1      33.346  17.937  25.435  1.00  0.00    -0.009 C 
ATOM     25  C   UNL A   1      32.299  16.845  25.244  1.00  0.00     0.008 C 
BRANCH  17  26
ATOM     26  C   UNL A   1      36.988  21.833  24.796  1.00  0.00     0.341 C 
ATOM     27  O   UNL A   1      37.273  22.287  23.686  1.00  0.00    -0.246 OA
BRANCH  26  28
ATOM     28  O   UNL A   1      37.905  21.452  25.721  1.00  0.00    -0.462 OA
BRANCH  28  29
ATOM     29  C   UNL A   1      38.940  22.394  26.047  1.00  0.00     0.230 C 
ATOM     30  C   UNL A   1      38.446  23.765  26.479  1.00  0.00     0.049 C 
ENDBRANCH  28  29
ENDBRANCH  26  28
ENDBRANCH  17  26
ENDBRANCH  13  16
ENDBRANCH   7  12
ENDBRANCH   3   6
ENDBRANCH   1   2
BRANCH   1  31
ATOM     31  C   UNL A   1      32.285  28.932  27.335  1.00  0.00     0.042 C 
BRANCH  31  32
ATOM     32  C   UNL A   1      33.709  29.391  27.113  1.00  0.00     0.118 C 
BRANCH  32  33
ATOM     33  N   UNL A   1      33.858  30.840  27.046  1.00  0.00    -0.352 N 
ATOM     34  C   UNL A   1      34.853  31.605  27.624  1.00  0.00     0.251 C 
ATOM     35  H   UNL A   1      33.174  31.327  26.533  1.00  0.00     0.163 HD
ATOM     36  O   UNL A   1      34.724  32.820  27.722  1.00  0.00    -0.269 OA
BRANCH  34  37
ATOM     37  C   UNL A   1      36.051  30.923  28.156  1.00  0.00     0.039 A 
ATOM     38  C   UNL A   1      36.225  29.550  27.977  1.00  0.00     0.014 A 
ATOM     39  C   UNL A   1      37.040  31.684  28.775  1.00  0.00     0.014 A 
ATOM     40  C   UNL A   1      37.439  28.970  28.341  1.00  0.00     0.010 A 
ATOM     41  C   UNL A   1      38.287  31.142  28.992  1.00  0.00     0.010 A 
ATOM     42  C   UNL A   1      38.486  29.775  28.820  1.00  0.00    -0.014 A 
BRANCH  42  43
ATOM     43  C   UNL A   1      39.813  29.195  29.047  1.00  0.00     0.031 A 
ATOM     44  C   UNL A   1      40.224  29.045  30.477  1.00  0.00     0.074 A 
ATOM     45  C   UNL A   1      40.565  28.630  28.076  1.00  0.00     0.049 A 
ATOM     46  N   UNL A   1      41.240  29.566  31.080  1.00  0.00    -0.248 NA
ATOM     47  C   UNL A   1      39.345  28.278  31.371  1.00  0.00     0.031 C 
ATOM     48  C   UNL A   1      40.220  28.385  26.669  1.00  0.00     0.029 A 
ATOM     49  N   UNL A   1      41.793  28.051  28.185  1.00  0.00    -0.354 N 
ATOM     50  C   UNL A   1      41.248  29.047  32.375  1.00  0.00     0.074 A 
ATOM     51  C   UNL A   1      40.002  28.342  32.530  1.00  0.00     0.031 C 
ATOM     52  C   UNL A   1      41.101  27.513  26.132  1.00  0.00     0.029 A 
ATOM     53  C   UNL A   1      42.169  27.290  27.086  1.00  0.00     0.049 A 
ATOM     54  H   UNL A   1      42.365  28.163  28.978  1.00  0.00     0.167 HD
ATOM     55  C   UNL A   1      42.359  29.106  33.164  1.00  0.00     0.037 A 
ATOM     56  C   UNL A   1      43.276  26.517  26.965  1.00  0.00     0.037 A 
ATOM     57  C   UNL A   1      43.286  30.095  32.676  1.00  0.00     0.049 A 
ATOM     58  C   UNL A   1      44.260  27.007  27.963  1.00  0.00     0.074 A 
ATOM     59  C   UNL A   1      43.212  31.456  32.443  1.00  0.00     0.029 A 
ATOM     60  N   UNL A   1      44.394  29.665  31.986  1.00  0.00    -0.354 N 
ATOM     61  N   UNL A   1      44.830  28.180  27.911  1.00  0.00    -0.248 NA
ATOM     62  C   UNL A   1      44.291  26.357  29.263  1.00  0.00     0.031 C 
ATOM     63  C   UNL A   1      43.941  31.660  31.236  1.00  0.00     0.029 A 
ATOM     64  C   UNL A   1      44.470  30.427  30.848  1.00  0.00     0.049 A 
ATOM     65  H   UNL A   1      45.014  28.949  32.257  1.00  0.00     0.167 HD
ATOM     66  C   UNL A   1      44.908  28.596  29.231  1.00  0.00     0.074 A 
ATOM     67  C   UNL A   1      44.655  27.393  30.021  1.00  0.00     0.031 C 
ATOM     68  C   UNL A   1      44.902  29.921  29.564  1.00  0.00     0.037 A 
BRANCH  55  69
ATOM     69  C   UNL A   1      42.763  28.066  34.186  1.00  0.00     0.058 A 
ATOM     70  C   UNL A   1      42.855  28.432  35.547  1.00  0.00     0.135 A 
ATOM     71  C   UNL A   1      43.345  26.824  33.851  1.00  0.00     0.135 A 
ATOM     72  F   UNL A   1      42.325  29.584  35.986  1.00  0.00    -0.206 F 
ATOM     73  C   UNL A   1      43.563  27.674  36.482  1.00  0.00     0.059 A 
ATOM     74  C   UNL A   1      44.015  26.029  34.778  1.00  0.00     0.059 A 
ATOM     75  F   UNL A   1      43.378  26.368  32.593  1.00  0.00    -0.206 F 
ATOM     76  C   UNL A   1      44.163  26.486  36.078  1.00  0.00     0.060 A 
BRANCH  76  77
ATOM     77  S   UNL A   1      45.194  25.578  37.245  1.00  0.00     0.124 S 
ATOM     78  O   UNL A   1      45.998  24.761  36.344  1.00  0.00    -0.237 OA
ATOM     79  O   UNL A   1      45.898  26.657  37.931  1.00  0.00    -0.237 OA
ATOM     80  O   UNL A   1      44.221  24.855  38.058  1.00  0.00    -0.744 OA
ENDBRANCH  76  77
ENDBRANCH  55  69
BRANCH  56  81
ATOM     81  C   UNL A   1      43.419  25.221  26.255  1.00  0.00     0.058 A 
ATOM     82  C   UNL A   1      44.426  25.028  25.293  1.00  0.00     0.135 A 
ATOM     83  C   UNL A   1      42.757  24.061  26.706  1.00  0.00     0.135 A 
ATOM     84  F   UNL A   1      45.118  26.076  24.821  1.00  0.00    -0.206 F 
ATOM     85  C   UNL A   1      44.797  23.754  24.850  1.00  0.00     0.059 A 
ATOM     86  C   UNL A   1      43.101  22.782  26.269  1.00  0.00     0.059 A 
ATOM     87  F   UNL A   1      41.818  24.127  27.662  1.00  0.00    -0.206 F 
ATOM     88  C   UNL A   1      44.143  22.635  25.362  1.00  0.00     0.060 A 
BRANCH  88  89
ATOM     89  S   UNL A   1      44.753  20.984  24.945  1.00  0.00     0.124 S 
ATOM     90  O   UNL A   1      44.622  20.973  23.492  1.00  0.00    -0.237 OA
ATOM     91  O   UNL A   1      46.116  21.020  25.463  1.00  0.00    -0.237 OA
ATOM     92  O   UNL A   1      43.842  20.095  25.662  1.00  0.00    -0.744 OA
ENDBRANCH  88  89
ENDBRANCH  56  81
BRANCH  68  93
ATOM     93  C   UNL A   1      45.119  30.946  28.477  1.00  0.00     0.058 A 
ATOM     94  C   UNL A   1      44.139  31.351  27.553  1.00  0.00     0.135 A 
ATOM     95  C   UNL A   1      46.323  31.668  28.487  1.00  0.00     0.135 A 
ATOM     96  F   UNL A   1      42.922  30.790  27.542  1.00  0.00    -0.206 F 
ATOM     97  C   UNL A   1      44.363  32.397  26.655  1.00  0.00     0.059 A 
ATOM     98  C   UNL A   1      46.554  32.737  27.626  1.00  0.00     0.059 A 
ATOM     99  F   UNL A   1      47.276  31.373  29.388  1.00  0.00    -0.206 F 
ATOM    100  C   UNL A   1      45.573  33.088  26.702  1.00  0.00     0.060 A 
BRANCH 100 101
ATOM    101  S   UNL A   1      45.829  34.497  25.601  1.00  0.00     0.124 S 
ATOM    102  O   UNL A   1      44.951  34.174  24.481  1.00  0.00    -0.237 OA
ATOM    103  O   UNL A   1      45.413  35.627  26.428  1.00  0.00    -0.237 OA
ATOM    104  O   UNL A   1      47.259  34.446  25.307  1.00  0.00    -0.744 OA
ENDBRANCH 100 101
ENDBRANCH  68  93
ENDBRANCH  42  43
ENDBRANCH  34  37
ENDBRANCH  32  33
ENDBRANCH  31  32
ENDBRANCH   1  31
TORSDOF 18
ENDMDL
MODEL 2
REMARK VINA RESULT:     -12.2      4.648     12.144
REMARK SMILES CCOC(=O)c1c(NC(=O)c2ncccc2C(=O)NCCCNC(=O)c2ccc(-c3c4nc(c(-c5c(F)cc(S(=O)(=O)[O-])cc5F)c5ccc([nH]5)c(-c5c(F)cc(S(=O)(=O)[O-])cc5F)c5nc(c(-c6c(F)cc(S(=O)(=O)[O-])cc6F)c6ccc3[nH]6)C=C5)C=C4)cc2)sc2c1CC[C@H](C)C2
REMARK SMILES IDX 20 1 19 2 17 3 18 4 16 6 11 7 12 8 13 9 15 10 14 11 9 12
REMARK SMILES IDX 8 13 10 15 7 16 6 17 94 18 92 19 93 20 95 21 99 22 96 23
REMARK SMILES IDX 97 24 98 25 4 26 5 27 3 28 2 29 1 30 21 31 22 32 23 33 24 34
REMARK SMILES IDX 25 36 26 37 27 38 91 39 28 40 90 41 29 42 30 43 31 44 84 45
REMARK SMILES IDX 32 46 89 47 83 48 85 49 33 50 88 51 82 52 81 53 34 55 68 56
REMARK SMILES IDX 47 57 67 58 48 59 51 60 66 61 86 62 49 63 50 64 65 66 87 67
REMARK SMILES IDX 52 68 35 69 36 70 45 71 37 72 38 73 44 74 46 75 39 76 40 77
REMARK SMILES IDX 41 78 42 79 43 80 69 81 70 82 79 83 71 84 72 85 78 86 80 87
REMARK SMILES IDX 73 88 74 89 75 90 76 91 77 92 53 93 54 94 63 95 55 96 56 97
REMARK SMILES IDX 62 98 64 99 57 100 58 101 59 102 60 103 61 104
REMARK H PARENT 19 5 8 14 23 35 85 54 51 65
REMARK Flexibility Score: inf
ROOT
ATOM      1  C   UNL A   1      43.139  25.136  25.030  1.00  0.00     0.118 C 
ENDROOT
BRANCH   1   2
ATOM      2  N   UNL A   1      43.673  25.592  26.311  1.00  0.00    -0.352 N 
ATOM      3  C   UNL A   1      44.869  26.184  26.650  1.00  0.00     0.253 C 
ATOM      4  O   UNL A   1      45.062  26.498  27.820  1.00  0.00    -0.269 OA
ATOM      5  H   UNL A   1      43.066  25.451  27.073  1.00  0.00     0.163 HD
BRANCH   3   6
ATOM      6  C   UNL A   1      45.908  26.482  25.645  1.00  0.00     0.071 A 
ATOM      7  C   UNL A   1      47.050  25.697  25.496  1.00  0.00     0.141 A 
ATOM      8  N   UNL A   1      48.064  26.015  24.628  1.00  0.00    -0.250 NA
ATOM      9  C   UNL A   1      47.949  27.147  23.911  1.00  0.00     0.112 A 
ATOM     10  C   UNL A   1      45.844  27.662  24.891  1.00  0.00     0.018 A 
ATOM     11  C   UNL A   1      46.859  27.988  23.995  1.00  0.00     0.021 A 
BRANCH   7  12
ATOM     12  C   UNL A   1      47.406  24.565  26.384  1.00  0.00     0.275 C 
ATOM     13  N   UNL A   1      48.229  24.649  27.472  1.00  0.00    -0.311 N 
ATOM     14  H   UNL A   1      48.432  23.766  27.857  1.00  0.00     0.171 HD
ATOM     15  O   UNL A   1      46.935  23.456  26.103  1.00  0.00    -0.267 OA
BRANCH  13  16
ATOM     16  C   UNL A   1      48.837  25.670  28.151  1.00  0.00     0.110 A 
ATOM     17  C   UNL A   1      49.880  26.569  28.006  1.00  0.00     0.098 A 
ATOM     18  C   UNL A   1      50.068  27.322  29.241  1.00  0.00    -0.017 A 
ATOM     19  S   UNL A   1      48.009  25.856  29.637  1.00  0.00    -0.122 S 
ATOM     20  C   UNL A   1      49.119  26.996  30.191  1.00  0.00     0.011 A 
ATOM     21  C   UNL A   1      51.091  28.391  29.525  1.00  0.00     0.038 C 
ATOM     22  C   UNL A   1      49.031  27.546  31.580  1.00  0.00     0.050 C 
ATOM     23  C   UNL A   1      51.239  28.651  31.041  1.00  0.00     0.008 C 
ATOM     24  C   UNL A   1      49.852  28.844  31.692  1.00  0.00    -0.009 C 
ATOM     25  C   UNL A   1      49.945  29.275  33.151  1.00  0.00     0.008 C 
BRANCH  17  26
ATOM     26  C   UNL A   1      50.682  26.759  26.812  1.00  0.00     0.341 C 
ATOM     27  O   UNL A   1      50.928  27.875  26.350  1.00  0.00    -0.246 OA
BRANCH  26  28
ATOM     28  O   UNL A   1      51.094  25.595  26.250  1.00  0.00    -0.462 OA
BRANCH  28  29
ATOM     29  C   UNL A   1      52.210  25.660  25.347  1.00  0.00     0.230 C 
ATOM     30  C   UNL A   1      53.141  24.460  25.391  1.00  0.00     0.049 C 
ENDBRANCH  28  29
ENDBRANCH  26  28
ENDBRANCH  17  26
ENDBRANCH  13  16
ENDBRANCH   7  12
ENDBRANCH   3   6
ENDBRANCH   1   2
BRANCH   1  31
ATOM     31  C   UNL A   1      43.465  23.681  24.702  1.00  0.00     0.042 C 
BRANCH  31  32
ATOM     32  C   UNL A   1      42.991  22.686  25.738  1.00  0.00     0.118 C 
BRANCH  32  33
ATOM     33  N   UNL A   1      41.666  22.140  25.468  1.00  0.00    -0.352 N 
ATOM     34  C   UNL A   1      40.483  22.469  26.102  1.00  0.00     0.251 C 
ATOM     35  H   UNL A   1      41.608  21.462  24.758  1.00  0.00     0.163 HD
ATOM     36  O   UNL A   1      39.492  21.759  25.975  1.00  0.00    -0.269 OA
BRANCH  34  37
ATOM     37  C   UNL A   1      40.452  23.668  26.965  1.00  0.00     0.039 A 
ATOM     38  C   UNL A   1      41.243  23.737  28.112  1.00  0.00     0.014 A 
ATOM     39  C   UNL A   1      39.678  24.758  26.576  1.00  0.00     0.014 A 
ATOM     40  C   UNL A   1      41.318  24.942  28.809  1.00  0.00     0.010 A 
ATOM     41  C   UNL A   1      39.870  25.984  27.173  1.00  0.00     0.010 A 
ATOM     42  C   UNL A   1      40.655  26.080  28.319  1.00  0.00    -0.014 A 
BRANCH  42  43
ATOM     43  C   UNL A   1      40.865  27.383  28.955  1.00  0.00     0.031 A 
ATOM     44  C   UNL A   1      41.958  28.223  28.375  1.00  0.00     0.074 A 
ATOM     45  C   UNL A   1      40.027  27.921  29.868  1.00  0.00     0.049 A 
ATOM     46  N   UNL A   1      43.019  28.675  28.957  1.00  0.00    -0.248 NA
ATOM     47  C   UNL A   1      41.901  28.536  26.940  1.00  0.00     0.031 C 
ATOM     48  C   UNL A   1      38.733  27.412  30.342  1.00  0.00     0.029 A 
ATOM     49  N   UNL A   1      40.121  29.124  30.500  1.00  0.00    -0.354 N 
ATOM     50  C   UNL A   1      43.671  29.488  28.028  1.00  0.00     0.074 A 
ATOM     51  C   UNL A   1      42.995  29.282  26.774  1.00  0.00     0.031 C 
ATOM     52  C   UNL A   1      38.069  28.395  30.990  1.00  0.00     0.029 A 
ATOM     53  C   UNL A   1      38.959  29.529  31.142  1.00  0.00     0.049 A 
ATOM     54  H   UNL A   1      40.946  29.661  30.501  1.00  0.00     0.167 HD
ATOM     55  C   UNL A   1      44.619  30.391  28.407  1.00  0.00     0.037 A 
ATOM     56  C   UNL A   1      38.730  30.719  31.750  1.00  0.00     0.037 A 
ATOM     57  C   UNL A   1      45.125  30.087  29.722  1.00  0.00     0.049 A 
ATOM     58  C   UNL A   1      40.056  31.307  32.068  1.00  0.00     0.074 A 
ATOM     59  C   UNL A   1      45.749  28.989  30.286  1.00  0.00     0.029 A 
ATOM     60  N   UNL A   1      44.681  30.840  30.781  1.00  0.00    -0.354 N 
ATOM     61  N   UNL A   1      40.890  30.799  32.934  1.00  0.00    -0.248 NA
ATOM     62  C   UNL A   1      40.639  32.228  31.107  1.00  0.00     0.031 C 
ATOM     63  C   UNL A   1      45.190  28.883  31.592  1.00  0.00     0.029 A 
ATOM     64  C   UNL A   1      44.316  29.959  31.767  1.00  0.00     0.049 A 
ATOM     65  H   UNL A   1      44.634  31.823  30.825  1.00  0.00     0.167 HD
ATOM     66  C   UNL A   1      42.144  30.992  32.375  1.00  0.00     0.074 A 
ATOM     67  C   UNL A   1      41.933  31.965  31.304  1.00  0.00     0.031 C 
ATOM     68  C   UNL A   1      43.186  30.153  32.648  1.00  0.00     0.037 A 
BRANCH  55  69
ATOM     69  C   UNL A   1      44.872  31.727  27.743  1.00  0.00     0.058 A 
ATOM     70  C   UNL A   1      46.078  31.932  27.036  1.00  0.00     0.135 A 
ATOM     71  C   UNL A   1      44.126  32.892  28.020  1.00  0.00     0.135 A 
ATOM     72  F   UNL A   1      46.864  30.895  26.704  1.00  0.00    -0.206 F 
ATOM     73  C   UNL A   1      46.558  33.205  26.724  1.00  0.00     0.059 A 
ATOM     74  C   UNL A   1      44.563  34.169  27.675  1.00  0.00     0.059 A 
ATOM     75  F   UNL A   1      42.988  32.861  28.723  1.00  0.00    -0.206 F 
ATOM     76  C   UNL A   1      45.802  34.319  27.073  1.00  0.00     0.060 A 
BRANCH  76  77
ATOM     77  S   UNL A   1      46.483  35.966  26.799  1.00  0.00     0.124 S 
ATOM     78  O   UNL A   1      47.253  36.167  28.020  1.00  0.00    -0.237 OA
ATOM     79  O   UNL A   1      47.257  35.775  25.577  1.00  0.00    -0.237 OA
ATOM     80  O   UNL A   1      45.292  36.799  26.656  1.00  0.00    -0.744 OA
ENDBRANCH  76  77
ENDBRANCH  55  69
BRANCH  56  81
ATOM     81  C   UNL A   1      37.465  31.495  31.805  1.00  0.00     0.058 A 
ATOM     82  C   UNL A   1      36.853  31.798  33.034  1.00  0.00     0.135 A 
ATOM     83  C   UNL A   1      36.984  32.195  30.680  1.00  0.00     0.135 A 
ATOM     84  F   UNL A   1      37.260  31.190  34.159  1.00  0.00    -0.206 F 
ATOM     85  C   UNL A   1      35.866  32.782  33.151  1.00  0.00     0.059 A 
ATOM     86  C   UNL A   1      35.992  33.170  30.770  1.00  0.00     0.059 A 
ATOM     87  F   UNL A   1      37.536  32.021  29.469  1.00  0.00    -0.206 F 
ATOM     88  C   UNL A   1      35.459  33.480  32.015  1.00  0.00     0.060 A 
BRANCH  88  89
ATOM     89  S   UNL A   1      34.333  34.884  32.194  1.00  0.00     0.124 S 
ATOM     90  O   UNL A   1      33.213  34.283  32.909  1.00  0.00    -0.237 OA
ATOM     91  O   UNL A   1      35.142  35.831  32.954  1.00  0.00    -0.237 OA
ATOM     92  O   UNL A   1      34.057  35.274  30.814  1.00  0.00    -0.744 OA
ENDBRANCH  88  89
ENDBRANCH  56  81
BRANCH  68  93
ATOM     93  C   UNL A   1      43.059  29.186  33.800  1.00  0.00     0.058 A 
ATOM     94  C   UNL A   1      43.305  29.510  35.146  1.00  0.00     0.135 A 
ATOM     95  C   UNL A   1      42.500  27.925  33.540  1.00  0.00     0.135 A 
ATOM     96  F   UNL A   1      43.737  30.728  35.498  1.00  0.00    -0.206 F 
ATOM     97  C   UNL A   1      43.044  28.606  36.179  1.00  0.00     0.059 A 
ATOM     98  C   UNL A   1      42.200  27.022  34.556  1.00  0.00     0.059 A 
ATOM     99  F   UNL A   1      42.182  27.577  32.281  1.00  0.00    -0.206 F 
ATOM    100  C   UNL A   1      42.487  27.366  35.875  1.00  0.00     0.060 A 
BRANCH 100 101
ATOM    101  S   UNL A   1      42.068  26.232  37.217  1.00  0.00     0.124 S 
ATOM    102  O   UNL A   1      42.180  24.931  36.566  1.00  0.00    -0.237 OA
ATOM    103  O   UNL A   1      43.090  26.531  38.218  1.00  0.00    -0.237 OA
ATOM    104  O   UNL A   1      40.712  26.629  37.589  1.00  0.00    -0.744 OA
ENDBRANCH 100 101
ENDBRANCH  68  93
ENDBRANCH  42  43
ENDBRANCH  34  37
ENDBRANCH  32  33
ENDBRANCH  31  32
ENDBRANCH   1  31
TORSDOF 18
ENDMDL
MODEL 3
REMARK VINA RESULT:     -12.0      1.671      2.903
REMARK SMILES CCOC(=O)c1c(NC(=O)c2ncccc2C(=O)NCCCNC(=O)c2ccc(-c3c4nc(c(-c5c(F)cc(S(=O)(=O)[O-])cc5F)c5ccc([nH]5)c(-c5c(F)cc(S(=O)(=O)[O-])cc5F)c5nc(c(-c6c(F)cc(S(=O)(=O)[O-])cc6F)c6ccc3[nH]6)C=C5)C=C4)cc2)sc2c1CC[C@H](C)C2
REMARK SMILES IDX 20 1 19 2 17 3 18 4 16 6 11 7 12 8 13 9 15 10 14 11 9 12
REMARK SMILES IDX 8 13 10 15 7 16 6 17 94 18 92 19 93 20 95 21 99 22 96 23
REMARK SMILES IDX 97 24 98 25 4 26 5 27 3 28 2 29 1 30 21 31 22 32 23 33 24 34
REMARK SMILES IDX 25 36 26 37 27 38 91 39 28 40 90 41 29 42 30 43 31 44 84 45
REMARK SMILES IDX 32 46 89 47 83 48 85 49 33 50 88 51 82 52 81 53 34 55 68 56
REMARK SMILES IDX 47 57 67 58 48 59 51 60 66 61 86 62 49 63 50 64 65 66 87 67
REMARK SMILES IDX 52 68 35 69 36 70 45 71 37 72 38 73 44 74 46 75 39 76 40 77
REMARK SMILES IDX 41 78 42 79 43 80 69 81 70 82 79 83 71 84 72 85 78 86 80 87
REMARK SMILES IDX 73 88 74 89 75 90 76 91 77 92 53 93 54 94 63 95 55 96 56 97
REMARK SMILES IDX 62 98 64 99 57 100 58 101 59 102 60 103 61 104
REMARK H PARENT 19 5 8 14 23 35 85 54 51 65
REMARK Flexibility Score: inf
ROOT
ATOM      1  C   UNL A   1      32.531  30.355  27.139  1.00  0.00     0.118 C 
ENDROOT
BRANCH   1   2
ATOM      2  N   UNL A   1      32.102  29.008  27.506  1.00  0.00    -0.352 N 
ATOM      3  C   UNL A   1      31.671  27.942  26.749  1.00  0.00     0.253 C 
ATOM      4  O   UNL A   1      31.388  26.891  27.316  1.00  0.00    -0.269 OA
ATOM      5  H   UNL A   1      32.124  28.829  28.474  1.00  0.00     0.163 HD
BRANCH   3   6
ATOM      6  C   UNL A   1      31.574  28.013  25.279  1.00  0.00     0.071 A 
ATOM      7  C   UNL A   1      31.024  26.985  24.516  1.00  0.00     0.141 A 
ATOM      8  N   UNL A   1      31.009  27.001  23.144  1.00  0.00    -0.250 NA
ATOM      9  C   UNL A   1      31.573  28.051  22.519  1.00  0.00     0.112 A 
ATOM     10  C   UNL A   1      32.166  29.076  24.582  1.00  0.00     0.018 A 
ATOM     11  C   UNL A   1      32.144  29.112  23.190  1.00  0.00     0.021 A 
BRANCH   7  12
ATOM     12  C   UNL A   1      30.589  25.678  25.065  1.00  0.00     0.275 C 
ATOM     13  N   UNL A   1      31.349  24.543  25.085  1.00  0.00    -0.311 N 
ATOM     14  H   UNL A   1      30.838  23.755  25.383  1.00  0.00     0.171 HD
ATOM     15  O   UNL A   1      29.442  25.612  25.524  1.00  0.00    -0.267 OA
BRANCH  13  16
ATOM     16  C   UNL A   1      32.651  24.241  24.788  1.00  0.00     0.110 A 
ATOM     17  C   UNL A   1      33.428  23.831  23.717  1.00  0.00     0.098 A 
ATOM     18  C   UNL A   1      34.788  23.554  24.163  1.00  0.00    -0.017 A 
ATOM     19  S   UNL A   1      33.564  24.459  26.219  1.00  0.00    -0.122 S 
ATOM     20  C   UNL A   1      34.959  23.843  25.503  1.00  0.00     0.011 A 
ATOM     21  C   UNL A   1      35.953  23.077  23.335  1.00  0.00     0.038 C 
ATOM     22  C   UNL A   1      36.212  23.648  26.300  1.00  0.00     0.050 C 
ATOM     23  C   UNL A   1      37.090  22.515  24.218  1.00  0.00     0.008 C 
ATOM     24  C   UNL A   1      37.422  23.501  25.360  1.00  0.00    -0.009 C 
ATOM     25  C   UNL A   1      38.650  23.079  26.159  1.00  0.00     0.008 C 
BRANCH  17  26
ATOM     26  C   UNL A   1      32.982  23.692  22.344  1.00  0.00     0.341 C 
ATOM     27  O   UNL A   1      32.783  24.662  21.610  1.00  0.00    -0.246 OA
BRANCH  26  28
ATOM     28  O   UNL A   1      32.778  22.402  21.973  1.00  0.00    -0.462 OA
BRANCH  28  29
ATOM     29  C   UNL A   1      31.838  21.637  22.745  1.00  0.00     0.230 C 
ATOM     30  C   UNL A   1      32.426  20.431  23.458  1.00  0.00     0.049 C 
ENDBRANCH  28  29
ENDBRANCH  26  28
ENDBRANCH  17  26
ENDBRANCH  13  16
ENDBRANCH   7  12
ENDBRANCH   3   6
ENDBRANCH   1   2
BRANCH   1  31
ATOM     31  C   UNL A   1      33.999  30.645  27.437  1.00  0.00     0.042 C 
BRANCH  31  32
ATOM     32  C   UNL A   1      34.306  32.102  27.702  1.00  0.00     0.118 C 
BRANCH  32  33
ATOM     33  N   UNL A   1      34.135  32.497  29.095  1.00  0.00    -0.352 N 
ATOM     34  C   UNL A   1      34.925  32.134  30.169  1.00  0.00     0.251 C 
ATOM     35  H   UNL A   1      33.372  33.086  29.292  1.00  0.00     0.163 HD
ATOM     36  O   UNL A   1      34.531  32.308  31.316  1.00  0.00    -0.269 OA
BRANCH  34  37
ATOM     37  C   UNL A   1      36.231  31.497  29.903  1.00  0.00     0.039 A 
ATOM     38  C   UNL A   1      37.369  32.275  29.685  1.00  0.00     0.014 A 
ATOM     39  C   UNL A   1      36.325  30.108  29.948  1.00  0.00     0.014 A 
ATOM     40  C   UNL A   1      38.611  31.647  29.605  1.00  0.00     0.010 A 
ATOM     41  C   UNL A   1      37.561  29.506  30.020  1.00  0.00     0.010 A 
ATOM     42  C   UNL A   1      38.711  30.260  29.807  1.00  0.00    -0.014 A 
BRANCH  42  43
ATOM     43  C   UNL A   1      40.029  29.623  29.887  1.00  0.00     0.031 A 
ATOM     44  C   UNL A   1      40.505  29.282  31.264  1.00  0.00     0.074 A 
ATOM     45  C   UNL A   1      40.714  29.169  28.815  1.00  0.00     0.049 A 
ATOM     46  N   UNL A   1      41.565  29.697  31.873  1.00  0.00    -0.248 NA
ATOM     47  C   UNL A   1      39.648  28.428  32.099  1.00  0.00     0.031 C 
ATOM     48  C   UNL A   1      40.293  29.114  27.409  1.00  0.00     0.029 A 
ATOM     49  N   UNL A   1      41.927  28.551  28.784  1.00  0.00    -0.354 N 
ATOM     50  C   UNL A   1      41.621  29.016  33.090  1.00  0.00     0.074 A 
ATOM     51  C   UNL A   1      40.364  28.328  33.220  1.00  0.00     0.031 C 
ATOM     52  C   UNL A   1      41.119  28.297  26.720  1.00  0.00     0.029 A 
ATOM     53  C   UNL A   1      42.226  27.928  27.580  1.00  0.00     0.049 A 
ATOM     54  H   UNL A   1      42.542  28.547  29.554  1.00  0.00     0.167 HD
ATOM     55  C   UNL A   1      42.771  28.947  33.820  1.00  0.00     0.037 A 
ATOM     56  C   UNL A   1      43.301  27.149  27.304  1.00  0.00     0.037 A 
ATOM     57  C   UNL A   1      43.703  29.968  33.412  1.00  0.00     0.049 A 
ATOM     58  C   UNL A   1      44.348  27.484  28.303  1.00  0.00     0.074 A 
ATOM     59  C   UNL A   1      43.660  31.348  33.358  1.00  0.00     0.029 A 
ATOM     60  N   UNL A   1      44.762  29.602  32.616  1.00  0.00    -0.354 N 
ATOM     61  N   UNL A   1      44.950  28.640  28.368  1.00  0.00    -0.248 NA
ATOM     62  C   UNL A   1      44.422  26.672  29.506  1.00  0.00     0.031 C 
ATOM     63  C   UNL A   1      44.334  31.687  32.149  1.00  0.00     0.029 A 
ATOM     64  C   UNL A   1      44.805  30.501  31.581  1.00  0.00     0.049 A 
ATOM     65  H   UNL A   1      45.372  28.843  32.761  1.00  0.00     0.167 HD
ATOM     66  C   UNL A   1      45.106  28.882  29.724  1.00  0.00     0.074 A 
ATOM     67  C   UNL A   1      44.856  27.594  30.369  1.00  0.00     0.031 C 
ATOM     68  C   UNL A   1      45.157  30.153  30.222  1.00  0.00     0.037 A 
BRANCH  55  69
ATOM     69  C   UNL A   1      43.193  27.776  34.679  1.00  0.00     0.058 A 
ATOM     70  C   UNL A   1      43.468  27.985  36.049  1.00  0.00     0.135 A 
ATOM     71  C   UNL A   1      43.622  26.536  34.157  1.00  0.00     0.135 A 
ATOM     72  F   UNL A   1      43.094  29.121  36.659  1.00  0.00    -0.206 F 
ATOM     73  C   UNL A   1      44.206  27.079  36.813  1.00  0.00     0.059 A 
ATOM     74  C   UNL A   1      44.318  25.597  34.915  1.00  0.00     0.059 A 
ATOM     75  F   UNL A   1      43.475  26.216  32.866  1.00  0.00    -0.206 F 
ATOM     76  C   UNL A   1      44.649  25.899  36.226  1.00  0.00     0.060 A 
BRANCH  76  77
ATOM     77  S   UNL A   1      45.720  24.795  37.167  1.00  0.00     0.124 S 
ATOM     78  O   UNL A   1      45.981  23.745  36.190  1.00  0.00    -0.237 OA
ATOM     79  O   UNL A   1      46.846  25.665  37.489  1.00  0.00    -0.237 OA
ATOM     80  O   UNL A   1      44.887  24.411  38.303  1.00  0.00    -0.744 OA
ENDBRANCH  76  77
ENDBRANCH  55  69
BRANCH  56  81
ATOM     81  C   UNL A   1      43.368  25.952  26.429  1.00  0.00     0.058 A 
ATOM     82  C   UNL A   1      44.403  25.797  25.490  1.00  0.00     0.135 A 
ATOM     83  C   UNL A   1      42.587  24.808  26.690  1.00  0.00     0.135 A 
ATOM     84  F   UNL A   1      45.205  26.830  25.193  1.00  0.00    -0.206 F 
ATOM     85  C   UNL A   1      44.685  24.565  24.892  1.00  0.00     0.059 A 
ATOM     86  C   UNL A   1      42.841  23.573  26.096  1.00  0.00     0.059 A 
ATOM     87  F   UNL A   1      41.608  24.833  27.609  1.00  0.00    -0.206 F 
ATOM     88  C   UNL A   1      43.912  23.452  25.220  1.00  0.00     0.060 A 
BRANCH  88  89
ATOM     89  S   UNL A   1      44.399  21.822  24.605  1.00  0.00     0.124 S 
ATOM     90  O   UNL A   1      45.740  21.679  25.158  1.00  0.00    -0.237 OA
ATOM     91  O   UNL A   1      43.374  20.958  25.181  1.00  0.00    -0.237 OA
ATOM     92  O   UNL A   1      44.334  21.975  23.153  1.00  0.00    -0.744 OA
ENDBRANCH  88  89
ENDBRANCH  56  81
BRANCH  68  93
ATOM     93  C   UNL A   1      45.351  31.303  29.264  1.00  0.00     0.058 A 
ATOM     94  C   UNL A   1      46.595  31.722  28.759  1.00  0.00     0.135 A 
ATOM     95  C   UNL A   1      44.206  31.892  28.705  1.00  0.00     0.135 A 
ATOM     96  F   UNL A   1      47.735  31.141  29.155  1.00  0.00    -0.206 F 
ATOM     97  C   UNL A   1      46.695  32.709  27.775  1.00  0.00     0.059 A 
ATOM     98  C   UNL A   1      44.280  32.852  27.700  1.00  0.00     0.059 A 
ATOM     99  F   UNL A   1      42.984  31.492  29.098  1.00  0.00    -0.206 F 
ATOM    100  C   UNL A   1      45.531  33.266  27.248  1.00  0.00     0.060 A 
BRANCH 100 101
ATOM    101  S   UNL A   1      45.657  34.477  25.914  1.00  0.00     0.124 S 
ATOM    102  O   UNL A   1      44.737  35.519  26.359  1.00  0.00    -0.237 OA
ATOM    103  O   UNL A   1      47.074  34.830  25.936  1.00  0.00    -0.237 OA
ATOM    104  O   UNL A   1      45.229  33.731  24.733  1.00  0.00    -0.744 OA
ENDBRANCH 100 101
ENDBRANCH  68  93
ENDBRANCH  42  43
ENDBRANCH  34  37
ENDBRANCH  32  33
ENDBRANCH  31  32
ENDBRANCH   1  31
TORSDOF 18
ENDMDL
