MODEL 1
REMARK VINA RESULT:     -12.0      0.000      0.000
REMARK SMILES O=C(NCCCNC(=O)c1cccc(CSc2nc(-c3ccccc3)n[nH]2)c1)c1ccc(-c2c3nc(c(-c4c(F)cc(S(=O)(=O)[O-])cc4F)c4ccc([nH]4)c(-c4c(F)cc(S(=O)(=O)[O-])cc4F)c4nc(c(-c5c(F)cc(S(=O)(=O)[O-])cc5F)c5ccc2[nH]5)C=C4)C=C3)cc1
REMARK SMILES IDX 5 1 4 2 3 3 1 4 2 5 29 7 30 8 94 9 31 10 93 11 32 12 33 13
REMARK SMILES IDX 34 14 87 15 35 16 92 17 86 18 88 19 36 20 91 21 85 22 84 23
REMARK SMILES IDX 37 25 71 26 50 27 70 28 51 29 54 30 69 31 89 32 52 33 53 34
REMARK SMILES IDX 68 36 90 37 55 38 38 39 39 40 48 41 40 42 41 43 47 44 49 45
REMARK SMILES IDX 42 46 43 47 44 48 45 49 46 50 72 51 73 52 82 53 74 54 75 55
REMARK SMILES IDX 81 56 83 57 76 58 77 59 78 60 79 61 80 62 56 63 57 64 66 65
REMARK SMILES IDX 58 66 59 67 65 68 67 69 60 70 61 71 62 72 63 73 64 74 6 75
REMARK SMILES IDX 7 76 8 77 9 79 10 80 11 81 28 82 12 83 14 84 13 85 15 86
REMARK SMILES IDX 16 87 17 88 18 89 27 90 19 91 26 92 20 94 21 95 25 96 22 97
REMARK SMILES IDX 24 98 23 99
REMARK H PARENT 3 6 88 24 54 35 7 78 27 93
REMARK Flexibility Score: inf
ROOT
ATOM      1  C   UNL A   1      44.759  24.207  27.892  1.00  0.00     0.042 C 
ENDROOT
BRANCH   1   2
ATOM      2  C   UNL A   1      43.360  23.721  27.547  1.00  0.00     0.118 C 
BRANCH   2   3
ATOM      3  N   UNL A   1      42.834  24.330  26.331  1.00  0.00    -0.352 N 
ATOM      4  O   UNL A   1      41.571  25.685  25.058  1.00  0.00    -0.269 OA
ATOM      5  C   UNL A   1      42.056  25.449  26.163  1.00  0.00     0.251 C 
ATOM      6  H   UNL A   1      43.076  23.863  25.499  1.00  0.00     0.163 HD
BRANCH   5   7
ATOM      7  C   UNL A   1      41.780  26.353  27.300  1.00  0.00     0.039 A 
ATOM      8  C   UNL A   1      42.500  27.538  27.467  1.00  0.00     0.014 A 
ATOM      9  C   UNL A   1      40.766  26.023  28.204  1.00  0.00     0.014 A 
ATOM     10  C   UNL A   1      42.325  28.300  28.616  1.00  0.00     0.010 A 
ATOM     11  C   UNL A   1      40.521  26.847  29.308  1.00  0.00     0.010 A 
ATOM     12  C   UNL A   1      41.323  27.974  29.542  1.00  0.00    -0.014 A 
BRANCH  12  13
ATOM     13  C   UNL A   1      41.097  28.858  30.714  1.00  0.00     0.031 A 
ATOM     14  C   UNL A   1      41.982  28.784  31.928  1.00  0.00     0.074 A 
ATOM     15  C   UNL A   1      40.091  29.755  30.662  1.00  0.00     0.049 A 
ATOM     16  N   UNL A   1      41.919  29.481  33.034  1.00  0.00    -0.248 NA
ATOM     17  C   UNL A   1      43.071  27.796  31.903  1.00  0.00     0.031 C 
ATOM     18  C   UNL A   1      39.161  29.912  29.540  1.00  0.00     0.029 A 
ATOM     19  N   UNL A   1      39.689  30.709  31.560  1.00  0.00    -0.354 N 
ATOM     20  C   UNL A   1      42.943  29.004  33.845  1.00  0.00     0.074 A 
ATOM     21  C   UNL A   1      43.598  27.941  33.112  1.00  0.00     0.031 C 
ATOM     22  C   UNL A   1      38.326  30.928  29.798  1.00  0.00     0.029 A 
ATOM     23  C   UNL A   1      38.616  31.452  31.127  1.00  0.00     0.049 A 
ATOM     24  H   UNL A   1      40.126  30.848  32.431  1.00  0.00     0.167 HD
ATOM     25  C   UNL A   1      43.307  29.422  35.082  1.00  0.00     0.037 A 
ATOM     26  C   UNL A   1      37.926  32.433  31.738  1.00  0.00     0.037 A 
ATOM     27  C   UNL A   1      42.658  30.493  35.797  1.00  0.00     0.049 A 
ATOM     28  C   UNL A   1      38.338  32.865  33.114  1.00  0.00     0.074 A 
ATOM     29  C   UNL A   1      42.972  31.011  37.042  1.00  0.00     0.029 A 
ATOM     30  N   UNL A   1      41.563  31.207  35.333  1.00  0.00    -0.354 N 
ATOM     31  N   UNL A   1      39.324  32.418  33.856  1.00  0.00    -0.248 NA
ATOM     32  C   UNL A   1      37.544  33.929  33.741  1.00  0.00     0.031 C 
ATOM     33  C   UNL A   1      42.041  32.010  37.347  1.00  0.00     0.029 A 
ATOM     34  C   UNL A   1      41.176  32.149  36.274  1.00  0.00     0.049 A 
ATOM     35  H   UNL A   1      41.124  31.067  34.463  1.00  0.00     0.167 HD
ATOM     36  C   UNL A   1      39.279  33.158  35.031  1.00  0.00     0.074 A 
ATOM     37  C   UNL A   1      38.178  34.092  34.895  1.00  0.00     0.031 C 
ATOM     38  C   UNL A   1      40.077  33.070  36.123  1.00  0.00     0.037 A 
BRANCH  25  39
ATOM     39  C   UNL A   1      44.447  28.706  35.755  1.00  0.00     0.058 A 
ATOM     40  C   UNL A   1      44.233  27.609  36.606  1.00  0.00     0.135 A 
ATOM     41  C   UNL A   1      45.775  29.098  35.518  1.00  0.00     0.135 A 
ATOM     42  F   UNL A   1      42.984  27.198  36.878  1.00  0.00    -0.206 F 
ATOM     43  C   UNL A   1      45.292  26.948  37.221  1.00  0.00     0.059 A 
ATOM     44  C   UNL A   1      46.851  28.436  36.103  1.00  0.00     0.059 A 
ATOM     45  F   UNL A   1      46.037  30.139  34.711  1.00  0.00    -0.206 F 
ATOM     46  C   UNL A   1      46.598  27.371  36.966  1.00  0.00     0.060 A 
BRANCH  46  47
ATOM     47  S   UNL A   1      47.960  26.510  37.780  1.00  0.00     0.124 S 
ATOM     48  O   UNL A   1      48.572  27.592  38.547  1.00  0.00    -0.237 OA
ATOM     49  O   UNL A   1      47.265  25.495  38.565  1.00  0.00    -0.237 OA
ATOM     50  O   UNL A   1      48.755  26.002  36.667  1.00  0.00    -0.744 OA
ENDBRANCH  46  47
ENDBRANCH  25  39
BRANCH  26  51
ATOM     51  C   UNL A   1      36.774  33.060  31.041  1.00  0.00     0.058 A 
ATOM     52  C   UNL A   1      35.457  32.793  31.437  1.00  0.00     0.135 A 
ATOM     53  C   UNL A   1      36.971  33.974  29.994  1.00  0.00     0.135 A 
ATOM     54  F   UNL A   1      35.218  31.923  32.431  1.00  0.00    -0.206 F 
ATOM     55  C   UNL A   1      34.373  33.406  30.817  1.00  0.00     0.059 A 
ATOM     56  C   UNL A   1      35.907  34.620  29.376  1.00  0.00     0.059 A 
ATOM     57  F   UNL A   1      38.215  34.277  29.591  1.00  0.00    -0.206 F 
ATOM     58  C   UNL A   1      34.609  34.322  29.790  1.00  0.00     0.060 A 
BRANCH  58  59
ATOM     59  S   UNL A   1      33.200  35.163  29.036  1.00  0.00     0.124 S 
ATOM     60  O   UNL A   1      32.743  34.165  28.077  1.00  0.00    -0.237 OA
ATOM     61  O   UNL A   1      32.328  35.393  30.183  1.00  0.00    -0.237 OA
ATOM     62  O   UNL A   1      33.796  36.365  28.461  1.00  0.00    -0.744 OA
ENDBRANCH  58  59
ENDBRANCH  26  51
BRANCH  38  63
ATOM     63  C   UNL A   1      39.805  34.027  37.249  1.00  0.00     0.058 A 
ATOM     64  C   UNL A   1      39.034  33.657  38.361  1.00  0.00     0.135 A 
ATOM     65  C   UNL A   1      40.356  35.318  37.232  1.00  0.00     0.135 A 
ATOM     66  F   UNL A   1      38.477  32.436  38.420  1.00  0.00    -0.206 F 
ATOM     67  C   UNL A   1      38.801  34.539  39.410  1.00  0.00     0.059 A 
ATOM     68  C   UNL A   1      40.157  36.210  38.281  1.00  0.00     0.059 A 
ATOM     69  F   UNL A   1      41.108  35.720  36.194  1.00  0.00    -0.206 F 
ATOM     70  C   UNL A   1      39.368  35.815  39.360  1.00  0.00     0.060 A 
BRANCH  70  71
ATOM     71  S   UNL A   1      39.087  36.943  40.742  1.00  0.00     0.124 S 
ATOM     72  O   UNL A   1      38.279  37.981  40.114  1.00  0.00    -0.237 OA
ATOM     73  O   UNL A   1      38.392  36.093  41.704  1.00  0.00    -0.237 OA
ATOM     74  O   UNL A   1      40.435  37.344  41.132  1.00  0.00    -0.744 OA
ENDBRANCH  70  71
ENDBRANCH  38  63
ENDBRANCH  12  13
ENDBRANCH   5   7
ENDBRANCH   2   3
ENDBRANCH   1   2
BRANCH   1  75
ATOM     75  C   UNL A   1      45.871  23.391  27.250  1.00  0.00     0.118 C 
BRANCH  75  76
ATOM     76  N   UNL A   1      45.985  23.633  25.817  1.00  0.00    -0.352 N 
ATOM     77  C   UNL A   1      45.896  22.753  24.766  1.00  0.00     0.251 C 
ATOM     78  H   UNL A   1      46.150  24.570  25.564  1.00  0.00     0.163 HD
ATOM     79  O   UNL A   1      46.186  23.118  23.631  1.00  0.00    -0.269 OA
BRANCH  77  80
ATOM     80  C   UNL A   1      45.441  21.368  24.999  1.00  0.00     0.040 A 
ATOM     81  C   UNL A   1      46.365  20.323  24.959  1.00  0.00     0.014 A 
ATOM     82  C   UNL A   1      44.088  21.099  25.212  1.00  0.00     0.018 A 
ATOM     83  C   UNL A   1      45.937  19.018  25.206  1.00  0.00     0.001 A 
ATOM     84  C   UNL A   1      43.653  19.799  25.492  1.00  0.00    -0.037 A 
ATOM     85  C   UNL A   1      44.592  18.760  25.490  1.00  0.00     0.004 A 
BRANCH  84  86
ATOM     86  C   UNL A   1      42.193  19.560  25.782  1.00  0.00     0.113 C 
BRANCH  86  87
ATOM     87  S   UNL A   1      41.609  20.351  27.302  1.00  0.00    -0.082 SA
BRANCH  87  88
ATOM     88  C   UNL A   1      40.271  21.275  26.744  1.00  0.00     0.184 A 
ATOM     89  N   UNL A   1      39.261  20.927  25.987  1.00  0.00    -0.201 NA
ATOM     90  N   UNL A   1      40.147  22.575  27.107  1.00  0.00    -0.254 N 
ATOM     91  C   UNL A   1      38.510  22.085  25.919  1.00  0.00     0.182 A 
ATOM     92  N   UNL A   1      39.054  23.132  26.566  1.00  0.00    -0.153 NA
ATOM     93  H   UNL A   1      40.780  23.051  27.692  1.00  0.00     0.192 HD
BRANCH  91  94
ATOM     94  C   UNL A   1      37.240  22.162  25.214  1.00  0.00     0.021 A 
ATOM     95  C   UNL A   1      36.897  23.322  24.505  1.00  0.00     0.012 A 
ATOM     96  C   UNL A   1      36.330  21.099  25.264  1.00  0.00     0.012 A 
ATOM     97  C   UNL A   1      35.665  23.417  23.854  1.00  0.00     0.001 A 
ATOM     98  C   UNL A   1      35.091  21.201  24.625  1.00  0.00     0.001 A 
ATOM     99  C   UNL A   1      34.760  22.358  23.919  1.00  0.00     0.000 A 
ENDBRANCH  91  94
ENDBRANCH  87  88
ENDBRANCH  86  87
ENDBRANCH  84  86
ENDBRANCH  77  80
ENDBRANCH  75  76
ENDBRANCH   1  75
TORSDOF 17
ENDMDL
MODEL 2
REMARK VINA RESULT:     -11.8      2.936      5.700
REMARK SMILES O=C(NCCCNC(=O)c1cccc(CSc2nc(-c3ccccc3)n[nH]2)c1)c1ccc(-c2c3nc(c(-c4c(F)cc(S(=O)(=O)[O-])cc4F)c4ccc([nH]4)c(-c4c(F)cc(S(=O)(=O)[O-])cc4F)c4nc(c(-c5c(F)cc(S(=O)(=O)[O-])cc5F)c5ccc2[nH]5)C=C4)C=C3)cc1
REMARK SMILES IDX 5 1 4 2 3 3 1 4 2 5 29 7 30 8 94 9 31 10 93 11 32 12 33 13
REMARK SMILES IDX 34 14 87 15 35 16 92 17 86 18 88 19 36 20 91 21 85 22 84 23
REMARK SMILES IDX 37 25 71 26 50 27 70 28 51 29 54 30 69 31 89 32 52 33 53 34
REMARK SMILES IDX 68 36 90 37 55 38 38 39 39 40 48 41 40 42 41 43 47 44 49 45
REMARK SMILES IDX 42 46 43 47 44 48 45 49 46 50 72 51 73 52 82 53 74 54 75 55
REMARK SMILES IDX 81 56 83 57 76 58 77 59 78 60 79 61 80 62 56 63 57 64 66 65
REMARK SMILES IDX 58 66 59 67 65 68 67 69 60 70 61 71 62 72 63 73 64 74 6 75
REMARK SMILES IDX 7 76 8 77 9 79 10 80 11 81 28 82 12 83 14 84 13 85 15 86
REMARK SMILES IDX 16 87 17 88 18 89 27 90 19 91 26 92 20 94 21 95 25 96 22 97
REMARK SMILES IDX 24 98 23 99
REMARK H PARENT 3 6 88 24 54 35 7 78 27 93
REMARK Flexibility Score: inf
ROOT
ATOM      1  C   UNL A   1      37.974  22.683  26.042  1.00  0.00     0.042 C 
ENDROOT
BRANCH   1   2
ATOM      2  C   UNL A   1      38.739  23.885  26.572  1.00  0.00     0.118 C 
BRANCH   2   3
ATOM      3  N   UNL A   1      40.119  23.929  26.104  1.00  0.00    -0.352 N 
ATOM      4  O   UNL A   1      42.174  24.770  25.751  1.00  0.00    -0.269 OA
ATOM      5  C   UNL A   1      41.130  24.810  26.401  1.00  0.00     0.251 C 
ATOM      6  H   UNL A   1      40.363  23.213  25.474  1.00  0.00     0.163 HD
BRANCH   5   7
ATOM      7  C   UNL A   1      40.964  25.814  27.473  1.00  0.00     0.039 A 
ATOM      8  C   UNL A   1      41.777  26.948  27.527  1.00  0.00     0.014 A 
ATOM      9  C   UNL A   1      39.961  25.632  28.429  1.00  0.00     0.014 A 
ATOM     10  C   UNL A   1      41.702  27.804  28.620  1.00  0.00     0.010 A 
ATOM     11  C   UNL A   1      39.818  26.552  29.474  1.00  0.00     0.010 A 
ATOM     12  C   UNL A   1      40.712  27.627  29.597  1.00  0.00    -0.014 A 
BRANCH  12  13
ATOM     13  C   UNL A   1      40.595  28.611  30.704  1.00  0.00     0.031 A 
ATOM     14  C   UNL A   1      41.505  28.549  31.900  1.00  0.00     0.074 A 
ATOM     15  C   UNL A   1      39.668  29.585  30.608  1.00  0.00     0.049 A 
ATOM     16  N   UNL A   1      41.533  29.327  32.952  1.00  0.00    -0.248 NA
ATOM     17  C   UNL A   1      42.505  27.471  31.925  1.00  0.00     0.031 C 
ATOM     18  C   UNL A   1      38.722  29.740  29.499  1.00  0.00     0.029 A 
ATOM     19  N   UNL A   1      39.374  30.633  31.441  1.00  0.00    -0.354 N 
ATOM     20  C   UNL A   1      42.536  28.824  33.773  1.00  0.00     0.074 A 
ATOM     21  C   UNL A   1      43.077  27.657  33.108  1.00  0.00     0.031 C 
ATOM     22  C   UNL A   1      37.983  30.840  29.698  1.00  0.00     0.029 A 
ATOM     23  C   UNL A   1      38.355  31.432  30.978  1.00  0.00     0.049 A 
ATOM     24  H   UNL A   1      39.846  30.796  32.289  1.00  0.00     0.167 HD
ATOM     25  C   UNL A   1      42.970  29.297  34.967  1.00  0.00     0.037 A 
ATOM     26  C   UNL A   1      37.769  32.512  31.528  1.00  0.00     0.037 A 
ATOM     27  C   UNL A   1      42.434  30.470  35.614  1.00  0.00     0.049 A 
ATOM     28  C   UNL A   1      38.254  33.005  32.859  1.00  0.00     0.074 A 
ATOM     29  C   UNL A   1      42.826  31.048  36.809  1.00  0.00     0.029 A 
ATOM     30  N   UNL A   1      41.390  31.241  35.123  1.00  0.00    -0.354 N 
ATOM     31  N   UNL A   1      39.220  32.530  33.609  1.00  0.00    -0.248 NA
ATOM     32  C   UNL A   1      37.572  34.177  33.421  1.00  0.00     0.031 C 
ATOM     33  C   UNL A   1      41.993  32.144  37.060  1.00  0.00     0.029 A 
ATOM     34  C   UNL A   1      41.112  32.278  35.999  1.00  0.00     0.049 A 
ATOM     35  H   UNL A   1      40.917  31.075  34.275  1.00  0.00     0.167 HD
ATOM     36  C   UNL A   1      39.272  33.354  34.726  1.00  0.00     0.074 A 
ATOM     37  C   UNL A   1      38.251  34.367  34.545  1.00  0.00     0.031 C 
ATOM     38  C   UNL A   1      40.091  33.277  35.804  1.00  0.00     0.037 A 
BRANCH  25  39
ATOM     39  C   UNL A   1      44.064  28.536  35.666  1.00  0.00     0.058 A 
ATOM     40  C   UNL A   1      45.421  28.805  35.427  1.00  0.00     0.135 A 
ATOM     41  C   UNL A   1      43.752  27.549  36.615  1.00  0.00     0.135 A 
ATOM     42  F   UNL A   1      45.778  29.730  34.521  1.00  0.00    -0.206 F 
ATOM     43  C   UNL A   1      46.429  28.101  36.081  1.00  0.00     0.059 A 
ATOM     44  C   UNL A   1      44.742  26.850  37.299  1.00  0.00     0.059 A 
ATOM     45  F   UNL A   1      42.470  27.253  36.884  1.00  0.00    -0.206 F 
ATOM     46  C   UNL A   1      46.079  27.122  37.013  1.00  0.00     0.060 A 
BRANCH  46  47
ATOM     47  S   UNL A   1      47.397  26.211  37.845  1.00  0.00     0.124 S 
ATOM     48  O   UNL A   1      47.279  24.896  37.220  1.00  0.00    -0.237 OA
ATOM     49  O   UNL A   1      48.585  26.978  37.484  1.00  0.00    -0.237 OA
ATOM     50  O   UNL A   1      47.018  26.273  39.252  1.00  0.00    -0.744 OA
ENDBRANCH  46  47
ENDBRANCH  25  39
BRANCH  26  51
ATOM     51  C   UNL A   1      36.654  33.183  30.812  1.00  0.00     0.058 A 
ATOM     52  C   UNL A   1      35.319  32.935  31.157  1.00  0.00     0.135 A 
ATOM     53  C   UNL A   1      36.906  34.121  29.798  1.00  0.00     0.135 A 
ATOM     54  F   UNL A   1      35.028  32.044  32.118  1.00  0.00    -0.206 F 
ATOM     55  C   UNL A   1      34.269  33.589  30.520  1.00  0.00     0.059 A 
ATOM     56  C   UNL A   1      35.876  34.807  29.165  1.00  0.00     0.059 A 
ATOM     57  F   UNL A   1      38.169  34.407  29.445  1.00  0.00    -0.206 F 
ATOM     58  C   UNL A   1      34.559  34.528  29.528  1.00  0.00     0.060 A 
BRANCH  58  59
ATOM     59  S   UNL A   1      33.194  35.420  28.752  1.00  0.00     0.124 S 
ATOM     60  O   UNL A   1      33.907  36.340  27.875  1.00  0.00    -0.237 OA
ATOM     61  O   UNL A   1      32.460  34.346  28.092  1.00  0.00    -0.237 OA
ATOM     62  O   UNL A   1      32.508  36.032  29.886  1.00  0.00    -0.744 OA
ENDBRANCH  58  59
ENDBRANCH  26  51
BRANCH  38  63
ATOM     63  C   UNL A   1      39.933  34.334  36.860  1.00  0.00     0.058 A 
ATOM     64  C   UNL A   1      40.565  35.583  36.753  1.00  0.00     0.135 A 
ATOM     65  C   UNL A   1      39.109  34.108  37.974  1.00  0.00     0.135 A 
ATOM     66  F   UNL A   1      41.371  35.844  35.711  1.00  0.00    -0.206 F 
ATOM     67  C   UNL A   1      40.401  36.565  37.723  1.00  0.00     0.059 A 
ATOM     68  C   UNL A   1      38.911  35.084  38.945  1.00  0.00     0.059 A 
ATOM     69  F   UNL A   1      38.476  32.933  38.120  1.00  0.00    -0.206 F 
ATOM     70  C   UNL A   1      39.571  36.306  38.816  1.00  0.00     0.060 A 
BRANCH  70  71
ATOM     71  S   UNL A   1      39.339  37.600  40.054  1.00  0.00     0.124 S 
ATOM     72  O   UNL A   1      39.160  36.814  41.270  1.00  0.00    -0.237 OA
ATOM     73  O   UNL A   1      40.588  38.349  39.962  1.00  0.00    -0.237 OA
ATOM     74  O   UNL A   1      38.154  38.310  39.584  1.00  0.00    -0.744 OA
ENDBRANCH  70  71
ENDBRANCH  38  63
ENDBRANCH  12  13
ENDBRANCH   5   7
ENDBRANCH   2   3
ENDBRANCH   1   2
BRANCH   1  75
ATOM     75  C   UNL A   1      36.531  22.985  25.668  1.00  0.00     0.118 C 
BRANCH  75  76
ATOM     76  N   UNL A   1      35.599  22.678  26.746  1.00  0.00    -0.352 N 
ATOM     77  C   UNL A   1      34.236  22.514  26.711  1.00  0.00     0.251 C 
ATOM     78  H   UNL A   1      36.009  22.573  27.634  1.00  0.00     0.163 HD
ATOM     79  O   UNL A   1      33.600  22.424  27.757  1.00  0.00    -0.269 OA
BRANCH  77  80
ATOM     80  C   UNL A   1      33.534  22.437  25.415  1.00  0.00     0.040 A 
ATOM     81  C   UNL A   1      33.389  21.202  24.782  1.00  0.00     0.014 A 
ATOM     82  C   UNL A   1      33.056  23.597  24.804  1.00  0.00     0.018 A 
ATOM     83  C   UNL A   1      32.701  21.128  23.570  1.00  0.00     0.001 A 
ATOM     84  C   UNL A   1      32.338  23.532  23.606  1.00  0.00    -0.037 A 
ATOM     85  C   UNL A   1      32.161  22.283  22.994  1.00  0.00     0.004 A 
BRANCH  84  86
ATOM     86  C   UNL A   1      31.781  24.801  23.012  1.00  0.00     0.113 C 
BRANCH  86  87
ATOM     87  S   UNL A   1      30.383  25.489  23.934  1.00  0.00    -0.082 SA
BRANCH  87  88
ATOM     88  C   UNL A   1      31.031  26.965  24.533  1.00  0.00     0.184 A 
ATOM     89  N   UNL A   1      31.981  27.177  25.407  1.00  0.00    -0.201 NA
ATOM     90  N   UNL A   1      30.557  28.148  24.072  1.00  0.00    -0.254 N 
ATOM     91  C   UNL A   1      32.067  28.555  25.445  1.00  0.00     0.182 A 
ATOM     92  N   UNL A   1      31.171  29.184  24.662  1.00  0.00    -0.153 NA
ATOM     93  H   UNL A   1      29.851  28.237  23.391  1.00  0.00     0.192 HD
BRANCH  91  94
ATOM     94  C   UNL A   1      33.045  29.264  26.257  1.00  0.00     0.021 A 
ATOM     95  C   UNL A   1      34.295  28.684  26.518  1.00  0.00     0.012 A 
ATOM     96  C   UNL A   1      32.740  30.510  26.817  1.00  0.00     0.012 A 
ATOM     97  C   UNL A   1      35.227  29.343  27.325  1.00  0.00     0.001 A 
ATOM     98  C   UNL A   1      33.667  31.161  27.636  1.00  0.00     0.001 A 
ATOM     99  C   UNL A   1      34.909  30.578  27.887  1.00  0.00     0.000 A 
ENDBRANCH  91  94
ENDBRANCH  87  88
ENDBRANCH  86  87
ENDBRANCH  84  86
ENDBRANCH  77  80
ENDBRANCH  75  76
ENDBRANCH   1  75
TORSDOF 17
ENDMDL
MODEL 3
REMARK VINA RESULT:     -11.7      6.647     13.457
REMARK SMILES O=C(NCCCNC(=O)c1cccc(CSc2nc(-c3ccccc3)n[nH]2)c1)c1ccc(-c2c3nc(c(-c4c(F)cc(S(=O)(=O)[O-])cc4F)c4ccc([nH]4)c(-c4c(F)cc(S(=O)(=O)[O-])cc4F)c4nc(c(-c5c(F)cc(S(=O)(=O)[O-])cc5F)c5ccc2[nH]5)C=C4)C=C3)cc1
REMARK SMILES IDX 5 1 4 2 3 3 1 4 2 5 29 7 30 8 94 9 31 10 93 11 32 12 33 13
REMARK SMILES IDX 34 14 87 15 35 16 92 17 86 18 88 19 36 20 91 21 85 22 84 23
REMARK SMILES IDX 37 25 71 26 50 27 70 28 51 29 54 30 69 31 89 32 52 33 53 34
REMARK SMILES IDX 68 36 90 37 55 38 38 39 39 40 48 41 40 42 41 43 47 44 49 45
REMARK SMILES IDX 42 46 43 47 44 48 45 49 46 50 72 51 73 52 82 53 74 54 75 55
REMARK SMILES IDX 81 56 83 57 76 58 77 59 78 60 79 61 80 62 56 63 57 64 66 65
REMARK SMILES IDX 58 66 59 67 65 68 67 69 60 70 61 71 62 72 63 73 64 74 6 75
REMARK SMILES IDX 7 76 8 77 9 79 10 80 11 81 28 82 12 83 14 84 13 85 15 86
REMARK SMILES IDX 16 87 17 88 18 89 27 90 19 91 26 92 20 94 21 95 25 96 22 97
REMARK SMILES IDX 24 98 23 99
REMARK H PARENT 3 6 88 24 54 35 7 78 27 93
REMARK Flexibility Score: inf
ROOT
ATOM      1  C   UNL A   1      36.520  34.142  29.808  1.00  0.00     0.042 C 
ENDROOT
BRANCH   1   2
ATOM      2  C   UNL A   1      37.323  33.241  30.734  1.00  0.00     0.118 C 
BRANCH   2   3
ATOM      3  N   UNL A   1      36.573  32.070  31.173  1.00  0.00    -0.352 N 
ATOM      4  O   UNL A   1      35.984  29.905  31.314  1.00  0.00    -0.269 OA
ATOM      5  C   UNL A   1      36.847  30.732  31.024  1.00  0.00     0.251 C 
ATOM      6  H   UNL A   1      35.738  32.271  31.654  1.00  0.00     0.163 HD
BRANCH   5   7
ATOM      7  C   UNL A   1      38.155  30.285  30.498  1.00  0.00     0.039 A 
ATOM      8  C   UNL A   1      39.163  29.847  31.359  1.00  0.00     0.014 A 
ATOM      9  C   UNL A   1      38.368  30.278  29.117  1.00  0.00     0.014 A 
ATOM     10  C   UNL A   1      40.430  29.568  30.858  1.00  0.00     0.010 A 
ATOM     11  C   UNL A   1      39.614  29.898  28.606  1.00  0.00     0.010 A 
ATOM     12  C   UNL A   1      40.666  29.573  29.476  1.00  0.00    -0.014 A 
BRANCH  12  13
ATOM     13  C   UNL A   1      42.004  29.180  28.963  1.00  0.00     0.031 A 
ATOM     14  C   UNL A   1      43.144  30.160  28.932  1.00  0.00     0.074 A 
ATOM     15  C   UNL A   1      42.189  27.911  28.546  1.00  0.00     0.049 A 
ATOM     16  N   UNL A   1      44.372  29.979  28.514  1.00  0.00    -0.248 NA
ATOM     17  C   UNL A   1      42.873  31.520  29.423  1.00  0.00     0.031 C 
ATOM     18  C   UNL A   1      41.153  26.874  28.521  1.00  0.00     0.029 A 
ATOM     19  N   UNL A   1      43.307  27.272  28.077  1.00  0.00    -0.354 N 
ATOM     20  C   UNL A   1      45.013  31.203  28.670  1.00  0.00     0.074 A 
ATOM     21  C   UNL A   1      44.032  32.126  29.199  1.00  0.00     0.031 C 
ATOM     22  C   UNL A   1      41.692  25.721  28.102  1.00  0.00     0.029 A 
ATOM     23  C   UNL A   1      43.093  25.950  27.767  1.00  0.00     0.049 A 
ATOM     24  H   UNL A   1      44.178  27.717  27.972  1.00  0.00     0.167 HD
ATOM     25  C   UNL A   1      46.303  31.522  28.404  1.00  0.00     0.037 A 
ATOM     26  C   UNL A   1      43.924  25.025  27.250  1.00  0.00     0.037 A 
ATOM     27  C   UNL A   1      47.277  30.590  27.891  1.00  0.00     0.049 A 
ATOM     28  C   UNL A   1      45.342  25.408  26.947  1.00  0.00     0.074 A 
ATOM     29  C   UNL A   1      48.617  30.808  27.618  1.00  0.00     0.029 A 
ATOM     30  N   UNL A   1      47.017  29.265  27.571  1.00  0.00    -0.354 N 
ATOM     31  N   UNL A   1      45.937  26.565  27.124  1.00  0.00    -0.248 NA
ATOM     32  C   UNL A   1      46.202  24.367  26.372  1.00  0.00     0.031 C 
ATOM     33  C   UNL A   1      49.155  29.628  27.095  1.00  0.00     0.029 A 
ATOM     34  C   UNL A   1      48.165  28.659  27.086  1.00  0.00     0.049 A 
ATOM     35  H   UNL A   1      46.144  28.821  27.674  1.00  0.00     0.167 HD
ATOM     36  C   UNL A   1      47.246  26.386  26.696  1.00  0.00     0.074 A 
ATOM     37  C   UNL A   1      47.360  25.006  26.267  1.00  0.00     0.031 C 
ATOM     38  C   UNL A   1      48.261  27.284  26.661  1.00  0.00     0.037 A 
BRANCH  25  39
ATOM     39  C   UNL A   1      46.736  32.944  28.641  1.00  0.00     0.058 A 
ATOM     40  C   UNL A   1      47.266  33.361  29.873  1.00  0.00     0.135 A 
ATOM     41  C   UNL A   1      46.652  33.896  27.612  1.00  0.00     0.135 A 
ATOM     42  F   UNL A   1      47.358  32.497  30.896  1.00  0.00    -0.206 F 
ATOM     43  C   UNL A   1      47.669  34.676  30.084  1.00  0.00     0.059 A 
ATOM     44  C   UNL A   1      47.072  35.211  27.792  1.00  0.00     0.059 A 
ATOM     45  F   UNL A   1      46.154  33.551  26.413  1.00  0.00    -0.206 F 
ATOM     46  C   UNL A   1      47.564  35.596  29.038  1.00  0.00     0.060 A 
BRANCH  46  47
ATOM     47  S   UNL A   1      48.081  37.300  29.331  1.00  0.00     0.124 S 
ATOM     48  O   UNL A   1      49.419  37.303  28.746  1.00  0.00    -0.237 OA
ATOM     49  O   UNL A   1      47.072  38.064  28.603  1.00  0.00    -0.237 OA
ATOM     50  O   UNL A   1      48.031  37.426  30.783  1.00  0.00    -0.744 OA
ENDBRANCH  46  47
ENDBRANCH  25  39
BRANCH  26  51
ATOM     51  C   UNL A   1      43.418  23.653  26.986  1.00  0.00     0.058 A 
ATOM     52  C   UNL A   1      43.152  23.219  25.680  1.00  0.00     0.135 A 
ATOM     53  C   UNL A   1      43.234  22.736  28.032  1.00  0.00     0.135 A 
ATOM     54  F   UNL A   1      43.309  24.062  24.647  1.00  0.00    -0.206 F 
ATOM     55  C   UNL A   1      42.717  21.924  25.419  1.00  0.00     0.059 A 
ATOM     56  C   UNL A   1      42.826  21.428  27.795  1.00  0.00     0.059 A 
ATOM     57  F   UNL A   1      43.494  23.098  29.298  1.00  0.00    -0.206 F 
ATOM     58  C   UNL A   1      42.562  21.035  26.484  1.00  0.00     0.060 A 
BRANCH  58  59
ATOM     59  S   UNL A   1      42.060  19.336  26.129  1.00  0.00     0.124 S 
ATOM     60  O   UNL A   1      42.457  18.652  27.354  1.00  0.00    -0.237 OA
ATOM     61  O   UNL A   1      40.624  19.478  25.913  1.00  0.00    -0.237 OA
ATOM     62  O   UNL A   1      42.835  19.001  24.938  1.00  0.00    -0.744 OA
ENDBRANCH  58  59
ENDBRANCH  26  51
BRANCH  38  63
ATOM     63  C   UNL A   1      49.592  26.795  26.166  1.00  0.00     0.058 A 
ATOM     64  C   UNL A   1      50.008  27.006  24.842  1.00  0.00     0.135 A 
ATOM     65  C   UNL A   1      50.478  26.141  27.037  1.00  0.00     0.135 A 
ATOM     66  F   UNL A   1      49.193  27.617  23.968  1.00  0.00    -0.206 F 
ATOM     67  C   UNL A   1      51.249  26.569  24.393  1.00  0.00     0.059 A 
ATOM     68  C   UNL A   1      51.734  25.717  26.617  1.00  0.00     0.059 A 
ATOM     69  F   UNL A   1      50.131  25.921  28.315  1.00  0.00    -0.206 F 
ATOM     70  C   UNL A   1      52.106  25.925  25.289  1.00  0.00     0.060 A 
BRANCH  70  71
ATOM     71  S   UNL A   1      53.729  25.391  24.704  1.00  0.00     0.124 S 
ATOM     72  O   UNL A   1      53.588  23.940  24.736  1.00  0.00    -0.237 OA
ATOM     73  O   UNL A   1      53.798  25.993  23.377  1.00  0.00    -0.237 OA
ATOM     74  O   UNL A   1      54.647  25.955  25.689  1.00  0.00    -0.744 OA
ENDBRANCH  70  71
ENDBRANCH  38  63
ENDBRANCH  12  13
ENDBRANCH   5   7
ENDBRANCH   2   3
ENDBRANCH   1   2
BRANCH   1  75
ATOM     75  C   UNL A   1      35.952  33.427  28.592  1.00  0.00     0.118 C 
BRANCH  75  76
ATOM     76  N   UNL A   1      34.536  33.709  28.391  1.00  0.00    -0.352 N 
ATOM     77  C   UNL A   1      33.544  32.910  27.877  1.00  0.00     0.251 C 
ATOM     78  H   UNL A   1      34.247  34.609  28.664  1.00  0.00     0.163 HD
ATOM     79  O   UNL A   1      32.439  33.382  27.629  1.00  0.00    -0.269 OA
BRANCH  77  80
ATOM     80  C   UNL A   1      33.803  31.477  27.631  1.00  0.00     0.040 A 
ATOM     81  C   UNL A   1      35.112  30.996  27.665  1.00  0.00     0.014 A 
ATOM     82  C   UNL A   1      32.748  30.616  27.322  1.00  0.00     0.018 A 
ATOM     83  C   UNL A   1      35.351  29.637  27.459  1.00  0.00     0.001 A 
ATOM     84  C   UNL A   1      32.971  29.246  27.146  1.00  0.00    -0.037 A 
ATOM     85  C   UNL A   1      34.285  28.763  27.220  1.00  0.00     0.004 A 
BRANCH  84  86
ATOM     86  C   UNL A   1      31.797  28.339  26.879  1.00  0.00     0.113 C 
BRANCH  86  87
ATOM     87  S   UNL A   1      32.004  27.281  25.425  1.00  0.00    -0.082 SA
BRANCH  87  88
ATOM     88  C   UNL A   1      30.990  28.047  24.267  1.00  0.00     0.184 A 
ATOM     89  N   UNL A   1      30.558  29.282  24.208  1.00  0.00    -0.201 NA
ATOM     90  N   UNL A   1      30.531  27.347  23.201  1.00  0.00    -0.254 N 
ATOM     91  C   UNL A   1      29.818  29.297  23.041  1.00  0.00     0.182 A 
ATOM     92  N   UNL A   1      29.748  28.105  22.419  1.00  0.00    -0.153 NA
ATOM     93  H   UNL A   1      30.743  26.403  23.023  1.00  0.00     0.192 HD
BRANCH  91  94
ATOM     94  C   UNL A   1      29.177  30.498  22.529  1.00  0.00     0.021 A 
ATOM     95  C   UNL A   1      28.660  30.518  21.226  1.00  0.00     0.012 A 
ATOM     96  C   UNL A   1      29.101  31.656  23.311  1.00  0.00     0.012 A 
ATOM     97  C   UNL A   1      28.073  31.678  20.714  1.00  0.00     0.001 A 
ATOM     98  C   UNL A   1      28.527  32.821  22.793  1.00  0.00     0.001 A 
ATOM     99  C   UNL A   1      28.013  32.830  21.496  1.00  0.00     0.000 A 
ENDBRANCH  91  94
ENDBRANCH  87  88
ENDBRANCH  86  87
ENDBRANCH  84  86
ENDBRANCH  77  80
ENDBRANCH  75  76
ENDBRANCH   1  75
TORSDOF 17
ENDMDL
