MODEL 1
REMARK VINA RESULT:     -11.6      0.000      0.000
REMARK SMILES C[C@H](C(=O)NCCCNC(=O)c1ccc(-c2c3nc(c(-c4c(F)cc(S(=O)(=O)[O-])cc4F)c4ccc([nH]4)c(-c4c(F)cc(S(=O)(=O)[O-])cc4F)c4nc(c(-c5c(F)cc(S(=O)(=O)[O-])cc5F)c5ccc2[nH]5)C=C4)C=C3)cc1)c1cccc(C(=O)c2ccccc2)c1
REMARK SMILES IDX 7 1 6 2 5 3 3 4 4 5 2 7 1 8 78 9 79 10 91 11 80 12 82 13
REMARK SMILES IDX 81 14 83 15 84 16 85 17 86 18 90 19 87 20 89 21 88 22 8 23
REMARK SMILES IDX 9 24 10 25 11 27 12 28 13 29 77 30 14 31 76 32 15 33 16 34
REMARK SMILES IDX 17 35 70 36 18 37 75 38 69 39 71 40 19 41 74 42 68 43 67 44
REMARK SMILES IDX 20 46 54 47 33 48 53 49 34 50 37 51 52 52 72 53 35 54 36 55
REMARK SMILES IDX 51 57 73 58 38 59 21 60 22 61 31 62 23 63 24 64 30 65 32 66
REMARK SMILES IDX 25 67 26 68 27 69 28 70 29 71 55 72 56 73 65 74 57 75 58 76
REMARK SMILES IDX 64 77 66 78 59 79 60 80 61 81 62 82 63 83 39 84 40 85 49 86
REMARK SMILES IDX 41 87 42 88 48 89 50 90 43 91 44 92 45 93 46 94 47 95
REMARK H PARENT 5 6 9 26 71 45 37 56
REMARK Flexibility Score: inf
ROOT
ATOM      1  C   UNL A   1      33.807  28.652  25.525  1.00  0.00     0.042 C 
ENDROOT
BRANCH   1   2
ATOM      2  C   UNL A   1      32.721  29.365  24.740  1.00  0.00     0.117 C 
BRANCH   2   3
ATOM      3  N   UNL A   1      32.285  28.748  23.500  1.00  0.00    -0.356 N 
ATOM      4  C   UNL A   1      31.212  27.937  23.263  1.00  0.00     0.227 C 
ATOM      5  O   UNL A   1      30.789  27.946  22.097  1.00  0.00    -0.274 OA
ATOM      6  H   UNL A   1      32.845  28.942  22.714  1.00  0.00     0.163 HD
BRANCH   4   7
ATOM      7  C   UNL A   1      30.610  26.924  24.261  1.00  0.00     0.105 C 
ATOM      8  C   UNL A   1      29.381  26.335  23.546  1.00  0.00     0.023 C 
BRANCH   7   9
ATOM      9  C   UNL A   1      31.520  25.895  24.928  1.00  0.00    -0.035 A 
ATOM     10  C   UNL A   1      31.191  25.288  26.150  1.00  0.00     0.004 A 
ATOM     11  C   UNL A   1      32.734  25.517  24.318  1.00  0.00     0.016 A 
ATOM     12  C   UNL A   1      31.976  24.265  26.681  1.00  0.00     0.001 A 
ATOM     13  C   UNL A   1      33.469  24.413  24.777  1.00  0.00     0.023 A 
ATOM     14  C   UNL A   1      33.087  23.805  25.979  1.00  0.00     0.012 A 
BRANCH  13  15
ATOM     15  C   UNL A   1      34.544  23.730  23.987  1.00  0.00     0.193 C 
ATOM     16  O   UNL A   1      34.441  23.656  22.763  1.00  0.00    -0.289 OA
BRANCH  15  17
ATOM     17  C   UNL A   1      35.813  23.254  24.584  1.00  0.00     0.022 A 
ATOM     18  C   UNL A   1      36.455  24.089  25.509  1.00  0.00     0.012 A 
ATOM     19  C   UNL A   1      36.405  22.043  24.217  1.00  0.00     0.012 A 
ATOM     20  C   UNL A   1      37.663  23.693  26.080  1.00  0.00     0.001 A 
ATOM     21  C   UNL A   1      37.593  21.632  24.826  1.00  0.00     0.001 A 
ATOM     22  C   UNL A   1      38.220  22.456  25.755  1.00  0.00     0.000 A 
ENDBRANCH  15  17
ENDBRANCH  13  15
ENDBRANCH   7   9
ENDBRANCH   4   7
ENDBRANCH   2   3
ENDBRANCH   1   2
BRANCH   1  23
ATOM     23  C   UNL A   1      33.638  28.622  27.034  1.00  0.00     0.118 C 
BRANCH  23  24
ATOM     24  N   UNL A   1      33.571  29.925  27.687  1.00  0.00    -0.352 N 
ATOM     25  C   UNL A   1      34.556  30.686  28.277  1.00  0.00     0.251 C 
ATOM     26  H   UNL A   1      32.672  30.326  27.711  1.00  0.00     0.163 HD
ATOM     27  O   UNL A   1      34.307  31.819  28.684  1.00  0.00    -0.269 OA
BRANCH  25  28
ATOM     28  C   UNL A   1      35.908  30.135  28.480  1.00  0.00     0.039 A 
ATOM     29  C   UNL A   1      36.802  30.099  27.403  1.00  0.00     0.014 A 
ATOM     30  C   UNL A   1      36.298  29.655  29.727  1.00  0.00     0.014 A 
ATOM     31  C   UNL A   1      38.120  29.678  27.604  1.00  0.00     0.010 A 
ATOM     32  C   UNL A   1      37.628  29.325  29.947  1.00  0.00     0.010 A 
ATOM     33  C   UNL A   1      38.554  29.337  28.892  1.00  0.00    -0.014 A 
BRANCH  33  34
ATOM     34  C   UNL A   1      39.959  28.967  29.198  1.00  0.00     0.031 A 
ATOM     35  C   UNL A   1      40.917  30.048  29.618  1.00  0.00     0.074 A 
ATOM     36  C   UNL A   1      40.398  27.716  28.945  1.00  0.00     0.049 A 
ATOM     37  N   UNL A   1      42.222  30.030  29.651  1.00  0.00    -0.248 NA
ATOM     38  C   UNL A   1      40.322  31.340  30.006  1.00  0.00     0.031 C 
ATOM     39  C   UNL A   1      39.563  26.593  28.510  1.00  0.00     0.029 A 
ATOM     40  N   UNL A   1      41.667  27.192  28.970  1.00  0.00    -0.354 N 
ATOM     41  C   UNL A   1      42.606  31.317  30.010  1.00  0.00     0.074 A 
ATOM     42  C   UNL A   1      41.399  32.097  30.163  1.00  0.00     0.031 C 
ATOM     43  C   UNL A   1      40.343  25.521  28.293  1.00  0.00     0.029 A 
ATOM     44  C   UNL A   1      41.736  25.894  28.514  1.00  0.00     0.049 A 
ATOM     45  H   UNL A   1      42.452  27.695  29.284  1.00  0.00     0.167 HD
ATOM     46  C   UNL A   1      43.857  31.795  30.197  1.00  0.00     0.037 A 
ATOM     47  C   UNL A   1      42.804  25.112  28.257  1.00  0.00     0.037 A 
ATOM     48  C   UNL A   1      45.042  30.985  30.101  1.00  0.00     0.049 A 
ATOM     49  C   UNL A   1      44.185  25.674  28.479  1.00  0.00     0.074 A 
ATOM     50  C   UNL A   1      46.348  31.341  30.383  1.00  0.00     0.029 A 
ATOM     51  N   UNL A   1      45.064  29.661  29.691  1.00  0.00    -0.354 N 
ATOM     52  N   UNL A   1      44.532  26.870  28.896  1.00  0.00    -0.248 NA
ATOM     53  C   UNL A   1      45.322  24.788  28.187  1.00  0.00     0.031 C 
ATOM     54  C   UNL A   1      47.169  30.250  30.089  1.00  0.00     0.029 A 
ATOM     55  C   UNL A   1      46.368  29.197  29.674  1.00  0.00     0.049 A 
ATOM     56  H   UNL A   1      44.272  29.130  29.449  1.00  0.00     0.167 HD
ATOM     57  C   UNL A   1      45.922  26.871  28.935  1.00  0.00     0.074 A 
ATOM     58  C   UNL A   1      46.353  25.552  28.520  1.00  0.00     0.031 C 
ATOM     59  C   UNL A   1      46.770  27.873  29.273  1.00  0.00     0.037 A 
BRANCH  46  60
ATOM     60  C   UNL A   1      44.028  33.252  30.526  1.00  0.00     0.058 A 
ATOM     61  C   UNL A   1      44.116  33.708  31.849  1.00  0.00     0.135 A 
ATOM     62  C   UNL A   1      44.205  34.190  29.495  1.00  0.00     0.135 A 
ATOM     63  F   UNL A   1      43.934  32.858  32.872  1.00  0.00    -0.206 F 
ATOM     64  C   UNL A   1      44.376  35.043  32.141  1.00  0.00     0.059 A 
ATOM     65  C   UNL A   1      44.493  35.525  29.763  1.00  0.00     0.059 A 
ATOM     66  F   UNL A   1      44.120  33.807  28.211  1.00  0.00    -0.206 F 
ATOM     67  C   UNL A   1      44.575  35.942  31.091  1.00  0.00     0.060 A 
BRANCH  67  68
ATOM     68  S   UNL A   1      44.982  37.654  31.491  1.00  0.00     0.124 S 
ATOM     69  O   UNL A   1      46.079  37.480  32.438  1.00  0.00    -0.237 OA
ATOM     70  O   UNL A   1      45.350  38.197  30.187  1.00  0.00    -0.237 OA
ATOM     71  O   UNL A   1      43.742  38.176  32.058  1.00  0.00    -0.744 OA
ENDBRANCH  67  68
ENDBRANCH  46  60
BRANCH  47  72
ATOM     72  C   UNL A   1      42.627  23.732  27.724  1.00  0.00     0.058 A 
ATOM     73  C   UNL A   1      42.491  23.502  26.347  1.00  0.00     0.135 A 
ATOM     74  C   UNL A   1      42.553  22.619  28.578  1.00  0.00     0.135 A 
ATOM     75  F   UNL A   1      42.547  24.531  25.487  1.00  0.00    -0.206 F 
ATOM     76  C   UNL A   1      42.248  22.230  25.838  1.00  0.00     0.059 A 
ATOM     77  C   UNL A   1      42.342  21.333  28.091  1.00  0.00     0.059 A 
ATOM     78  F   UNL A   1      42.692  22.778  29.904  1.00  0.00    -0.206 F 
ATOM     79  C   UNL A   1      42.170  21.151  26.719  1.00  0.00     0.060 A 
BRANCH  79  80
ATOM     80  S   UNL A   1      41.852  19.504  26.050  1.00  0.00     0.124 S 
ATOM     81  O   UNL A   1      42.740  19.483  24.893  1.00  0.00    -0.237 OA
ATOM     82  O   UNL A   1      42.231  18.641  27.163  1.00  0.00    -0.237 OA
ATOM     83  O   UNL A   1      40.423  19.536  25.748  1.00  0.00    -0.744 OA
ENDBRANCH  79  80
ENDBRANCH  47  72
BRANCH  59  84
ATOM     84  C   UNL A   1      48.243  27.583  29.233  1.00  0.00     0.058 A 
ATOM     85  C   UNL A   1      49.001  27.806  28.074  1.00  0.00     0.135 A 
ATOM     86  C   UNL A   1      48.917  27.162  30.391  1.00  0.00     0.135 A 
ATOM     87  F   UNL A   1      48.401  28.200  26.939  1.00  0.00    -0.206 F 
ATOM     88  C   UNL A   1      50.377  27.616  28.062  1.00  0.00     0.059 A 
ATOM     89  C   UNL A   1      50.297  26.995  30.409  1.00  0.00     0.059 A 
ATOM     90  F   UNL A   1      48.237  26.945  31.528  1.00  0.00    -0.206 F 
ATOM     91  C   UNL A   1      51.018  27.219  29.237  1.00  0.00     0.060 A 
BRANCH  91  92
ATOM     92  S   UNL A   1      52.814  27.041  29.222  1.00  0.00     0.124 S 
ATOM     93  O   UNL A   1      53.040  26.445  27.909  1.00  0.00    -0.237 OA
ATOM     94  O   UNL A   1      53.265  28.419  29.379  1.00  0.00    -0.237 OA
ATOM     95  O   UNL A   1      53.079  26.166  30.360  1.00  0.00    -0.744 OA
ENDBRANCH  91  92
ENDBRANCH  59  84
ENDBRANCH  33  34
ENDBRANCH  25  28
ENDBRANCH  23  24
ENDBRANCH   1  23
TORSDOF 16
ENDMDL
MODEL 2
REMARK VINA RESULT:     -11.5      1.694      2.635
REMARK SMILES C[C@H](C(=O)NCCCNC(=O)c1ccc(-c2c3nc(c(-c4c(F)cc(S(=O)(=O)[O-])cc4F)c4ccc([nH]4)c(-c4c(F)cc(S(=O)(=O)[O-])cc4F)c4nc(c(-c5c(F)cc(S(=O)(=O)[O-])cc5F)c5ccc2[nH]5)C=C4)C=C3)cc1)c1cccc(C(=O)c2ccccc2)c1
REMARK SMILES IDX 7 1 6 2 5 3 3 4 4 5 2 7 1 8 78 9 79 10 91 11 80 12 82 13
REMARK SMILES IDX 81 14 83 15 84 16 85 17 86 18 90 19 87 20 89 21 88 22 8 23
REMARK SMILES IDX 9 24 10 25 11 27 12 28 13 29 77 30 14 31 76 32 15 33 16 34
REMARK SMILES IDX 17 35 70 36 18 37 75 38 69 39 71 40 19 41 74 42 68 43 67 44
REMARK SMILES IDX 20 46 54 47 33 48 53 49 34 50 37 51 52 52 72 53 35 54 36 55
REMARK SMILES IDX 51 57 73 58 38 59 21 60 22 61 31 62 23 63 24 64 30 65 32 66
REMARK SMILES IDX 25 67 26 68 27 69 28 70 29 71 55 72 56 73 65 74 57 75 58 76
REMARK SMILES IDX 64 77 66 78 59 79 60 80 61 81 62 82 63 83 39 84 40 85 49 86
REMARK SMILES IDX 41 87 42 88 48 89 50 90 43 91 44 92 45 93 46 94 47 95
REMARK H PARENT 5 6 9 26 71 45 37 56
REMARK Flexibility Score: inf
ROOT
ATOM      1  C   UNL A   1      33.133  27.080  26.264  1.00  0.00     0.042 C 
ENDROOT
BRANCH   1   2
ATOM      2  C   UNL A   1      32.523  27.299  24.892  1.00  0.00     0.117 C 
BRANCH   2   3
ATOM      3  N   UNL A   1      33.419  27.243  23.751  1.00  0.00    -0.356 N 
ATOM      4  C   UNL A   1      33.475  26.333  22.734  1.00  0.00     0.227 C 
ATOM      5  O   UNL A   1      33.966  26.752  21.675  1.00  0.00    -0.274 OA
ATOM      6  H   UNL A   1      34.085  27.966  23.703  1.00  0.00     0.163 HD
BRANCH   4   7
ATOM      7  C   UNL A   1      33.136  24.831  22.849  1.00  0.00     0.105 C 
ATOM      8  C   UNL A   1      32.898  24.359  21.403  1.00  0.00     0.023 C 
BRANCH   7   9
ATOM      9  C   UNL A   1      34.034  23.920  23.683  1.00  0.00    -0.035 A 
ATOM     10  C   UNL A   1      35.212  24.385  24.289  1.00  0.00     0.004 A 
ATOM     11  C   UNL A   1      33.694  22.565  23.873  1.00  0.00     0.016 A 
ATOM     12  C   UNL A   1      35.953  23.568  25.142  1.00  0.00     0.001 A 
ATOM     13  C   UNL A   1      34.361  21.770  24.818  1.00  0.00     0.023 A 
ATOM     14  C   UNL A   1      35.510  22.282  25.434  1.00  0.00     0.012 A 
BRANCH  13  15
ATOM     15  C   UNL A   1      33.840  20.465  25.338  1.00  0.00     0.193 C 
ATOM     16  O   UNL A   1      33.325  20.422  26.455  1.00  0.00    -0.289 OA
BRANCH  15  17
ATOM     17  C   UNL A   1      33.777  19.231  24.521  1.00  0.00     0.022 A 
ATOM     18  C   UNL A   1      32.672  19.062  23.675  1.00  0.00     0.012 A 
ATOM     19  C   UNL A   1      34.743  18.226  24.609  1.00  0.00     0.012 A 
ATOM     20  C   UNL A   1      32.559  17.906  22.904  1.00  0.00     0.001 A 
ATOM     21  C   UNL A   1      34.646  17.091  23.802  1.00  0.00     0.001 A 
ATOM     22  C   UNL A   1      33.556  16.931  22.951  1.00  0.00     0.000 A 
ENDBRANCH  15  17
ENDBRANCH  13  15
ENDBRANCH   7   9
ENDBRANCH   4   7
ENDBRANCH   2   3
ENDBRANCH   1   2
BRANCH   1  23
ATOM     23  C   UNL A   1      34.217  28.058  26.684  1.00  0.00     0.118 C 
BRANCH  23  24
ATOM     24  N   UNL A   1      33.752  29.254  27.378  1.00  0.00    -0.352 N 
ATOM     25  C   UNL A   1      34.447  30.206  28.091  1.00  0.00     0.251 C 
ATOM     26  H   UNL A   1      32.780  29.405  27.329  1.00  0.00     0.163 HD
ATOM     27  O   UNL A   1      33.872  31.208  28.516  1.00  0.00    -0.269 OA
BRANCH  25  28
ATOM     28  C   UNL A   1      35.875  30.015  28.404  1.00  0.00     0.039 A 
ATOM     29  C   UNL A   1      36.244  29.584  29.684  1.00  0.00     0.014 A 
ATOM     30  C   UNL A   1      36.849  30.257  27.441  1.00  0.00     0.014 A 
ATOM     31  C   UNL A   1      37.583  29.297  29.964  1.00  0.00     0.010 A 
ATOM     32  C   UNL A   1      38.164  29.886  27.689  1.00  0.00     0.010 A 
ATOM     33  C   UNL A   1      38.544  29.397  28.949  1.00  0.00    -0.014 A 
BRANCH  33  34
ATOM     34  C   UNL A   1      39.968  29.026  29.147  1.00  0.00     0.031 A 
ATOM     35  C   UNL A   1      40.959  30.110  29.471  1.00  0.00     0.074 A 
ATOM     36  C   UNL A   1      40.381  27.770  28.879  1.00  0.00     0.049 A 
ATOM     37  N   UNL A   1      42.263  30.087  29.399  1.00  0.00    -0.248 NA
ATOM     38  C   UNL A   1      40.402  31.410  29.886  1.00  0.00     0.031 C 
ATOM     39  C   UNL A   1      39.511  26.643  28.531  1.00  0.00     0.029 A 
ATOM     40  N   UNL A   1      41.647  27.240  28.810  1.00  0.00    -0.354 N 
ATOM     41  C   UNL A   1      42.679  31.377  29.706  1.00  0.00     0.074 A 
ATOM     42  C   UNL A   1      41.490  32.165  29.943  1.00  0.00     0.031 C 
ATOM     43  C   UNL A   1      40.268  25.565  28.268  1.00  0.00     0.029 A 
ATOM     44  C   UNL A   1      41.676  25.935  28.370  1.00  0.00     0.049 A 
ATOM     45  H   UNL A   1      42.457  27.746  29.051  1.00  0.00     0.167 HD
ATOM     46  C   UNL A   1      43.942  31.854  29.783  1.00  0.00     0.037 A 
ATOM     47  C   UNL A   1      42.717  25.145  28.040  1.00  0.00     0.037 A 
ATOM     48  C   UNL A   1      45.113  31.037  29.605  1.00  0.00     0.049 A 
ATOM     49  C   UNL A   1      44.113  25.705  28.141  1.00  0.00     0.074 A 
ATOM     50  C   UNL A   1      46.439  31.392  29.775  1.00  0.00     0.029 A 
ATOM     51  N   UNL A   1      45.098  29.707  29.216  1.00  0.00    -0.354 N 
ATOM     52  N   UNL A   1      44.496  26.906  28.509  1.00  0.00    -0.248 NA
ATOM     53  C   UNL A   1      45.221  24.810  27.773  1.00  0.00     0.031 C 
ATOM     54  C   UNL A   1      47.230  30.293  29.433  1.00  0.00     0.029 A 
ATOM     55  C   UNL A   1      46.395  29.238  29.100  1.00  0.00     0.049 A 
ATOM     56  H   UNL A   1      44.287  29.176  29.046  1.00  0.00     0.167 HD
ATOM     57  C   UNL A   1      45.884  26.902  28.436  1.00  0.00     0.074 A 
ATOM     58  C   UNL A   1      46.277  25.575  28.009  1.00  0.00     0.031 C 
ATOM     59  C   UNL A   1      46.759  27.905  28.689  1.00  0.00     0.037 A 
BRANCH  46  60
ATOM     60  C   UNL A   1      44.143  33.314  30.075  1.00  0.00     0.058 A 
ATOM     61  C   UNL A   1      44.344  33.790  31.378  1.00  0.00     0.135 A 
ATOM     62  C   UNL A   1      44.234  34.237  29.018  1.00  0.00     0.135 A 
ATOM     63  F   UNL A   1      44.247  32.956  32.426  1.00  0.00    -0.206 F 
ATOM     64  C   UNL A   1      44.631  35.128  31.627  1.00  0.00     0.059 A 
ATOM     65  C   UNL A   1      44.546  35.574  29.240  1.00  0.00     0.059 A 
ATOM     66  F   UNL A   1      44.040  33.835  27.752  1.00  0.00    -0.206 F 
ATOM     67  C   UNL A   1      44.742  36.011  30.550  1.00  0.00     0.060 A 
BRANCH  67  68
ATOM     68  S   UNL A   1      45.184  37.727  30.888  1.00  0.00     0.124 S 
ATOM     69  O   UNL A   1      45.558  37.661  32.297  1.00  0.00    -0.237 OA
ATOM     70  O   UNL A   1      46.280  37.955  29.951  1.00  0.00    -0.237 OA
ATOM     71  O   UNL A   1      43.954  38.460  30.601  1.00  0.00    -0.744 OA
ENDBRANCH  67  68
ENDBRANCH  46  60
BRANCH  47  72
ATOM     72  C   UNL A   1      42.493  23.758  27.545  1.00  0.00     0.058 A 
ATOM     73  C   UNL A   1      42.447  22.673  28.433  1.00  0.00     0.135 A 
ATOM     74  C   UNL A   1      42.358  23.481  26.174  1.00  0.00     0.135 A 
ATOM     75  F   UNL A   1      42.577  22.882  29.753  1.00  0.00    -0.206 F 
ATOM     76  C   UNL A   1      42.316  21.363  27.982  1.00  0.00     0.059 A 
ATOM     77  C   UNL A   1      42.195  22.183  25.701  1.00  0.00     0.059 A 
ATOM     78  F   UNL A   1      42.379  24.482  25.280  1.00  0.00    -0.206 F 
ATOM     79  C   UNL A   1      42.196  21.127  26.612  1.00  0.00     0.060 A 
BRANCH  79  80
ATOM     80  S   UNL A   1      42.029  19.424  26.036  1.00  0.00     0.124 S 
ATOM     81  O   UNL A   1      42.917  19.418  24.880  1.00  0.00    -0.237 OA
ATOM     82  O   UNL A   1      42.481  18.662  27.195  1.00  0.00    -0.237 OA
ATOM     83  O   UNL A   1      40.603  19.310  25.738  1.00  0.00    -0.744 OA
ENDBRANCH  79  80
ENDBRANCH  47  72
BRANCH  59  84
ATOM     84  C   UNL A   1      48.224  27.609  28.534  1.00  0.00     0.058 A 
ATOM     85  C   UNL A   1      48.952  26.971  29.549  1.00  0.00     0.135 A 
ATOM     86  C   UNL A   1      48.882  27.888  27.325  1.00  0.00     0.135 A 
ATOM     87  F   UNL A   1      48.370  26.693  30.726  1.00  0.00    -0.206 F 
ATOM     88  C   UNL A   1      50.287  26.625  29.373  1.00  0.00     0.059 A 
ATOM     89  C   UNL A   1      50.208  27.523  27.118  1.00  0.00     0.059 A 
ATOM     90  F   UNL A   1      48.225  28.489  26.320  1.00  0.00    -0.206 F 
ATOM     91  C   UNL A   1      50.903  26.896  28.150  1.00  0.00     0.060 A 
BRANCH  91  92
ATOM     92  S   UNL A   1      52.616  26.380  27.915  1.00  0.00     0.124 S 
ATOM     93  O   UNL A   1      53.044  26.141  29.290  1.00  0.00    -0.237 OA
ATOM     94  O   UNL A   1      52.472  25.192  27.080  1.00  0.00    -0.237 OA
ATOM     95  O   UNL A   1      53.232  27.530  27.258  1.00  0.00    -0.744 OA
ENDBRANCH  91  92
ENDBRANCH  59  84
ENDBRANCH  33  34
ENDBRANCH  25  28
ENDBRANCH  23  24
ENDBRANCH   1  23
TORSDOF 16
ENDMDL
MODEL 3
REMARK VINA RESULT:     -11.5      5.910     11.976
REMARK SMILES C[C@H](C(=O)NCCCNC(=O)c1ccc(-c2c3nc(c(-c4c(F)cc(S(=O)(=O)[O-])cc4F)c4ccc([nH]4)c(-c4c(F)cc(S(=O)(=O)[O-])cc4F)c4nc(c(-c5c(F)cc(S(=O)(=O)[O-])cc5F)c5ccc2[nH]5)C=C4)C=C3)cc1)c1cccc(C(=O)c2ccccc2)c1
REMARK SMILES IDX 7 1 6 2 5 3 3 4 4 5 2 7 1 8 78 9 79 10 91 11 80 12 82 13
REMARK SMILES IDX 81 14 83 15 84 16 85 17 86 18 90 19 87 20 89 21 88 22 8 23
REMARK SMILES IDX 9 24 10 25 11 27 12 28 13 29 77 30 14 31 76 32 15 33 16 34
REMARK SMILES IDX 17 35 70 36 18 37 75 38 69 39 71 40 19 41 74 42 68 43 67 44
REMARK SMILES IDX 20 46 54 47 33 48 53 49 34 50 37 51 52 52 72 53 35 54 36 55
REMARK SMILES IDX 51 57 73 58 38 59 21 60 22 61 31 62 23 63 24 64 30 65 32 66
REMARK SMILES IDX 25 67 26 68 27 69 28 70 29 71 55 72 56 73 65 74 57 75 58 76
REMARK SMILES IDX 64 77 66 78 59 79 60 80 61 81 62 82 63 83 39 84 40 85 49 86
REMARK SMILES IDX 41 87 42 88 48 89 50 90 43 91 44 92 45 93 46 94 47 95
REMARK H PARENT 5 6 9 26 71 45 37 56
REMARK Flexibility Score: inf
ROOT
ATOM      1  C   UNL A   1      41.928  21.492  27.163  1.00  0.00     0.042 C 
ENDROOT
BRANCH   1   2
ATOM      2  C   UNL A   1      42.951  20.919  26.199  1.00  0.00     0.117 C 
BRANCH   2   3
ATOM      3  N   UNL A   1      43.177  21.645  24.962  1.00  0.00    -0.356 N 
ATOM      4  C   UNL A   1      44.325  22.210  24.484  1.00  0.00     0.227 C 
ATOM      5  O   UNL A   1      44.381  22.329  23.251  1.00  0.00    -0.274 OA
ATOM      6  H   UNL A   1      42.387  21.747  24.384  1.00  0.00     0.163 HD
BRANCH   4   7
ATOM      7  C   UNL A   1      45.446  22.836  25.340  1.00  0.00     0.105 C 
ATOM      8  C   UNL A   1      46.511  23.304  24.331  1.00  0.00     0.023 C 
BRANCH   7   9
ATOM      9  C   UNL A   1      45.087  23.859  26.416  1.00  0.00    -0.035 A 
ATOM     10  C   UNL A   1      44.823  25.204  26.109  1.00  0.00     0.004 A 
ATOM     11  C   UNL A   1      45.006  23.471  27.769  1.00  0.00     0.016 A 
ATOM     12  C   UNL A   1      44.381  26.092  27.088  1.00  0.00     0.001 A 
ATOM     13  C   UNL A   1      44.452  24.320  28.740  1.00  0.00     0.023 A 
ATOM     14  C   UNL A   1      44.162  25.643  28.387  1.00  0.00     0.012 A 
BRANCH  13  15
ATOM     15  C   UNL A   1      43.996  23.865  30.093  1.00  0.00     0.193 C 
ATOM     16  O   UNL A   1      43.102  23.025  30.180  1.00  0.00    -0.289 OA
BRANCH  15  17
ATOM     17  C   UNL A   1      44.663  24.268  31.353  1.00  0.00     0.022 A 
ATOM     18  C   UNL A   1      44.286  23.612  32.532  1.00  0.00     0.012 A 
ATOM     19  C   UNL A   1      45.602  25.302  31.405  1.00  0.00     0.012 A 
ATOM     20  C   UNL A   1      44.870  23.973  33.745  1.00  0.00     0.001 A 
ATOM     21  C   UNL A   1      46.216  25.629  32.616  1.00  0.00     0.001 A 
ATOM     22  C   UNL A   1      45.849  24.965  33.784  1.00  0.00     0.000 A 
ENDBRANCH  15  17
ENDBRANCH  13  15
ENDBRANCH   7   9
ENDBRANCH   4   7
ENDBRANCH   2   3
ENDBRANCH   1   2
BRANCH   1  23
ATOM     23  C   UNL A   1      41.594  22.965  26.994  1.00  0.00     0.118 C 
BRANCH  23  24
ATOM     24  N   UNL A   1      40.279  23.252  26.432  1.00  0.00    -0.352 N 
ATOM     25  C   UNL A   1      39.454  24.343  26.590  1.00  0.00     0.251 C 
ATOM     26  H   UNL A   1      39.923  22.549  25.842  1.00  0.00     0.163 HD
ATOM     27  O   UNL A   1      38.416  24.439  25.937  1.00  0.00    -0.269 OA
BRANCH  25  28
ATOM     28  C   UNL A   1      39.771  25.386  27.584  1.00  0.00     0.039 A 
ATOM     29  C   UNL A   1      40.701  26.381  27.259  1.00  0.00     0.014 A 
ATOM     30  C   UNL A   1      39.155  25.387  28.831  1.00  0.00     0.014 A 
ATOM     31  C   UNL A   1      40.934  27.435  28.148  1.00  0.00     0.010 A 
ATOM     32  C   UNL A   1      39.316  26.478  29.673  1.00  0.00     0.010 A 
ATOM     33  C   UNL A   1      40.202  27.516  29.340  1.00  0.00    -0.014 A 
BRANCH  33  34
ATOM     34  C   UNL A   1      40.331  28.649  30.290  1.00  0.00     0.031 A 
ATOM     35  C   UNL A   1      41.271  28.511  31.456  1.00  0.00     0.074 A 
ATOM     36  C   UNL A   1      39.500  29.708  30.195  1.00  0.00     0.049 A 
ATOM     37  N   UNL A   1      41.337  29.217  32.553  1.00  0.00    -0.248 NA
ATOM     38  C   UNL A   1      42.234  27.397  31.398  1.00  0.00     0.031 C 
ATOM     39  C   UNL A   1      38.530  29.934  29.119  1.00  0.00     0.029 A 
ATOM     40  N   UNL A   1      39.303  30.769  31.043  1.00  0.00    -0.354 N 
ATOM     41  C   UNL A   1      42.307  28.603  33.336  1.00  0.00     0.074 A 
ATOM     42  C   UNL A   1      42.789  27.455  32.601  1.00  0.00     0.031 C 
ATOM     43  C   UNL A   1      37.831  31.051  29.383  1.00  0.00     0.029 A 
ATOM     44  C   UNL A   1      38.259  31.588  30.670  1.00  0.00     0.049 A 
ATOM     45  H   UNL A   1      39.855  30.931  31.842  1.00  0.00     0.167 HD
ATOM     46  C   UNL A   1      42.753  28.972  34.559  1.00  0.00     0.037 A 
ATOM     47  C   UNL A   1      37.683  32.621  31.316  1.00  0.00     0.037 A 
ATOM     48  C   UNL A   1      42.306  30.153  35.246  1.00  0.00     0.049 A 
ATOM     49  C   UNL A   1      38.206  33.010  32.675  1.00  0.00     0.074 A 
ATOM     50  C   UNL A   1      42.775  30.682  36.434  1.00  0.00     0.029 A 
ATOM     51  N   UNL A   1      41.288  30.986  34.808  1.00  0.00    -0.354 N 
ATOM     52  N   UNL A   1      39.179  32.468  33.371  1.00  0.00    -0.248 NA
ATOM     53  C   UNL A   1      37.550  34.142  33.346  1.00  0.00     0.031 C 
ATOM     54  C   UNL A   1      42.002  31.803  36.746  1.00  0.00     0.029 A 
ATOM     55  C   UNL A   1      41.086  32.003  35.725  1.00  0.00     0.049 A 
ATOM     56  H   UNL A   1      40.783  30.871  33.971  1.00  0.00     0.167 HD
ATOM     57  C   UNL A   1      39.263  33.205  34.547  1.00  0.00     0.074 A 
ATOM     58  C   UNL A   1      38.258  34.244  34.462  1.00  0.00     0.031 C 
ATOM     59  C   UNL A   1      40.089  33.036  35.608  1.00  0.00     0.037 A 
BRANCH  46  60
ATOM     60  C   UNL A   1      43.776  28.107  35.241  1.00  0.00     0.058 A 
ATOM     61  C   UNL A   1      45.150  28.371  35.151  1.00  0.00     0.135 A 
ATOM     62  C   UNL A   1      43.363  27.058  36.080  1.00  0.00     0.135 A 
ATOM     63  F   UNL A   1      45.601  29.348  34.349  1.00  0.00    -0.206 F 
ATOM     64  C   UNL A   1      46.081  27.628  35.870  1.00  0.00     0.059 A 
ATOM     65  C   UNL A   1      44.273  26.318  36.828  1.00  0.00     0.059 A 
ATOM     66  F   UNL A   1      42.059  26.757  36.194  1.00  0.00    -0.206 F 
ATOM     67  C   UNL A   1      45.632  26.611  36.715  1.00  0.00     0.060 A 
BRANCH  67  68
ATOM     68  S   UNL A   1      46.849  25.705  37.692  1.00  0.00     0.124 S 
ATOM     69  O   UNL A   1      46.542  26.166  39.042  1.00  0.00    -0.237 OA
ATOM     70  O   UNL A   1      46.506  24.316  37.403  1.00  0.00    -0.237 OA
ATOM     71  O   UNL A   1      48.127  26.159  37.151  1.00  0.00    -0.744 OA
ENDBRANCH  67  68
ENDBRANCH  46  60
BRANCH  47  72
ATOM     72  C   UNL A   1      36.522  33.340  30.719  1.00  0.00     0.058 A 
ATOM     73  C   UNL A   1      36.701  34.250  29.666  1.00  0.00     0.135 A 
ATOM     74  C   UNL A   1      35.218  33.164  31.210  1.00  0.00     0.135 A 
ATOM     75  F   UNL A   1      37.928  34.461  29.165  1.00  0.00    -0.206 F 
ATOM     76  C   UNL A   1      35.641  34.988  29.148  1.00  0.00     0.059 A 
ATOM     77  C   UNL A   1      34.137  33.866  30.688  1.00  0.00     0.059 A 
ATOM     78  F   UNL A   1      34.985  32.294  32.206  1.00  0.00    -0.206 F 
ATOM     79  C   UNL A   1      34.362  34.792  29.670  1.00  0.00     0.060 A 
BRANCH  79  80
ATOM     80  S   UNL A   1      32.993  35.756  28.993  1.00  0.00     0.124 S 
ATOM     81  O   UNL A   1      32.269  36.126  30.204  1.00  0.00    -0.237 OA
ATOM     82  O   UNL A   1      33.689  36.839  28.307  1.00  0.00    -0.237 OA
ATOM     83  O   UNL A   1      32.313  34.803  28.119  1.00  0.00    -0.744 OA
ENDBRANCH  79  80
ENDBRANCH  47  72
BRANCH  59  84
ATOM     84  C   UNL A   1      39.961  34.001  36.752  1.00  0.00     0.058 A 
ATOM     85  C   UNL A   1      40.571  35.264  36.716  1.00  0.00     0.135 A 
ATOM     86  C   UNL A   1      39.149  33.693  37.855  1.00  0.00     0.135 A 
ATOM     87  F   UNL A   1      41.365  35.602  35.687  1.00  0.00    -0.206 F 
ATOM     88  C   UNL A   1      40.385  36.187  37.738  1.00  0.00     0.059 A 
ATOM     89  C   UNL A   1      38.925  34.612  38.874  1.00  0.00     0.059 A 
ATOM     90  F   UNL A   1      38.535  32.501  37.931  1.00  0.00    -0.206 F 
ATOM     91  C   UNL A   1      39.552  35.855  38.808  1.00  0.00     0.060 A 
BRANCH  91  92
ATOM     92  S   UNL A   1      39.269  37.090  40.094  1.00  0.00     0.124 S 
ATOM     93  O   UNL A   1      40.633  37.411  40.501  1.00  0.00    -0.237 OA
ATOM     94  O   UNL A   1      38.561  38.139  39.367  1.00  0.00    -0.237 OA
ATOM     95  O   UNL A   1      38.471  36.374  41.085  1.00  0.00    -0.744 OA
ENDBRANCH  91  92
ENDBRANCH  59  84
ENDBRANCH  33  34
ENDBRANCH  25  28
ENDBRANCH  23  24
ENDBRANCH   1  23
TORSDOF 16
ENDMDL
