MODEL 1
REMARK VINA RESULT:     -10.7      0.000      0.000
REMARK SMILES CC[C@@H](CCC(=O)NCCCNC(=O)c1ccc(-c2c3nc(c(-c4c(F)cc(S(=O)(=O)[O-])cc4F)c4ccc([nH]4)c(-c4c(F)cc(S(=O)(=O)[O-])cc4F)c4nc(c(-c5c(F)cc(S(=O)(=O)[O-])cc5F)c5ccc2[nH]5)C=C4)C=C3)cc1)CC[N@H+]1CCC[C@@H]1C
REMARK SMILES IDX 9 1 8 2 6 3 7 4 5 6 4 7 3 8 2 9 1 10 81 11 82 12 83 13 84 14
REMARK SMILES IDX 87 15 85 17 86 18 88 19 10 20 11 21 12 22 13 23 14 25 15 26
REMARK SMILES IDX 16 27 80 28 17 29 79 30 18 31 19 32 20 33 73 34 21 35 78 36
REMARK SMILES IDX 72 37 74 38 22 39 77 40 71 41 70 42 23 44 57 45 36 46 56 47
REMARK SMILES IDX 37 48 40 49 55 50 75 51 38 52 39 53 54 55 76 56 41 57 24 58
REMARK SMILES IDX 25 59 34 60 26 61 27 62 33 63 35 64 28 65 29 66 30 67 31 68
REMARK SMILES IDX 32 69 58 70 59 71 68 72 60 73 61 74 67 75 69 76 62 77 63 78
REMARK SMILES IDX 64 79 65 80 66 81 42 82 43 83 52 84 44 85 45 86 51 87 53 88
REMARK SMILES IDX 46 89 47 90 48 91 49 92 50 93
REMARK H PARENT 8 5 83 16 12 24 74 43 40 54
REMARK Flexibility Score: inf
ROOT
ATOM      1  C   UNL A   1      33.223  29.409  26.344  1.00  0.00     0.117 C 
ENDROOT
BRANCH   1   2
ATOM      2  N   UNL A   1      33.581  29.606  24.949  1.00  0.00    -0.356 N 
ATOM      3  C   UNL A   1      33.535  28.773  23.870  1.00  0.00     0.220 C 
ATOM      4  O   UNL A   1      33.707  29.275  22.757  1.00  0.00    -0.275 OA
ATOM      5  H   UNL A   1      33.917  30.509  24.744  1.00  0.00     0.163 HD
BRANCH   3   6
ATOM      6  C   UNL A   1      33.312  27.281  24.016  1.00  0.00     0.100 C 
BRANCH   6   7
ATOM      7  C   UNL A   1      32.150  26.750  23.149  1.00  0.00     0.013 C 
BRANCH   7   8
ATOM      8  C   UNL A   1      30.712  27.165  23.572  1.00  0.00    -0.005 C 
BRANCH   8   9
ATOM      9  C   UNL A   1      29.906  25.969  24.119  1.00  0.00     0.000 C 
ATOM     10  C   UNL A   1      30.464  24.621  23.675  1.00  0.00     0.004 C 
ENDBRANCH   8   9
BRANCH   8  11
ATOM     11  C   UNL A   1      30.055  28.005  22.445  1.00  0.00     0.065 C 
BRANCH  11  12
ATOM     12  C   UNL A   1      29.884  29.509  22.647  1.00  0.00     0.262 C 
BRANCH  12  13
ATOM     13  N   UNL A   1      28.680  30.056  22.009  1.00  0.00    -0.333 N 
ATOM     14  C   UNL A   1      27.519  29.921  22.917  1.00  0.00     0.262 C 
ATOM     15  C   UNL A   1      28.813  31.521  21.789  1.00  0.00     0.181 C 
ATOM     16  H   UNL A   1      28.558  29.550  21.133  1.00  0.00     0.348 HD
ATOM     17  C   UNL A   1      27.634  31.104  23.858  1.00  0.00     0.067 C 
ATOM     18  C   UNL A   1      28.100  32.217  22.943  1.00  0.00     0.070 C 
ATOM     19  C   UNL A   1      28.210  31.912  20.441  1.00  0.00     0.075 C 
ENDBRANCH  12  13
ENDBRANCH  11  12
ENDBRANCH   8  11
ENDBRANCH   7   8
ENDBRANCH   6   7
ENDBRANCH   3   6
ENDBRANCH   1   2
BRANCH   1  20
ATOM     20  C   UNL A   1      33.823  30.425  27.326  1.00  0.00     0.042 C 
BRANCH  20  21
ATOM     21  C   UNL A   1      35.185  30.062  27.947  1.00  0.00     0.118 C 
BRANCH  21  22
ATOM     22  N   UNL A   1      35.301  30.616  29.289  1.00  0.00    -0.352 N 
ATOM     23  C   UNL A   1      36.301  30.647  30.227  1.00  0.00     0.251 C 
ATOM     24  H   UNL A   1      34.479  31.068  29.589  1.00  0.00     0.163 HD
ATOM     25  O   UNL A   1      35.966  30.959  31.373  1.00  0.00    -0.269 OA
BRANCH  23  26
ATOM     26  C   UNL A   1      37.744  30.359  29.967  1.00  0.00     0.039 A 
ATOM     27  C   UNL A   1      38.177  30.425  28.631  1.00  0.00     0.014 A 
ATOM     28  C   UNL A   1      38.631  29.860  30.920  1.00  0.00     0.014 A 
ATOM     29  C   UNL A   1      39.463  30.004  28.252  1.00  0.00     0.010 A 
ATOM     30  C   UNL A   1      39.937  29.467  30.542  1.00  0.00     0.010 A 
ATOM     31  C   UNL A   1      40.374  29.526  29.202  1.00  0.00    -0.014 A 
BRANCH  31  32
ATOM     32  C   UNL A   1      41.754  29.084  28.800  1.00  0.00     0.031 A 
ATOM     33  C   UNL A   1      42.887  30.077  28.669  1.00  0.00     0.074 A 
ATOM     34  C   UNL A   1      42.024  27.789  28.527  1.00  0.00     0.049 A 
ATOM     35  N   UNL A   1      44.131  29.868  28.308  1.00  0.00    -0.248 NA
ATOM     36  C   UNL A   1      42.589  31.478  28.996  1.00  0.00     0.031 C 
ATOM     37  C   UNL A   1      41.077  26.684  28.639  1.00  0.00     0.029 A 
ATOM     38  N   UNL A   1      43.173  27.180  28.067  1.00  0.00    -0.354 N 
ATOM     39  C   UNL A   1      44.768  31.102  28.381  1.00  0.00     0.074 A 
ATOM     40  C   UNL A   1      43.755  32.066  28.760  1.00  0.00     0.031 C 
ATOM     41  C   UNL A   1      41.646  25.555  28.187  1.00  0.00     0.029 A 
ATOM     42  C   UNL A   1      43.016  25.843  27.780  1.00  0.00     0.049 A 
ATOM     43  H   UNL A   1      44.026  27.658  27.954  1.00  0.00     0.167 HD
ATOM     44  C   UNL A   1      46.076  31.407  28.191  1.00  0.00     0.037 A 
ATOM     45  C   UNL A   1      43.865  24.936  27.253  1.00  0.00     0.037 A 
ATOM     46  C   UNL A   1      47.107  30.464  27.836  1.00  0.00     0.049 A 
ATOM     47  C   UNL A   1      45.292  25.308  26.969  1.00  0.00     0.074 A 
ATOM     48  C   UNL A   1      48.469  30.690  27.704  1.00  0.00     0.029 A 
ATOM     49  N   UNL A   1      46.902  29.125  27.548  1.00  0.00    -0.354 N 
ATOM     50  N   UNL A   1      45.886  26.464  27.131  1.00  0.00    -0.248 NA
ATOM     51  C   UNL A   1      46.175  24.243  26.467  1.00  0.00     0.031 C 
ATOM     52  C   UNL A   1      49.079  29.498  27.294  1.00  0.00     0.029 A 
ATOM     53  C   UNL A   1      48.104  28.520  27.209  1.00  0.00     0.049 A 
ATOM     54  H   UNL A   1      46.029  28.669  27.578  1.00  0.00     0.167 HD
ATOM     55  C   UNL A   1      47.222  26.252  26.802  1.00  0.00     0.074 A 
ATOM     56  C   UNL A   1      47.347  24.863  26.419  1.00  0.00     0.031 C 
ATOM     57  C   UNL A   1      48.249  27.135  26.838  1.00  0.00     0.037 A 
BRANCH  44  58
ATOM     58  C   UNL A   1      46.485  32.840  28.385  1.00  0.00     0.058 A 
ATOM     59  C   UNL A   1      46.503  33.746  27.311  1.00  0.00     0.135 A 
ATOM     60  C   UNL A   1      46.814  33.327  29.660  1.00  0.00     0.135 A 
ATOM     61  F   UNL A   1      46.199  33.330  26.072  1.00  0.00    -0.206 F 
ATOM     62  C   UNL A   1      46.868  35.076  27.489  1.00  0.00     0.059 A 
ATOM     63  C   UNL A   1      47.161  34.660  29.865  1.00  0.00     0.059 A 
ATOM     64  F   UNL A   1      46.803  32.505  30.721  1.00  0.00    -0.206 F 
ATOM     65  C   UNL A   1      47.201  35.522  28.769  1.00  0.00     0.060 A 
BRANCH  65  66
ATOM     66  S   UNL A   1      47.687  37.248  28.982  1.00  0.00     0.124 S 
ATOM     67  O   UNL A   1      46.630  37.937  28.248  1.00  0.00    -0.237 OA
ATOM     68  O   UNL A   1      47.658  37.406  30.432  1.00  0.00    -0.237 OA
ATOM     69  O   UNL A   1      49.014  37.305  28.375  1.00  0.00    -0.744 OA
ENDBRANCH  65  66
ENDBRANCH  44  58
BRANCH  45  70
ATOM     70  C   UNL A   1      43.390  23.553  26.983  1.00  0.00     0.058 A 
ATOM     71  C   UNL A   1      43.248  22.620  28.020  1.00  0.00     0.135 A 
ATOM     72  C   UNL A   1      43.081  23.138  25.678  1.00  0.00     0.135 A 
ATOM     73  F   UNL A   1      43.541  22.971  29.280  1.00  0.00    -0.206 F 
ATOM     74  C   UNL A   1      42.833  21.316  27.772  1.00  0.00     0.059 A 
ATOM     75  C   UNL A   1      42.646  21.844  25.408  1.00  0.00     0.059 A 
ATOM     76  F   UNL A   1      43.190  24.000  24.655  1.00  0.00    -0.206 F 
ATOM     77  C   UNL A   1      42.535  20.937  26.461  1.00  0.00     0.060 A 
BRANCH  77  78
ATOM     78  S   UNL A   1      41.965  19.250  26.159  1.00  0.00     0.124 S 
ATOM     79  O   UNL A   1      42.763  18.872  25.003  1.00  0.00    -0.237 OA
ATOM     80  O   UNL A   1      42.300  18.585  27.415  1.00  0.00    -0.237 OA
ATOM     81  O   UNL A   1      40.533  19.421  25.914  1.00  0.00    -0.744 OA
ENDBRANCH  77  78
ENDBRANCH  45  70
BRANCH  57  82
ATOM     82  C   UNL A   1      49.624  26.626  26.500  1.00  0.00     0.058 A 
ATOM     83  C   UNL A   1      50.463  26.057  27.471  1.00  0.00     0.135 A 
ATOM     84  C   UNL A   1      50.091  26.667  25.176  1.00  0.00     0.135 A 
ATOM     85  F   UNL A   1      50.070  26.001  28.753  1.00  0.00    -0.206 F 
ATOM     86  C   UNL A   1      51.722  25.561  27.144  1.00  0.00     0.059 A 
ATOM     87  C   UNL A   1      51.338  26.157  24.822  1.00  0.00     0.059 A 
ATOM     88  F   UNL A   1      49.328  27.197  24.206  1.00  0.00    -0.206 F 
ATOM     89  C   UNL A   1      52.151  25.614  25.817  1.00  0.00     0.060 A 
BRANCH  89  90
ATOM     90  S   UNL A   1      53.769  24.929  25.395  1.00  0.00     0.124 S 
ATOM     91  O   UNL A   1      54.147  25.752  24.250  1.00  0.00    -0.237 OA
ATOM     92  O   UNL A   1      54.535  25.155  26.617  1.00  0.00    -0.237 OA
ATOM     93  O   UNL A   1      53.478  23.531  25.096  1.00  0.00    -0.744 OA
ENDBRANCH  89  90
ENDBRANCH  57  82
ENDBRANCH  31  32
ENDBRANCH  23  26
ENDBRANCH  21  22
ENDBRANCH  20  21
ENDBRANCH   1  20
TORSDOF 19
ENDMDL
MODEL 2
REMARK VINA RESULT:     -10.5      6.818     12.229
REMARK SMILES CC[C@@H](CCC(=O)NCCCNC(=O)c1ccc(-c2c3nc(c(-c4c(F)cc(S(=O)(=O)[O-])cc4F)c4ccc([nH]4)c(-c4c(F)cc(S(=O)(=O)[O-])cc4F)c4nc(c(-c5c(F)cc(S(=O)(=O)[O-])cc5F)c5ccc2[nH]5)C=C4)C=C3)cc1)CC[N@H+]1CCC[C@@H]1C
REMARK SMILES IDX 9 1 8 2 6 3 7 4 5 6 4 7 3 8 2 9 1 10 81 11 82 12 83 13 84 14
REMARK SMILES IDX 87 15 85 17 86 18 88 19 10 20 11 21 12 22 13 23 14 25 15 26
REMARK SMILES IDX 16 27 80 28 17 29 79 30 18 31 19 32 20 33 73 34 21 35 78 36
REMARK SMILES IDX 72 37 74 38 22 39 77 40 71 41 70 42 23 44 57 45 36 46 56 47
REMARK SMILES IDX 37 48 40 49 55 50 75 51 38 52 39 53 54 55 76 56 41 57 24 58
REMARK SMILES IDX 25 59 34 60 26 61 27 62 33 63 35 64 28 65 29 66 30 67 31 68
REMARK SMILES IDX 32 69 58 70 59 71 68 72 60 73 61 74 67 75 69 76 62 77 63 78
REMARK SMILES IDX 64 79 65 80 66 81 42 82 43 83 52 84 44 85 45 86 51 87 53 88
REMARK SMILES IDX 46 89 47 90 48 91 49 92 50 93
REMARK H PARENT 8 5 83 16 12 24 74 43 40 54
REMARK Flexibility Score: inf
ROOT
ATOM      1  C   UNL A   1      37.590  22.298  25.386  1.00  0.00     0.117 C 
ENDROOT
BRANCH   1   2
ATOM      2  N   UNL A   1      36.327  22.010  26.046  1.00  0.00    -0.356 N 
ATOM      3  C   UNL A   1      35.037  22.078  25.611  1.00  0.00     0.220 C 
ATOM      4  O   UNL A   1      34.169  21.572  26.327  1.00  0.00    -0.275 OA
ATOM      5  H   UNL A   1      36.421  21.710  26.979  1.00  0.00     0.163 HD
BRANCH   3   6
ATOM      6  C   UNL A   1      34.660  22.767  24.316  1.00  0.00     0.100 C 
BRANCH   6   7
ATOM      7  C   UNL A   1      33.272  22.351  23.784  1.00  0.00     0.013 C 
BRANCH   7   8
ATOM      8  C   UNL A   1      32.480  23.420  22.979  1.00  0.00    -0.005 C 
BRANCH   8   9
ATOM      9  C   UNL A   1      33.300  24.711  22.773  1.00  0.00     0.000 C 
ATOM     10  C   UNL A   1      32.927  25.457  21.497  1.00  0.00     0.004 C 
ENDBRANCH   8   9
BRANCH   8  11
ATOM     11  C   UNL A   1      31.054  23.575  23.573  1.00  0.00     0.065 C 
BRANCH  11  12
ATOM     12  C   UNL A   1      30.904  23.960  25.043  1.00  0.00     0.262 C 
BRANCH  12  13
ATOM     13  N   UNL A   1      30.028  25.117  25.264  1.00  0.00    -0.333 N 
ATOM     14  C   UNL A   1      30.601  25.995  26.308  1.00  0.00     0.262 C 
ATOM     15  C   UNL A   1      29.961  25.974  24.051  1.00  0.00     0.181 C 
ATOM     16  H   UNL A   1      29.113  24.746  25.518  1.00  0.00     0.348 HD
ATOM     17  C   UNL A   1      31.629  26.834  25.575  1.00  0.00     0.067 C 
ATOM     18  C   UNL A   1      30.948  27.118  24.252  1.00  0.00     0.070 C 
ATOM     19  C   UNL A   1      28.539  26.492  23.843  1.00  0.00     0.075 C 
ENDBRANCH  12  13
ENDBRANCH  11  12
ENDBRANCH   8  11
ENDBRANCH   7   8
ENDBRANCH   6   7
ENDBRANCH   3   6
ENDBRANCH   1   2
BRANCH   1  20
ATOM     20  C   UNL A   1      38.500  23.296  26.116  1.00  0.00     0.042 C 
BRANCH  20  21
ATOM     21  C   UNL A   1      39.711  22.707  26.864  1.00  0.00     0.118 C 
BRANCH  21  22
ATOM     22  N   UNL A   1      40.953  23.271  26.353  1.00  0.00    -0.352 N 
ATOM     23  C   UNL A   1      41.558  24.498  26.455  1.00  0.00     0.251 C 
ATOM     24  H   UNL A   1      41.473  22.631  25.816  1.00  0.00     0.163 HD
ATOM     25  O   UNL A   1      42.476  24.722  25.662  1.00  0.00    -0.269 OA
BRANCH  23  26
ATOM     26  C   UNL A   1      41.211  25.557  27.451  1.00  0.00     0.039 A 
ATOM     27  C   UNL A   1      42.185  26.539  27.703  1.00  0.00     0.014 A 
ATOM     28  C   UNL A   1      40.079  25.531  28.265  1.00  0.00     0.014 A 
ATOM     29  C   UNL A   1      42.035  27.474  28.742  1.00  0.00     0.010 A 
ATOM     30  C   UNL A   1      39.915  26.493  29.290  1.00  0.00     0.010 A 
ATOM     31  C   UNL A   1      40.892  27.476  29.551  1.00  0.00    -0.014 A 
BRANCH  31  32
ATOM     32  C   UNL A   1      40.726  28.483  30.656  1.00  0.00     0.031 A 
ATOM     33  C   UNL A   1      41.496  28.358  31.951  1.00  0.00     0.074 A 
ATOM     34  C   UNL A   1      39.873  29.524  30.535  1.00  0.00     0.049 A 
ATOM     35  N   UNL A   1      41.452  29.124  33.016  1.00  0.00    -0.248 NA
ATOM     36  C   UNL A   1      42.442  27.239  32.061  1.00  0.00     0.031 C 
ATOM     37  C   UNL A   1      39.079  29.834  29.350  1.00  0.00     0.029 A 
ATOM     38  N   UNL A   1      39.504  30.502  31.433  1.00  0.00    -0.354 N 
ATOM     39  C   UNL A   1      42.374  28.594  33.912  1.00  0.00     0.074 A 
ATOM     40  C   UNL A   1      42.915  27.402  33.290  1.00  0.00     0.031 C 
ATOM     41  C   UNL A   1      38.264  30.868  29.612  1.00  0.00     0.029 A 
ATOM     42  C   UNL A   1      38.495  31.321  30.979  1.00  0.00     0.049 A 
ATOM     43  H   UNL A   1      39.923  30.605  32.318  1.00  0.00     0.167 HD
ATOM     44  C   UNL A   1      42.767  29.067  35.122  1.00  0.00     0.037 A 
ATOM     45  C   UNL A   1      37.822  32.327  31.576  1.00  0.00     0.037 A 
ATOM     46  C   UNL A   1      42.261  30.260  35.752  1.00  0.00     0.049 A 
ATOM     47  C   UNL A   1      38.213  32.789  32.951  1.00  0.00     0.074 A 
ATOM     48  C   UNL A   1      42.671  30.842  36.942  1.00  0.00     0.029 A 
ATOM     49  N   UNL A   1      41.236  31.052  35.261  1.00  0.00    -0.354 N 
ATOM     50  N   UNL A   1      39.148  32.321  33.739  1.00  0.00    -0.248 NA
ATOM     51  C   UNL A   1      37.483  33.941  33.503  1.00  0.00     0.031 C 
ATOM     52  C   UNL A   1      41.865  31.959  37.191  1.00  0.00     0.029 A 
ATOM     53  C   UNL A   1      40.980  32.097  36.137  1.00  0.00     0.049 A 
ATOM     54  H   UNL A   1      40.759  30.895  34.414  1.00  0.00     0.167 HD
ATOM     55  C   UNL A   1      39.155  33.152  34.855  1.00  0.00     0.074 A 
ATOM     56  C   UNL A   1      38.122  34.145  34.648  1.00  0.00     0.031 C 
ATOM     57  C   UNL A   1      39.964  33.101  35.941  1.00  0.00     0.037 A 
BRANCH  44  58
ATOM     58  C   UNL A   1      43.828  28.293  35.852  1.00  0.00     0.058 A 
ATOM     59  C   UNL A   1      45.192  28.582  35.678  1.00  0.00     0.135 A 
ATOM     60  C   UNL A   1      43.482  27.287  36.768  1.00  0.00     0.135 A 
ATOM     61  F   UNL A   1      45.576  29.532  34.811  1.00  0.00    -0.206 F 
ATOM     62  C   UNL A   1      46.177  27.877  36.361  1.00  0.00     0.059 A 
ATOM     63  C   UNL A   1      44.451  26.584  37.480  1.00  0.00     0.059 A 
ATOM     64  F   UNL A   1      42.193  26.978  36.978  1.00  0.00    -0.206 F 
ATOM     65  C   UNL A   1      45.797  26.875  37.255  1.00  0.00     0.060 A 
BRANCH  65  66
ATOM     66  S   UNL A   1      47.087  25.958  38.124  1.00  0.00     0.124 S 
ATOM     67  O   UNL A   1      47.294  24.829  37.221  1.00  0.00    -0.237 OA
ATOM     68  O   UNL A   1      48.175  26.927  38.185  1.00  0.00    -0.237 OA
ATOM     69  O   UNL A   1      46.468  25.633  39.405  1.00  0.00    -0.744 OA
ENDBRANCH  65  66
ENDBRANCH  44  58
BRANCH  45  70
ATOM     70  C   UNL A   1      36.710  33.000  30.854  1.00  0.00     0.058 A 
ATOM     71  C   UNL A   1      36.965  33.976  29.881  1.00  0.00     0.135 A 
ATOM     72  C   UNL A   1      35.372  32.685  31.136  1.00  0.00     0.135 A 
ATOM     73  F   UNL A   1      38.229  34.315  29.587  1.00  0.00    -0.206 F 
ATOM     74  C   UNL A   1      35.931  34.633  29.222  1.00  0.00     0.059 A 
ATOM     75  C   UNL A   1      34.320  33.315  30.476  1.00  0.00     0.059 A 
ATOM     76  F   UNL A   1      35.080  31.749  32.052  1.00  0.00    -0.206 F 
ATOM     77  C   UNL A   1      34.610  34.295  29.528  1.00  0.00     0.060 A 
BRANCH  77  78
ATOM     78  S   UNL A   1      33.278  35.130  28.640  1.00  0.00     0.124 S 
ATOM     79  O   UNL A   1      32.558  35.775  29.728  1.00  0.00    -0.237 OA
ATOM     80  O   UNL A   1      34.017  36.018  27.746  1.00  0.00    -0.237 OA
ATOM     81  O   UNL A   1      32.578  34.031  27.978  1.00  0.00    -0.744 OA
ENDBRANCH  77  78
ENDBRANCH  45  70
BRANCH  57  82
ATOM     82  C   UNL A   1      39.810  34.175  36.982  1.00  0.00     0.058 A 
ATOM     83  C   UNL A   1      39.087  33.961  38.166  1.00  0.00     0.135 A 
ATOM     84  C   UNL A   1      40.431  35.424  36.813  1.00  0.00     0.135 A 
ATOM     85  F   UNL A   1      38.464  32.791  38.375  1.00  0.00    -0.206 F 
ATOM     86  C   UNL A   1      38.972  34.952  39.138  1.00  0.00     0.059 A 
ATOM     87  C   UNL A   1      40.349  36.421  37.782  1.00  0.00     0.059 A 
ATOM     88  F   UNL A   1      41.139  35.681  35.701  1.00  0.00    -0.206 F 
ATOM     89  C   UNL A   1      39.608  36.178  38.938  1.00  0.00     0.060 A 
BRANCH  89  90
ATOM     90  S   UNL A   1      39.490  37.442  40.224  1.00  0.00     0.124 S 
ATOM     91  O   UNL A   1      38.697  38.468  39.556  1.00  0.00    -0.237 OA
ATOM     92  O   UNL A   1      38.821  36.728  41.307  1.00  0.00    -0.237 OA
ATOM     93  O   UNL A   1      40.883  37.793  40.483  1.00  0.00    -0.744 OA
ENDBRANCH  89  90
ENDBRANCH  57  82
ENDBRANCH  31  32
ENDBRANCH  23  26
ENDBRANCH  21  22
ENDBRANCH  20  21
ENDBRANCH   1  20
TORSDOF 19
ENDMDL
MODEL 3
REMARK VINA RESULT:     -10.4      2.009      3.817
REMARK SMILES CC[C@@H](CCC(=O)NCCCNC(=O)c1ccc(-c2c3nc(c(-c4c(F)cc(S(=O)(=O)[O-])cc4F)c4ccc([nH]4)c(-c4c(F)cc(S(=O)(=O)[O-])cc4F)c4nc(c(-c5c(F)cc(S(=O)(=O)[O-])cc5F)c5ccc2[nH]5)C=C4)C=C3)cc1)CC[N@H+]1CCC[C@@H]1C
REMARK SMILES IDX 9 1 8 2 6 3 7 4 5 6 4 7 3 8 2 9 1 10 81 11 82 12 83 13 84 14
REMARK SMILES IDX 87 15 85 17 86 18 88 19 10 20 11 21 12 22 13 23 14 25 15 26
REMARK SMILES IDX 16 27 80 28 17 29 79 30 18 31 19 32 20 33 73 34 21 35 78 36
REMARK SMILES IDX 72 37 74 38 22 39 77 40 71 41 70 42 23 44 57 45 36 46 56 47
REMARK SMILES IDX 37 48 40 49 55 50 75 51 38 52 39 53 54 55 76 56 41 57 24 58
REMARK SMILES IDX 25 59 34 60 26 61 27 62 33 63 35 64 28 65 29 66 30 67 31 68
REMARK SMILES IDX 32 69 58 70 59 71 68 72 60 73 61 74 67 75 69 76 62 77 63 78
REMARK SMILES IDX 64 79 65 80 66 81 42 82 43 83 52 84 44 85 45 86 51 87 53 88
REMARK SMILES IDX 46 89 47 90 48 91 49 92 50 93
REMARK H PARENT 8 5 83 16 12 24 74 43 40 54
REMARK Flexibility Score: inf
ROOT
ATOM      1  C   UNL A   1      34.603  31.392  27.809  1.00  0.00     0.117 C 
ENDROOT
BRANCH   1   2
ATOM      2  N   UNL A   1      33.400  31.110  27.043  1.00  0.00    -0.356 N 
ATOM      3  C   UNL A   1      32.742  29.946  26.778  1.00  0.00     0.220 C 
ATOM      4  O   UNL A   1      31.621  30.030  26.268  1.00  0.00    -0.275 OA
ATOM      5  H   UNL A   1      32.983  31.907  26.643  1.00  0.00     0.163 HD
BRANCH   3   6
ATOM      6  C   UNL A   1      33.356  28.591  27.064  1.00  0.00     0.100 C 
BRANCH   6   7
ATOM      7  C   UNL A   1      32.710  27.444  26.259  1.00  0.00     0.013 C 
BRANCH   7   8
ATOM      8  C   UNL A   1      33.625  26.692  25.251  1.00  0.00    -0.005 C 
BRANCH   8   9
ATOM      9  C   UNL A   1      32.975  26.582  23.856  1.00  0.00     0.000 C 
ATOM     10  C   UNL A   1      33.266  27.786  22.966  1.00  0.00     0.004 C 
ENDBRANCH   8   9
BRANCH   8  11
ATOM     11  C   UNL A   1      34.147  25.380  25.894  1.00  0.00     0.065 C 
BRANCH  11  12
ATOM     12  C   UNL A   1      35.058  24.467  25.075  1.00  0.00     0.262 C 
BRANCH  12  13
ATOM     13  N   UNL A   1      35.955  23.642  25.893  1.00  0.00    -0.333 N 
ATOM     14  C   UNL A   1      35.422  22.266  26.000  1.00  0.00     0.262 C 
ATOM     15  C   UNL A   1      37.278  23.479  25.235  1.00  0.00     0.181 C 
ATOM     16  H   UNL A   1      36.035  24.107  26.797  1.00  0.00     0.348 HD
ATOM     17  C   UNL A   1      35.864  21.587  24.719  1.00  0.00     0.067 C 
ATOM     18  C   UNL A   1      37.261  22.136  24.514  1.00  0.00     0.070 C 
ATOM     19  C   UNL A   1      38.399  23.544  26.270  1.00  0.00     0.075 C 
ENDBRANCH  12  13
ENDBRANCH  11  12
ENDBRANCH   8  11
ENDBRANCH   7   8
ENDBRANCH   6   7
ENDBRANCH   3   6
ENDBRANCH   1   2
BRANCH   1  20
ATOM     20  C   UNL A   1      34.685  32.804  28.406  1.00  0.00     0.042 C 
BRANCH  20  21
ATOM     21  C   UNL A   1      35.803  33.053  29.437  1.00  0.00     0.118 C 
BRANCH  21  22
ATOM     22  N   UNL A   1      35.700  32.112  30.544  1.00  0.00    -0.352 N 
ATOM     23  C   UNL A   1      36.470  31.066  30.984  1.00  0.00     0.251 C 
ATOM     24  H   UNL A   1      34.900  32.260  31.099  1.00  0.00     0.163 HD
ATOM     25  O   UNL A   1      35.941  30.301  31.794  1.00  0.00    -0.269 OA
BRANCH  23  26
ATOM     26  C   UNL A   1      37.884  30.801  30.581  1.00  0.00     0.039 A 
ATOM     27  C   UNL A   1      38.119  30.515  29.225  1.00  0.00     0.014 A 
ATOM     28  C   UNL A   1      38.941  30.640  31.477  1.00  0.00     0.014 A 
ATOM     29  C   UNL A   1      39.375  30.080  28.771  1.00  0.00     0.010 A 
ATOM     30  C   UNL A   1      40.214  30.233  31.013  1.00  0.00     0.010 A 
ATOM     31  C   UNL A   1      40.452  29.939  29.655  1.00  0.00    -0.014 A 
BRANCH  31  32
ATOM     32  C   UNL A   1      41.800  29.482  29.168  1.00  0.00     0.031 A 
ATOM     33  C   UNL A   1      42.940  30.460  28.988  1.00  0.00     0.074 A 
ATOM     34  C   UNL A   1      42.034  28.187  28.862  1.00  0.00     0.049 A 
ATOM     35  N   UNL A   1      44.158  30.237  28.554  1.00  0.00    -0.248 NA
ATOM     36  C   UNL A   1      42.683  31.860  29.352  1.00  0.00     0.031 C 
ATOM     37  C   UNL A   1      41.076  27.096  29.011  1.00  0.00     0.029 A 
ATOM     38  N   UNL A   1      43.144  27.568  28.329  1.00  0.00    -0.354 N 
ATOM     39  C   UNL A   1      44.818  31.460  28.609  1.00  0.00     0.074 A 
ATOM     40  C   UNL A   1      43.843  32.434  29.058  1.00  0.00     0.031 C 
ATOM     41  C   UNL A   1      41.600  25.965  28.512  1.00  0.00     0.029 A 
ATOM     42  C   UNL A   1      42.950  26.238  28.032  1.00  0.00     0.049 A 
ATOM     43  H   UNL A   1      43.997  28.034  28.174  1.00  0.00     0.167 HD
ATOM     44  C   UNL A   1      46.118  31.747  28.349  1.00  0.00     0.037 A 
ATOM     45  C   UNL A   1      43.752  25.326  27.444  1.00  0.00     0.037 A 
ATOM     46  C   UNL A   1      47.112  30.794  27.923  1.00  0.00     0.049 A 
ATOM     47  C   UNL A   1      45.167  25.681  27.086  1.00  0.00     0.074 A 
ATOM     48  C   UNL A   1      48.468  31.001  27.717  1.00  0.00     0.029 A 
ATOM     49  N   UNL A   1      46.869  29.463  27.627  1.00  0.00    -0.354 N 
ATOM     50  N   UNL A   1      45.789  26.825  27.230  1.00  0.00    -0.248 NA
ATOM     51  C   UNL A   1      46.003  24.611  26.519  1.00  0.00     0.031 C 
ATOM     52  C   UNL A   1      49.034  29.807  27.256  1.00  0.00     0.029 A 
ATOM     53  C   UNL A   1      48.040  28.845  27.212  1.00  0.00     0.049 A 
ATOM     54  H   UNL A   1      45.992  29.020  27.700  1.00  0.00     0.167 HD
ATOM     55  C   UNL A   1      47.100  26.597  26.823  1.00  0.00     0.074 A 
ATOM     56  C   UNL A   1      47.181  25.212  26.414  1.00  0.00     0.031 C 
ATOM     57  C   UNL A   1      48.142  27.464  26.813  1.00  0.00     0.037 A 
BRANCH  44  58
ATOM     58  C   UNL A   1      46.560  33.171  28.540  1.00  0.00     0.058 A 
ATOM     59  C   UNL A   1      46.538  34.092  27.479  1.00  0.00     0.135 A 
ATOM     60  C   UNL A   1      46.964  33.635  29.802  1.00  0.00     0.135 A 
ATOM     61  F   UNL A   1      46.163  33.698  26.252  1.00  0.00    -0.206 F 
ATOM     62  C   UNL A   1      46.934  35.412  27.655  1.00  0.00     0.059 A 
ATOM     63  C   UNL A   1      47.342  34.959  30.006  1.00  0.00     0.059 A 
ATOM     64  F   UNL A   1      46.994  32.798  30.852  1.00  0.00    -0.206 F 
ATOM     65  C   UNL A   1      47.341  35.836  28.921  1.00  0.00     0.060 A 
BRANCH  65  66
ATOM     66  S   UNL A   1      47.866  37.550  29.131  1.00  0.00     0.124 S 
ATOM     67  O   UNL A   1      46.582  38.243  29.154  1.00  0.00    -0.237 OA
ATOM     68  O   UNL A   1      48.584  37.506  30.400  1.00  0.00    -0.237 OA
ATOM     69  O   UNL A   1      48.693  37.798  27.955  1.00  0.00    -0.744 OA
ENDBRANCH  65  66
ENDBRANCH  44  58
BRANCH  45  70
ATOM     70  C   UNL A   1      43.240  23.955  27.182  1.00  0.00     0.058 A 
ATOM     71  C   UNL A   1      42.707  23.608  25.933  1.00  0.00     0.135 A 
ATOM     72  C   UNL A   1      43.265  22.972  28.184  1.00  0.00     0.135 A 
ATOM     73  F   UNL A   1      42.655  24.518  24.950  1.00  0.00    -0.206 F 
ATOM     74  C   UNL A   1      42.199  22.336  25.688  1.00  0.00     0.059 A 
ATOM     75  C   UNL A   1      42.780  21.688  27.957  1.00  0.00     0.059 A 
ATOM     76  F   UNL A   1      43.777  23.256  29.392  1.00  0.00    -0.206 F 
ATOM     77  C   UNL A   1      42.238  21.383  26.709  1.00  0.00     0.060 A 
BRANCH  77  78
ATOM     78  S   UNL A   1      41.606  19.726  26.367  1.00  0.00     0.124 S 
ATOM     79  O   UNL A   1      40.204  19.998  26.087  1.00  0.00    -0.237 OA
ATOM     80  O   UNL A   1      42.421  19.318  25.225  1.00  0.00    -0.237 OA
ATOM     81  O   UNL A   1      41.878  19.002  27.607  1.00  0.00    -0.744 OA
ENDBRANCH  77  78
ENDBRANCH  45  70
BRANCH  57  82
ATOM     82  C   UNL A   1      49.486  26.939  26.391  1.00  0.00     0.058 A 
ATOM     83  C   UNL A   1      50.369  26.339  27.303  1.00  0.00     0.135 A 
ATOM     84  C   UNL A   1      49.880  26.996  25.043  1.00  0.00     0.135 A 
ATOM     85  F   UNL A   1      50.047  26.268  28.604  1.00  0.00    -0.206 F 
ATOM     86  C   UNL A   1      51.599  25.830  26.898  1.00  0.00     0.059 A 
ATOM     87  C   UNL A   1      51.097  26.472  24.612  1.00  0.00     0.059 A 
ATOM     88  F   UNL A   1      49.073  27.555  24.127  1.00  0.00    -0.206 F 
ATOM     89  C   UNL A   1      51.955  25.899  25.550  1.00  0.00     0.060 A 
BRANCH  89  90
ATOM     90  S   UNL A   1      53.535  25.196  25.027  1.00  0.00     0.124 S 
ATOM     91  O   UNL A   1      54.464  25.846  25.946  1.00  0.00    -0.237 OA
ATOM     92  O   UNL A   1      53.329  23.767  25.240  1.00  0.00    -0.237 OA
ATOM     93  O   UNL A   1      53.642  25.605  23.630  1.00  0.00    -0.744 OA
ENDBRANCH  89  90
ENDBRANCH  57  82
ENDBRANCH  31  32
ENDBRANCH  23  26
ENDBRANCH  21  22
ENDBRANCH  20  21
ENDBRANCH   1  20
TORSDOF 19
ENDMDL
