MODEL 1
REMARK VINA RESULT:     -11.0      0.000      0.000
REMARK SMILES CC[C@@](C)([NH2+]CC(=O)N[C@@H](C)C(C)C)C(=O)NCCCNC(=O)c1ccc(-c2c3nc(c(-c4c(F)cc(S(=O)(=O)[O-])cc4F)c4ccc([nH]4)c(-c4c(F)cc(S(=O)(=O)[O-])cc4F)c4nc(c(-c5c(F)cc(S(=O)(=O)[O-])cc5F)c5ccc2[nH]5)C=C4)C=C3)cc1
REMARK SMILES IDX 18 1 17 2 15 3 16 4 3 6 4 7 2 8 1 9 5 10 6 13 7 14 8 15 9 16
REMARK SMILES IDX 10 18 11 19 12 20 13 21 14 22 19 23 20 24 21 25 22 26 23 28
REMARK SMILES IDX 24 29 25 30 89 31 26 32 88 33 27 34 28 35 29 36 82 37 30 38
REMARK SMILES IDX 87 39 81 40 83 41 31 42 86 43 80 44 79 45 32 47 66 48 45 49
REMARK SMILES IDX 65 50 46 51 49 52 64 53 84 54 47 55 48 56 63 58 85 59 50 60
REMARK SMILES IDX 33 61 34 62 43 63 35 64 36 65 42 66 44 67 37 68 38 69 39 70
REMARK SMILES IDX 40 71 41 72 67 73 68 74 77 75 69 76 70 77 76 78 78 79 71 80
REMARK SMILES IDX 72 81 73 82 74 83 75 84 51 85 52 86 61 87 53 88 54 89 60 90
REMARK SMILES IDX 62 91 55 92 56 93 57 94 58 95 59 96
REMARK H PARENT 17 5 5 11 5 12 9 17 21 27 83 46 49 57
REMARK Flexibility Score: inf
ROOT
ATOM      1  C   UNL A   1      33.861  29.515  27.316  1.00  0.00     0.118 C 
ENDROOT
BRANCH   1   2
ATOM      2  N   UNL A   1      32.448  29.330  27.009  1.00  0.00    -0.351 N 
ATOM      3  C   UNL A   1      31.852  28.092  27.196  1.00  0.00     0.281 C 
ATOM      4  O   UNL A   1      31.423  27.821  28.319  1.00  0.00    -0.268 OA
ATOM      5  H   UNL A   1      31.915  30.086  26.670  1.00  0.00     0.163 HD
BRANCH   3   6
ATOM      6  C   UNL A   1      31.565  27.178  25.931  1.00  0.00     0.172 C 
ATOM      7  C   UNL A   1      31.168  27.782  24.579  1.00  0.00     0.090 C 
BRANCH   6   8
ATOM      8  C   UNL A   1      32.977  26.531  25.655  1.00  0.00     0.075 C 
ATOM      9  C   UNL A   1      33.665  27.071  24.378  1.00  0.00     0.011 C 
ENDBRANCH   6   8
BRANCH   6  10
ATOM     10  N   UNL A   1      30.543  26.176  26.231  1.00  0.00    -0.326 N 
ATOM     11  H   UNL A   1      29.672  26.534  25.837  1.00  0.00     0.347 HD
ATOM     12  H   UNL A   1      30.638  26.080  27.242  1.00  0.00     0.347 HD
BRANCH  10  13
ATOM     13  C   UNL A   1      30.646  24.767  25.785  1.00  0.00     0.362 C 
BRANCH  13  14
ATOM     14  C   UNL A   1      30.818  23.479  26.653  1.00  0.00     0.275 C 
ATOM     15  O   UNL A   1      29.953  23.273  27.525  1.00  0.00    -0.268 OA
ATOM     16  N   UNL A   1      31.646  22.399  26.477  1.00  0.00    -0.349 N 
ATOM     17  H   UNL A   1      31.177  21.543  26.602  1.00  0.00     0.163 HD
BRANCH  16  18
ATOM     18  C   UNL A   1      33.070  22.215  26.146  1.00  0.00     0.081 C 
ATOM     19  C   UNL A   1      33.749  21.392  27.262  1.00  0.00     0.031 C 
BRANCH  18  20
ATOM     20  C   UNL A   1      33.404  21.506  24.794  1.00  0.00     0.005 C 
ATOM     21  C   UNL A   1      32.750  20.154  24.541  1.00  0.00     0.009 C 
ATOM     22  C   UNL A   1      33.077  22.436  23.607  1.00  0.00     0.009 C 
ENDBRANCH  18  20
ENDBRANCH  16  18
ENDBRANCH  13  14
ENDBRANCH  10  13
ENDBRANCH   6  10
ENDBRANCH   3   6
ENDBRANCH   1   2
BRANCH   1  23
ATOM     23  C   UNL A   1      34.286  30.970  27.485  1.00  0.00     0.042 C 
BRANCH  23  24
ATOM     24  C   UNL A   1      35.573  31.124  28.280  1.00  0.00     0.118 C 
BRANCH  24  25
ATOM     25  N   UNL A   1      35.489  30.633  29.653  1.00  0.00    -0.352 N 
ATOM     26  C   UNL A   1      36.479  30.192  30.499  1.00  0.00     0.251 C 
ATOM     27  H   UNL A   1      34.581  30.614  30.032  1.00  0.00     0.163 HD
ATOM     28  O   UNL A   1      36.190  29.783  31.621  1.00  0.00    -0.269 OA
BRANCH  26  29
ATOM     29  C   UNL A   1      37.877  30.153  30.026  1.00  0.00     0.039 A 
ATOM     30  C   UNL A   1      38.911  30.267  30.959  1.00  0.00     0.014 A 
ATOM     31  C   UNL A   1      38.162  29.907  28.684  1.00  0.00     0.014 A 
ATOM     32  C   UNL A   1      40.223  30.012  30.562  1.00  0.00     0.010 A 
ATOM     33  C   UNL A   1      39.448  29.541  28.317  1.00  0.00     0.010 A 
ATOM     34  C   UNL A   1      40.491  29.579  29.253  1.00  0.00    -0.014 A 
BRANCH  34  35
ATOM     35  C   UNL A   1      41.845  29.139  28.835  1.00  0.00     0.031 A 
ATOM     36  C   UNL A   1      42.957  30.147  28.734  1.00  0.00     0.074 A 
ATOM     37  C   UNL A   1      42.039  27.863  28.445  1.00  0.00     0.049 A 
ATOM     38  N   UNL A   1      44.166  29.998  28.260  1.00  0.00    -0.248 NA
ATOM     39  C   UNL A   1      42.655  31.516  29.184  1.00  0.00     0.031 C 
ATOM     40  C   UNL A   1      41.016  26.813  28.430  1.00  0.00     0.029 A 
ATOM     41  N   UNL A   1      43.161  27.233  27.968  1.00  0.00    -0.354 N 
ATOM     42  C   UNL A   1      44.754  31.255  28.327  1.00  0.00     0.074 A 
ATOM     43  C   UNL A   1      43.751  32.167  28.828  1.00  0.00     0.031 C 
ATOM     44  C   UNL A   1      41.564  25.666  27.998  1.00  0.00     0.029 A 
ATOM     45  C   UNL A   1      42.963  25.906  27.663  1.00  0.00     0.049 A 
ATOM     46  H   UNL A   1      44.027  27.687  27.856  1.00  0.00     0.167 HD
ATOM     47  C   UNL A   1      46.025  31.610  28.026  1.00  0.00     0.037 A 
ATOM     48  C   UNL A   1      43.812  24.990  27.160  1.00  0.00     0.037 A 
ATOM     49  C   UNL A   1      47.027  30.683  27.574  1.00  0.00     0.049 A 
ATOM     50  C   UNL A   1      45.228  25.401  26.860  1.00  0.00     0.074 A 
ATOM     51  C   UNL A   1      48.365  30.918  27.317  1.00  0.00     0.029 A 
ATOM     52  N   UNL A   1      46.800  29.338  27.317  1.00  0.00    -0.354 N 
ATOM     53  N   UNL A   1      45.788  26.580  26.995  1.00  0.00    -0.248 NA
ATOM     54  C   UNL A   1      46.128  24.361  26.345  1.00  0.00     0.031 C 
ATOM     55  C   UNL A   1      48.939  29.724  26.869  1.00  0.00     0.029 A 
ATOM     56  C   UNL A   1      47.969  28.734  26.887  1.00  0.00     0.049 A 
ATOM     57  H   UNL A   1      45.935  28.881  27.424  1.00  0.00     0.167 HD
ATOM     58  C   UNL A   1      47.110  26.421  26.597  1.00  0.00     0.074 A 
ATOM     59  C   UNL A   1      47.270  25.027  26.235  1.00  0.00     0.031 C 
ATOM     60  C   UNL A   1      48.102  27.343  26.533  1.00  0.00     0.037 A 
BRANCH  47  61
ATOM     61  C   UNL A   1      46.402  33.056  28.195  1.00  0.00     0.058 A 
ATOM     62  C   UNL A   1      46.905  33.549  29.411  1.00  0.00     0.135 A 
ATOM     63  C   UNL A   1      46.275  33.959  27.127  1.00  0.00     0.135 A 
ATOM     64  F   UNL A   1      47.029  32.735  30.471  1.00  0.00    -0.206 F 
ATOM     65  C   UNL A   1      47.236  34.890  29.571  1.00  0.00     0.059 A 
ATOM     66  C   UNL A   1      46.628  35.299  27.257  1.00  0.00     0.059 A 
ATOM     67  F   UNL A   1      45.796  33.543  25.944  1.00  0.00    -0.206 F 
ATOM     68  C   UNL A   1      47.093  35.758  28.488  1.00  0.00     0.060 A 
BRANCH  68  69
ATOM     69  S   UNL A   1      47.531  37.495  28.714  1.00  0.00     0.124 S 
ATOM     70  O   UNL A   1      47.256  38.038  27.387  1.00  0.00    -0.237 OA
ATOM     71  O   UNL A   1      46.616  37.914  29.771  1.00  0.00    -0.237 OA
ATOM     72  O   UNL A   1      48.939  37.443  29.091  1.00  0.00    -0.744 OA
ENDBRANCH  68  69
ENDBRANCH  47  61
BRANCH  48  73
ATOM     73  C   UNL A   1      43.355  23.592  26.933  1.00  0.00     0.058 A 
ATOM     74  C   UNL A   1      43.005  23.150  25.649  1.00  0.00     0.135 A 
ATOM     75  C   UNL A   1      43.274  22.667  27.986  1.00  0.00     0.135 A 
ATOM     76  F   UNL A   1      43.061  23.997  24.610  1.00  0.00    -0.206 F 
ATOM     77  C   UNL A   1      42.578  21.846  25.416  1.00  0.00     0.059 A 
ATOM     78  C   UNL A   1      42.871  21.351  27.775  1.00  0.00     0.059 A 
ATOM     79  F   UNL A   1      43.614  23.035  29.232  1.00  0.00    -0.206 F 
ATOM     80  C   UNL A   1      42.516  20.953  26.487  1.00  0.00     0.060 A 
BRANCH  80  81
ATOM     81  S   UNL A   1      42.005  19.251  26.166  1.00  0.00     0.124 S 
ATOM     82  O   UNL A   1      42.819  18.913  25.005  1.00  0.00    -0.237 OA
ATOM     83  O   UNL A   1      42.360  18.581  27.413  1.00  0.00    -0.237 OA
ATOM     84  O   UNL A   1      40.571  19.372  25.917  1.00  0.00    -0.744 OA
ENDBRANCH  80  81
ENDBRANCH  48  73
BRANCH  60  85
ATOM     85  C   UNL A   1      49.451  26.870  26.073  1.00  0.00     0.058 A 
ATOM     86  C   UNL A   1      49.873  27.039  24.745  1.00  0.00     0.135 A 
ATOM     87  C   UNL A   1      50.351  26.292  26.982  1.00  0.00     0.135 A 
ATOM     88  F   UNL A   1      49.046  27.580  23.837  1.00  0.00    -0.206 F 
ATOM     89  C   UNL A   1      51.136  26.632  24.329  1.00  0.00     0.059 A 
ATOM     90  C   UNL A   1      51.628  25.902  26.594  1.00  0.00     0.059 A 
ATOM     91  F   UNL A   1      49.998  26.118  28.266  1.00  0.00    -0.206 F 
ATOM     92  C   UNL A   1      52.007  26.066  25.262  1.00  0.00     0.060 A 
BRANCH  92  93
ATOM     93  S   UNL A   1      53.656  25.577  24.717  1.00  0.00     0.124 S 
ATOM     94  O   UNL A   1      53.657  26.038  23.333  1.00  0.00    -0.237 OA
ATOM     95  O   UNL A   1      54.520  26.315  25.632  1.00  0.00    -0.237 OA
ATOM     96  O   UNL A   1      53.657  24.128  24.896  1.00  0.00    -0.744 OA
ENDBRANCH  92  93
ENDBRANCH  60  85
ENDBRANCH  34  35
ENDBRANCH  26  29
ENDBRANCH  24  25
ENDBRANCH  23  24
ENDBRANCH   1  23
TORSDOF 19
ENDMDL
MODEL 2
REMARK VINA RESULT:     -10.8      2.945      3.968
REMARK SMILES CC[C@@](C)([NH2+]CC(=O)N[C@@H](C)C(C)C)C(=O)NCCCNC(=O)c1ccc(-c2c3nc(c(-c4c(F)cc(S(=O)(=O)[O-])cc4F)c4ccc([nH]4)c(-c4c(F)cc(S(=O)(=O)[O-])cc4F)c4nc(c(-c5c(F)cc(S(=O)(=O)[O-])cc5F)c5ccc2[nH]5)C=C4)C=C3)cc1
REMARK SMILES IDX 18 1 17 2 15 3 16 4 3 6 4 7 2 8 1 9 5 10 6 13 7 14 8 15 9 16
REMARK SMILES IDX 10 18 11 19 12 20 13 21 14 22 19 23 20 24 21 25 22 26 23 28
REMARK SMILES IDX 24 29 25 30 89 31 26 32 88 33 27 34 28 35 29 36 82 37 30 38
REMARK SMILES IDX 87 39 81 40 83 41 31 42 86 43 80 44 79 45 32 47 66 48 45 49
REMARK SMILES IDX 65 50 46 51 49 52 64 53 84 54 47 55 48 56 63 58 85 59 50 60
REMARK SMILES IDX 33 61 34 62 43 63 35 64 36 65 42 66 44 67 37 68 38 69 39 70
REMARK SMILES IDX 40 71 41 72 67 73 68 74 77 75 69 76 70 77 76 78 78 79 71 80
REMARK SMILES IDX 72 81 73 82 74 83 75 84 51 85 52 86 61 87 53 88 54 89 60 90
REMARK SMILES IDX 62 91 55 92 56 93 57 94 58 95 59 96
REMARK H PARENT 17 5 5 11 5 12 9 17 21 27 83 46 49 57
REMARK Flexibility Score: inf
ROOT
ATOM      1  C   UNL A   1      33.746  27.488  25.321  1.00  0.00     0.118 C 
ENDROOT
BRANCH   1   2
ATOM      2  N   UNL A   1      33.877  26.168  25.925  1.00  0.00    -0.351 N 
ATOM      3  C   UNL A   1      33.862  25.035  25.128  1.00  0.00     0.281 C 
ATOM      4  O   UNL A   1      34.924  24.671  24.620  1.00  0.00    -0.268 OA
ATOM      5  H   UNL A   1      33.978  26.082  26.901  1.00  0.00     0.163 HD
BRANCH   3   6
ATOM      6  C   UNL A   1      32.546  24.150  25.074  1.00  0.00     0.172 C 
ATOM      7  C   UNL A   1      31.305  24.508  25.900  1.00  0.00     0.090 C 
BRANCH   6   8
ATOM      8  C   UNL A   1      32.073  24.339  23.581  1.00  0.00     0.075 C 
ATOM      9  C   UNL A   1      30.548  24.564  23.440  1.00  0.00     0.011 C 
ENDBRANCH   6   8
BRANCH   6  10
ATOM     10  N   UNL A   1      32.842  22.753  25.390  1.00  0.00    -0.326 N 
ATOM     11  H   UNL A   1      31.947  22.320  25.622  1.00  0.00     0.347 HD
ATOM     12  H   UNL A   1      33.557  22.851  26.111  1.00  0.00     0.347 HD
BRANCH  10  13
ATOM     13  C   UNL A   1      33.505  21.837  24.433  1.00  0.00     0.362 C 
BRANCH  13  14
ATOM     14  C   UNL A   1      34.729  20.896  24.671  1.00  0.00     0.275 C 
ATOM     15  O   UNL A   1      35.857  21.419  24.606  1.00  0.00    -0.268 OA
ATOM     16  N   UNL A   1      34.778  19.617  25.164  1.00  0.00    -0.349 N 
ATOM     17  H   UNL A   1      35.482  19.503  25.842  1.00  0.00     0.163 HD
BRANCH  16  18
ATOM     18  C   UNL A   1      34.027  18.373  24.921  1.00  0.00     0.081 C 
ATOM     19  C   UNL A   1      32.621  18.497  25.546  1.00  0.00     0.031 C 
BRANCH  18  20
ATOM     20  C   UNL A   1      33.824  17.938  23.433  1.00  0.00     0.005 C 
ATOM     21  C   UNL A   1      34.101  16.480  23.094  1.00  0.00     0.009 C 
ATOM     22  C   UNL A   1      32.396  18.285  22.966  1.00  0.00     0.009 C 
ENDBRANCH  18  20
ENDBRANCH  16  18
ENDBRANCH  13  14
ENDBRANCH  10  13
ENDBRANCH   6  10
ENDBRANCH   3   6
ENDBRANCH   1   2
BRANCH   1  23
ATOM     23  C   UNL A   1      32.805  28.432  26.064  1.00  0.00     0.042 C 
BRANCH  23  24
ATOM     24  C   UNL A   1      33.239  28.694  27.500  1.00  0.00     0.118 C 
BRANCH  24  25
ATOM     25  N   UNL A   1      33.391  30.108  27.828  1.00  0.00    -0.352 N 
ATOM     26  C   UNL A   1      34.510  30.817  28.200  1.00  0.00     0.251 C 
ATOM     27  H   UNL A   1      32.564  30.639  27.775  1.00  0.00     0.163 HD
ATOM     28  O   UNL A   1      34.418  32.012  28.469  1.00  0.00    -0.269 OA
BRANCH  26  29
ATOM     29  C   UNL A   1      35.802  30.117  28.336  1.00  0.00     0.039 A 
ATOM     30  C   UNL A   1      36.708  30.154  27.273  1.00  0.00     0.014 A 
ATOM     31  C   UNL A   1      36.155  29.512  29.542  1.00  0.00     0.014 A 
ATOM     32  C   UNL A   1      38.010  29.692  27.465  1.00  0.00     0.010 A 
ATOM     33  C   UNL A   1      37.478  29.162  29.767  1.00  0.00     0.010 A 
ATOM     34  C   UNL A   1      38.422  29.257  28.735  1.00  0.00    -0.014 A 
BRANCH  34  35
ATOM     35  C   UNL A   1      39.836  28.914  29.025  1.00  0.00     0.031 A 
ATOM     36  C   UNL A   1      40.757  29.963  29.586  1.00  0.00     0.074 A 
ATOM     37  C   UNL A   1      40.310  27.699  28.683  1.00  0.00     0.049 A 
ATOM     38  N   UNL A   1      42.049  29.910  29.778  1.00  0.00    -0.248 NA
ATOM     39  C   UNL A   1      40.152  31.260  29.933  1.00  0.00     0.031 C 
ATOM     40  C   UNL A   1      39.527  26.624  28.064  1.00  0.00     0.029 A 
ATOM     41  N   UNL A   1      41.570  27.166  28.789  1.00  0.00    -0.354 N 
ATOM     42  C   UNL A   1      42.412  31.170  30.238  1.00  0.00     0.074 A 
ATOM     43  C   UNL A   1      41.218  31.984  30.237  1.00  0.00     0.031 C 
ATOM     44  C   UNL A   1      40.315  25.554  27.876  1.00  0.00     0.029 A 
ATOM     45  C   UNL A   1      41.668  25.878  28.316  1.00  0.00     0.049 A 
ATOM     46  H   UNL A   1      42.333  27.658  29.169  1.00  0.00     0.167 HD
ATOM     47  C   UNL A   1      43.627  31.599  30.653  1.00  0.00     0.037 A 
ATOM     48  C   UNL A   1      42.731  25.054  28.238  1.00  0.00     0.037 A 
ATOM     49  C   UNL A   1      44.797  30.765  30.696  1.00  0.00     0.049 A 
ATOM     50  C   UNL A   1      44.065  25.545  28.732  1.00  0.00     0.074 A 
ATOM     51  C   UNL A   1      46.058  31.073  31.172  1.00  0.00     0.029 A 
ATOM     52  N   UNL A   1      44.847  29.452  30.247  1.00  0.00    -0.354 N 
ATOM     53  N   UNL A   1      44.376  26.718  29.229  1.00  0.00    -0.248 NA
ATOM     54  C   UNL A   1      45.189  24.602  28.658  1.00  0.00     0.031 C 
ATOM     55  C   UNL A   1      46.881  29.958  30.978  1.00  0.00     0.029 A 
ATOM     56  C   UNL A   1      46.122  28.941  30.420  1.00  0.00     0.049 A 
ATOM     57  H   UNL A   1      44.088  28.957  29.864  1.00  0.00     0.167 HD
ATOM     58  C   UNL A   1      45.729  26.650  29.543  1.00  0.00     0.074 A 
ATOM     59  C   UNL A   1      46.169  25.313  29.198  1.00  0.00     0.031 C 
ATOM     60  C   UNL A   1      46.535  27.606  30.068  1.00  0.00     0.037 A 
BRANCH  47  61
ATOM     61  C   UNL A   1      43.741  33.028  31.109  1.00  0.00     0.058 A 
ATOM     62  C   UNL A   1      44.020  34.069  30.208  1.00  0.00     0.135 A 
ATOM     63  C   UNL A   1      43.555  33.366  32.460  1.00  0.00     0.135 A 
ATOM     64  F   UNL A   1      44.226  33.801  28.909  1.00  0.00    -0.206 F 
ATOM     65  C   UNL A   1      44.143  35.387  30.633  1.00  0.00     0.059 A 
ATOM     66  C   UNL A   1      43.645  34.682  32.902  1.00  0.00     0.059 A 
ATOM     67  F   UNL A   1      43.290  32.411  33.365  1.00  0.00    -0.206 F 
ATOM     68  C   UNL A   1      43.955  35.684  31.984  1.00  0.00     0.060 A 
BRANCH  68  69
ATOM     69  S   UNL A   1      44.116  37.401  32.518  1.00  0.00     0.124 S 
ATOM     70  O   UNL A   1      45.489  37.424  33.011  1.00  0.00    -0.237 OA
ATOM     71  O   UNL A   1      43.875  38.137  31.281  1.00  0.00    -0.237 OA
ATOM     72  O   UNL A   1      43.080  37.537  33.537  1.00  0.00    -0.744 OA
ENDBRANCH  68  69
ENDBRANCH  47  61
BRANCH  48  73
ATOM     73  C   UNL A   1      42.572  23.678  27.695  1.00  0.00     0.058 A 
ATOM     74  C   UNL A   1      42.598  23.443  26.313  1.00  0.00     0.135 A 
ATOM     75  C   UNL A   1      42.408  22.570  28.542  1.00  0.00     0.135 A 
ATOM     76  F   UNL A   1      42.747  24.470  25.461  1.00  0.00    -0.206 F 
ATOM     77  C   UNL A   1      42.454  22.163  25.786  1.00  0.00     0.059 A 
ATOM     78  C   UNL A   1      42.285  21.277  28.040  1.00  0.00     0.059 A 
ATOM     79  F   UNL A   1      42.393  22.738  29.874  1.00  0.00    -0.206 F 
ATOM     80  C   UNL A   1      42.299  21.085  26.659  1.00  0.00     0.060 A 
BRANCH  80  81
ATOM     81  S   UNL A   1      42.160  19.423  25.967  1.00  0.00     0.124 S 
ATOM     82  O   UNL A   1      43.037  19.514  24.806  1.00  0.00    -0.237 OA
ATOM     83  O   UNL A   1      42.639  18.591  27.066  1.00  0.00    -0.237 OA
ATOM     84  O   UNL A   1      40.735  19.300  25.674  1.00  0.00    -0.744 OA
ENDBRANCH  80  81
ENDBRANCH  48  73
BRANCH  60  85
ATOM     85  C   UNL A   1      47.969  27.235  30.316  1.00  0.00     0.058 A 
ATOM     86  C   UNL A   1      48.951  27.402  29.328  1.00  0.00     0.135 A 
ATOM     87  C   UNL A   1      48.374  26.759  31.574  1.00  0.00     0.135 A 
ATOM     88  F   UNL A   1      48.613  27.846  28.107  1.00  0.00    -0.206 F 
ATOM     89  C   UNL A   1      50.284  27.090  29.571  1.00  0.00     0.059 A 
ATOM     90  C   UNL A   1      49.705  26.466  31.847  1.00  0.00     0.059 A 
ATOM     91  F   UNL A   1      47.473  26.591  32.555  1.00  0.00    -0.206 F 
ATOM     92  C   UNL A   1      50.651  26.625  30.835  1.00  0.00     0.060 A 
BRANCH  92  93
ATOM     93  S   UNL A   1      52.390  26.260  31.150  1.00  0.00     0.124 S 
ATOM     94  O   UNL A   1      52.295  25.042  31.948  1.00  0.00    -0.237 OA
ATOM     95  O   UNL A   1      52.925  26.094  29.802  1.00  0.00    -0.237 OA
ATOM     96  O   UNL A   1      52.862  27.443  31.864  1.00  0.00    -0.744 OA
ENDBRANCH  92  93
ENDBRANCH  60  85
ENDBRANCH  34  35
ENDBRANCH  26  29
ENDBRANCH  24  25
ENDBRANCH  23  24
ENDBRANCH   1  23
TORSDOF 19
ENDMDL
MODEL 3
REMARK VINA RESULT:     -10.7      2.588      3.416
REMARK SMILES CC[C@@](C)([NH2+]CC(=O)N[C@@H](C)C(C)C)C(=O)NCCCNC(=O)c1ccc(-c2c3nc(c(-c4c(F)cc(S(=O)(=O)[O-])cc4F)c4ccc([nH]4)c(-c4c(F)cc(S(=O)(=O)[O-])cc4F)c4nc(c(-c5c(F)cc(S(=O)(=O)[O-])cc5F)c5ccc2[nH]5)C=C4)C=C3)cc1
REMARK SMILES IDX 18 1 17 2 15 3 16 4 3 6 4 7 2 8 1 9 5 10 6 13 7 14 8 15 9 16
REMARK SMILES IDX 10 18 11 19 12 20 13 21 14 22 19 23 20 24 21 25 22 26 23 28
REMARK SMILES IDX 24 29 25 30 89 31 26 32 88 33 27 34 28 35 29 36 82 37 30 38
REMARK SMILES IDX 87 39 81 40 83 41 31 42 86 43 80 44 79 45 32 47 66 48 45 49
REMARK SMILES IDX 65 50 46 51 49 52 64 53 84 54 47 55 48 56 63 58 85 59 50 60
REMARK SMILES IDX 33 61 34 62 43 63 35 64 36 65 42 66 44 67 37 68 38 69 39 70
REMARK SMILES IDX 40 71 41 72 67 73 68 74 77 75 69 76 70 77 76 78 78 79 71 80
REMARK SMILES IDX 72 81 73 82 74 83 75 84 51 85 52 86 61 87 53 88 54 89 60 90
REMARK SMILES IDX 62 91 55 92 56 93 57 94 58 95 59 96
REMARK H PARENT 17 5 5 11 5 12 9 17 21 27 83 46 49 57
REMARK Flexibility Score: inf
ROOT
ATOM      1  C   UNL A   1      33.666  27.868  24.972  1.00  0.00     0.118 C 
ENDROOT
BRANCH   1   2
ATOM      2  N   UNL A   1      33.176  26.574  25.430  1.00  0.00    -0.351 N 
ATOM      3  C   UNL A   1      33.401  25.437  24.669  1.00  0.00     0.281 C 
ATOM      4  O   UNL A   1      34.471  24.844  24.819  1.00  0.00    -0.268 OA
ATOM      5  H   UNL A   1      32.686  26.507  26.282  1.00  0.00     0.163 HD
BRANCH   3   6
ATOM      6  C   UNL A   1      32.209  24.839  23.809  1.00  0.00     0.172 C 
ATOM      7  C   UNL A   1      31.526  25.658  22.708  1.00  0.00     0.090 C 
BRANCH   6   8
ATOM      8  C   UNL A   1      32.914  23.666  23.025  1.00  0.00     0.075 C 
ATOM      9  C   UNL A   1      33.116  23.963  21.519  1.00  0.00     0.011 C 
ENDBRANCH   6   8
BRANCH   6  10
ATOM     10  N   UNL A   1      31.129  24.361  24.673  1.00  0.00    -0.326 N 
ATOM     11  H   UNL A   1      30.287  24.357  24.096  1.00  0.00     0.347 HD
ATOM     12  H   UNL A   1      31.198  25.002  25.463  1.00  0.00     0.347 HD
BRANCH  10  13
ATOM     13  C   UNL A   1      31.169  23.044  25.350  1.00  0.00     0.362 C 
BRANCH  13  14
ATOM     14  C   UNL A   1      32.005  22.613  26.598  1.00  0.00     0.275 C 
ATOM     15  O   UNL A   1      31.943  23.356  27.595  1.00  0.00    -0.268 OA
ATOM     16  N   UNL A   1      32.633  21.426  26.873  1.00  0.00    -0.349 N 
ATOM     17  H   UNL A   1      32.458  21.111  27.789  1.00  0.00     0.163 HD
BRANCH  16  18
ATOM     18  C   UNL A   1      33.510  20.508  26.124  1.00  0.00     0.081 C 
ATOM     19  C   UNL A   1      32.676  19.762  25.061  1.00  0.00     0.031 C 
BRANCH  18  20
ATOM     20  C   UNL A   1      34.734  21.135  25.381  1.00  0.00     0.005 C 
ATOM     21  C   UNL A   1      35.610  22.093  26.176  1.00  0.00     0.009 C 
ATOM     22  C   UNL A   1      35.632  20.023  24.798  1.00  0.00     0.009 C 
ENDBRANCH  18  20
ENDBRANCH  16  18
ENDBRANCH  13  14
ENDBRANCH  10  13
ENDBRANCH   6  10
ENDBRANCH   3   6
ENDBRANCH   1   2
BRANCH   1  23
ATOM     23  C   UNL A   1      33.142  29.059  25.768  1.00  0.00     0.042 C 
BRANCH  23  24
ATOM     24  C   UNL A   1      33.483  28.979  27.249  1.00  0.00     0.118 C 
BRANCH  24  25
ATOM     25  N   UNL A   1      33.558  30.277  27.915  1.00  0.00    -0.352 N 
ATOM     26  C   UNL A   1      34.617  30.893  28.540  1.00  0.00     0.251 C 
ATOM     27  H   UNL A   1      32.719  30.792  27.916  1.00  0.00     0.163 HD
ATOM     28  O   UNL A   1      34.461  31.989  29.074  1.00  0.00    -0.269 OA
BRANCH  26  29
ATOM     29  C   UNL A   1      35.918  30.201  28.620  1.00  0.00     0.039 A 
ATOM     30  C   UNL A   1      36.741  30.174  27.491  1.00  0.00     0.014 A 
ATOM     31  C   UNL A   1      36.362  29.668  29.829  1.00  0.00     0.014 A 
ATOM     32  C   UNL A   1      38.054  29.721  27.611  1.00  0.00     0.010 A 
ATOM     33  C   UNL A   1      37.699  29.329  29.974  1.00  0.00     0.010 A 
ATOM     34  C   UNL A   1      38.562  29.362  28.870  1.00  0.00    -0.014 A 
BRANCH  34  35
ATOM     35  C   UNL A   1      39.996  29.034  29.073  1.00  0.00     0.031 A 
ATOM     36  C   UNL A   1      40.940  30.097  29.565  1.00  0.00     0.074 A 
ATOM     37  C   UNL A   1      40.458  27.821  28.710  1.00  0.00     0.049 A 
ATOM     38  N   UNL A   1      42.242  30.057  29.675  1.00  0.00    -0.248 NA
ATOM     39  C   UNL A   1      40.345  31.391  29.939  1.00  0.00     0.031 C 
ATOM     40  C   UNL A   1      39.648  26.733  28.152  1.00  0.00     0.029 A 
ATOM     41  N   UNL A   1      41.728  27.300  28.741  1.00  0.00    -0.354 N 
ATOM     42  C   UNL A   1      42.621  31.325  30.101  1.00  0.00     0.074 A 
ATOM     43  C   UNL A   1      41.421  32.127  30.169  1.00  0.00     0.031 C 
ATOM     44  C   UNL A   1      40.434  25.669  27.922  1.00  0.00     0.029 A 
ATOM     45  C   UNL A   1      41.808  26.009  28.273  1.00  0.00     0.049 A 
ATOM     46  H   UNL A   1      42.508  27.803  29.067  1.00  0.00     0.167 HD
ATOM     47  C   UNL A   1      43.856  31.769  30.434  1.00  0.00     0.037 A 
ATOM     48  C   UNL A   1      42.872  25.195  28.134  1.00  0.00     0.037 A 
ATOM     49  C   UNL A   1      45.034  30.945  30.409  1.00  0.00     0.049 A 
ATOM     50  C   UNL A   1      44.229  25.702  28.538  1.00  0.00     0.074 A 
ATOM     51  C   UNL A   1      46.320  31.269  30.802  1.00  0.00     0.029 A 
ATOM     52  N   UNL A   1      45.068  29.629  29.969  1.00  0.00    -0.354 N 
ATOM     53  N   UNL A   1      44.561  26.882  29.005  1.00  0.00    -0.248 NA
ATOM     54  C   UNL A   1      45.356  24.769  28.401  1.00  0.00     0.031 C 
ATOM     55  C   UNL A   1      47.139  30.161  30.565  1.00  0.00     0.029 A 
ATOM     56  C   UNL A   1      46.357  29.132  30.065  1.00  0.00     0.049 A 
ATOM     57  H   UNL A   1      44.292  29.124  29.639  1.00  0.00     0.167 HD
ATOM     58  C   UNL A   1      45.931  26.829  29.233  1.00  0.00     0.074 A 
ATOM     59  C   UNL A   1      46.361  25.494  28.872  1.00  0.00     0.031 C 
ATOM     60  C   UNL A   1      46.759  27.797  29.698  1.00  0.00     0.037 A 
BRANCH  47  61
ATOM     61  C   UNL A   1      43.985  33.202  30.871  1.00  0.00     0.058 A 
ATOM     62  C   UNL A   1      43.918  33.569  32.226  1.00  0.00     0.135 A 
ATOM     63  C   UNL A   1      44.193  34.222  29.928  1.00  0.00     0.135 A 
ATOM     64  F   UNL A   1      43.701  32.638  33.168  1.00  0.00    -0.206 F 
ATOM     65  C   UNL A   1      44.019  34.896  32.626  1.00  0.00     0.059 A 
ATOM     66  C   UNL A   1      44.327  35.554  30.310  1.00  0.00     0.059 A 
ATOM     67  F   UNL A   1      44.261  33.929  28.620  1.00  0.00    -0.206 F 
ATOM     68  C   UNL A   1      44.222  35.883  31.660  1.00  0.00     0.060 A 
BRANCH  68  69
ATOM     69  S   UNL A   1      44.355  37.600  32.200  1.00  0.00     0.124 S 
ATOM     70  O   UNL A   1      44.034  38.316  30.969  1.00  0.00    -0.237 OA
ATOM     71  O   UNL A   1      43.351  37.675  33.256  1.00  0.00    -0.237 OA
ATOM     72  O   UNL A   1      45.740  37.710  32.646  1.00  0.00    -0.744 OA
ENDBRANCH  68  69
ENDBRANCH  47  61
BRANCH  48  73
ATOM     73  C   UNL A   1      42.692  23.812  27.614  1.00  0.00     0.058 A 
ATOM     74  C   UNL A   1      42.511  22.733  28.490  1.00  0.00     0.135 A 
ATOM     75  C   UNL A   1      42.679  23.544  26.235  1.00  0.00     0.135 A 
ATOM     76  F   UNL A   1      42.521  22.937  29.816  1.00  0.00    -0.206 F 
ATOM     77  C   UNL A   1      42.338  21.433  28.023  1.00  0.00     0.059 A 
ATOM     78  C   UNL A   1      42.485  22.256  25.743  1.00  0.00     0.059 A 
ATOM     79  F   UNL A   1      42.830  24.544  25.354  1.00  0.00    -0.206 F 
ATOM     80  C   UNL A   1      42.325  21.205  26.646  1.00  0.00     0.060 A 
BRANCH  80  81
ATOM     81  S   UNL A   1      42.053  19.522  26.049  1.00  0.00     0.124 S 
ATOM     82  O   UNL A   1      42.926  19.479  24.883  1.00  0.00    -0.237 OA
ATOM     83  O   UNL A   1      42.475  18.719  27.193  1.00  0.00    -0.237 OA
ATOM     84  O   UNL A   1      40.621  19.493  25.768  1.00  0.00    -0.744 OA
ENDBRANCH  80  81
ENDBRANCH  48  73
BRANCH  60  85
ATOM     85  C   UNL A   1      48.209  27.441  29.858  1.00  0.00     0.058 A 
ATOM     86  C   UNL A   1      49.159  27.780  28.882  1.00  0.00     0.135 A 
ATOM     87  C   UNL A   1      48.662  26.803  31.024  1.00  0.00     0.135 A 
ATOM     88  F   UNL A   1      48.776  28.385  27.746  1.00  0.00    -0.206 F 
ATOM     89  C   UNL A   1      50.507  27.481  29.048  1.00  0.00     0.059 A 
ATOM     90  C   UNL A   1      50.008  26.519  31.222  1.00  0.00     0.059 A 
ATOM     91  F   UNL A   1      47.794  26.467  31.991  1.00  0.00    -0.206 F 
ATOM     92  C   UNL A   1      50.922  26.851  30.222  1.00  0.00     0.060 A 
BRANCH  92  93
ATOM     93  S   UNL A   1      52.679  26.502  30.442  1.00  0.00     0.124 S 
ATOM     94  O   UNL A   1      53.063  26.077  29.100  1.00  0.00    -0.237 OA
ATOM     95  O   UNL A   1      53.204  27.794  30.872  1.00  0.00    -0.237 OA
ATOM     96  O   UNL A   1      52.692  25.456  31.460  1.00  0.00    -0.744 OA
ENDBRANCH  92  93
ENDBRANCH  60  85
ENDBRANCH  34  35
ENDBRANCH  26  29
ENDBRANCH  24  25
ENDBRANCH  23  24
ENDBRANCH   1  23
TORSDOF 19
ENDMDL
