MODEL 1
REMARK VINA RESULT:     -11.8      0.000      0.000
REMARK SMILES CCc1nc(C)c(C(=O)NCCCNC(=O)c2ccc(-c3c4nc(c(-c5c(F)cc(S(=O)(=O)[O-])cc5F)c5ccc([nH]5)c(-c5c(F)cc(S(=O)(=O)[O-])cc5F)c5nc(c(-c6c(F)cc(S(=O)(=O)[O-])cc6F)c6ccc3[nH]6)C=C5)C=C4)cc2)c(SCc2cnc(Cl)s2)n1
REMARK SMILES IDX 12 1 11 2 10 3 8 4 9 5 7 7 3 8 4 9 92 10 5 11 83 12 6 13
REMARK SMILES IDX 2 14 1 15 84 16 85 17 86 18 87 19 91 20 88 21 89 22 90 23
REMARK SMILES IDX 13 24 14 25 15 26 16 28 17 29 18 30 82 31 19 32 81 33 20 34
REMARK SMILES IDX 21 35 22 36 75 37 23 38 80 39 74 40 76 41 24 42 79 43 73 44
REMARK SMILES IDX 72 45 25 47 59 48 38 49 58 50 39 51 42 52 57 53 77 54 40 55
REMARK SMILES IDX 41 56 56 58 78 59 43 60 26 61 27 62 36 63 28 64 29 65 35 66
REMARK SMILES IDX 37 67 30 68 31 69 32 70 33 71 34 72 60 73 61 74 70 75 62 76
REMARK SMILES IDX 63 77 69 78 71 79 64 80 65 81 66 82 67 83 68 84 44 85 45 86
REMARK SMILES IDX 54 87 46 88 47 89 53 90 55 91 48 92 49 93 50 94 51 95 52 96
REMARK H PARENT 10 6 14 27 76 46 42 57
REMARK Flexibility Score: inf
ROOT
ATOM      1  C   UNL A   1      38.974  22.635  26.355  1.00  0.00     0.042 C 
ENDROOT
BRANCH   1   2
ATOM      2  C   UNL A   1      37.853  23.664  26.152  1.00  0.00     0.118 C 
BRANCH   2   3
ATOM      3  N   UNL A   1      37.540  23.740  24.732  1.00  0.00    -0.352 N 
ATOM      4  C   UNL A   1      36.799  22.948  23.895  1.00  0.00     0.255 C 
ATOM      5  O   UNL A   1      37.057  23.018  22.693  1.00  0.00    -0.269 OA
ATOM      6  H   UNL A   1      37.944  24.517  24.282  1.00  0.00     0.163 HD
BRANCH   4   7
ATOM      7  C   UNL A   1      35.658  22.116  24.316  1.00  0.00     0.093 A 
ATOM      8  C   UNL A   1      33.491  20.458  24.605  1.00  0.00     0.129 A 
ATOM      9  N   UNL A   1      34.695  19.990  24.935  1.00  0.00    -0.237 NA
ATOM     10  N   UNL A   1      33.284  21.707  24.186  1.00  0.00    -0.226 NA
ATOM     11  C   UNL A   1      35.770  20.795  24.746  1.00  0.00     0.055 A 
ATOM     12  C   UNL A   1      34.354  22.537  24.038  1.00  0.00     0.113 A 
ATOM     13  C   UNL A   1      37.044  20.048  24.969  1.00  0.00     0.068 C 
BRANCH   8  14
ATOM     14  C   UNL A   1      32.383  19.446  24.497  1.00  0.00     0.074 C 
ATOM     15  C   UNL A   1      32.440  18.571  23.256  1.00  0.00     0.012 C 
ENDBRANCH   8  14
BRANCH  12  16
ATOM     16  S   UNL A   1      33.739  24.075  23.354  1.00  0.00    -0.100 SA
BRANCH  16  17
ATOM     17  C   UNL A   1      31.933  24.002  23.288  1.00  0.00     0.125 C 
BRANCH  17  18
ATOM     18  C   UNL A   1      31.147  25.271  23.272  1.00  0.00     0.036 A 
ATOM     19  C   UNL A   1      30.096  25.596  24.116  1.00  0.00     0.129 A 
ATOM     20  S   UNL A   1      31.471  26.619  22.256  1.00  0.00    -0.107 S 
ATOM     21  N   UNL A   1      29.512  26.831  23.917  1.00  0.00    -0.233 NA
ATOM     22  C   UNL A   1      30.160  27.438  22.956  1.00  0.00     0.183 A 
ATOM     23  Cl  UNL A   1      29.726  29.001  22.401  1.00  0.00    -0.051 Cl
ENDBRANCH  17  18
ENDBRANCH  16  17
ENDBRANCH  12  16
ENDBRANCH   4   7
ENDBRANCH   2   3
ENDBRANCH   1   2
BRANCH   1  24
ATOM     24  C   UNL A   1      40.201  23.201  27.067  1.00  0.00     0.118 C 
BRANCH  24  25
ATOM     25  N   UNL A   1      41.147  23.773  26.127  1.00  0.00    -0.352 N 
ATOM     26  C   UNL A   1      41.600  25.068  26.031  1.00  0.00     0.251 C 
ATOM     27  H   UNL A   1      41.518  23.144  25.465  1.00  0.00     0.163 HD
ATOM     28  O   UNL A   1      42.174  25.431  25.008  1.00  0.00    -0.269 OA
BRANCH  26  29
ATOM     29  C   UNL A   1      41.388  26.030  27.142  1.00  0.00     0.039 A 
ATOM     30  C   UNL A   1      40.360  25.794  28.060  1.00  0.00     0.014 A 
ATOM     31  C   UNL A   1      42.164  27.189  27.255  1.00  0.00     0.014 A 
ATOM     32  C   UNL A   1      40.147  26.686  29.118  1.00  0.00     0.010 A 
ATOM     33  C   UNL A   1      41.998  28.036  28.349  1.00  0.00     0.010 A 
ATOM     34  C   UNL A   1      40.982  27.800  29.287  1.00  0.00    -0.014 A 
BRANCH  34  35
ATOM     35  C   UNL A   1      40.805  28.746  30.421  1.00  0.00     0.031 A 
ATOM     36  C   UNL A   1      41.649  28.601  31.660  1.00  0.00     0.074 A 
ATOM     37  C   UNL A   1      39.840  29.685  30.370  1.00  0.00     0.049 A 
ATOM     38  N   UNL A   1      41.569  29.245  32.797  1.00  0.00    -0.248 NA
ATOM     39  C   UNL A   1      42.705  27.577  31.624  1.00  0.00     0.031 C 
ATOM     40  C   UNL A   1      38.938  29.910  29.238  1.00  0.00     0.029 A 
ATOM     41  N   UNL A   1      39.446  30.617  31.298  1.00  0.00    -0.354 N 
ATOM     42  C   UNL A   1      42.548  28.693  33.615  1.00  0.00     0.074 A 
ATOM     43  C   UNL A   1      43.177  27.630  32.861  1.00  0.00     0.031 C 
ATOM     44  C   UNL A   1      38.110  30.927  29.531  1.00  0.00     0.029 A 
ATOM     45  C   UNL A   1      38.393  31.399  30.884  1.00  0.00     0.049 A 
ATOM     46  H   UNL A   1      39.877  30.718  32.177  1.00  0.00     0.167 HD
ATOM     47  C   UNL A   1      42.905  29.051  34.873  1.00  0.00     0.037 A 
ATOM     48  C   UNL A   1      37.722  32.375  31.525  1.00  0.00     0.037 A 
ATOM     49  C   UNL A   1      42.295  30.126  35.609  1.00  0.00     0.049 A 
ATOM     50  C   UNL A   1      38.121  32.742  32.928  1.00  0.00     0.074 A 
ATOM     51  C   UNL A   1      42.619  30.603  36.867  1.00  0.00     0.029 A 
ATOM     52  N   UNL A   1      41.235  30.896  35.152  1.00  0.00    -0.354 N 
ATOM     53  N   UNL A   1      39.075  32.237  33.671  1.00  0.00    -0.248 NA
ATOM     54  C   UNL A   1      37.349  33.809  33.581  1.00  0.00     0.031 C 
ATOM     55  C   UNL A   1      41.731  31.637  37.185  1.00  0.00     0.029 A 
ATOM     56  C   UNL A   1      40.879  31.831  36.110  1.00  0.00     0.049 A 
ATOM     57  H   UNL A   1      40.799  30.793  34.275  1.00  0.00     0.167 HD
ATOM     58  C   UNL A   1      39.036  32.939  34.871  1.00  0.00     0.074 A 
ATOM     59  C   UNL A   1      37.967  33.910  34.751  1.00  0.00     0.031 C 
ATOM     60  C   UNL A   1      39.816  32.794  35.971  1.00  0.00     0.037 A 
BRANCH  47  61
ATOM     61  C   UNL A   1      44.009  28.266  35.528  1.00  0.00     0.058 A 
ATOM     62  C   UNL A   1      43.739  27.135  36.318  1.00  0.00     0.135 A 
ATOM     63  C   UNL A   1      45.352  28.641  35.361  1.00  0.00     0.135 A 
ATOM     64  F   UNL A   1      42.472  26.740  36.521  1.00  0.00    -0.206 F 
ATOM     65  C   UNL A   1      44.757  26.433  36.955  1.00  0.00     0.059 A 
ATOM     66  C   UNL A   1      46.389  27.936  35.968  1.00  0.00     0.059 A 
ATOM     67  F   UNL A   1      45.667  29.710  34.613  1.00  0.00    -0.206 F 
ATOM     68  C   UNL A   1      46.078  26.847  36.780  1.00  0.00     0.060 A 
BRANCH  68  69
ATOM     69  S   UNL A   1      47.386  25.943  37.636  1.00  0.00     0.124 S 
ATOM     70  O   UNL A   1      48.192  25.470  36.514  1.00  0.00    -0.237 OA
ATOM     71  O   UNL A   1      47.997  26.977  38.463  1.00  0.00    -0.237 OA
ATOM     72  O   UNL A   1      46.660  24.908  38.367  1.00  0.00    -0.744 OA
ENDBRANCH  68  69
ENDBRANCH  47  61
BRANCH  48  73
ATOM     73  C   UNL A   1      36.618  33.093  30.834  1.00  0.00     0.058 A 
ATOM     74  C   UNL A   1      35.280  32.843  31.175  1.00  0.00     0.135 A 
ATOM     75  C   UNL A   1      36.873  34.054  29.844  1.00  0.00     0.135 A 
ATOM     76  F   UNL A   1      34.987  31.927  32.110  1.00  0.00    -0.206 F 
ATOM     77  C   UNL A   1      34.232  33.516  30.555  1.00  0.00     0.059 A 
ATOM     78  C   UNL A   1      35.842  34.755  29.225  1.00  0.00     0.059 A 
ATOM     79  F   UNL A   1      38.137  34.339  29.493  1.00  0.00    -0.206 F 
ATOM     80  C   UNL A   1      34.524  34.473  29.583  1.00  0.00     0.060 A 
BRANCH  80  81
ATOM     81  S   UNL A   1      33.159  35.386  28.830  1.00  0.00     0.124 S 
ATOM     82  O   UNL A   1      33.872  36.386  28.044  1.00  0.00    -0.237 OA
ATOM     83  O   UNL A   1      32.475  34.344  28.071  1.00  0.00    -0.237 OA
ATOM     84  O   UNL A   1      32.422  35.896  29.984  1.00  0.00    -0.744 OA
ENDBRANCH  80  81
ENDBRANCH  48  73
BRANCH  60  85
ATOM     85  C   UNL A   1      39.562  33.723  37.124  1.00  0.00     0.058 A 
ATOM     86  C   UNL A   1      38.712  33.366  38.181  1.00  0.00     0.135 A 
ATOM     87  C   UNL A   1      40.229  34.957  37.203  1.00  0.00     0.135 A 
ATOM     88  F   UNL A   1      38.045  32.201  38.148  1.00  0.00    -0.206 F 
ATOM     89  C   UNL A   1      38.521  34.205  39.273  1.00  0.00     0.059 A 
ATOM     90  C   UNL A   1      40.070  35.801  38.296  1.00  0.00     0.059 A 
ATOM     91  F   UNL A   1      41.059  35.340  36.220  1.00  0.00    -0.206 F 
ATOM     92  C   UNL A   1      39.208  35.419  39.324  1.00  0.00     0.060 A 
BRANCH  92  93
ATOM     93  S   UNL A   1      38.994  36.478  40.771  1.00  0.00     0.124 S 
ATOM     94  O   UNL A   1      38.502  37.710  40.163  1.00  0.00    -0.237 OA
ATOM     95  O   UNL A   1      38.022  35.731  41.564  1.00  0.00    -0.237 OA
ATOM     96  O   UNL A   1      40.335  36.550  41.342  1.00  0.00    -0.744 OA
ENDBRANCH  92  93
ENDBRANCH  60  85
ENDBRANCH  34  35
ENDBRANCH  26  29
ENDBRANCH  24  25
ENDBRANCH   1  24
TORSDOF 17
ENDMDL
MODEL 2
REMARK VINA RESULT:     -11.7      4.595      9.972
REMARK SMILES CCc1nc(C)c(C(=O)NCCCNC(=O)c2ccc(-c3c4nc(c(-c5c(F)cc(S(=O)(=O)[O-])cc5F)c5ccc([nH]5)c(-c5c(F)cc(S(=O)(=O)[O-])cc5F)c5nc(c(-c6c(F)cc(S(=O)(=O)[O-])cc6F)c6ccc3[nH]6)C=C5)C=C4)cc2)c(SCc2cnc(Cl)s2)n1
REMARK SMILES IDX 12 1 11 2 10 3 8 4 9 5 7 7 3 8 4 9 92 10 5 11 83 12 6 13
REMARK SMILES IDX 2 14 1 15 84 16 85 17 86 18 87 19 91 20 88 21 89 22 90 23
REMARK SMILES IDX 13 24 14 25 15 26 16 28 17 29 18 30 82 31 19 32 81 33 20 34
REMARK SMILES IDX 21 35 22 36 75 37 23 38 80 39 74 40 76 41 24 42 79 43 73 44
REMARK SMILES IDX 72 45 25 47 59 48 38 49 58 50 39 51 42 52 57 53 77 54 40 55
REMARK SMILES IDX 41 56 56 58 78 59 43 60 26 61 27 62 36 63 28 64 29 65 35 66
REMARK SMILES IDX 37 67 30 68 31 69 32 70 33 71 34 72 60 73 61 74 70 75 62 76
REMARK SMILES IDX 63 77 69 78 71 79 64 80 65 81 66 82 67 83 68 84 44 85 45 86
REMARK SMILES IDX 54 87 46 88 47 89 53 90 55 91 48 92 49 93 50 94 51 95 52 96
REMARK H PARENT 10 6 14 27 76 46 42 57
REMARK Flexibility Score: inf
ROOT
ATOM      1  C   UNL A   1      33.735  27.819  25.765  1.00  0.00     0.042 C 
ENDROOT
BRANCH   1   2
ATOM      2  C   UNL A   1      33.894  26.308  25.547  1.00  0.00     0.118 C 
BRANCH   2   3
ATOM      3  N   UNL A   1      33.718  26.020  24.131  1.00  0.00    -0.352 N 
ATOM      4  C   UNL A   1      33.814  24.870  23.392  1.00  0.00     0.255 C 
ATOM      5  O   UNL A   1      34.028  25.002  22.187  1.00  0.00    -0.269 OA
ATOM      6  H   UNL A   1      33.483  26.813  23.596  1.00  0.00     0.163 HD
BRANCH   4   7
ATOM      7  C   UNL A   1      33.571  23.513  23.912  1.00  0.00     0.093 A 
ATOM      8  C   UNL A   1      33.082  20.856  24.392  1.00  0.00     0.129 A 
ATOM      9  N   UNL A   1      34.333  21.302  24.513  1.00  0.00    -0.237 NA
ATOM     10  N   UNL A   1      32.051  21.649  24.096  1.00  0.00    -0.226 NA
ATOM     11  C   UNL A   1      34.580  22.605  24.229  1.00  0.00     0.055 A 
ATOM     12  C   UNL A   1      32.284  22.969  23.855  1.00  0.00     0.113 A 
ATOM     13  C   UNL A   1      36.048  22.881  24.214  1.00  0.00     0.068 C 
BRANCH   8  14
ATOM     14  C   UNL A   1      32.900  19.363  24.373  1.00  0.00     0.074 C 
ATOM     15  C   UNL A   1      34.179  18.564  24.564  1.00  0.00     0.012 C 
ENDBRANCH   8  14
BRANCH  12  16
ATOM     16  S   UNL A   1      30.721  23.702  23.375  1.00  0.00    -0.100 SA
BRANCH  16  17
ATOM     17  C   UNL A   1      30.389  25.119  24.449  1.00  0.00     0.125 C 
BRANCH  17  18
ATOM     18  C   UNL A   1      29.792  26.358  23.867  1.00  0.00     0.036 A 
ATOM     19  C   UNL A   1      28.450  26.704  23.873  1.00  0.00     0.129 A 
ATOM     20  S   UNL A   1      30.688  27.645  23.163  1.00  0.00    -0.107 S 
ATOM     21  N   UNL A   1      28.125  27.903  23.271  1.00  0.00    -0.233 NA
ATOM     22  C   UNL A   1      29.233  28.465  22.861  1.00  0.00     0.183 A 
ATOM     23  Cl  UNL A   1      29.249  29.973  22.044  1.00  0.00    -0.051 Cl
ENDBRANCH  17  18
ENDBRANCH  16  17
ENDBRANCH  12  16
ENDBRANCH   4   7
ENDBRANCH   2   3
ENDBRANCH   1   2
BRANCH   1  24
ATOM     24  C   UNL A   1      33.467  28.201  27.219  1.00  0.00     0.118 C 
BRANCH  24  25
ATOM     25  N   UNL A   1      33.328  29.637  27.377  1.00  0.00    -0.352 N 
ATOM     26  C   UNL A   1      34.189  30.531  27.971  1.00  0.00     0.251 C 
ATOM     27  H   UNL A   1      32.503  30.025  27.006  1.00  0.00     0.163 HD
ATOM     28  O   UNL A   1      33.783  31.652  28.264  1.00  0.00    -0.269 OA
BRANCH  26  29
ATOM     29  C   UNL A   1      35.592  30.149  28.272  1.00  0.00     0.039 A 
ATOM     30  C   UNL A   1      36.543  30.192  27.247  1.00  0.00     0.014 A 
ATOM     31  C   UNL A   1      35.965  29.703  29.544  1.00  0.00     0.014 A 
ATOM     32  C   UNL A   1      37.872  29.842  27.511  1.00  0.00     0.010 A 
ATOM     33  C   UNL A   1      37.302  29.425  29.822  1.00  0.00     0.010 A 
ATOM     34  C   UNL A   1      38.269  29.481  28.807  1.00  0.00    -0.014 A 
BRANCH  34  35
ATOM     35  C   UNL A   1      39.681  29.139  29.127  1.00  0.00     0.031 A 
ATOM     36  C   UNL A   1      40.582  30.172  29.752  1.00  0.00     0.074 A 
ATOM     37  C   UNL A   1      40.173  27.931  28.791  1.00  0.00     0.049 A 
ATOM     38  N   UNL A   1      41.866  30.110  29.999  1.00  0.00    -0.248 NA
ATOM     39  C   UNL A   1      39.960  31.453  30.124  1.00  0.00     0.031 C 
ATOM     40  C   UNL A   1      39.410  26.853  28.157  1.00  0.00     0.029 A 
ATOM     41  N   UNL A   1      41.436  27.410  28.922  1.00  0.00    -0.354 N 
ATOM     42  C   UNL A   1      42.208  31.347  30.534  1.00  0.00     0.074 A 
ATOM     43  C   UNL A   1      41.007  32.154  30.533  1.00  0.00     0.031 C 
ATOM     44  C   UNL A   1      40.216  25.794  27.972  1.00  0.00     0.029 A 
ATOM     45  C   UNL A   1      41.560  26.129  28.435  1.00  0.00     0.049 A 
ATOM     46  H   UNL A   1      42.184  27.905  29.328  1.00  0.00     0.167 HD
ATOM     47  C   UNL A   1      43.409  31.766  31.004  1.00  0.00     0.037 A 
ATOM     48  C   UNL A   1      42.635  25.321  28.358  1.00  0.00     0.037 A 
ATOM     49  C   UNL A   1      44.594  30.950  31.028  1.00  0.00     0.049 A 
ATOM     50  C   UNL A   1      43.963  25.814  28.865  1.00  0.00     0.074 A 
ATOM     51  C   UNL A   1      45.846  31.262  31.530  1.00  0.00     0.029 A 
ATOM     52  N   UNL A   1      44.676  29.658  30.529  1.00  0.00    -0.354 N 
ATOM     53  N   UNL A   1      44.259  26.972  29.405  1.00  0.00    -0.248 NA
ATOM     54  C   UNL A   1      45.102  24.894  28.748  1.00  0.00     0.031 C 
ATOM     55  C   UNL A   1      46.693  30.171  31.302  1.00  0.00     0.029 A 
ATOM     56  C   UNL A   1      45.960  29.166  30.694  1.00  0.00     0.049 A 
ATOM     57  H   UNL A   1      43.930  29.164  30.119  1.00  0.00     0.167 HD
ATOM     58  C   UNL A   1      45.614  26.911  29.716  1.00  0.00     0.074 A 
ATOM     59  C   UNL A   1      46.076  25.599  29.308  1.00  0.00     0.031 C 
ATOM     60  C   UNL A   1      46.401  27.855  30.287  1.00  0.00     0.037 A 
BRANCH  47  61
ATOM     61  C   UNL A   1      43.493  33.174  31.528  1.00  0.00     0.058 A 
ATOM     62  C   UNL A   1      43.818  34.253  30.689  1.00  0.00     0.135 A 
ATOM     63  C   UNL A   1      43.241  33.451  32.881  1.00  0.00     0.135 A 
ATOM     64  F   UNL A   1      44.080  34.043  29.389  1.00  0.00    -0.206 F 
ATOM     65  C   UNL A   1      43.933  35.549  31.182  1.00  0.00     0.059 A 
ATOM     66  C   UNL A   1      43.325  34.744  33.391  1.00  0.00     0.059 A 
ATOM     67  F   UNL A   1      42.923  32.457  33.726  1.00  0.00    -0.206 F 
ATOM     68  C   UNL A   1      43.693  35.782  32.537  1.00  0.00     0.060 A 
BRANCH  68  69
ATOM     69  S   UNL A   1      43.874  37.464  33.168  1.00  0.00     0.124 S 
ATOM     70  O   UNL A   1      45.140  37.367  33.889  1.00  0.00    -0.237 OA
ATOM     71  O   UNL A   1      43.901  38.259  31.946  1.00  0.00    -0.237 OA
ATOM     72  O   UNL A   1      42.689  37.642  34.002  1.00  0.00    -0.744 OA
ENDBRANCH  68  69
ENDBRANCH  47  61
BRANCH  48  73
ATOM     73  C   UNL A   1      42.494  23.951  27.799  1.00  0.00     0.058 A 
ATOM     74  C   UNL A   1      42.401  22.839  28.648  1.00  0.00     0.135 A 
ATOM     75  C   UNL A   1      42.423  23.726  26.415  1.00  0.00     0.135 A 
ATOM     76  F   UNL A   1      42.471  23.004  29.978  1.00  0.00    -0.206 F 
ATOM     77  C   UNL A   1      42.250  21.550  28.148  1.00  0.00     0.059 A 
ATOM     78  C   UNL A   1      42.251  22.448  25.891  1.00  0.00     0.059 A 
ATOM     79  F   UNL A   1      42.492  24.760  25.562  1.00  0.00    -0.206 F 
ATOM     80  C   UNL A   1      42.172  21.365  26.767  1.00  0.00     0.060 A 
BRANCH  80  81
ATOM     81  S   UNL A   1      41.912  19.695  26.130  1.00  0.00     0.124 S 
ATOM     82  O   UNL A   1      40.493  19.725  25.796  1.00  0.00    -0.237 OA
ATOM     83  O   UNL A   1      42.835  19.649  25.000  1.00  0.00    -0.237 OA
ATOM     84  O   UNL A   1      42.278  18.846  27.262  1.00  0.00    -0.744 OA
ENDBRANCH  80  81
ENDBRANCH  48  73
BRANCH  60  85
ATOM     85  C   UNL A   1      47.839  27.497  30.533  1.00  0.00     0.058 A 
ATOM     86  C   UNL A   1      48.231  26.771  31.667  1.00  0.00     0.135 A 
ATOM     87  C   UNL A   1      48.826  27.829  29.590  1.00  0.00     0.135 A 
ATOM     88  F   UNL A   1      47.327  26.438  32.603  1.00  0.00    -0.206 F 
ATOM     89  C   UNL A   1      49.555  26.395  31.866  1.00  0.00     0.059 A 
ATOM     90  C   UNL A   1      50.151  27.444  29.758  1.00  0.00     0.059 A 
ATOM     91  F   UNL A   1      48.500  28.517  28.485  1.00  0.00    -0.206 F 
ATOM     92  C   UNL A   1      50.508  26.732  30.903  1.00  0.00     0.060 A 
BRANCH  92  93
ATOM     93  S   UNL A   1      52.214  26.194  31.145  1.00  0.00     0.124 S 
ATOM     94  O   UNL A   1      52.025  24.877  31.744  1.00  0.00    -0.237 OA
ATOM     95  O   UNL A   1      52.741  26.200  29.783  1.00  0.00    -0.237 OA
ATOM     96  O   UNL A   1      52.771  27.213  32.028  1.00  0.00    -0.744 OA
ENDBRANCH  92  93
ENDBRANCH  60  85
ENDBRANCH  34  35
ENDBRANCH  26  29
ENDBRANCH  24  25
ENDBRANCH   1  24
TORSDOF 17
ENDMDL
MODEL 3
REMARK VINA RESULT:     -11.6      6.444     12.228
REMARK SMILES CCc1nc(C)c(C(=O)NCCCNC(=O)c2ccc(-c3c4nc(c(-c5c(F)cc(S(=O)(=O)[O-])cc5F)c5ccc([nH]5)c(-c5c(F)cc(S(=O)(=O)[O-])cc5F)c5nc(c(-c6c(F)cc(S(=O)(=O)[O-])cc6F)c6ccc3[nH]6)C=C5)C=C4)cc2)c(SCc2cnc(Cl)s2)n1
REMARK SMILES IDX 12 1 11 2 10 3 8 4 9 5 7 7 3 8 4 9 92 10 5 11 83 12 6 13
REMARK SMILES IDX 2 14 1 15 84 16 85 17 86 18 87 19 91 20 88 21 89 22 90 23
REMARK SMILES IDX 13 24 14 25 15 26 16 28 17 29 18 30 82 31 19 32 81 33 20 34
REMARK SMILES IDX 21 35 22 36 75 37 23 38 80 39 74 40 76 41 24 42 79 43 73 44
REMARK SMILES IDX 72 45 25 47 59 48 38 49 58 50 39 51 42 52 57 53 77 54 40 55
REMARK SMILES IDX 41 56 56 58 78 59 43 60 26 61 27 62 36 63 28 64 29 65 35 66
REMARK SMILES IDX 37 67 30 68 31 69 32 70 33 71 34 72 60 73 61 74 70 75 62 76
REMARK SMILES IDX 63 77 69 78 71 79 64 80 65 81 66 82 67 83 68 84 44 85 45 86
REMARK SMILES IDX 54 87 46 88 47 89 53 90 55 91 48 92 49 93 50 94 51 95 52 96
REMARK H PARENT 10 6 14 27 76 46 42 57
REMARK Flexibility Score: inf
ROOT
ATOM      1  C   UNL A   1      34.479  31.072  27.670  1.00  0.00     0.042 C 
ENDROOT
BRANCH   1   2
ATOM      2  C   UNL A   1      34.714  29.655  27.129  1.00  0.00     0.118 C 
BRANCH   2   3
ATOM      3  N   UNL A   1      33.659  28.784  27.630  1.00  0.00    -0.352 N 
ATOM      4  C   UNL A   1      32.358  28.581  27.252  1.00  0.00     0.255 C 
ATOM      5  O   UNL A   1      31.601  28.113  28.103  1.00  0.00    -0.269 OA
ATOM      6  H   UNL A   1      33.938  28.231  28.395  1.00  0.00     0.163 HD
BRANCH   4   7
ATOM      7  C   UNL A   1      31.838  28.775  25.888  1.00  0.00     0.093 A 
ATOM      8  C   UNL A   1      30.440  28.942  23.532  1.00  0.00     0.129 A 
ATOM      9  N   UNL A   1      30.620  30.056  24.242  1.00  0.00    -0.237 NA
ATOM     10  N   UNL A   1      30.947  27.761  23.889  1.00  0.00    -0.226 NA
ATOM     11  C   UNL A   1      31.269  29.963  25.429  1.00  0.00     0.055 A 
ATOM     12  C   UNL A   1      31.642  27.668  25.056  1.00  0.00     0.113 A 
ATOM     13  C   UNL A   1      31.200  31.252  26.180  1.00  0.00     0.068 C 
BRANCH   8  14
ATOM     14  C   UNL A   1      29.434  29.012  22.415  1.00  0.00     0.074 C 
ATOM     15  C   UNL A   1      28.063  29.523  22.826  1.00  0.00     0.012 C 
ENDBRANCH   8  14
BRANCH  12  16
ATOM     16  S   UNL A   1      32.068  25.943  25.282  1.00  0.00    -0.100 SA
BRANCH  16  17
ATOM     17  C   UNL A   1      33.845  25.742  25.013  1.00  0.00     0.125 C 
BRANCH  17  18
ATOM     18  C   UNL A   1      34.453  24.381  25.105  1.00  0.00     0.036 A 
ATOM     19  C   UNL A   1      35.689  24.069  25.651  1.00  0.00     0.129 A 
ATOM     20  S   UNL A   1      33.677  22.922  24.633  1.00  0.00    -0.107 S 
ATOM     21  N   UNL A   1      36.049  22.737  25.626  1.00  0.00    -0.233 NA
ATOM     22  C   UNL A   1      35.060  22.058  25.102  1.00  0.00     0.183 A 
ATOM     23  Cl  UNL A   1      35.129  20.358  24.884  1.00  0.00    -0.051 Cl
ENDBRANCH  17  18
ENDBRANCH  16  17
ENDBRANCH  12  16
ENDBRANCH   4   7
ENDBRANCH   2   3
ENDBRANCH   1   2
BRANCH   1  24
ATOM     24  C   UNL A   1      35.667  31.632  28.450  1.00  0.00     0.118 C 
BRANCH  24  25
ATOM     25  N   UNL A   1      35.518  31.417  29.877  1.00  0.00    -0.352 N 
ATOM     26  C   UNL A   1      36.305  30.677  30.730  1.00  0.00     0.251 C 
ATOM     27  H   UNL A   1      34.746  31.863  30.294  1.00  0.00     0.163 HD
ATOM     28  O   UNL A   1      35.873  30.376  31.839  1.00  0.00    -0.269 OA
BRANCH  26  29
ATOM     29  C   UNL A   1      37.659  30.230  30.317  1.00  0.00     0.039 A 
ATOM     30  C   UNL A   1      37.952  30.116  28.954  1.00  0.00     0.014 A 
ATOM     31  C   UNL A   1      38.626  29.876  31.264  1.00  0.00     0.014 A 
ATOM     32  C   UNL A   1      39.224  29.702  28.543  1.00  0.00     0.010 A 
ATOM     33  C   UNL A   1      39.913  29.534  30.854  1.00  0.00     0.010 A 
ATOM     34  C   UNL A   1      40.225  29.433  29.490  1.00  0.00    -0.014 A 
BRANCH  34  35
ATOM     35  C   UNL A   1      41.596  29.027  29.084  1.00  0.00     0.031 A 
ATOM     36  C   UNL A   1      42.707  30.044  29.060  1.00  0.00     0.074 A 
ATOM     37  C   UNL A   1      41.829  27.766  28.669  1.00  0.00     0.049 A 
ATOM     38  N   UNL A   1      43.936  29.919  28.628  1.00  0.00    -0.248 NA
ATOM     39  C   UNL A   1      42.381  31.388  29.564  1.00  0.00     0.031 C 
ATOM     40  C   UNL A   1      40.833  26.694  28.619  1.00  0.00     0.029 A 
ATOM     41  N   UNL A   1      42.975  27.176  28.195  1.00  0.00    -0.354 N 
ATOM     42  C   UNL A   1      44.523  31.170  28.790  1.00  0.00     0.074 A 
ATOM     43  C   UNL A   1      43.502  32.050  29.315  1.00  0.00     0.031 C 
ATOM     44  C   UNL A   1      41.415  25.573  28.160  1.00  0.00     0.029 A 
ATOM     45  C   UNL A   1      42.813  25.856  27.844  1.00  0.00     0.049 A 
ATOM     46  H   UNL A   1      43.833  27.652  28.115  1.00  0.00     0.167 HD
ATOM     47  C   UNL A   1      45.802  31.546  28.543  1.00  0.00     0.037 A 
ATOM     48  C   UNL A   1      43.685  24.976  27.315  1.00  0.00     0.037 A 
ATOM     49  C   UNL A   1      46.821  30.659  28.046  1.00  0.00     0.049 A 
ATOM     50  C   UNL A   1      45.094  25.421  27.028  1.00  0.00     0.074 A 
ATOM     51  C   UNL A   1      48.158  30.927  27.812  1.00  0.00     0.029 A 
ATOM     52  N   UNL A   1      46.617  29.329  27.708  1.00  0.00    -0.354 N 
ATOM     53  N   UNL A   1      45.643  26.595  27.225  1.00  0.00    -0.248 NA
ATOM     54  C   UNL A   1      46.000  24.422  26.445  1.00  0.00     0.031 C 
ATOM     55  C   UNL A   1      48.754  29.769  27.299  1.00  0.00     0.029 A 
ATOM     56  C   UNL A   1      47.797  28.769  27.249  1.00  0.00     0.049 A 
ATOM     57  H   UNL A   1      45.758  28.853  27.782  1.00  0.00     0.167 HD
ATOM     58  C   UNL A   1      46.965  26.471  26.813  1.00  0.00     0.074 A 
ATOM     59  C   UNL A   1      47.135  25.104  26.361  1.00  0.00     0.031 C 
ATOM     60  C   UNL A   1      47.949  27.404  26.810  1.00  0.00     0.037 A 
BRANCH  47  61
ATOM     61  C   UNL A   1      46.163  32.981  28.808  1.00  0.00     0.058 A 
ATOM     62  C   UNL A   1      46.624  33.403  30.067  1.00  0.00     0.135 A 
ATOM     63  C   UNL A   1      46.055  33.947  27.795  1.00  0.00     0.135 A 
ATOM     64  F   UNL A   1      46.735  32.524  31.075  1.00  0.00    -0.206 F 
ATOM     65  C   UNL A   1      46.920  34.738  30.324  1.00  0.00     0.059 A 
ATOM     66  C   UNL A   1      46.372  35.284  28.022  1.00  0.00     0.059 A 
ATOM     67  F   UNL A   1      45.624  33.598  26.572  1.00  0.00    -0.206 F 
ATOM     68  C   UNL A   1      46.783  35.672  29.296  1.00  0.00     0.060 A 
BRANCH  68  69
ATOM     69  S   UNL A   1      47.145  37.405  29.651  1.00  0.00     0.124 S 
ATOM     70  O   UNL A   1      48.154  37.281  30.698  1.00  0.00    -0.237 OA
ATOM     71  O   UNL A   1      47.623  37.898  28.365  1.00  0.00    -0.237 OA
ATOM     72  O   UNL A   1      45.856  37.938  30.082  1.00  0.00    -0.744 OA
ENDBRANCH  68  69
ENDBRANCH  47  61
BRANCH  48  73
ATOM     73  C   UNL A   1      43.257  23.579  27.045  1.00  0.00     0.058 A 
ATOM     74  C   UNL A   1      43.020  23.145  25.733  1.00  0.00     0.135 A 
ATOM     75  C   UNL A   1      43.102  22.645  28.082  1.00  0.00     0.135 A 
ATOM     76  F   UNL A   1      43.149  24.004  24.710  1.00  0.00    -0.206 F 
ATOM     77  C   UNL A   1      42.637  21.837  25.455  1.00  0.00     0.059 A 
ATOM     78  C   UNL A   1      42.740  21.326  27.827  1.00  0.00     0.059 A 
ATOM     79  F   UNL A   1      43.331  23.008  29.353  1.00  0.00    -0.206 F 
ATOM     80  C   UNL A   1      42.503  20.933  26.510  1.00  0.00     0.060 A 
BRANCH  80  81
ATOM     81  S   UNL A   1      42.067  19.221  26.132  1.00  0.00     0.124 S 
ATOM     82  O   UNL A   1      40.645  19.339  25.833  1.00  0.00    -0.237 OA
ATOM     83  O   UNL A   1      42.937  18.925  24.998  1.00  0.00    -0.237 OA
ATOM     84  O   UNL A   1      42.397  18.513  27.366  1.00  0.00    -0.744 OA
ENDBRANCH  80  81
ENDBRANCH  48  73
BRANCH  60  85
ATOM     85  C   UNL A   1      49.306  26.974  26.329  1.00  0.00     0.058 A 
ATOM     86  C   UNL A   1      50.224  26.349  27.186  1.00  0.00     0.135 A 
ATOM     87  C   UNL A   1      49.665  27.131  24.980  1.00  0.00     0.135 A 
ATOM     88  F   UNL A   1      49.931  26.184  28.486  1.00  0.00    -0.206 F 
ATOM     89  C   UNL A   1      51.458  25.904  26.726  1.00  0.00     0.059 A 
ATOM     90  C   UNL A   1      50.885  26.673  24.494  1.00  0.00     0.059 A 
ATOM     91  F   UNL A   1      48.818  27.717  24.119  1.00  0.00    -0.206 F 
ATOM     92  C   UNL A   1      51.778  26.067  25.377  1.00  0.00     0.060 A 
BRANCH  92  93
ATOM     93  S   UNL A   1      53.362  25.438  24.779  1.00  0.00     0.124 S 
ATOM     94  O   UNL A   1      53.271  25.723  23.350  1.00  0.00    -0.237 OA
ATOM     95  O   UNL A   1      54.322  26.246  25.525  1.00  0.00    -0.237 OA
ATOM     96  O   UNL A   1      53.326  24.026  25.142  1.00  0.00    -0.744 OA
ENDBRANCH  92  93
ENDBRANCH  60  85
ENDBRANCH  34  35
ENDBRANCH  26  29
ENDBRANCH  24  25
ENDBRANCH   1  24
TORSDOF 17
ENDMDL
