MODEL 1
REMARK VINA RESULT:     -11.6      0.000      0.000
REMARK SMILES COc1ncnc(N2CCSC[C@@H]2CC(=O)NCCCNC(=O)c2ccc(-c3c4nc(c(-c5c(F)cc(S(=O)(=O)[O-])cc5F)c5ccc([nH]5)c(-c5c(F)cc(S(=O)(=O)[O-])cc5F)c5nc(c(-c6c(F)cc(S(=O)(=O)[O-])cc6F)c6ccc3[nH]6)C=C5)C=C4)cc2)c1[N+](=O)[O-]
REMARK SMILES IDX 19 1 18 2 17 3 15 4 16 5 14 7 13 8 8 9 9 10 10 11 12 12
REMARK SMILES IDX 11 13 7 14 3 15 4 16 90 17 5 18 6 19 2 20 1 21 91 22 92 23
REMARK SMILES IDX 93 24 20 25 21 26 22 27 23 29 24 30 25 31 89 32 26 33 88 34
REMARK SMILES IDX 27 35 28 36 29 37 82 38 30 39 87 40 81 41 83 42 31 43 86 44
REMARK SMILES IDX 80 45 79 46 32 48 66 49 45 50 65 51 46 52 49 53 64 54 84 55
REMARK SMILES IDX 47 56 48 57 63 59 85 60 50 61 33 62 34 63 43 64 35 65 36 66
REMARK SMILES IDX 42 67 44 68 37 69 38 70 39 71 40 72 41 73 67 74 68 75 77 76
REMARK SMILES IDX 69 77 70 78 76 79 78 80 71 81 72 82 73 83 74 84 75 85 51 86
REMARK SMILES IDX 52 87 61 88 53 89 54 90 60 91 62 92 55 93 56 94 57 95 58 96
REMARK SMILES IDX 59 97
REMARK H PARENT 17 6 21 28 83 47 49 58
REMARK Flexibility Score: inf
ROOT
ATOM      1  C   UNL A   1      39.244  22.461  26.511  1.00  0.00     0.042 C 
ENDROOT
BRANCH   1   2
ATOM      2  C   UNL A   1      38.096  23.388  26.112  1.00  0.00     0.117 C 
BRANCH   2   3
ATOM      3  N   UNL A   1      37.430  23.036  24.871  1.00  0.00    -0.356 N 
ATOM      4  C   UNL A   1      36.260  23.485  24.337  1.00  0.00     0.222 C 
ATOM      5  O   UNL A   1      36.072  23.318  23.130  1.00  0.00    -0.275 OA
ATOM      6  H   UNL A   1      37.900  22.364  24.326  1.00  0.00     0.163 HD
BRANCH   4   7
ATOM      7  C   UNL A   1      35.220  24.195  25.173  1.00  0.00     0.126 C 
BRANCH   7   8
ATOM      8  C   UNL A   1      33.855  24.351  24.483  1.00  0.00     0.103 C 
ATOM      9  N   UNL A   1      33.071  25.488  25.027  1.00  0.00    -0.345 N 
ATOM     10  C   UNL A   1      32.494  25.383  26.375  1.00  0.00     0.129 C 
ATOM     11  C   UNL A   1      31.569  24.173  26.529  1.00  0.00     0.091 C 
ATOM     12  C   UNL A   1      33.041  23.039  24.528  1.00  0.00     0.095 C 
ATOM     13  S   UNL A   1      32.415  22.599  26.187  1.00  0.00    -0.158 SA
BRANCH   9  14
ATOM     14  C   UNL A   1      32.771  26.537  24.175  1.00  0.00     0.215 A 
ATOM     15  C   UNL A   1      31.377  27.854  22.757  1.00  0.00     0.299 A 
ATOM     16  N   UNL A   1      32.310  28.817  22.671  1.00  0.00    -0.196 NA
ATOM     17  C   UNL A   1      31.589  26.690  23.468  1.00  0.00     0.372 A 
ATOM     18  C   UNL A   1      33.454  28.581  23.318  1.00  0.00     0.228 A 
ATOM     19  N   UNL A   1      33.710  27.507  24.086  1.00  0.00    -0.212 NA
BRANCH  15  20
ATOM     20  O   UNL A   1      30.258  28.108  22.011  1.00  0.00    -0.476 OA
ATOM     21  C   UNL A   1      29.336  28.998  22.635  1.00  0.00     0.280 C 
ENDBRANCH  15  20
BRANCH  17  22
ATOM     22  N   UNL A   1      30.540  25.732  23.531  1.00  0.00     0.072 N 
ATOM     23  O   UNL A   1      29.595  25.982  24.289  1.00  0.00    -0.258 OA
ATOM     24  O   UNL A   1      30.622  24.750  22.782  1.00  0.00    -0.258 OA
ENDBRANCH  17  22
ENDBRANCH   9  14
ENDBRANCH   7   8
ENDBRANCH   4   7
ENDBRANCH   2   3
ENDBRANCH   1   2
BRANCH   1  25
ATOM     25  C   UNL A   1      40.498  23.138  27.068  1.00  0.00     0.118 C 
BRANCH  25  26
ATOM     26  N   UNL A   1      41.301  23.798  26.054  1.00  0.00    -0.352 N 
ATOM     27  C   UNL A   1      41.713  25.112  25.978  1.00  0.00     0.251 C 
ATOM     28  H   UNL A   1      41.593  23.224  25.310  1.00  0.00     0.163 HD
ATOM     29  O   UNL A   1      42.290  25.501  24.967  1.00  0.00    -0.269 OA
BRANCH  27  30
ATOM     30  C   UNL A   1      41.456  26.064  27.089  1.00  0.00     0.039 A 
ATOM     31  C   UNL A   1      40.465  25.766  28.027  1.00  0.00     0.014 A 
ATOM     32  C   UNL A   1      42.141  27.275  27.181  1.00  0.00     0.014 A 
ATOM     33  C   UNL A   1      40.208  26.655  29.080  1.00  0.00     0.010 A 
ATOM     34  C   UNL A   1      41.929  28.133  28.268  1.00  0.00     0.010 A 
ATOM     35  C   UNL A   1      40.957  27.836  29.234  1.00  0.00    -0.014 A 
BRANCH  35  36
ATOM     36  C   UNL A   1      40.749  28.727  30.416  1.00  0.00     0.031 A 
ATOM     37  C   UNL A   1      41.615  28.625  31.648  1.00  0.00     0.074 A 
ATOM     38  C   UNL A   1      39.744  29.628  30.399  1.00  0.00     0.049 A 
ATOM     39  N   UNL A   1      41.581  29.343  32.746  1.00  0.00    -0.248 NA
ATOM     40  C   UNL A   1      42.636  27.569  31.659  1.00  0.00     0.031 C 
ATOM     41  C   UNL A   1      38.790  29.804  29.304  1.00  0.00     0.029 A 
ATOM     42  N   UNL A   1      39.362  30.569  31.325  1.00  0.00    -0.354 N 
ATOM     43  C   UNL A   1      42.565  28.821  33.580  1.00  0.00     0.074 A 
ATOM     44  C   UNL A   1      43.140  27.690  32.880  1.00  0.00     0.031 C 
ATOM     45  C   UNL A   1      37.967  30.823  29.596  1.00  0.00     0.029 A 
ATOM     46  C   UNL A   1      38.307  31.351  30.915  1.00  0.00     0.049 A 
ATOM     47  H   UNL A   1      39.802  30.675  32.200  1.00  0.00     0.167 HD
ATOM     48  C   UNL A   1      42.971  29.250  34.801  1.00  0.00     0.037 A 
ATOM     49  C   UNL A   1      37.687  32.384  31.518  1.00  0.00     0.037 A 
ATOM     50  C   UNL A   1      42.412  30.384  35.496  1.00  0.00     0.049 A 
ATOM     51  C   UNL A   1      38.149  32.845  32.872  1.00  0.00     0.074 A 
ATOM     52  C   UNL A   1      42.804  30.932  36.707  1.00  0.00     0.029 A 
ATOM     53  N   UNL A   1      41.339  31.141  35.049  1.00  0.00    -0.354 N 
ATOM     54  N   UNL A   1      39.129  32.384  33.610  1.00  0.00    -0.248 NA
ATOM     55  C   UNL A   1      37.422  33.974  33.472  1.00  0.00     0.031 C 
ATOM     56  C   UNL A   1      41.941  31.993  37.011  1.00  0.00     0.029 A 
ATOM     57  C   UNL A   1      41.041  32.137  35.968  1.00  0.00     0.049 A 
ATOM     58  H   UNL A   1      40.859  30.993  34.202  1.00  0.00     0.167 HD
ATOM     59  C   UNL A   1      39.155  33.181  34.750  1.00  0.00     0.074 A 
ATOM     60  C   UNL A   1      38.096  34.159  34.599  1.00  0.00     0.031 C 
ATOM     61  C   UNL A   1      39.985  33.108  35.819  1.00  0.00     0.037 A 
BRANCH  48  62
ATOM     62  C   UNL A   1      44.085  28.483  35.469  1.00  0.00     0.058 A 
ATOM     63  C   UNL A   1      45.436  28.777  35.217  1.00  0.00     0.135 A 
ATOM     64  C   UNL A   1      43.804  27.447  36.375  1.00  0.00     0.135 A 
ATOM     65  F   UNL A   1      45.766  29.756  34.358  1.00  0.00    -0.206 F 
ATOM     66  C   UNL A   1      46.463  28.036  35.790  1.00  0.00     0.059 A 
ATOM     67  C   UNL A   1      44.817  26.712  36.985  1.00  0.00     0.059 A 
ATOM     68  F   UNL A   1      42.532  27.131  36.667  1.00  0.00    -0.206 F 
ATOM     69  C   UNL A   1      46.144  26.996  36.665  1.00  0.00     0.060 A 
BRANCH  69  70
ATOM     70  S   UNL A   1      47.486  26.012  37.365  1.00  0.00     0.124 S 
ATOM     71  O   UNL A   1      47.973  26.897  38.419  1.00  0.00    -0.237 OA
ATOM     72  O   UNL A   1      46.794  24.810  37.818  1.00  0.00    -0.237 OA
ATOM     73  O   UNL A   1      48.392  25.823  36.236  1.00  0.00    -0.744 OA
ENDBRANCH  69  70
ENDBRANCH  48  62
BRANCH  49  74
ATOM     74  C   UNL A   1      36.589  33.094  30.808  1.00  0.00     0.058 A 
ATOM     75  C   UNL A   1      35.254  32.903  31.193  1.00  0.00     0.135 A 
ATOM     76  C   UNL A   1      36.850  34.005  29.774  1.00  0.00     0.135 A 
ATOM     77  F   UNL A   1      34.954  32.035  32.171  1.00  0.00    -0.206 F 
ATOM     78  C   UNL A   1      34.214  33.593  30.579  1.00  0.00     0.059 A 
ATOM     79  C   UNL A   1      35.830  34.723  29.160  1.00  0.00     0.059 A 
ATOM     80  F   UNL A   1      38.114  34.232  29.382  1.00  0.00    -0.206 F 
ATOM     81  C   UNL A   1      34.514  34.509  29.569  1.00  0.00     0.060 A 
BRANCH  81  82
ATOM     82  S   UNL A   1      33.165  35.466  28.843  1.00  0.00     0.124 S 
ATOM     83  O   UNL A   1      32.463  35.933  30.032  1.00  0.00    -0.237 OA
ATOM     84  O   UNL A   1      33.885  36.482  28.083  1.00  0.00    -0.237 OA
ATOM     85  O   UNL A   1      32.452  34.479  28.035  1.00  0.00    -0.744 OA
ENDBRANCH  81  82
ENDBRANCH  49  74
BRANCH  61  86
ATOM     86  C   UNL A   1      39.806  34.133  36.907  1.00  0.00     0.058 A 
ATOM     87  C   UNL A   1      40.360  35.419  36.809  1.00  0.00     0.135 A 
ATOM     88  C   UNL A   1      39.041  33.836  38.046  1.00  0.00     0.135 A 
ATOM     89  F   UNL A   1      41.109  35.754  35.745  1.00  0.00    -0.206 F 
ATOM     90  C   UNL A   1      40.180  36.367  37.812  1.00  0.00     0.059 A 
ATOM     91  C   UNL A   1      38.828  34.776  39.050  1.00  0.00     0.059 A 
ATOM     92  F   UNL A   1      38.482  32.624  38.188  1.00  0.00    -0.206 F 
ATOM     93  C   UNL A   1      39.412  36.037  38.930  1.00  0.00     0.060 A 
BRANCH  93  94
ATOM     94  S   UNL A   1      39.162  37.284  40.212  1.00  0.00     0.124 S 
ATOM     95  O   UNL A   1      40.522  37.771  40.418  1.00  0.00    -0.237 OA
ATOM     96  O   UNL A   1      38.246  38.219  39.564  1.00  0.00    -0.237 OA
ATOM     97  O   UNL A   1      38.591  36.524  41.320  1.00  0.00    -0.744 OA
ENDBRANCH  93  94
ENDBRANCH  61  86
ENDBRANCH  35  36
ENDBRANCH  27  30
ENDBRANCH  25  26
ENDBRANCH   1  25
TORSDOF 17
ENDMDL
MODEL 2
REMARK VINA RESULT:     -11.6      6.323     11.950
REMARK SMILES COc1ncnc(N2CCSC[C@@H]2CC(=O)NCCCNC(=O)c2ccc(-c3c4nc(c(-c5c(F)cc(S(=O)(=O)[O-])cc5F)c5ccc([nH]5)c(-c5c(F)cc(S(=O)(=O)[O-])cc5F)c5nc(c(-c6c(F)cc(S(=O)(=O)[O-])cc6F)c6ccc3[nH]6)C=C5)C=C4)cc2)c1[N+](=O)[O-]
REMARK SMILES IDX 19 1 18 2 17 3 15 4 16 5 14 7 13 8 8 9 9 10 10 11 12 12
REMARK SMILES IDX 11 13 7 14 3 15 4 16 90 17 5 18 6 19 2 20 1 21 91 22 92 23
REMARK SMILES IDX 93 24 20 25 21 26 22 27 23 29 24 30 25 31 89 32 26 33 88 34
REMARK SMILES IDX 27 35 28 36 29 37 82 38 30 39 87 40 81 41 83 42 31 43 86 44
REMARK SMILES IDX 80 45 79 46 32 48 66 49 45 50 65 51 46 52 49 53 64 54 84 55
REMARK SMILES IDX 47 56 48 57 63 59 85 60 50 61 33 62 34 63 43 64 35 65 36 66
REMARK SMILES IDX 42 67 44 68 37 69 38 70 39 71 40 72 41 73 67 74 68 75 77 76
REMARK SMILES IDX 69 77 70 78 76 79 78 80 71 81 72 82 73 83 74 84 75 85 51 86
REMARK SMILES IDX 52 87 61 88 53 89 54 90 60 91 62 92 55 93 56 94 57 95 58 96
REMARK SMILES IDX 59 97
REMARK H PARENT 17 6 21 28 83 47 49 58
REMARK Flexibility Score: inf
ROOT
ATOM      1  C   UNL A   1      34.802  30.136  27.582  1.00  0.00     0.042 C 
ENDROOT
BRANCH   1   2
ATOM      2  C   UNL A   1      33.393  30.539  27.147  1.00  0.00     0.117 C 
BRANCH   2   3
ATOM      3  N   UNL A   1      32.339  29.640  27.583  1.00  0.00    -0.356 N 
ATOM      4  C   UNL A   1      32.076  28.350  27.232  1.00  0.00     0.222 C 
ATOM      5  O   UNL A   1      31.360  27.681  27.979  1.00  0.00    -0.275 OA
ATOM      6  H   UNL A   1      31.713  30.024  28.238  1.00  0.00     0.163 HD
BRANCH   4   7
ATOM      7  C   UNL A   1      32.656  27.727  25.984  1.00  0.00     0.126 C 
BRANCH   7   8
ATOM      8  C   UNL A   1      32.081  26.343  25.643  1.00  0.00     0.103 C 
ATOM      9  N   UNL A   1      32.957  25.574  24.724  1.00  0.00    -0.345 N 
ATOM     10  C   UNL A   1      33.064  25.990  23.318  1.00  0.00     0.129 C 
ATOM     11  C   UNL A   1      31.707  26.030  22.609  1.00  0.00     0.091 C 
ATOM     12  C   UNL A   1      30.643  26.445  25.089  1.00  0.00     0.095 C 
ATOM     13  S   UNL A   1      30.531  27.162  23.413  1.00  0.00    -0.158 SA
BRANCH   9  14
ATOM     14  C   UNL A   1      33.508  24.392  25.187  1.00  0.00     0.215 A 
ATOM     15  C   UNL A   1      33.633  22.033  25.510  1.00  0.00     0.299 A 
ATOM     16  N   UNL A   1      34.877  22.128  26.008  1.00  0.00    -0.196 NA
ATOM     17  C   UNL A   1      32.910  23.144  25.126  1.00  0.00     0.372 A 
ATOM     18  C   UNL A   1      35.373  23.364  26.105  1.00  0.00     0.228 A 
ATOM     19  N   UNL A   1      34.761  24.487  25.690  1.00  0.00    -0.212 NA
BRANCH  15  20
ATOM     20  O   UNL A   1      33.142  20.756  25.507  1.00  0.00    -0.476 OA
ATOM     21  C   UNL A   1      33.939  19.829  24.773  1.00  0.00     0.280 C 
ENDBRANCH  15  20
BRANCH  17  22
ATOM     22  N   UNL A   1      31.609  22.954  24.584  1.00  0.00     0.072 N 
ATOM     23  O   UNL A   1      31.533  22.718  23.372  1.00  0.00    -0.258 OA
ATOM     24  O   UNL A   1      30.655  22.980  25.373  1.00  0.00    -0.258 OA
ENDBRANCH  17  22
ENDBRANCH   9  14
ENDBRANCH   7   8
ENDBRANCH   4   7
ENDBRANCH   2   3
ENDBRANCH   1   2
BRANCH   1  25
ATOM     25  C   UNL A   1      35.564  31.153  28.432  1.00  0.00     0.118 C 
BRANCH  25  26
ATOM     26  N   UNL A   1      35.510  30.876  29.856  1.00  0.00    -0.352 N 
ATOM     27  C   UNL A   1      36.467  30.324  30.681  1.00  0.00     0.251 C 
ATOM     28  H   UNL A   1      34.664  31.118  30.299  1.00  0.00     0.163 HD
ATOM     29  O   UNL A   1      36.176  30.061  31.845  1.00  0.00    -0.269 OA
BRANCH  27  30
ATOM     30  C   UNL A   1      37.834  30.028  30.182  1.00  0.00     0.039 A 
ATOM     31  C   UNL A   1      38.852  29.758  31.100  1.00  0.00     0.014 A 
ATOM     32  C   UNL A   1      38.137  30.072  28.821  1.00  0.00     0.014 A 
ATOM     33  C   UNL A   1      40.149  29.480  30.647  1.00  0.00     0.010 A 
ATOM     34  C   UNL A   1      39.417  29.731  28.365  1.00  0.00     0.010 A 
ATOM     35  C   UNL A   1      40.443  29.431  29.272  1.00  0.00    -0.014 A 
BRANCH  35  36
ATOM     36  C   UNL A   1      41.801  29.031  28.793  1.00  0.00     0.031 A 
ATOM     37  C   UNL A   1      42.954  30.007  28.773  1.00  0.00     0.074 A 
ATOM     38  C   UNL A   1      42.003  27.777  28.338  1.00  0.00     0.049 A 
ATOM     39  N   UNL A   1      44.200  29.810  28.414  1.00  0.00    -0.248 NA
ATOM     40  C   UNL A   1      42.665  31.386  29.190  1.00  0.00     0.031 C 
ATOM     41  C   UNL A   1      40.974  26.741  28.242  1.00  0.00     0.029 A 
ATOM     42  N   UNL A   1      43.140  27.157  27.878  1.00  0.00    -0.354 N 
ATOM     43  C   UNL A   1      44.841  31.037  28.551  1.00  0.00     0.074 A 
ATOM     44  C   UNL A   1      43.829  31.984  28.974  1.00  0.00     0.031 C 
ATOM     45  C   UNL A   1      41.534  25.603  27.806  1.00  0.00     0.029 A 
ATOM     46  C   UNL A   1      42.954  25.833  27.552  1.00  0.00     0.049 A 
ATOM     47  H   UNL A   1      44.007  27.616  27.790  1.00  0.00     0.167 HD
ATOM     48  C   UNL A   1      46.149  31.347  28.366  1.00  0.00     0.037 A 
ATOM     49  C   UNL A   1      43.823  24.902  27.111  1.00  0.00     0.037 A 
ATOM     50  C   UNL A   1      47.162  30.405  27.959  1.00  0.00     0.049 A 
ATOM     51  C   UNL A   1      45.267  25.264  26.910  1.00  0.00     0.074 A 
ATOM     52  C   UNL A   1      48.524  30.614  27.809  1.00  0.00     0.029 A 
ATOM     53  N   UNL A   1      46.928  29.078  27.629  1.00  0.00    -0.354 N 
ATOM     54  N   UNL A   1      45.866  26.411  27.116  1.00  0.00    -0.248 NA
ATOM     55  C   UNL A   1      46.156  24.200  26.422  1.00  0.00     0.031 C 
ATOM     56  C   UNL A   1      49.105  29.425  27.350  1.00  0.00     0.029 A 
ATOM     57  C   UNL A   1      48.114  28.462  27.257  1.00  0.00     0.049 A 
ATOM     58  H   UNL A   1      46.048  28.637  27.656  1.00  0.00     0.167 HD
ATOM     59  C   UNL A   1      47.207  26.202  26.808  1.00  0.00     0.074 A 
ATOM     60  C   UNL A   1      47.331  24.815  26.409  1.00  0.00     0.031 C 
ATOM     61  C   UNL A   1      48.237  27.081  26.857  1.00  0.00     0.037 A 
BRANCH  48  62
ATOM     62  C   UNL A   1      46.561  32.778  28.606  1.00  0.00     0.058 A 
ATOM     63  C   UNL A   1      46.963  33.225  29.876  1.00  0.00     0.135 A 
ATOM     64  C   UNL A   1      46.560  33.713  27.558  1.00  0.00     0.135 A 
ATOM     65  F   UNL A   1      46.982  32.376  30.917  1.00  0.00    -0.206 F 
ATOM     66  C   UNL A   1      47.291  34.556  30.112  1.00  0.00     0.059 A 
ATOM     67  C   UNL A   1      46.916  35.044  27.764  1.00  0.00     0.059 A 
ATOM     68  F   UNL A   1      46.200  33.341  26.319  1.00  0.00    -0.206 F 
ATOM     69  C   UNL A   1      47.254  35.462  29.050  1.00  0.00     0.060 A 
BRANCH  69  70
ATOM     70  S   UNL A   1      47.636  37.195  29.380  1.00  0.00     0.124 S 
ATOM     71  O   UNL A   1      46.480  37.863  28.787  1.00  0.00    -0.237 OA
ATOM     72  O   UNL A   1      47.710  37.232  30.836  1.00  0.00    -0.237 OA
ATOM     73  O   UNL A   1      48.904  37.401  28.685  1.00  0.00    -0.744 OA
ENDBRANCH  69  70
ENDBRANCH  48  62
BRANCH  49  74
ATOM     74  C   UNL A   1      43.350  23.510  26.885  1.00  0.00     0.058 A 
ATOM     75  C   UNL A   1      43.179  23.019  25.583  1.00  0.00     0.135 A 
ATOM     76  C   UNL A   1      43.110  22.633  27.953  1.00  0.00     0.135 A 
ATOM     77  F   UNL A   1      43.387  23.824  24.529  1.00  0.00    -0.206 F 
ATOM     78  C   UNL A   1      42.787  21.706  25.345  1.00  0.00     0.059 A 
ATOM     79  C   UNL A   1      42.739  21.309  27.741  1.00  0.00     0.059 A 
ATOM     80  F   UNL A   1      43.276  23.052  29.218  1.00  0.00    -0.206 F 
ATOM     81  C   UNL A   1      42.579  20.856  26.432  1.00  0.00     0.060 A 
BRANCH  81  82
ATOM     82  S   UNL A   1      42.161  19.129  26.109  1.00  0.00     0.124 S 
ATOM     83  O   UNL A   1      42.555  18.491  27.359  1.00  0.00    -0.237 OA
ATOM     84  O   UNL A   1      40.726  19.203  25.851  1.00  0.00    -0.237 OA
ATOM     85  O   UNL A   1      42.981  18.799  24.945  1.00  0.00    -0.744 OA
ENDBRANCH  81  82
ENDBRANCH  49  74
BRANCH  61  86
ATOM     86  C   UNL A   1      49.606  26.567  26.498  1.00  0.00     0.058 A 
ATOM     87  C   UNL A   1      50.459  26.003  27.458  1.00  0.00     0.135 A 
ATOM     88  C   UNL A   1      50.055  26.607  25.168  1.00  0.00     0.135 A 
ATOM     89  F   UNL A   1      50.084  25.947  28.747  1.00  0.00    -0.206 F 
ATOM     90  C   UNL A   1      51.717  25.516  27.118  1.00  0.00     0.059 A 
ATOM     91  C   UNL A   1      51.299  26.104  24.800  1.00  0.00     0.059 A 
ATOM     92  F   UNL A   1      49.276  27.129  24.207  1.00  0.00    -0.206 F 
ATOM     93  C   UNL A   1      52.130  25.571  25.785  1.00  0.00     0.060 A 
BRANCH  93  94
ATOM     94  S   UNL A   1      53.754  24.911  25.350  1.00  0.00     0.124 S 
ATOM     95  O   UNL A   1      53.438  23.515  25.069  1.00  0.00    -0.237 OA
ATOM     96  O   UNL A   1      54.122  25.723  24.192  1.00  0.00    -0.237 OA
ATOM     97  O   UNL A   1      54.550  25.147  26.550  1.00  0.00    -0.744 OA
ENDBRANCH  93  94
ENDBRANCH  61  86
ENDBRANCH  35  36
ENDBRANCH  27  30
ENDBRANCH  25  26
ENDBRANCH   1  25
TORSDOF 17
ENDMDL
MODEL 3
REMARK VINA RESULT:     -11.4      4.636      7.330
REMARK SMILES COc1ncnc(N2CCSC[C@@H]2CC(=O)NCCCNC(=O)c2ccc(-c3c4nc(c(-c5c(F)cc(S(=O)(=O)[O-])cc5F)c5ccc([nH]5)c(-c5c(F)cc(S(=O)(=O)[O-])cc5F)c5nc(c(-c6c(F)cc(S(=O)(=O)[O-])cc6F)c6ccc3[nH]6)C=C5)C=C4)cc2)c1[N+](=O)[O-]
REMARK SMILES IDX 19 1 18 2 17 3 15 4 16 5 14 7 13 8 8 9 9 10 10 11 12 12
REMARK SMILES IDX 11 13 7 14 3 15 4 16 90 17 5 18 6 19 2 20 1 21 91 22 92 23
REMARK SMILES IDX 93 24 20 25 21 26 22 27 23 29 24 30 25 31 89 32 26 33 88 34
REMARK SMILES IDX 27 35 28 36 29 37 82 38 30 39 87 40 81 41 83 42 31 43 86 44
REMARK SMILES IDX 80 45 79 46 32 48 66 49 45 50 65 51 46 52 49 53 64 54 84 55
REMARK SMILES IDX 47 56 48 57 63 59 85 60 50 61 33 62 34 63 43 64 35 65 36 66
REMARK SMILES IDX 42 67 44 68 37 69 38 70 39 71 40 72 41 73 67 74 68 75 77 76
REMARK SMILES IDX 69 77 70 78 76 79 78 80 71 81 72 82 73 83 74 84 75 85 51 86
REMARK SMILES IDX 52 87 61 88 53 89 54 90 60 91 62 92 55 93 56 94 57 95 58 96
REMARK SMILES IDX 59 97
REMARK H PARENT 17 6 21 28 83 47 49 58
REMARK Flexibility Score: inf
ROOT
ATOM      1  C   UNL A   1      40.871  21.296  27.306  1.00  0.00     0.042 C 
ENDROOT
BRANCH   1   2
ATOM      2  C   UNL A   1      42.280  20.812  27.643  1.00  0.00     0.117 C 
BRANCH   2   3
ATOM      3  N   UNL A   1      42.928  21.527  28.728  1.00  0.00    -0.356 N 
ATOM      4  C   UNL A   1      43.172  22.858  28.889  1.00  0.00     0.222 C 
ATOM      5  O   UNL A   1      43.408  23.270  30.026  1.00  0.00    -0.275 OA
ATOM      6  H   UNL A   1      43.243  20.959  29.468  1.00  0.00     0.163 HD
BRANCH   4   7
ATOM      7  C   UNL A   1      43.131  23.824  27.728  1.00  0.00     0.126 C 
BRANCH   7   8
ATOM      8  C   UNL A   1      44.510  24.344  27.291  1.00  0.00     0.103 C 
ATOM      9  N   UNL A   1      44.441  25.175  26.063  1.00  0.00    -0.345 N 
ATOM     10  C   UNL A   1      44.162  24.528  24.773  1.00  0.00     0.129 C 
ATOM     11  C   UNL A   1      45.171  23.427  24.434  1.00  0.00     0.091 C 
ATOM     12  C   UNL A   1      45.528  23.193  27.131  1.00  0.00     0.095 C 
ATOM     13  S   UNL A   1      45.220  22.112  25.690  1.00  0.00    -0.158 SA
BRANCH   9  14
ATOM     14  C   UNL A   1      44.811  26.505  26.157  1.00  0.00     0.215 A 
ATOM     15  C   UNL A   1      46.243  28.388  25.859  1.00  0.00     0.299 A 
ATOM     16  N   UNL A   1      45.273  29.236  26.240  1.00  0.00    -0.196 NA
ATOM     17  C   UNL A   1      46.058  27.021  25.840  1.00  0.00     0.372 A 
ATOM     18  C   UNL A   1      44.116  28.673  26.598  1.00  0.00     0.228 A 
ATOM     19  N   UNL A   1      43.834  27.360  26.542  1.00  0.00    -0.212 NA
BRANCH  15  20
ATOM     20  O   UNL A   1      47.431  29.008  25.580  1.00  0.00    -0.476 OA
ATOM     21  C   UNL A   1      48.224  29.287  26.732  1.00  0.00     0.280 C 
ENDBRANCH  15  20
BRANCH  17  22
ATOM     22  N   UNL A   1      47.128  26.196  25.398  1.00  0.00     0.072 N 
ATOM     23  O   UNL A   1      47.294  26.097  24.176  1.00  0.00    -0.258 OA
ATOM     24  O   UNL A   1      47.848  25.685  26.266  1.00  0.00    -0.258 OA
ENDBRANCH  17  22
ENDBRANCH   9  14
ENDBRANCH   7   8
ENDBRANCH   4   7
ENDBRANCH   2   3
ENDBRANCH   1   2
BRANCH   1  25
ATOM     25  C   UNL A   1      40.723  22.101  26.014  1.00  0.00     0.118 C 
BRANCH  25  26
ATOM     26  N   UNL A   1      39.342  22.374  25.655  1.00  0.00    -0.352 N 
ATOM     27  C   UNL A   1      38.518  23.404  26.055  1.00  0.00     0.251 C 
ATOM     28  H   UNL A   1      38.934  21.728  25.034  1.00  0.00     0.163 HD
ATOM     29  O   UNL A   1      37.335  23.387  25.728  1.00  0.00    -0.269 OA
BRANCH  27  30
ATOM     30  C   UNL A   1      39.032  24.522  26.887  1.00  0.00     0.039 A 
ATOM     31  C   UNL A   1      39.845  25.493  26.298  1.00  0.00     0.014 A 
ATOM     32  C   UNL A   1      38.770  24.590  28.255  1.00  0.00     0.014 A 
ATOM     33  C   UNL A   1      40.341  26.553  27.069  1.00  0.00     0.010 A 
ATOM     34  C   UNL A   1      39.212  25.683  29.012  1.00  0.00     0.010 A 
ATOM     35  C   UNL A   1      40.006  26.682  28.430  1.00  0.00    -0.014 A 
BRANCH  35  36
ATOM     36  C   UNL A   1      40.453  27.869  29.220  1.00  0.00     0.031 A 
ATOM     37  C   UNL A   1      41.831  27.941  29.832  1.00  0.00     0.074 A 
ATOM     38  C   UNL A   1      39.596  28.892  29.422  1.00  0.00     0.049 A 
ATOM     39  N   UNL A   1      42.382  28.912  30.521  1.00  0.00    -0.248 NA
ATOM     40  C   UNL A   1      42.696  26.765  29.665  1.00  0.00     0.031 C 
ATOM     41  C   UNL A   1      38.215  28.940  28.943  1.00  0.00     0.029 A 
ATOM     42  N   UNL A   1      39.762  30.091  30.074  1.00  0.00    -0.354 N 
ATOM     43  C   UNL A   1      43.648  28.463  30.880  1.00  0.00     0.074 A 
ATOM     44  C   UNL A   1      43.762  27.109  30.376  1.00  0.00     0.031 C 
ATOM     45  C   UNL A   1      37.676  30.125  29.270  1.00  0.00     0.029 A 
ATOM     46  C   UNL A   1      38.658  30.909  30.015  1.00  0.00     0.049 A 
ATOM     47  H   UNL A   1      40.594  30.342  30.538  1.00  0.00     0.167 HD
ATOM     48  C   UNL A   1      44.635  29.116  31.543  1.00  0.00     0.037 A 
ATOM     49  C   UNL A   1      38.454  32.153  30.492  1.00  0.00     0.037 A 
ATOM     50  C   UNL A   1      44.532  30.469  32.034  1.00  0.00     0.049 A 
ATOM     51  C   UNL A   1      39.557  32.861  31.227  1.00  0.00     0.074 A 
ATOM     52  C   UNL A   1      45.502  31.235  32.660  1.00  0.00     0.029 A 
ATOM     53  N   UNL A   1      43.393  31.257  31.962  1.00  0.00    -0.354 N 
ATOM     54  N   UNL A   1      40.772  32.445  31.490  1.00  0.00    -0.248 NA
ATOM     55  C   UNL A   1      39.262  34.213  31.724  1.00  0.00     0.031 C 
ATOM     56  C   UNL A   1      44.936  32.470  33.003  1.00  0.00     0.029 A 
ATOM     57  C   UNL A   1      43.627  32.492  32.550  1.00  0.00     0.049 A 
ATOM     58  H   UNL A   1      42.541  30.980  31.553  1.00  0.00     0.167 HD
ATOM     59  C   UNL A   1      41.396  33.493  32.160  1.00  0.00     0.074 A 
ATOM     60  C   UNL A   1      40.426  34.564  32.255  1.00  0.00     0.031 C 
ATOM     61  C   UNL A   1      42.660  33.557  32.647  1.00  0.00     0.037 A 
BRANCH  48  62
ATOM     62  C   UNL A   1      45.924  28.369  31.778  1.00  0.00     0.058 A 
ATOM     63  C   UNL A   1      46.964  28.382  30.834  1.00  0.00     0.135 A 
ATOM     64  C   UNL A   1      46.127  27.636  32.959  1.00  0.00     0.135 A 
ATOM     65  F   UNL A   1      46.827  29.064  29.685  1.00  0.00    -0.206 F 
ATOM     66  C   UNL A   1      48.132  27.650  31.024  1.00  0.00     0.059 A 
ATOM     67  C   UNL A   1      47.300  26.921  33.185  1.00  0.00     0.059 A 
ATOM     68  F   UNL A   1      45.174  27.600  33.904  1.00  0.00    -0.206 F 
ATOM     69  C   UNL A   1      48.286  26.912  32.199  1.00  0.00     0.060 A 
BRANCH  69  70
ATOM     70  S   UNL A   1      49.785  25.929  32.412  1.00  0.00     0.124 S 
ATOM     71  O   UNL A   1      50.568  26.786  33.298  1.00  0.00    -0.237 OA
ATOM     72  O   UNL A   1      49.275  24.700  33.011  1.00  0.00    -0.237 OA
ATOM     73  O   UNL A   1      50.299  25.795  31.053  1.00  0.00    -0.744 OA
ENDBRANCH  69  70
ENDBRANCH  48  62
BRANCH  49  74
ATOM     74  C   UNL A   1      37.157  32.832  30.233  1.00  0.00     0.058 A 
ATOM     75  C   UNL A   1      36.111  32.748  31.165  1.00  0.00     0.135 A 
ATOM     76  C   UNL A   1      36.951  33.612  29.085  1.00  0.00     0.135 A 
ATOM     77  F   UNL A   1      36.258  32.006  32.273  1.00  0.00    -0.206 F 
ATOM     78  C   UNL A   1      34.907  33.415  30.970  1.00  0.00     0.059 A 
ATOM     79  C   UNL A   1      35.764  34.307  28.878  1.00  0.00     0.059 A 
ATOM     80  F   UNL A   1      37.928  33.735  28.173  1.00  0.00    -0.206 F 
ATOM     81  C   UNL A   1      34.746  34.200  29.827  1.00  0.00     0.060 A 
BRANCH  81  82
ATOM     82  S   UNL A   1      33.214  35.135  29.630  1.00  0.00     0.124 S 
ATOM     83  O   UNL A   1      33.718  36.453  29.264  1.00  0.00    -0.237 OA
ATOM     84  O   UNL A   1      32.535  34.393  28.574  1.00  0.00    -0.237 OA
ATOM     85  O   UNL A   1      32.593  35.040  30.949  1.00  0.00    -0.744 OA
ENDBRANCH  81  82
ENDBRANCH  49  74
BRANCH  61  86
ATOM     86  C   UNL A   1      43.085  34.843  33.305  1.00  0.00     0.058 A 
ATOM     87  C   UNL A   1      42.982  35.032  34.692  1.00  0.00     0.135 A 
ATOM     88  C   UNL A   1      43.635  35.885  32.542  1.00  0.00     0.135 A 
ATOM     89  F   UNL A   1      42.455  34.071  35.468  1.00  0.00    -0.206 F 
ATOM     90  C   UNL A   1      43.389  36.217  35.297  1.00  0.00     0.059 A 
ATOM     91  C   UNL A   1      44.071  37.070  33.128  1.00  0.00     0.059 A 
ATOM     92  F   UNL A   1      43.763  35.755  31.212  1.00  0.00    -0.206 F 
ATOM     93  C   UNL A   1      43.933  37.232  34.507  1.00  0.00     0.060 A 
BRANCH  93  94
ATOM     94  S   UNL A   1      44.484  38.755  35.305  1.00  0.00     0.124 S 
ATOM     95  O   UNL A   1      44.085  38.522  36.690  1.00  0.00    -0.237 OA
ATOM     96  O   UNL A   1      45.921  38.741  35.049  1.00  0.00    -0.237 OA
ATOM     97  O   UNL A   1      43.739  39.796  34.604  1.00  0.00    -0.744 OA
ENDBRANCH  93  94
ENDBRANCH  61  86
ENDBRANCH  35  36
ENDBRANCH  27  30
ENDBRANCH  25  26
ENDBRANCH   1  25
TORSDOF 17
ENDMDL
