MODEL 1
REMARK VINA RESULT:     -12.1      0.000      0.000
REMARK SMILES CC(C)[C@@H](NC(N)=O)C(=O)Nc1cccc(F)c1C(=O)NCCCNC(=O)c1ccc(-c2c3nc(c(-c4c(F)cc(S(=O)(=O)[O-])cc4F)c4ccc([nH]4)c(-c4c(F)cc(S(=O)(=O)[O-])cc4F)c4nc(c(-c5c(F)cc(S(=O)(=O)[O-])cc5F)c5ccc2[nH]5)C=C4)C=C3)cc1
REMARK SMILES IDX 23 1 22 2 21 3 19 4 20 5 18 7 12 8 13 9 14 10 16 11 15 12
REMARK SMILES IDX 17 13 11 14 9 15 10 16 4 18 2 19 1 20 3 21 5 22 6 23 7 25
REMARK SMILES IDX 8 26 24 29 25 30 26 31 27 33 28 34 29 35 93 36 30 37 92 38
REMARK SMILES IDX 31 39 32 40 33 41 86 42 34 43 91 44 85 45 87 46 35 47 90 48
REMARK SMILES IDX 84 49 83 50 36 52 70 53 49 54 69 55 50 56 53 57 68 58 88 59
REMARK SMILES IDX 51 60 52 61 67 63 89 64 54 65 37 66 38 67 47 68 39 69 40 70
REMARK SMILES IDX 46 71 48 72 41 73 42 74 43 75 44 76 45 77 71 78 72 79 81 80
REMARK SMILES IDX 73 81 74 82 80 83 82 84 75 85 76 86 77 87 78 88 79 89 55 90
REMARK SMILES IDX 56 91 65 92 57 93 58 94 64 95 66 96 59 97 60 98 61 99 62 100
REMARK SMILES IDX 63 101
REMARK H PARENT 21 6 11 17 5 24 7 27 7 28 25 32 87 51 53 62
REMARK Flexibility Score: inf
ROOT
ATOM      1  C   UNL A   1      32.147  28.091  27.601  1.00  0.00     0.042 C 
ENDROOT
BRANCH   1   2
ATOM      2  C   UNL A   1      31.403  27.527  26.402  1.00  0.00     0.118 C 
BRANCH   2   3
ATOM      3  N   UNL A   1      30.951  26.157  26.587  1.00  0.00    -0.352 N 
ATOM      4  C   UNL A   1      31.068  25.000  25.857  1.00  0.00     0.256 C 
ATOM      5  O   UNL A   1      30.422  24.037  26.281  1.00  0.00    -0.269 OA
ATOM      6  H   UNL A   1      30.451  26.029  27.426  1.00  0.00     0.163 HD
BRANCH   4   7
ATOM      7  C   UNL A   1      31.790  24.876  24.558  1.00  0.00     0.099 A 
ATOM      8  C   UNL A   1      33.031  24.218  24.511  1.00  0.00     0.057 A 
ATOM      9  C   UNL A   1      33.546  23.756  23.292  1.00  0.00     0.027 A 
ATOM     10  C   UNL A   1      32.957  24.134  22.092  1.00  0.00     0.005 A 
ATOM     11  C   UNL A   1      31.367  25.433  23.354  1.00  0.00     0.138 A 
ATOM     12  C   UNL A   1      31.913  25.044  22.127  1.00  0.00     0.040 A 
ATOM     13  F   UNL A   1      30.542  26.489  23.329  1.00  0.00    -0.206 F 
BRANCH   8  14
ATOM     14  N   UNL A   1      33.850  24.098  25.648  1.00  0.00    -0.323 N 
ATOM     15  C   UNL A   1      34.470  22.940  26.082  1.00  0.00     0.247 C 
ATOM     16  O   UNL A   1      34.890  22.895  27.245  1.00  0.00    -0.272 OA
ATOM     17  H   UNL A   1      33.994  24.911  26.184  1.00  0.00     0.170 HD
BRANCH  15  18
ATOM     18  C   UNL A   1      34.589  21.665  25.162  1.00  0.00     0.176 C 
BRANCH  18  19
ATOM     19  C   UNL A   1      35.972  21.501  24.478  1.00  0.00     0.015 C 
ATOM     20  C   UNL A   1      36.825  22.776  24.534  1.00  0.00     0.010 C 
ATOM     21  C   UNL A   1      36.782  20.332  25.042  1.00  0.00     0.010 C 
ENDBRANCH  18  19
BRANCH  18  22
ATOM     22  N   UNL A   1      34.219  20.441  25.889  1.00  0.00    -0.326 N 
ATOM     23  C   UNL A   1      33.011  19.841  25.706  1.00  0.00     0.312 C 
ATOM     24  H   UNL A   1      34.860  20.046  26.524  1.00  0.00     0.166 HD
ATOM     25  N   UNL A   1      32.850  18.732  26.463  1.00  0.00    -0.352 N 
ATOM     26  O   UNL A   1      32.120  20.253  24.976  1.00  0.00    -0.249 OA
ATOM     27  H   UNL A   1      33.582  18.420  27.043  1.00  0.00     0.161 HD
ATOM     28  H   UNL A   1      32.000  18.236  26.436  1.00  0.00     0.161 HD
ENDBRANCH  18  22
ENDBRANCH  15  18
ENDBRANCH   8  14
ENDBRANCH   4   7
ENDBRANCH   2   3
ENDBRANCH   1   2
BRANCH   1  29
ATOM     29  C   UNL A   1      33.499  28.702  27.269  1.00  0.00     0.118 C 
BRANCH  29  30
ATOM     30  N   UNL A   1      33.597  30.104  27.667  1.00  0.00    -0.352 N 
ATOM     31  C   UNL A   1      34.602  30.792  28.305  1.00  0.00     0.251 C 
ATOM     32  H   UNL A   1      32.809  30.649  27.439  1.00  0.00     0.163 HD
ATOM     33  O   UNL A   1      34.374  31.915  28.748  1.00  0.00    -0.269 OA
BRANCH  31  34
ATOM     34  C   UNL A   1      35.938  30.185  28.482  1.00  0.00     0.039 A 
ATOM     35  C   UNL A   1      36.810  30.124  27.391  1.00  0.00     0.014 A 
ATOM     36  C   UNL A   1      36.331  29.665  29.716  1.00  0.00     0.014 A 
ATOM     37  C   UNL A   1      38.109  29.639  27.568  1.00  0.00     0.010 A 
ATOM     38  C   UNL A   1      37.651  29.271  29.914  1.00  0.00     0.010 A 
ATOM     39  C   UNL A   1      38.558  29.267  28.846  1.00  0.00    -0.014 A 
BRANCH  39  40
ATOM     40  C   UNL A   1      39.979  28.918  29.100  1.00  0.00     0.031 A 
ATOM     41  C   UNL A   1      40.933  29.950  29.636  1.00  0.00     0.074 A 
ATOM     42  C   UNL A   1      40.427  27.692  28.759  1.00  0.00     0.049 A 
ATOM     43  N   UNL A   1      42.225  29.861  29.817  1.00  0.00    -0.248 NA
ATOM     44  C   UNL A   1      40.367  31.263  29.991  1.00  0.00     0.031 C 
ATOM     45  C   UNL A   1      39.604  26.623  28.187  1.00  0.00     0.029 A 
ATOM     46  N   UNL A   1      41.682  27.140  28.827  1.00  0.00    -0.354 N 
ATOM     47  C   UNL A   1      42.627  31.102  30.297  1.00  0.00     0.074 A 
ATOM     48  C   UNL A   1      41.453  31.945  30.332  1.00  0.00     0.031 C 
ATOM     49  C   UNL A   1      40.368  25.539  27.981  1.00  0.00     0.029 A 
ATOM     50  C   UNL A   1      41.745  25.849  28.352  1.00  0.00     0.049 A 
ATOM     51  H   UNL A   1      42.464  27.621  29.183  1.00  0.00     0.167 HD
ATOM     52  C   UNL A   1      43.861  31.492  30.693  1.00  0.00     0.037 A 
ATOM     53  C   UNL A   1      42.794  25.014  28.211  1.00  0.00     0.037 A 
ATOM     54  C   UNL A   1      45.018  30.635  30.677  1.00  0.00     0.049 A 
ATOM     55  C   UNL A   1      44.159  25.482  28.630  1.00  0.00     0.074 A 
ATOM     56  C   UNL A   1      46.298  30.916  31.121  1.00  0.00     0.029 A 
ATOM     57  N   UNL A   1      45.041  29.337  30.188  1.00  0.00    -0.354 N 
ATOM     58  N   UNL A   1      44.509  26.636  29.147  1.00  0.00    -0.248 NA
ATOM     59  C   UNL A   1      45.275  24.544  28.443  1.00  0.00     0.031 C 
ATOM     60  C   UNL A   1      47.108  29.812  30.846  1.00  0.00     0.029 A 
ATOM     61  C   UNL A   1      46.321  28.819  30.285  1.00  0.00     0.049 A 
ATOM     62  H   UNL A   1      44.262  28.856  29.825  1.00  0.00     0.167 HD
ATOM     63  C   UNL A   1      45.880  26.559  29.360  1.00  0.00     0.074 A 
ATOM     64  C   UNL A   1      46.295  25.238  28.934  1.00  0.00     0.031 C 
ATOM     65  C   UNL A   1      46.719  27.500  29.857  1.00  0.00     0.037 A 
BRANCH  52  66
ATOM     66  C   UNL A   1      44.037  32.899  31.196  1.00  0.00     0.058 A 
ATOM     67  C   UNL A   1      43.681  33.234  32.512  1.00  0.00     0.135 A 
ATOM     68  C   UNL A   1      44.465  33.935  30.350  1.00  0.00     0.135 A 
ATOM     69  F   UNL A   1      43.270  32.284  33.367  1.00  0.00    -0.206 F 
ATOM     70  C   UNL A   1      43.720  34.550  32.964  1.00  0.00     0.059 A 
ATOM     71  C   UNL A   1      44.539  35.253  30.789  1.00  0.00     0.059 A 
ATOM     72  F   UNL A   1      44.836  33.665  29.088  1.00  0.00    -0.206 F 
ATOM     73  C   UNL A   1      44.146  35.553  32.093  1.00  0.00     0.060 A 
BRANCH  73  74
ATOM     74  S   UNL A   1      44.193  37.254  32.696  1.00  0.00     0.124 S 
ATOM     75  O   UNL A   1      43.226  37.215  33.786  1.00  0.00    -0.237 OA
ATOM     76  O   UNL A   1      45.592  37.399  33.087  1.00  0.00    -0.237 OA
ATOM     77  O   UNL A   1      43.794  38.037  31.529  1.00  0.00    -0.744 OA
ENDBRANCH  73  74
ENDBRANCH  52  66
BRANCH  53  78
ATOM     78  C   UNL A   1      42.582  23.650  27.653  1.00  0.00     0.058 A 
ATOM     79  C   UNL A   1      42.374  22.543  28.491  1.00  0.00     0.135 A 
ATOM     80  C   UNL A   1      42.628  23.421  26.270  1.00  0.00     0.135 A 
ATOM     81  F   UNL A   1      42.333  22.703  29.823  1.00  0.00    -0.206 F 
ATOM     82  C   UNL A   1      42.250  21.255  27.981  1.00  0.00     0.059 A 
ATOM     83  C   UNL A   1      42.477  22.145  25.734  1.00  0.00     0.059 A 
ATOM     84  F   UNL A   1      42.813  24.448  25.427  1.00  0.00    -0.206 F 
ATOM     85  C   UNL A   1      42.306  21.066  26.599  1.00  0.00     0.060 A 
BRANCH  85  86
ATOM     86  S   UNL A   1      42.162  19.383  25.962  1.00  0.00     0.124 S 
ATOM     87  O   UNL A   1      42.644  18.600  27.096  1.00  0.00    -0.237 OA
ATOM     88  O   UNL A   1      40.734  19.283  25.684  1.00  0.00    -0.237 OA
ATOM     89  O   UNL A   1      43.031  19.390  24.789  1.00  0.00    -0.744 OA
ENDBRANCH  85  86
ENDBRANCH  53  78
BRANCH  65  90
ATOM     90  C   UNL A   1      48.177  27.152  29.974  1.00  0.00     0.058 A 
ATOM     91  C   UNL A   1      48.679  26.565  31.146  1.00  0.00     0.135 A 
ATOM     92  C   UNL A   1      49.095  27.506  28.972  1.00  0.00     0.135 A 
ATOM     93  F   UNL A   1      47.845  26.212  32.138  1.00  0.00    -0.206 F 
ATOM     94  C   UNL A   1      50.044  26.373  31.337  1.00  0.00     0.059 A 
ATOM     95  C   UNL A   1      50.461  27.296  29.128  1.00  0.00     0.059 A 
ATOM     96  F   UNL A   1      48.663  28.057  27.826  1.00  0.00    -0.206 F 
ATOM     97  C   UNL A   1      50.927  26.749  30.324  1.00  0.00     0.060 A 
BRANCH  97  98
ATOM     98  S   UNL A   1      52.696  26.516  30.599  1.00  0.00     0.124 S 
ATOM     99  O   UNL A   1      52.711  25.359  31.488  1.00  0.00    -0.237 OA
ATOM    100  O   UNL A   1      53.187  26.284  29.245  1.00  0.00    -0.237 OA
ATOM    101  O   UNL A   1      53.115  27.777  31.204  1.00  0.00    -0.744 OA
ENDBRANCH  97  98
ENDBRANCH  65  90
ENDBRANCH  39  40
ENDBRANCH  31  34
ENDBRANCH  29  30
ENDBRANCH   1  29
TORSDOF 17
ENDMDL
MODEL 2
REMARK VINA RESULT:     -11.8      2.780      3.834
REMARK SMILES CC(C)[C@@H](NC(N)=O)C(=O)Nc1cccc(F)c1C(=O)NCCCNC(=O)c1ccc(-c2c3nc(c(-c4c(F)cc(S(=O)(=O)[O-])cc4F)c4ccc([nH]4)c(-c4c(F)cc(S(=O)(=O)[O-])cc4F)c4nc(c(-c5c(F)cc(S(=O)(=O)[O-])cc5F)c5ccc2[nH]5)C=C4)C=C3)cc1
REMARK SMILES IDX 23 1 22 2 21 3 19 4 20 5 18 7 12 8 13 9 14 10 16 11 15 12
REMARK SMILES IDX 17 13 11 14 9 15 10 16 4 18 2 19 1 20 3 21 5 22 6 23 7 25
REMARK SMILES IDX 8 26 24 29 25 30 26 31 27 33 28 34 29 35 93 36 30 37 92 38
REMARK SMILES IDX 31 39 32 40 33 41 86 42 34 43 91 44 85 45 87 46 35 47 90 48
REMARK SMILES IDX 84 49 83 50 36 52 70 53 49 54 69 55 50 56 53 57 68 58 88 59
REMARK SMILES IDX 51 60 52 61 67 63 89 64 54 65 37 66 38 67 47 68 39 69 40 70
REMARK SMILES IDX 46 71 48 72 41 73 42 74 43 75 44 76 45 77 71 78 72 79 81 80
REMARK SMILES IDX 73 81 74 82 80 83 82 84 75 85 76 86 77 87 78 88 79 89 55 90
REMARK SMILES IDX 56 91 65 92 57 93 58 94 64 95 66 96 59 97 60 98 61 99 62 100
REMARK SMILES IDX 63 101
REMARK H PARENT 21 6 11 17 5 24 7 27 7 28 25 32 87 51 53 62
REMARK Flexibility Score: inf
ROOT
ATOM      1  C   UNL A   1      33.891  30.584  27.227  1.00  0.00     0.042 C 
ENDROOT
BRANCH   1   2
ATOM      2  C   UNL A   1      32.703  29.635  27.246  1.00  0.00     0.118 C 
BRANCH   2   3
ATOM      3  N   UNL A   1      33.068  28.239  27.064  1.00  0.00    -0.352 N 
ATOM      4  C   UNL A   1      32.902  27.327  26.051  1.00  0.00     0.256 C 
ATOM      5  O   UNL A   1      33.235  26.169  26.320  1.00  0.00    -0.269 OA
ATOM      6  H   UNL A   1      33.543  27.864  27.841  1.00  0.00     0.163 HD
BRANCH   4   7
ATOM      7  C   UNL A   1      32.243  27.609  24.744  1.00  0.00     0.099 A 
ATOM      8  C   UNL A   1      31.080  26.906  24.384  1.00  0.00     0.057 A 
ATOM      9  C   UNL A   1      30.238  27.392  23.375  1.00  0.00     0.027 A 
ATOM     10  C   UNL A   1      30.646  28.442  22.564  1.00  0.00     0.005 A 
ATOM     11  C   UNL A   1      32.727  28.488  23.778  1.00  0.00     0.138 A 
ATOM     12  C   UNL A   1      31.933  28.934  22.719  1.00  0.00     0.040 A 
ATOM     13  F   UNL A   1      34.027  28.810  23.722  1.00  0.00    -0.206 F 
BRANCH   8  14
ATOM     14  N   UNL A   1      30.777  25.646  24.932  1.00  0.00    -0.323 N 
ATOM     15  C   UNL A   1      31.211  24.426  24.447  1.00  0.00     0.247 C 
ATOM     16  O   UNL A   1      30.626  23.400  24.818  1.00  0.00    -0.272 OA
ATOM     17  H   UNL A   1      30.203  25.632  25.731  1.00  0.00     0.170 HD
BRANCH  15  18
ATOM     18  C   UNL A   1      32.374  24.317  23.388  1.00  0.00     0.176 C 
BRANCH  18  19
ATOM     19  C   UNL A   1      33.107  22.949  23.387  1.00  0.00     0.015 C 
ATOM     20  C   UNL A   1      32.505  21.946  22.394  1.00  0.00     0.010 C 
ATOM     21  C   UNL A   1      34.608  23.076  23.121  1.00  0.00     0.010 C 
ENDBRANCH  18  19
BRANCH  18  22
ATOM     22  N   UNL A   1      31.905  24.658  22.036  1.00  0.00    -0.326 N 
ATOM     23  C   UNL A   1      32.613  25.490  21.224  1.00  0.00     0.312 C 
ATOM     24  H   UNL A   1      31.058  24.275  21.710  1.00  0.00     0.166 HD
ATOM     25  N   UNL A   1      32.022  25.690  20.024  1.00  0.00    -0.352 N 
ATOM     26  O   UNL A   1      33.655  26.055  21.526  1.00  0.00    -0.249 OA
ATOM     27  H   UNL A   1      31.183  25.223  19.805  1.00  0.00     0.161 HD
ATOM     28  H   UNL A   1      32.431  26.301  19.370  1.00  0.00     0.161 HD
ENDBRANCH  18  22
ENDBRANCH  15  18
ENDBRANCH   8  14
ENDBRANCH   4   7
ENDBRANCH   2   3
ENDBRANCH   1   2
BRANCH   1  29
ATOM     29  C   UNL A   1      35.097  30.095  28.014  1.00  0.00     0.118 C 
BRANCH  29  30
ATOM     30  N   UNL A   1      35.300  30.842  29.253  1.00  0.00    -0.352 N 
ATOM     31  C   UNL A   1      36.361  30.864  30.128  1.00  0.00     0.251 C 
ATOM     32  H   UNL A   1      34.552  31.430  29.503  1.00  0.00     0.163 HD
ATOM     33  O   UNL A   1      36.221  31.391  31.228  1.00  0.00    -0.269 OA
BRANCH  31  34
ATOM     34  C   UNL A   1      37.652  30.241  29.765  1.00  0.00     0.039 A 
ATOM     35  C   UNL A   1      38.035  30.196  28.422  1.00  0.00     0.014 A 
ATOM     36  C   UNL A   1      38.482  29.691  30.743  1.00  0.00     0.014 A 
ATOM     37  C   UNL A   1      39.293  29.697  28.076  1.00  0.00     0.010 A 
ATOM     38  C   UNL A   1      39.769  29.281  30.411  1.00  0.00     0.010 A 
ATOM     39  C   UNL A   1      40.194  29.293  29.075  1.00  0.00    -0.014 A 
BRANCH  39  40
ATOM     40  C   UNL A   1      41.598  28.926  28.756  1.00  0.00     0.031 A 
ATOM     41  C   UNL A   1      42.673  29.977  28.731  1.00  0.00     0.074 A 
ATOM     42  C   UNL A   1      41.880  27.656  28.397  1.00  0.00     0.049 A 
ATOM     43  N   UNL A   1      43.924  29.866  28.371  1.00  0.00    -0.248 NA
ATOM     44  C   UNL A   1      42.287  31.338  29.142  1.00  0.00     0.031 C 
ATOM     45  C   UNL A   1      40.910  26.561  28.338  1.00  0.00     0.029 A 
ATOM     46  N   UNL A   1      43.058  27.073  28.001  1.00  0.00    -0.354 N 
ATOM     47  C   UNL A   1      44.473  31.136  28.501  1.00  0.00     0.074 A 
ATOM     48  C   UNL A   1      43.407  32.017  28.925  1.00  0.00     0.031 C 
ATOM     49  C   UNL A   1      41.535  25.436  27.955  1.00  0.00     0.029 A 
ATOM     50  C   UNL A   1      42.937  25.739  27.688  1.00  0.00     0.049 A 
ATOM     51  H   UNL A   1      43.911  27.563  27.946  1.00  0.00     0.167 HD
ATOM     52  C   UNL A   1      45.754  31.525  28.306  1.00  0.00     0.037 A 
ATOM     53  C   UNL A   1      43.844  24.859  27.218  1.00  0.00     0.037 A 
ATOM     54  C   UNL A   1      46.812  30.633  27.907  1.00  0.00     0.049 A 
ATOM     55  C   UNL A   1      45.254  25.323  26.980  1.00  0.00     0.074 A 
ATOM     56  C   UNL A   1      48.157  30.918  27.749  1.00  0.00     0.029 A 
ATOM     57  N   UNL A   1      46.648  29.291  27.599  1.00  0.00    -0.354 N 
ATOM     58  N   UNL A   1      45.770  26.514  27.176  1.00  0.00    -0.248 NA
ATOM     59  C   UNL A   1      46.205  24.334  26.454  1.00  0.00     0.031 C 
ATOM     60  C   UNL A   1      48.795  29.764  27.287  1.00  0.00     0.029 A 
ATOM     61  C   UNL A   1      47.861  28.743  27.215  1.00  0.00     0.049 A 
ATOM     62  H   UNL A   1      45.796  28.800  27.647  1.00  0.00     0.167 HD
ATOM     63  C   UNL A   1      47.107  26.414  26.810  1.00  0.00     0.074 A 
ATOM     64  C   UNL A   1      47.326  25.042  26.399  1.00  0.00     0.031 C 
ATOM     65  C   UNL A   1      48.064  27.374  26.809  1.00  0.00     0.037 A 
BRANCH  52  66
ATOM     66  C   UNL A   1      46.103  32.970  28.533  1.00  0.00     0.058 A 
ATOM     67  C   UNL A   1      46.423  33.433  29.820  1.00  0.00     0.135 A 
ATOM     68  C   UNL A   1      46.026  33.917  27.499  1.00  0.00     0.135 A 
ATOM     69  F   UNL A   1      46.516  32.572  30.846  1.00  0.00    -0.206 F 
ATOM     70  C   UNL A   1      46.631  34.784  30.077  1.00  0.00     0.059 A 
ATOM     71  C   UNL A   1      46.258  35.270  27.727  1.00  0.00     0.059 A 
ATOM     72  F   UNL A   1      45.743  33.525  26.245  1.00  0.00    -0.206 F 
ATOM     73  C   UNL A   1      46.541  35.696  29.025  1.00  0.00     0.060 A 
BRANCH  73  74
ATOM     74  S   UNL A   1      46.816  37.446  29.375  1.00  0.00     0.124 S 
ATOM     75  O   UNL A   1      47.428  37.396  30.697  1.00  0.00    -0.237 OA
ATOM     76  O   UNL A   1      47.695  37.840  28.279  1.00  0.00    -0.237 OA
ATOM     77  O   UNL A   1      45.472  38.015  29.325  1.00  0.00    -0.744 OA
ENDBRANCH  73  74
ENDBRANCH  52  66
BRANCH  53  78
ATOM     78  C   UNL A   1      43.440  23.451  26.952  1.00  0.00     0.058 A 
ATOM     79  C   UNL A   1      43.216  22.991  25.644  1.00  0.00     0.135 A 
ATOM     80  C   UNL A   1      43.225  22.550  28.005  1.00  0.00     0.135 A 
ATOM     81  F   UNL A   1      43.396  23.814  24.599  1.00  0.00    -0.206 F 
ATOM     82  C   UNL A   1      42.767  21.700  25.392  1.00  0.00     0.059 A 
ATOM     83  C   UNL A   1      42.803  21.244  27.776  1.00  0.00     0.059 A 
ATOM     84  F   UNL A   1      43.436  22.939  29.271  1.00  0.00    -0.206 F 
ATOM     85  C   UNL A   1      42.559  20.833  26.467  1.00  0.00     0.060 A 
BRANCH  85  86
ATOM     86  S   UNL A   1      41.956  19.168  26.116  1.00  0.00     0.124 S 
ATOM     87  O   UNL A   1      42.759  18.807  24.951  1.00  0.00    -0.237 OA
ATOM     88  O   UNL A   1      42.277  18.461  27.351  1.00  0.00    -0.237 OA
ATOM     89  O   UNL A   1      40.534  19.371  25.860  1.00  0.00    -0.744 OA
ENDBRANCH  85  86
ENDBRANCH  53  78
BRANCH  65  90
ATOM     90  C   UNL A   1      49.444  26.993  26.350  1.00  0.00     0.058 A 
ATOM     91  C   UNL A   1      49.818  27.149  25.005  1.00  0.00     0.135 A 
ATOM     92  C   UNL A   1      50.354  26.367  27.215  1.00  0.00     0.135 A 
ATOM     93  F   UNL A   1      48.982  27.737  24.134  1.00  0.00    -0.206 F 
ATOM     94  C   UNL A   1      51.031  26.666  24.527  1.00  0.00     0.059 A 
ATOM     95  C   UNL A   1      51.586  25.902  26.766  1.00  0.00     0.059 A 
ATOM     96  F   UNL A   1      50.050  26.207  28.513  1.00  0.00    -0.206 F 
ATOM     97  C   UNL A   1      51.905  26.037  25.414  1.00  0.00     0.060 A 
BRANCH  97  98
ATOM     98  S   UNL A   1      53.464  25.394  24.770  1.00  0.00     0.124 S 
ATOM     99  O   UNL A   1      54.440  26.237  25.452  1.00  0.00    -0.237 OA
ATOM    100  O   UNL A   1      53.419  24.000  25.198  1.00  0.00    -0.237 OA
ATOM    101  O   UNL A   1      53.351  25.605  23.330  1.00  0.00    -0.744 OA
ENDBRANCH  97  98
ENDBRANCH  65  90
ENDBRANCH  39  40
ENDBRANCH  31  34
ENDBRANCH  29  30
ENDBRANCH   1  29
TORSDOF 17
ENDMDL
MODEL 3
REMARK VINA RESULT:     -11.8      2.833      8.865
REMARK SMILES CC(C)[C@@H](NC(N)=O)C(=O)Nc1cccc(F)c1C(=O)NCCCNC(=O)c1ccc(-c2c3nc(c(-c4c(F)cc(S(=O)(=O)[O-])cc4F)c4ccc([nH]4)c(-c4c(F)cc(S(=O)(=O)[O-])cc4F)c4nc(c(-c5c(F)cc(S(=O)(=O)[O-])cc5F)c5ccc2[nH]5)C=C4)C=C3)cc1
REMARK SMILES IDX 23 1 22 2 21 3 19 4 20 5 18 7 12 8 13 9 14 10 16 11 15 12
REMARK SMILES IDX 17 13 11 14 9 15 10 16 4 18 2 19 1 20 3 21 5 22 6 23 7 25
REMARK SMILES IDX 8 26 24 29 25 30 26 31 27 33 28 34 29 35 93 36 30 37 92 38
REMARK SMILES IDX 31 39 32 40 33 41 86 42 34 43 91 44 85 45 87 46 35 47 90 48
REMARK SMILES IDX 84 49 83 50 36 52 70 53 49 54 69 55 50 56 53 57 68 58 88 59
REMARK SMILES IDX 51 60 52 61 67 63 89 64 54 65 37 66 38 67 47 68 39 69 40 70
REMARK SMILES IDX 46 71 48 72 41 73 42 74 43 75 44 76 45 77 71 78 72 79 81 80
REMARK SMILES IDX 73 81 74 82 80 83 82 84 75 85 76 86 77 87 78 88 79 89 55 90
REMARK SMILES IDX 56 91 65 92 57 93 58 94 64 95 66 96 59 97 60 98 61 99 62 100
REMARK SMILES IDX 63 101
REMARK H PARENT 21 6 11 17 5 24 7 27 7 28 25 32 87 51 53 62
REMARK Flexibility Score: inf
ROOT
ATOM      1  C   UNL A   1      33.835  30.693  27.311  1.00  0.00     0.042 C 
ENDROOT
BRANCH   1   2
ATOM      2  C   UNL A   1      32.775  29.604  27.318  1.00  0.00     0.118 C 
BRANCH   2   3
ATOM      3  N   UNL A   1      33.301  28.276  27.041  1.00  0.00    -0.352 N 
ATOM      4  C   UNL A   1      33.218  27.413  25.977  1.00  0.00     0.256 C 
ATOM      5  O   UNL A   1      33.695  26.291  26.166  1.00  0.00    -0.269 OA
ATOM      6  H   UNL A   1      33.839  27.916  27.783  1.00  0.00     0.163 HD
BRANCH   4   7
ATOM      7  C   UNL A   1      32.493  27.691  24.704  1.00  0.00     0.099 A 
ATOM      8  C   UNL A   1      31.281  27.032  24.434  1.00  0.00     0.057 A 
ATOM      9  C   UNL A   1      30.401  27.528  23.463  1.00  0.00     0.027 A 
ATOM     10  C   UNL A   1      30.805  28.538  22.599  1.00  0.00     0.005 A 
ATOM     11  C   UNL A   1      32.956  28.521  23.686  1.00  0.00     0.138 A 
ATOM     12  C   UNL A   1      32.119  28.975  22.663  1.00  0.00     0.040 A 
ATOM     13  F   UNL A   1      34.263  28.782  23.543  1.00  0.00    -0.206 F 
BRANCH   8  14
ATOM     14  N   UNL A   1      30.957  25.802  25.035  1.00  0.00    -0.323 N 
ATOM     15  C   UNL A   1      31.324  24.552  24.572  1.00  0.00     0.247 C 
ATOM     16  O   UNL A   1      30.720  23.561  25.001  1.00  0.00    -0.272 OA
ATOM     17  H   UNL A   1      30.419  25.834  25.859  1.00  0.00     0.170 HD
BRANCH  15  18
ATOM     18  C   UNL A   1      32.435  24.366  23.468  1.00  0.00     0.176 C 
BRANCH  18  19
ATOM     19  C   UNL A   1      33.106  22.967  23.470  1.00  0.00     0.015 C 
ATOM     20  C   UNL A   1      32.479  21.999  22.458  1.00  0.00     0.010 C 
ATOM     21  C   UNL A   1      34.617  23.029  23.235  1.00  0.00     0.010 C 
ENDBRANCH  18  19
BRANCH  18  22
ATOM     22  N   UNL A   1      31.924  24.697  22.129  1.00  0.00    -0.326 N 
ATOM     23  C   UNL A   1      32.620  25.501  21.279  1.00  0.00     0.312 C 
ATOM     24  H   UNL A   1      31.057  24.329  21.841  1.00  0.00     0.166 HD
ATOM     25  N   UNL A   1      31.990  25.695  20.098  1.00  0.00    -0.352 N 
ATOM     26  O   UNL A   1      33.685  26.046  21.533  1.00  0.00    -0.249 OA
ATOM     27  H   UNL A   1      31.133  25.245  19.917  1.00  0.00     0.161 HD
ATOM     28  H   UNL A   1      32.387  26.287  19.420  1.00  0.00     0.161 HD
ENDBRANCH  18  22
ENDBRANCH  15  18
ENDBRANCH   8  14
ENDBRANCH   4   7
ENDBRANCH   2   3
ENDBRANCH   1   2
BRANCH   1  29
ATOM     29  C   UNL A   1      35.176  30.267  27.888  1.00  0.00     0.118 C 
BRANCH  29  30
ATOM     30  N   UNL A   1      35.395  30.774  29.240  1.00  0.00    -0.352 N 
ATOM     31  C   UNL A   1      36.449  30.605  30.106  1.00  0.00     0.251 C 
ATOM     32  H   UNL A   1      34.663  31.331  29.590  1.00  0.00     0.163 HD
ATOM     33  O   UNL A   1      36.318  30.931  31.283  1.00  0.00    -0.269 OA
BRANCH  31  34
ATOM     34  C   UNL A   1      37.723  30.016  29.639  1.00  0.00     0.039 A 
ATOM     35  C   UNL A   1      38.002  29.991  28.270  1.00  0.00     0.014 A 
ATOM     36  C   UNL A   1      38.638  29.479  30.545  1.00  0.00     0.014 A 
ATOM     37  C   UNL A   1      39.241  29.524  27.824  1.00  0.00     0.010 A 
ATOM     38  C   UNL A   1      39.905  29.103  30.111  1.00  0.00     0.010 A 
ATOM     39  C   UNL A   1      40.226  29.135  28.746  1.00  0.00    -0.014 A 
BRANCH  39  40
ATOM     40  C   UNL A   1      41.608  28.805  28.317  1.00  0.00     0.031 A 
ATOM     41  C   UNL A   1      41.971  27.396  27.934  1.00  0.00     0.074 A 
ATOM     42  C   UNL A   1      42.558  29.762  28.362  1.00  0.00     0.049 A 
ATOM     43  N   UNL A   1      43.144  26.900  27.639  1.00  0.00    -0.248 NA
ATOM     44  C   UNL A   1      40.877  26.410  27.902  1.00  0.00     0.031 C 
ATOM     45  C   UNL A   1      42.335  31.154  28.763  1.00  0.00     0.029 A 
ATOM     46  N   UNL A   1      43.902  29.712  28.084  1.00  0.00    -0.354 N 
ATOM     47  C   UNL A   1      42.934  25.547  27.396  1.00  0.00     0.074 A 
ATOM     48  C   UNL A   1      41.530  25.288  27.627  1.00  0.00     0.031 C 
ATOM     49  C   UNL A   1      43.492  31.829  28.681  1.00  0.00     0.029 A 
ATOM     50  C   UNL A   1      44.551  30.910  28.276  1.00  0.00     0.049 A 
ATOM     51  H   UNL A   1      44.359  28.896  27.776  1.00  0.00     0.167 HD
ATOM     52  C   UNL A   1      43.829  24.615  26.995  1.00  0.00     0.037 A 
ATOM     53  C   UNL A   1      45.855  31.233  28.161  1.00  0.00     0.037 A 
ATOM     54  C   UNL A   1      45.219  24.891  26.745  1.00  0.00     0.049 A 
ATOM     55  C   UNL A   1      46.834  30.171  27.744  1.00  0.00     0.074 A 
ATOM     56  C   UNL A   1      46.192  24.028  26.271  1.00  0.00     0.029 A 
ATOM     57  N   UNL A   1      45.837  26.116  26.952  1.00  0.00    -0.354 N 
ATOM     58  N   UNL A   1      46.605  28.913  27.450  1.00  0.00    -0.248 NA
ATOM     59  C   UNL A   1      48.247  30.564  27.646  1.00  0.00     0.031 C 
ATOM     60  C   UNL A   1      47.409  24.713  26.248  1.00  0.00     0.029 A 
ATOM     61  C   UNL A   1      47.186  26.020  26.651  1.00  0.00     0.049 A 
ATOM     62  H   UNL A   1      45.385  26.931  27.266  1.00  0.00     0.167 HD
ATOM     63  C   UNL A   1      47.840  28.367  27.121  1.00  0.00     0.074 A 
ATOM     64  C   UNL A   1      48.812  29.436  27.232  1.00  0.00     0.031 C 
ATOM     65  C   UNL A   1      48.142  27.095  26.766  1.00  0.00     0.037 A 
BRANCH  52  66
ATOM     66  C   UNL A   1      43.343  23.207  26.781  1.00  0.00     0.058 A 
ATOM     67  C   UNL A   1      43.080  22.369  27.876  1.00  0.00     0.135 A 
ATOM     68  C   UNL A   1      43.230  22.656  25.494  1.00  0.00     0.135 A 
ATOM     69  F   UNL A   1      43.168  22.843  29.129  1.00  0.00    -0.206 F 
ATOM     70  C   UNL A   1      42.747  21.029  27.704  1.00  0.00     0.059 A 
ATOM     71  C   UNL A   1      42.870  21.327  25.297  1.00  0.00     0.059 A 
ATOM     72  F   UNL A   1      43.450  23.421  24.411  1.00  0.00    -0.206 F 
ATOM     73  C   UNL A   1      42.649  20.516  26.410  1.00  0.00     0.060 A 
BRANCH  73  74
ATOM     74  S   UNL A   1      42.214  18.776  26.204  1.00  0.00     0.124 S 
ATOM     75  O   UNL A   1      42.437  18.248  27.545  1.00  0.00    -0.237 OA
ATOM     76  O   UNL A   1      40.821  18.861  25.775  1.00  0.00    -0.237 OA
ATOM     77  O   UNL A   1      43.148  18.312  25.182  1.00  0.00    -0.744 OA
ENDBRANCH  73  74
ENDBRANCH  52  66
BRANCH  53  78
ATOM     78  C   UNL A   1      46.300  32.626  28.440  1.00  0.00     0.058 A 
ATOM     79  C   UNL A   1      46.409  33.577  27.413  1.00  0.00     0.135 A 
ATOM     80  C   UNL A   1      46.666  33.021  29.735  1.00  0.00     0.135 A 
ATOM     81  F   UNL A   1      46.082  33.250  26.152  1.00  0.00    -0.206 F 
ATOM     82  C   UNL A   1      46.893  34.858  27.653  1.00  0.00     0.059 A 
ATOM     83  C   UNL A   1      47.127  34.306  30.006  1.00  0.00     0.059 A 
ATOM     84  F   UNL A   1      46.569  32.152  30.752  1.00  0.00    -0.206 F 
ATOM     85  C   UNL A   1      47.253  35.213  28.954  1.00  0.00     0.060 A 
BRANCH  85  86
ATOM     86  S   UNL A   1      47.898  36.875  29.237  1.00  0.00     0.124 S 
ATOM     87  O   UNL A   1      48.100  36.867  30.683  1.00  0.00    -0.237 OA
ATOM     88  O   UNL A   1      49.111  36.874  28.428  1.00  0.00    -0.237 OA
ATOM     89  O   UNL A   1      46.825  37.740  28.758  1.00  0.00    -0.744 OA
ENDBRANCH  85  86
ENDBRANCH  53  78
BRANCH  65  90
ATOM     90  C   UNL A   1      49.579  26.768  26.468  1.00  0.00     0.058 A 
ATOM     91  C   UNL A   1      50.104  26.969  25.181  1.00  0.00     0.135 A 
ATOM     92  C   UNL A   1      50.401  26.151  27.423  1.00  0.00     0.135 A 
ATOM     93  F   UNL A   1      49.358  27.551  24.228  1.00  0.00    -0.206 F 
ATOM     94  C   UNL A   1      51.382  26.536  24.842  1.00  0.00     0.059 A 
ATOM     95  C   UNL A   1      51.693  25.736  27.115  1.00  0.00     0.059 A 
ATOM     96  F   UNL A   1      49.950  25.950  28.672  1.00  0.00    -0.206 F 
ATOM     97  C   UNL A   1      52.165  25.914  25.814  1.00  0.00     0.060 A 
BRANCH  97  98
ATOM     98  S   UNL A   1      53.811  25.336  25.349  1.00  0.00     0.124 S 
ATOM     99  O   UNL A   1      53.742  23.922  25.700  1.00  0.00    -0.237 OA
ATOM    100  O   UNL A   1      53.847  25.635  23.921  1.00  0.00    -0.237 OA
ATOM    101  O   UNL A   1      54.702  26.145  26.175  1.00  0.00    -0.744 OA
ENDBRANCH  97  98
ENDBRANCH  65  90
ENDBRANCH  39  40
ENDBRANCH  31  34
ENDBRANCH  29  30
ENDBRANCH   1  29
TORSDOF 17
ENDMDL
