MODEL 1
REMARK VINA RESULT:     -10.6      0.000      0.000
REMARK SMILES Cc1c(CC(=O)N[C@@H](CCO)C(=O)NCCCNC(=O)c2ccc(-c3c4nc(c(-c5c(F)cc(S(=O)(=O)[O-])cc5F)c5ccc([nH]5)c(-c5c(F)cc(S(=O)(=O)[O-])cc5F)c5nc(c(-c6c(F)cc(S(=O)(=O)[O-])cc6F)c6ccc3[nH]6)C=C5)C=C4)cc2)cc(-c2ccc(S(C)(=O)=O)cc2)n1-c1ccc(F)cc1
REMARK SMILES IDX 15 1 14 2 12 3 13 4 8 6 7 7 5 8 6 9 4 11 3 12 1 13 2 14
REMARK SMILES IDX 99 15 87 16 88 17 100 18 101 19 106 20 102 21 105 22 103 23
REMARK SMILES IDX 104 24 89 25 90 26 98 27 91 28 97 29 92 30 93 31 94 32 95 33
REMARK SMILES IDX 96 34 9 35 10 36 11 37 16 39 17 40 18 41 19 42 20 44 21 45
REMARK SMILES IDX 22 46 86 47 23 48 85 49 24 50 25 51 26 52 79 53 27 54 84 55
REMARK SMILES IDX 78 56 80 57 28 58 83 59 77 60 76 61 29 63 63 64 42 65 62 66
REMARK SMILES IDX 43 67 46 68 61 69 81 70 44 71 45 72 60 74 82 75 47 76 30 77
REMARK SMILES IDX 31 78 40 79 32 80 33 81 39 82 41 83 34 84 35 85 36 86 37 87
REMARK SMILES IDX 38 88 64 89 65 90 74 91 66 92 67 93 73 94 75 95 68 96 69 97
REMARK SMILES IDX 70 98 71 99 72 100 48 101 49 102 58 103 50 104 51 105 57 106
REMARK SMILES IDX 59 107 52 108 53 109 54 110 55 111 56 112
REMARK H PARENT 14 5 7 10 11 38 18 43 80 62 46 73
REMARK Flexibility Score: inf
ROOT
ATOM      1  C   UNL A   1      42.250  39.421  26.723  1.00  0.00     0.117 C 
ENDROOT
BRANCH   1   2
ATOM      2  N   UNL A   1      43.625  39.365  26.251  1.00  0.00    -0.354 N 
ATOM      3  C   UNL A   1      44.619  40.275  26.095  1.00  0.00     0.242 C 
ATOM      4  O   UNL A   1      45.726  39.823  25.778  1.00  0.00    -0.273 OA
ATOM      5  H   UNL A   1      43.897  38.457  25.982  1.00  0.00     0.163 HD
BRANCH   3   6
ATOM      6  C   UNL A   1      44.490  41.768  26.437  1.00  0.00     0.173 C 
BRANCH   6   7
ATOM      7  N   UNL A   1      43.438  42.460  25.700  1.00  0.00    -0.344 N 
ATOM      8  C   UNL A   1      43.425  42.768  24.364  1.00  0.00     0.225 C 
ATOM      9  O   UNL A   1      42.372  43.200  23.886  1.00  0.00    -0.275 OA
ATOM     10  H   UNL A   1      42.649  42.735  26.220  1.00  0.00     0.164 HD
BRANCH   8  11
ATOM     11  C   UNL A   1      44.671  42.582  23.496  1.00  0.00     0.137 C 
BRANCH  11  12
ATOM     12  C   UNL A   1      44.627  43.390  22.228  1.00  0.00    -0.017 A 
ATOM     13  C   UNL A   1      42.835  42.073  20.909  1.00  0.00     0.065 C 
ATOM     14  C   UNL A   1      43.780  43.210  21.141  1.00  0.00     0.024 A 
ATOM     15  N   UNL A   1      44.015  44.235  20.232  1.00  0.00    -0.314 N 
ATOM     16  C   UNL A   1      45.465  44.494  21.915  1.00  0.00     0.033 A 
ATOM     17  C   UNL A   1      45.053  45.039  20.711  1.00  0.00     0.053 A 
BRANCH  15  18
ATOM     18  C   UNL A   1      43.311  44.454  19.019  1.00  0.00     0.046 A 
ATOM     19  C   UNL A   1      43.815  43.926  17.822  1.00  0.00     0.029 A 
ATOM     20  C   UNL A   1      42.169  45.268  19.018  1.00  0.00     0.029 A 
ATOM     21  C   UNL A   1      43.170  44.212  16.621  1.00  0.00     0.041 A 
ATOM     22  C   UNL A   1      41.537  45.556  17.808  1.00  0.00     0.041 A 
ATOM     23  C   UNL A   1      42.042  45.026  16.625  1.00  0.00     0.123 A 
ATOM     24  F   UNL A   1      41.437  45.313  15.465  1.00  0.00    -0.207 F 
ENDBRANCH  15  18
BRANCH  17  25
ATOM     25  C   UNL A   1      45.525  46.276  20.071  1.00  0.00    -0.001 A 
ATOM     26  C   UNL A   1      46.237  46.239  18.860  1.00  0.00     0.011 A 
ATOM     27  C   UNL A   1      45.294  47.515  20.683  1.00  0.00     0.011 A 
ATOM     28  C   UNL A   1      46.782  47.404  18.314  1.00  0.00     0.021 A 
ATOM     29  C   UNL A   1      45.830  48.686  20.140  1.00  0.00     0.021 A 
ATOM     30  C   UNL A   1      46.598  48.619  18.976  1.00  0.00     0.067 A 
BRANCH  30  31
ATOM     31  S   UNL A   1      47.347  50.086  18.306  1.00  0.00     0.175 S 
ATOM     32  C   UNL A   1      47.097  49.935  16.556  1.00  0.00     0.163 C 
ATOM     33  O   UNL A   1      46.591  51.214  18.781  1.00  0.00    -0.224 OA
ATOM     34  O   UNL A   1      48.787  49.991  18.540  1.00  0.00    -0.224 OA
ENDBRANCH  30  31
ENDBRANCH  17  25
ENDBRANCH  11  12
ENDBRANCH   8  11
ENDBRANCH   6   7
BRANCH   6  35
ATOM     35  C   UNL A   1      44.544  42.116  27.937  1.00  0.00     0.063 C 
BRANCH  35  36
ATOM     36  C   UNL A   1      45.055  43.484  28.360  1.00  0.00     0.158 C 
BRANCH  36  37
ATOM     37  O   UNL A   1      44.229  44.110  29.326  1.00  0.00    -0.396 OA
ATOM     38  H   UNL A   1      44.177  43.552  30.117  1.00  0.00     0.210 HD
ENDBRANCH  36  37
ENDBRANCH  35  36
ENDBRANCH   6  35
ENDBRANCH   3   6
ENDBRANCH   1   2
BRANCH   1  39
ATOM     39  C   UNL A   1      41.983  38.614  27.998  1.00  0.00     0.042 C 
BRANCH  39  40
ATOM     40  C   UNL A   1      42.757  37.295  28.157  1.00  0.00     0.118 C 
BRANCH  40  41
ATOM     41  N   UNL A   1      43.360  37.112  29.457  1.00  0.00    -0.352 N 
ATOM     42  C   UNL A   1      43.875  35.942  29.996  1.00  0.00     0.251 C 
ATOM     43  H   UNL A   1      43.410  37.912  30.029  1.00  0.00     0.163 HD
ATOM     44  O   UNL A   1      44.337  35.999  31.133  1.00  0.00    -0.269 OA
BRANCH  42  45
ATOM     45  C   UNL A   1      43.745  34.620  29.275  1.00  0.00     0.039 A 
ATOM     46  C   UNL A   1      43.617  33.480  30.048  1.00  0.00     0.014 A 
ATOM     47  C   UNL A   1      43.891  34.418  27.890  1.00  0.00     0.014 A 
ATOM     48  C   UNL A   1      43.568  32.187  29.441  1.00  0.00     0.010 A 
ATOM     49  C   UNL A   1      43.943  33.081  27.286  1.00  0.00     0.010 A 
ATOM     50  C   UNL A   1      43.791  31.896  28.039  1.00  0.00    -0.014 A 
BRANCH  50  51
ATOM     51  C   UNL A   1      44.410  30.398  27.716  1.00  0.00     0.031 A 
ATOM     52  C   UNL A   1      43.143  29.631  27.513  1.00  0.00     0.074 A 
ATOM     53  C   UNL A   1      45.578  29.613  27.672  1.00  0.00     0.049 A 
ATOM     54  N   UNL A   1      42.244  29.652  28.460  1.00  0.00    -0.248 NA
ATOM     55  C   UNL A   1      42.622  29.263  26.195  1.00  0.00     0.031 C 
ATOM     56  C   UNL A   1      46.949  29.994  28.060  1.00  0.00     0.029 A 
ATOM     57  N   UNL A   1      45.841  28.251  27.262  1.00  0.00    -0.354 N 
ATOM     58  C   UNL A   1      41.138  29.012  27.967  1.00  0.00     0.074 A 
ATOM     59  C   UNL A   1      41.342  29.033  26.521  1.00  0.00     0.031 C 
ATOM     60  C   UNL A   1      47.872  29.030  27.744  1.00  0.00     0.029 A 
ATOM     61  C   UNL A   1      47.244  27.842  27.157  1.00  0.00     0.049 A 
ATOM     62  H   UNL A   1      45.108  27.624  27.062  1.00  0.00     0.167 HD
ATOM     63  C   UNL A   1      40.703  27.976  28.741  1.00  0.00     0.037 A 
ATOM     64  C   UNL A   1      47.847  26.642  26.725  1.00  0.00     0.037 A 
ATOM     65  C   UNL A   1      41.226  26.721  28.265  1.00  0.00     0.049 A 
ATOM     66  C   UNL A   1      46.832  25.608  26.956  1.00  0.00     0.074 A 
ATOM     67  C   UNL A   1      41.346  26.182  26.998  1.00  0.00     0.029 A 
ATOM     68  N   UNL A   1      42.164  26.090  29.054  1.00  0.00    -0.354 N 
ATOM     69  N   UNL A   1      46.569  25.154  28.141  1.00  0.00    -0.248 NA
ATOM     70  C   UNL A   1      46.103  24.984  25.859  1.00  0.00     0.031 C 
ATOM     71  C   UNL A   1      42.672  25.707  26.951  1.00  0.00     0.029 A 
ATOM     72  C   UNL A   1      43.132  25.529  28.249  1.00  0.00     0.049 A 
ATOM     73  H   UNL A   1      42.146  26.048  30.038  1.00  0.00     0.167 HD
ATOM     74  C   UNL A   1      45.323  24.638  27.992  1.00  0.00     0.074 A 
ATOM     75  C   UNL A   1      45.207  24.310  26.581  1.00  0.00     0.031 C 
ATOM     76  C   UNL A   1      44.377  25.108  28.841  1.00  0.00     0.037 A 
BRANCH  63  77
ATOM     77  C   UNL A   1      40.560  28.334  30.199  1.00  0.00     0.058 A 
ATOM     78  C   UNL A   1      39.283  28.575  30.716  1.00  0.00     0.135 A 
ATOM     79  C   UNL A   1      41.659  28.562  31.061  1.00  0.00     0.135 A 
ATOM     80  F   UNL A   1      38.197  28.348  29.958  1.00  0.00    -0.206 F 
ATOM     81  C   UNL A   1      39.101  29.053  32.011  1.00  0.00     0.059 A 
ATOM     82  C   UNL A   1      41.504  29.091  32.337  1.00  0.00     0.059 A 
ATOM     83  F   UNL A   1      42.908  28.259  30.671  1.00  0.00    -0.206 F 
ATOM     84  C   UNL A   1      40.217  29.331  32.806  1.00  0.00     0.060 A 
BRANCH  84  85
ATOM     85  S   UNL A   1      39.957  30.012  34.457  1.00  0.00     0.124 S 
ATOM     86  O   UNL A   1      38.500  30.091  34.536  1.00  0.00    -0.237 OA
ATOM     87  O   UNL A   1      40.570  28.990  35.298  1.00  0.00    -0.237 OA
ATOM     88  O   UNL A   1      40.638  31.302  34.413  1.00  0.00    -0.744 OA
ENDBRANCH  84  85
ENDBRANCH  63  77
BRANCH  64  89
ATOM     89  C   UNL A   1      49.179  25.904  26.262  1.00  0.00     0.058 A 
ATOM     90  C   UNL A   1      49.788  26.173  24.975  1.00  0.00     0.135 A 
ATOM     91  C   UNL A   1      50.086  25.310  27.155  1.00  0.00     0.135 A 
ATOM     92  F   UNL A   1      49.073  26.692  23.966  1.00  0.00    -0.206 F 
ATOM     93  C   UNL A   1      51.159  26.015  24.668  1.00  0.00     0.059 A 
ATOM     94  C   UNL A   1      51.473  25.112  26.855  1.00  0.00     0.059 A 
ATOM     95  F   UNL A   1      49.680  24.981  28.390  1.00  0.00    -0.206 F 
ATOM     96  C   UNL A   1      52.015  25.517  25.632  1.00  0.00     0.060 A 
BRANCH  96  97
ATOM     97  S   UNL A   1      53.818  25.560  25.324  1.00  0.00     0.124 S 
ATOM     98  O   UNL A   1      53.935  26.491  24.206  1.00  0.00    -0.237 OA
ATOM     99  O   UNL A   1      54.345  26.041  26.600  1.00  0.00    -0.237 OA
ATOM    100  O   UNL A   1      54.141  24.169  25.016  1.00  0.00    -0.744 OA
ENDBRANCH  96  97
ENDBRANCH  64  89
BRANCH  76 101
ATOM    101  C   UNL A   1      44.760  25.247  30.307  1.00  0.00     0.058 A 
ATOM    102  C   UNL A   1      45.483  26.306  30.910  1.00  0.00     0.135 A 
ATOM    103  C   UNL A   1      44.441  24.169  31.149  1.00  0.00     0.135 A 
ATOM    104  F   UNL A   1      45.750  27.448  30.259  1.00  0.00    -0.206 F 
ATOM    105  C   UNL A   1      45.949  26.234  32.226  1.00  0.00     0.059 A 
ATOM    106  C   UNL A   1      44.842  24.106  32.482  1.00  0.00     0.059 A 
ATOM    107  F   UNL A   1      43.727  23.137  30.671  1.00  0.00    -0.206 F 
ATOM    108  C   UNL A   1      45.637  25.120  33.000  1.00  0.00     0.060 A 
BRANCH 108 109
ATOM    109  S   UNL A   1      46.295  24.996  34.677  1.00  0.00     0.124 S 
ATOM    110  O   UNL A   1      45.506  23.899  35.228  1.00  0.00    -0.237 OA
ATOM    111  O   UNL A   1      47.705  24.703  34.447  1.00  0.00    -0.237 OA
ATOM    112  O   UNL A   1      46.009  26.308  35.251  1.00  0.00    -0.744 OA
ENDBRANCH 108 109
ENDBRANCH  76 101
ENDBRANCH  50  51
ENDBRANCH  42  45
ENDBRANCH  40  41
ENDBRANCH  39  40
ENDBRANCH   1  39
TORSDOF 22
ENDMDL
MODEL 2
REMARK VINA RESULT:     -10.5      2.488      3.490
REMARK SMILES Cc1c(CC(=O)N[C@@H](CCO)C(=O)NCCCNC(=O)c2ccc(-c3c4nc(c(-c5c(F)cc(S(=O)(=O)[O-])cc5F)c5ccc([nH]5)c(-c5c(F)cc(S(=O)(=O)[O-])cc5F)c5nc(c(-c6c(F)cc(S(=O)(=O)[O-])cc6F)c6ccc3[nH]6)C=C5)C=C4)cc2)cc(-c2ccc(S(C)(=O)=O)cc2)n1-c1ccc(F)cc1
REMARK SMILES IDX 15 1 14 2 12 3 13 4 8 6 7 7 5 8 6 9 4 11 3 12 1 13 2 14
REMARK SMILES IDX 99 15 87 16 88 17 100 18 101 19 106 20 102 21 105 22 103 23
REMARK SMILES IDX 104 24 89 25 90 26 98 27 91 28 97 29 92 30 93 31 94 32 95 33
REMARK SMILES IDX 96 34 9 35 10 36 11 37 16 39 17 40 18 41 19 42 20 44 21 45
REMARK SMILES IDX 22 46 86 47 23 48 85 49 24 50 25 51 26 52 79 53 27 54 84 55
REMARK SMILES IDX 78 56 80 57 28 58 83 59 77 60 76 61 29 63 63 64 42 65 62 66
REMARK SMILES IDX 43 67 46 68 61 69 81 70 44 71 45 72 60 74 82 75 47 76 30 77
REMARK SMILES IDX 31 78 40 79 32 80 33 81 39 82 41 83 34 84 35 85 36 86 37 87
REMARK SMILES IDX 38 88 64 89 65 90 74 91 66 92 67 93 73 94 75 95 68 96 69 97
REMARK SMILES IDX 70 98 71 99 72 100 48 101 49 102 58 103 50 104 51 105 57 106
REMARK SMILES IDX 59 107 52 108 53 109 54 110 55 111 56 112
REMARK H PARENT 14 5 7 10 11 38 18 43 80 62 46 73
REMARK Flexibility Score: inf
ROOT
ATOM      1  C   UNL A   1      45.287  38.589  26.838  1.00  0.00     0.117 C 
ENDROOT
BRANCH   1   2
ATOM      2  N   UNL A   1      45.613  39.408  25.680  1.00  0.00    -0.354 N 
ATOM      3  C   UNL A   1      46.244  40.595  25.499  1.00  0.00     0.242 C 
ATOM      4  O   UNL A   1      46.454  40.925  24.326  1.00  0.00    -0.273 OA
ATOM      5  H   UNL A   1      45.304  39.009  24.834  1.00  0.00     0.163 HD
BRANCH   3   6
ATOM      6  C   UNL A   1      46.839  41.445  26.633  1.00  0.00     0.173 C 
BRANCH   6   7
ATOM      7  N   UNL A   1      45.846  41.988  27.554  1.00  0.00    -0.344 N 
ATOM      8  C   UNL A   1      45.539  43.309  27.758  1.00  0.00     0.225 C 
ATOM      9  O   UNL A   1      44.550  43.567  28.449  1.00  0.00    -0.275 OA
ATOM     10  H   UNL A   1      45.341  41.334  28.087  1.00  0.00     0.164 HD
BRANCH   8  11
ATOM     11  C   UNL A   1      46.392  44.424  27.150  1.00  0.00     0.137 C 
BRANCH  11  12
ATOM     12  C   UNL A   1      46.377  44.417  25.646  1.00  0.00    -0.017 A 
ATOM     13  C   UNL A   1      48.907  44.640  25.161  1.00  0.00     0.065 C 
ATOM     14  C   UNL A   1      47.471  44.439  24.790  1.00  0.00     0.024 A 
ATOM     15  N   UNL A   1      47.006  44.325  23.485  1.00  0.00    -0.314 N 
ATOM     16  C   UNL A   1      45.216  44.396  24.824  1.00  0.00     0.033 A 
ATOM     17  C   UNL A   1      45.609  44.289  23.501  1.00  0.00     0.053 A 
BRANCH  15  18
ATOM     18  C   UNL A   1      47.808  44.239  22.316  1.00  0.00     0.046 A 
ATOM     19  C   UNL A   1      48.239  45.414  21.686  1.00  0.00     0.029 A 
ATOM     20  C   UNL A   1      48.084  42.983  21.757  1.00  0.00     0.029 A 
ATOM     21  C   UNL A   1      48.954  45.331  20.493  1.00  0.00     0.041 A 
ATOM     22  C   UNL A   1      48.792  42.911  20.557  1.00  0.00     0.041 A 
ATOM     23  C   UNL A   1      49.220  44.083  19.939  1.00  0.00     0.123 A 
ATOM     24  F   UNL A   1      49.891  44.009  18.782  1.00  0.00    -0.207 F 
ENDBRANCH  15  18
BRANCH  17  25
ATOM     25  C   UNL A   1      44.757  44.083  22.321  1.00  0.00    -0.001 A 
ATOM     26  C   UNL A   1      44.908  44.877  21.170  1.00  0.00     0.011 A 
ATOM     27  C   UNL A   1      43.756  43.104  22.340  1.00  0.00     0.011 A 
ATOM     28  C   UNL A   1      44.024  44.754  20.096  1.00  0.00     0.021 A 
ATOM     29  C   UNL A   1      42.871  42.970  21.267  1.00  0.00     0.021 A 
ATOM     30  C   UNL A   1      42.991  43.818  20.164  1.00  0.00     0.067 A 
BRANCH  30  31
ATOM     31  S   UNL A   1      41.834  43.713  18.818  1.00  0.00     0.175 S 
ATOM     32  C   UNL A   1      41.859  45.337  18.103  1.00  0.00     0.163 C 
ATOM     33  O   UNL A   1      42.368  42.783  17.860  1.00  0.00    -0.224 OA
ATOM     34  O   UNL A   1      40.504  43.523  19.395  1.00  0.00    -0.224 OA
ENDBRANCH  30  31
ENDBRANCH  17  25
ENDBRANCH  11  12
ENDBRANCH   8  11
ENDBRANCH   6   7
BRANCH   6  35
ATOM     35  C   UNL A   1      48.086  40.859  27.323  1.00  0.00     0.063 C 
BRANCH  35  36
ATOM     36  C   UNL A   1      48.798  41.682  28.384  1.00  0.00     0.158 C 
BRANCH  36  37
ATOM     37  O   UNL A   1      48.614  41.174  29.695  1.00  0.00    -0.396 OA
ATOM     38  H   UNL A   1      48.523  41.912  30.318  1.00  0.00     0.210 HD
ENDBRANCH  36  37
ENDBRANCH  35  36
ENDBRANCH   6  35
ENDBRANCH   3   6
ENDBRANCH   1   2
BRANCH   1  39
ATOM     39  C   UNL A   1      46.326  37.510  27.167  1.00  0.00     0.042 C 
BRANCH  39  40
ATOM     40  C   UNL A   1      45.839  36.312  27.997  1.00  0.00     0.118 C 
BRANCH  40  41
ATOM     41  N   UNL A   1      44.670  36.583  28.803  1.00  0.00    -0.352 N 
ATOM     42  C   UNL A   1      43.660  35.700  29.155  1.00  0.00     0.251 C 
ATOM     43  H   UNL A   1      44.580  37.503  29.143  1.00  0.00     0.163 HD
ATOM     44  O   UNL A   1      42.741  36.137  29.844  1.00  0.00    -0.269 OA
BRANCH  42  45
ATOM     45  C   UNL A   1      43.611  34.296  28.596  1.00  0.00     0.039 A 
ATOM     46  C   UNL A   1      43.680  33.247  29.494  1.00  0.00     0.014 A 
ATOM     47  C   UNL A   1      43.653  33.951  27.233  1.00  0.00     0.014 A 
ATOM     48  C   UNL A   1      43.719  31.894  29.036  1.00  0.00     0.010 A 
ATOM     49  C   UNL A   1      43.798  32.564  26.772  1.00  0.00     0.010 A 
ATOM     50  C   UNL A   1      43.845  31.465  27.658  1.00  0.00    -0.014 A 
BRANCH  50  51
ATOM     51  C   UNL A   1      44.593  30.009  27.434  1.00  0.00     0.031 A 
ATOM     52  C   UNL A   1      43.446  29.204  26.914  1.00  0.00     0.074 A 
ATOM     53  C   UNL A   1      45.777  29.273  27.636  1.00  0.00     0.049 A 
ATOM     54  N   UNL A   1      42.352  29.146  27.625  1.00  0.00    -0.248 NA
ATOM     55  C   UNL A   1      43.263  28.877  25.498  1.00  0.00     0.031 C 
ATOM     56  C   UNL A   1      47.000  29.687  28.348  1.00  0.00     0.029 A 
ATOM     57  N   UNL A   1      46.193  27.942  27.251  1.00  0.00    -0.354 N 
ATOM     58  C   UNL A   1      41.423  28.488  26.864  1.00  0.00     0.074 A 
ATOM     59  C   UNL A   1      41.956  28.584  25.508  1.00  0.00     0.031 C 
ATOM     60  C   UNL A   1      48.016  28.775  28.221  1.00  0.00     0.029 A 
ATOM     61  C   UNL A   1      47.599  27.592  27.461  1.00  0.00     0.049 A 
ATOM     62  H   UNL A   1      45.557  27.297  26.862  1.00  0.00     0.167 HD
ATOM     63  C   UNL A   1      40.871  27.401  27.477  1.00  0.00     0.037 A 
ATOM     64  C   UNL A   1      48.343  26.437  27.140  1.00  0.00     0.037 A 
ATOM     65  C   UNL A   1      41.550  26.191  27.091  1.00  0.00     0.049 A 
ATOM     66  C   UNL A   1      47.353  25.356  27.089  1.00  0.00     0.074 A 
ATOM     67  C   UNL A   1      41.986  25.717  25.869  1.00  0.00     0.029 A 
ATOM     68  N   UNL A   1      42.309  25.560  28.055  1.00  0.00    -0.354 N 
ATOM     69  N   UNL A   1      46.845  24.837  28.163  1.00  0.00    -0.248 NA
ATOM     70  C   UNL A   1      46.930  24.756  25.830  1.00  0.00     0.031 C 
ATOM     71  C   UNL A   1      43.308  25.295  26.116  1.00  0.00     0.029 A 
ATOM     72  C   UNL A   1      43.462  25.074  27.478  1.00  0.00     0.049 A 
ATOM     73  H   UNL A   1      42.065  25.472  29.005  1.00  0.00     0.167 HD
ATOM     74  C   UNL A   1      45.694  24.282  27.708  1.00  0.00     0.074 A 
ATOM     75  C   UNL A   1      45.924  24.015  26.298  1.00  0.00     0.031 C 
ATOM     76  C   UNL A   1      44.555  24.675  28.329  1.00  0.00     0.037 A 
BRANCH  63  77
ATOM     77  C   UNL A   1      40.377  27.686  28.873  1.00  0.00     0.058 A 
ATOM     78  C   UNL A   1      39.018  27.949  29.071  1.00  0.00     0.135 A 
ATOM     79  C   UNL A   1      41.230  27.823  29.994  1.00  0.00     0.135 A 
ATOM     80  F   UNL A   1      38.151  27.805  28.055  1.00  0.00    -0.206 F 
ATOM     81  C   UNL A   1      38.529  28.363  30.307  1.00  0.00     0.059 A 
ATOM     82  C   UNL A   1      40.774  28.289  31.221  1.00  0.00     0.059 A 
ATOM     83  F   UNL A   1      42.530  27.493  29.908  1.00  0.00    -0.206 F 
ATOM     84  C   UNL A   1      39.418  28.553  31.370  1.00  0.00     0.060 A 
BRANCH  84  85
ATOM     85  S   UNL A   1      38.769  29.154  32.944  1.00  0.00     0.124 S 
ATOM     86  O   UNL A   1      37.650  28.246  33.188  1.00  0.00    -0.237 OA
ATOM     87  O   UNL A   1      39.918  28.975  33.824  1.00  0.00    -0.237 OA
ATOM     88  O   UNL A   1      38.387  30.533  32.659  1.00  0.00    -0.744 OA
ENDBRANCH  84  85
ENDBRANCH  63  77
BRANCH  64  89
ATOM     89  C   UNL A   1      49.781  25.773  26.974  1.00  0.00     0.058 A 
ATOM     90  C   UNL A   1      50.431  25.684  25.683  1.00  0.00     0.135 A 
ATOM     91  C   UNL A   1      50.695  25.632  28.031  1.00  0.00     0.135 A 
ATOM     92  F   UNL A   1      49.724  25.743  24.545  1.00  0.00    -0.206 F 
ATOM     93  C   UNL A   1      51.828  25.619  25.472  1.00  0.00     0.059 A 
ATOM     94  C   UNL A   1      52.111  25.533  27.840  1.00  0.00     0.059 A 
ATOM     95  F   UNL A   1      50.255  25.675  29.297  1.00  0.00    -0.206 F 
ATOM     96  C   UNL A   1      52.675  25.583  26.563  1.00  0.00     0.060 A 
BRANCH  96  97
ATOM     97  S   UNL A   1      54.477  25.763  26.292  1.00  0.00     0.124 S 
ATOM     98  O   UNL A   1      54.749  27.104  26.799  1.00  0.00    -0.237 OA
ATOM     99  O   UNL A   1      55.026  24.668  27.087  1.00  0.00    -0.237 OA
ATOM    100  O   UNL A   1      54.619  25.601  24.848  1.00  0.00    -0.744 OA
ENDBRANCH  96  97
ENDBRANCH  64  89
BRANCH  76 101
ATOM    101  C   UNL A   1      44.581  24.761  29.848  1.00  0.00     0.058 A 
ATOM    102  C   UNL A   1      45.097  25.814  30.641  1.00  0.00     0.135 A 
ATOM    103  C   UNL A   1      44.122  23.635  30.553  1.00  0.00     0.135 A 
ATOM    104  F   UNL A   1      45.459  26.993  30.112  1.00  0.00    -0.206 F 
ATOM    105  C   UNL A   1      45.247  25.699  32.026  1.00  0.00     0.059 A 
ATOM    106  C   UNL A   1      44.204  23.525  31.939  1.00  0.00     0.059 A 
ATOM    107  F   UNL A   1      43.583  22.603  29.883  1.00  0.00    -0.206 F 
ATOM    108  C   UNL A   1      44.813  24.542  32.665  1.00  0.00     0.060 A 
BRANCH 108 109
ATOM    109  S   UNL A   1      45.068  24.364  34.443  1.00  0.00     0.124 S 
ATOM    110  O   UNL A   1      43.739  23.965  34.899  1.00  0.00    -0.237 OA
ATOM    111  O   UNL A   1      46.094  23.330  34.519  1.00  0.00    -0.237 OA
ATOM    112  O   UNL A   1      45.486  25.699  34.861  1.00  0.00    -0.744 OA
ENDBRANCH 108 109
ENDBRANCH  76 101
ENDBRANCH  50  51
ENDBRANCH  42  45
ENDBRANCH  40  41
ENDBRANCH  39  40
ENDBRANCH   1  39
TORSDOF 22
ENDMDL
MODEL 3
REMARK VINA RESULT:     -10.3      4.480      9.757
REMARK SMILES Cc1c(CC(=O)N[C@@H](CCO)C(=O)NCCCNC(=O)c2ccc(-c3c4nc(c(-c5c(F)cc(S(=O)(=O)[O-])cc5F)c5ccc([nH]5)c(-c5c(F)cc(S(=O)(=O)[O-])cc5F)c5nc(c(-c6c(F)cc(S(=O)(=O)[O-])cc6F)c6ccc3[nH]6)C=C5)C=C4)cc2)cc(-c2ccc(S(C)(=O)=O)cc2)n1-c1ccc(F)cc1
REMARK SMILES IDX 15 1 14 2 12 3 13 4 8 6 7 7 5 8 6 9 4 11 3 12 1 13 2 14
REMARK SMILES IDX 99 15 87 16 88 17 100 18 101 19 106 20 102 21 105 22 103 23
REMARK SMILES IDX 104 24 89 25 90 26 98 27 91 28 97 29 92 30 93 31 94 32 95 33
REMARK SMILES IDX 96 34 9 35 10 36 11 37 16 39 17 40 18 41 19 42 20 44 21 45
REMARK SMILES IDX 22 46 86 47 23 48 85 49 24 50 25 51 26 52 79 53 27 54 84 55
REMARK SMILES IDX 78 56 80 57 28 58 83 59 77 60 76 61 29 63 63 64 42 65 62 66
REMARK SMILES IDX 43 67 46 68 61 69 81 70 44 71 45 72 60 74 82 75 47 76 30 77
REMARK SMILES IDX 31 78 40 79 32 80 33 81 39 82 41 83 34 84 35 85 36 86 37 87
REMARK SMILES IDX 38 88 64 89 65 90 74 91 66 92 67 93 73 94 75 95 68 96 69 97
REMARK SMILES IDX 70 98 71 99 72 100 48 101 49 102 58 103 50 104 51 105 57 106
REMARK SMILES IDX 59 107 52 108 53 109 54 110 55 111 56 112
REMARK H PARENT 14 5 7 10 11 38 18 43 80 62 46 73
REMARK Flexibility Score: inf
ROOT
ATOM      1  C   UNL A   1      45.819  41.425  29.732  1.00  0.00     0.117 C 
ENDROOT
BRANCH   1   2
ATOM      2  N   UNL A   1      44.810  40.429  30.061  1.00  0.00    -0.354 N 
ATOM      3  C   UNL A   1      43.700  39.955  29.441  1.00  0.00     0.242 C 
ATOM      4  O   UNL A   1      43.146  38.990  29.981  1.00  0.00    -0.273 OA
ATOM      5  H   UNL A   1      44.970  40.000  30.933  1.00  0.00     0.163 HD
BRANCH   3   6
ATOM      6  C   UNL A   1      43.203  40.430  28.067  1.00  0.00     0.173 C 
BRANCH   6   7
ATOM      7  N   UNL A   1      44.005  39.950  26.945  1.00  0.00    -0.344 N 
ATOM      8  C   UNL A   1      44.692  40.708  26.033  1.00  0.00     0.225 C 
ATOM      9  O   UNL A   1      45.455  40.122  25.260  1.00  0.00    -0.275 OA
ATOM     10  H   UNL A   1      44.058  38.974  26.833  1.00  0.00     0.164 HD
BRANCH   8  11
ATOM     11  C   UNL A   1      44.520  42.228  25.974  1.00  0.00     0.137 C 
BRANCH  11  12
ATOM     12  C   UNL A   1      44.825  42.799  24.617  1.00  0.00    -0.017 A 
ATOM     13  C   UNL A   1      47.371  43.189  24.847  1.00  0.00     0.065 C 
ATOM     14  C   UNL A   1      46.070  43.146  24.108  1.00  0.00     0.024 A 
ATOM     15  N   UNL A   1      45.905  43.544  22.785  1.00  0.00    -0.314 N 
ATOM     16  C   UNL A   1      43.872  43.096  23.605  1.00  0.00     0.033 A 
ATOM     17  C   UNL A   1      44.545  43.505  22.466  1.00  0.00     0.053 A 
BRANCH  15  18
ATOM     18  C   UNL A   1      46.941  43.912  21.887  1.00  0.00     0.046 A 
ATOM     19  C   UNL A   1      47.319  45.258  21.785  1.00  0.00     0.029 A 
ATOM     20  C   UNL A   1      47.511  42.942  21.052  1.00  0.00     0.029 A 
ATOM     21  C   UNL A   1      48.276  45.631  20.844  1.00  0.00     0.041 A 
ATOM     22  C   UNL A   1      48.460  43.328  20.106  1.00  0.00     0.041 A 
ATOM     23  C   UNL A   1      48.834  44.666  20.012  1.00  0.00     0.123 A 
ATOM     24  F   UNL A   1      49.739  45.033  19.096  1.00  0.00    -0.207 F 
ENDBRANCH  15  18
BRANCH  17  25
ATOM     25  C   UNL A   1      43.984  43.769  21.133  1.00  0.00    -0.001 A 
ATOM     26  C   UNL A   1      44.461  44.830  20.343  1.00  0.00     0.011 A 
ATOM     27  C   UNL A   1      42.938  42.978  20.642  1.00  0.00     0.011 A 
ATOM     28  C   UNL A   1      43.850  45.148  19.127  1.00  0.00     0.021 A 
ATOM     29  C   UNL A   1      42.325  43.285  19.424  1.00  0.00     0.021 A 
ATOM     30  C   UNL A   1      42.765  44.388  18.689  1.00  0.00     0.067 A 
BRANCH  30  31
ATOM     31  S   UNL A   1      41.956  44.837  17.171  1.00  0.00     0.175 S 
ATOM     32  C   UNL A   1      41.896  46.610  17.226  1.00  0.00     0.163 C 
ATOM     33  O   UNL A   1      42.815  44.442  16.088  1.00  0.00    -0.224 OA
ATOM     34  O   UNL A   1      40.575  44.363  17.251  1.00  0.00    -0.224 OA
ENDBRANCH  30  31
ENDBRANCH  17  25
ENDBRANCH  11  12
ENDBRANCH   8  11
ENDBRANCH   6   7
BRANCH   6  35
ATOM     35  C   UNL A   1      41.682  40.339  27.839  1.00  0.00     0.063 C 
BRANCH  35  36
ATOM     36  C   UNL A   1      41.138  40.467  26.425  1.00  0.00     0.158 C 
BRANCH  36  37
ATOM     37  O   UNL A   1      40.735  39.225  25.872  1.00  0.00    -0.396 OA
ATOM     38  H   UNL A   1      41.464  38.590  25.939  1.00  0.00     0.210 HD
ENDBRANCH  36  37
ENDBRANCH  35  36
ENDBRANCH   6  35
ENDBRANCH   3   6
ENDBRANCH   1   2
BRANCH   1  39
ATOM     39  C   UNL A   1      46.973  40.901  28.870  1.00  0.00     0.042 C 
BRANCH  39  40
ATOM     40  C   UNL A   1      47.215  39.383  28.888  1.00  0.00     0.118 C 
BRANCH  40  41
ATOM     41  N   UNL A   1      47.258  38.771  27.580  1.00  0.00    -0.352 N 
ATOM     42  C   UNL A   1      46.712  37.556  27.193  1.00  0.00     0.251 C 
ATOM     43  H   UNL A   1      47.731  39.277  26.879  1.00  0.00     0.163 HD
ATOM     44  O   UNL A   1      46.872  37.211  26.025  1.00  0.00    -0.269 OA
BRANCH  42  45
ATOM     45  C   UNL A   1      46.074  36.625  28.199  1.00  0.00     0.039 A 
ATOM     46  C   UNL A   1      45.230  35.642  27.715  1.00  0.00     0.014 A 
ATOM     47  C   UNL A   1      46.137  36.755  29.598  1.00  0.00     0.014 A 
ATOM     48  C   UNL A   1      44.528  34.776  28.608  1.00  0.00     0.010 A 
ATOM     49  C   UNL A   1      45.334  35.928  30.507  1.00  0.00     0.010 A 
ATOM     50  C   UNL A   1      44.481  34.898  30.051  1.00  0.00    -0.014 A 
BRANCH  50  51
ATOM     51  C   UNL A   1      43.108  34.323  30.767  1.00  0.00     0.031 A 
ATOM     52  C   UNL A   1      43.709  33.485  31.849  1.00  0.00     0.074 A 
ATOM     53  C   UNL A   1      41.704  34.243  30.682  1.00  0.00     0.049 A 
ATOM     54  N   UNL A   1      44.572  32.563  31.515  1.00  0.00    -0.248 NA
ATOM     55  C   UNL A   1      43.787  33.904  33.250  1.00  0.00     0.031 C 
ATOM     56  C   UNL A   1      40.824  34.738  29.606  1.00  0.00     0.029 A 
ATOM     57  N   UNL A   1      40.689  33.686  31.550  1.00  0.00    -0.354 N 
ATOM     58  C   UNL A   1      45.078  32.056  32.682  1.00  0.00     0.074 A 
ATOM     59  C   UNL A   1      44.755  33.080  33.672  1.00  0.00     0.031 C 
ATOM     60  C   UNL A   1      39.495  34.626  29.921  1.00  0.00     0.029 A 
ATOM     61  C   UNL A   1      39.293  33.982  31.223  1.00  0.00     0.049 A 
ATOM     62  H   UNL A   1      40.928  33.132  32.328  1.00  0.00     0.167 HD
ATOM     63  C   UNL A   1      44.955  30.702  32.801  1.00  0.00     0.037 A 
ATOM     64  C   UNL A   1      38.083  33.671  31.880  1.00  0.00     0.037 A 
ATOM     65  C   UNL A   1      43.777  30.354  33.553  1.00  0.00     0.049 A 
ATOM     66  C   UNL A   1      38.380  32.463  32.658  1.00  0.00     0.074 A 
ATOM     67  C   UNL A   1      43.236  30.856  34.721  1.00  0.00     0.029 A 
ATOM     68  N   UNL A   1      42.744  29.755  32.864  1.00  0.00    -0.354 N 
ATOM     69  N   UNL A   1      38.483  31.295  32.104  1.00  0.00    -0.248 NA
ATOM     70  C   UNL A   1      38.513  32.493  34.109  1.00  0.00     0.031 C 
ATOM     71  C   UNL A   1      41.872  31.042  34.417  1.00  0.00     0.029 A 
ATOM     72  C   UNL A   1      41.543  30.246  33.328  1.00  0.00     0.049 A 
ATOM     73  H   UNL A   1      42.848  29.083  32.152  1.00  0.00     0.167 HD
ATOM     74  C   UNL A   1      39.211  30.599  33.012  1.00  0.00     0.074 A 
ATOM     75  C   UNL A   1      38.966  31.251  34.288  1.00  0.00     0.031 C 
ATOM     76  C   UNL A   1      40.349  30.026  32.550  1.00  0.00     0.037 A 
BRANCH  63  77
ATOM     77  C   UNL A   1      45.437  29.948  31.587  1.00  0.00     0.058 A 
ATOM     78  C   UNL A   1      46.576  29.143  31.697  1.00  0.00     0.135 A 
ATOM     79  C   UNL A   1      44.875  30.096  30.297  1.00  0.00     0.135 A 
ATOM     80  F   UNL A   1      47.138  28.936  32.900  1.00  0.00    -0.206 F 
ATOM     81  C   UNL A   1      47.153  28.542  30.581  1.00  0.00     0.059 A 
ATOM     82  C   UNL A   1      45.466  29.552  29.163  1.00  0.00     0.059 A 
ATOM     83  F   UNL A   1      43.726  30.771  30.126  1.00  0.00    -0.206 F 
ATOM     84  C   UNL A   1      46.605  28.772  29.316  1.00  0.00     0.060 A 
BRANCH  84  85
ATOM     85  S   UNL A   1      47.411  28.035  27.878  1.00  0.00     0.124 S 
ATOM     86  O   UNL A   1      48.537  27.325  28.479  1.00  0.00    -0.237 OA
ATOM     87  O   UNL A   1      46.350  27.185  27.349  1.00  0.00    -0.237 OA
ATOM     88  O   UNL A   1      47.780  29.186  27.059  1.00  0.00    -0.744 OA
ENDBRANCH  84  85
ENDBRANCH  63  77
BRANCH  64  89
ATOM     89  C   UNL A   1      36.522  33.952  32.016  1.00  0.00     0.058 A 
ATOM     90  C   UNL A   1      35.993  34.799  33.066  1.00  0.00     0.135 A 
ATOM     91  C   UNL A   1      35.613  33.803  30.956  1.00  0.00     0.135 A 
ATOM     92  F   UNL A   1      36.687  35.024  34.191  1.00  0.00    -0.206 F 
ATOM     93  C   UNL A   1      34.781  35.526  32.999  1.00  0.00     0.059 A 
ATOM     94  C   UNL A   1      34.367  34.505  30.882  1.00  0.00     0.059 A 
ATOM     95  F   UNL A   1      35.941  33.036  29.906  1.00  0.00    -0.206 F 
ATOM     96  C   UNL A   1      33.983  35.407  31.878  1.00  0.00     0.060 A 
BRANCH  96  97
ATOM     97  S   UNL A   1      32.559  36.540  31.680  1.00  0.00     0.124 S 
ATOM     98  O   UNL A   1      33.093  37.585  30.813  1.00  0.00    -0.237 OA
ATOM     99  O   UNL A   1      31.550  35.675  31.072  1.00  0.00    -0.237 OA
ATOM    100  O   UNL A   1      32.264  36.954  33.049  1.00  0.00    -0.744 OA
ENDBRANCH  96  97
ENDBRANCH  64  89
BRANCH  76 101
ATOM    101  C   UNL A   1      40.277  29.307  31.212  1.00  0.00     0.058 A 
ATOM    102  C   UNL A   1      39.762  28.012  30.958  1.00  0.00     0.135 A 
ATOM    103  C   UNL A   1      40.863  29.956  30.112  1.00  0.00     0.135 A 
ATOM    104  F   UNL A   1      39.071  27.326  31.881  1.00  0.00    -0.206 F 
ATOM    105  C   UNL A   1      39.927  27.374  29.725  1.00  0.00     0.059 A 
ATOM    106  C   UNL A   1      40.981  29.363  28.857  1.00  0.00     0.059 A 
ATOM    107  F   UNL A   1      41.346  31.202  30.252  1.00  0.00    -0.206 F 
ATOM    108  C   UNL A   1      40.554  28.052  28.684  1.00  0.00     0.060 A 
BRANCH 108 109
ATOM    109  S   UNL A   1      40.827  27.204  27.114  1.00  0.00     0.124 S 
ATOM    110  O   UNL A   1      40.735  28.305  26.159  1.00  0.00    -0.237 OA
ATOM    111  O   UNL A   1      42.157  26.630  27.286  1.00  0.00    -0.237 OA
ATOM    112  O   UNL A   1      39.729  26.243  27.052  1.00  0.00    -0.744 OA
ENDBRANCH 108 109
ENDBRANCH  76 101
ENDBRANCH  50  51
ENDBRANCH  42  45
ENDBRANCH  40  41
ENDBRANCH  39  40
ENDBRANCH   1  39
TORSDOF 22
ENDMDL
