MODEL 1
REMARK VINA RESULT:     -13.2      0.000      0.000
REMARK SMILES Cc1ccccc1OC1(C(=O)NCCCNC(=O)c2ccc(-c3c4nc(c(-c5c(F)cc(S(=O)(=O)[O-])cc5F)c5ccc([nH]5)c(-c5c(F)cc(S(=O)(=O)[O-])cc5F)c5nc(c(-c6c(F)cc(S(=O)(=O)[O-])cc6F)c6ccc3[nH]6)C=C5)C=C4)cc2)CCN(C(=O)[C@H]2CCCCO2)CC1
REMARK SMILES IDX 14 1 13 2 12 3 10 4 11 5 9 7 85 8 97 9 86 10 96 11 87 12
REMARK SMILES IDX 88 13 89 14 8 15 7 16 1 17 2 18 3 19 4 20 6 21 5 22 90 23
REMARK SMILES IDX 91 24 95 25 92 26 94 27 93 28 15 29 16 30 17 31 18 33 19 34
REMARK SMILES IDX 20 35 84 36 21 37 83 38 22 39 23 40 24 41 77 42 25 43 82 44
REMARK SMILES IDX 76 45 78 46 26 47 81 48 75 49 74 50 27 52 61 53 40 54 60 55
REMARK SMILES IDX 41 56 44 57 59 58 79 59 42 60 43 61 58 63 80 64 45 65 28 66
REMARK SMILES IDX 29 67 38 68 30 69 31 70 37 71 39 72 32 73 33 74 34 75 35 76
REMARK SMILES IDX 36 77 62 78 63 79 72 80 64 81 65 82 71 83 73 84 66 85 67 86
REMARK SMILES IDX 68 87 69 88 70 89 46 90 47 91 56 92 48 93 49 94 55 95 57 96
REMARK SMILES IDX 50 97 51 98 52 99 53 100 54 101
REMARK H PARENT 12 6 16 32 78 51 44 62
REMARK Flexibility Score: inf
ROOT
ATOM      1  C   UNL A   1      39.440  20.191  25.729  1.00  0.00     0.042 C 
ENDROOT
BRANCH   1   2
ATOM      2  C   UNL A   1      38.240  21.287  25.532  1.00  0.00     0.118 C 
BRANCH   2   3
ATOM      3  N   UNL A   1      37.705  21.789  24.225  1.00  0.00    -0.353 N 
ATOM      4  C   UNL A   1      36.627  22.586  23.823  1.00  0.00     0.264 C 
ATOM      5  O   UNL A   1      36.719  23.234  22.771  1.00  0.00    -0.270 OA
ATOM      6  H   UNL A   1      38.246  21.482  23.461  1.00  0.00     0.163 HD
BRANCH   4   7
ATOM      7  C   UNL A   1      35.250  22.588  24.633  1.00  0.00     0.190 C 
ATOM      8  C   UNL A   1      35.516  23.680  25.663  1.00  0.00     0.080 C 
ATOM      9  C   UNL A   1      34.154  22.702  23.585  1.00  0.00     0.080 C 
ATOM     10  C   UNL A   1      34.875  25.017  25.366  1.00  0.00     0.124 C 
ATOM     11  C   UNL A   1      33.419  24.019  23.503  1.00  0.00     0.124 C 
ATOM     12  N   UNL A   1      33.647  25.015  24.551  1.00  0.00    -0.340 N 
ATOM     13  C   UNL A   1      32.810  26.123  24.728  1.00  0.00     0.251 C 
ATOM     14  O   UNL A   1      33.038  26.962  25.604  1.00  0.00    -0.272 OA
BRANCH   7  15
ATOM     15  O   UNL A   1      35.031  21.332  25.372  1.00  0.00    -0.477 OA
BRANCH  15  16
ATOM     16  C   UNL A   1      34.324  20.200  24.994  1.00  0.00     0.123 A 
ATOM     17  C   UNL A   1      31.789  20.800  25.169  1.00  0.00     0.048 C 
ATOM     18  C   UNL A   1      32.947  19.925  24.857  1.00  0.00    -0.009 A 
ATOM     19  C   UNL A   1      32.496  18.655  24.400  1.00  0.00     0.007 A 
ATOM     20  C   UNL A   1      33.372  17.624  24.129  1.00  0.00     0.001 A 
ATOM     21  C   UNL A   1      35.186  19.116  24.725  1.00  0.00     0.047 A 
ATOM     22  C   UNL A   1      34.724  17.852  24.305  1.00  0.00     0.004 A 
ENDBRANCH  15  16
ENDBRANCH   7  15
BRANCH  13  23
ATOM     23  C   UNL A   1      31.564  26.240  23.824  1.00  0.00     0.207 C 
ATOM     24  C   UNL A   1      30.302  26.061  24.680  1.00  0.00     0.042 C 
ATOM     25  O   UNL A   1      31.591  27.535  23.214  1.00  0.00    -0.368 OA
ATOM     26  C   UNL A   1      29.034  26.455  23.943  1.00  0.00     0.006 C 
ATOM     27  C   UNL A   1      30.445  27.821  22.429  1.00  0.00     0.161 C 
ATOM     28  C   UNL A   1      29.204  27.820  23.305  1.00  0.00     0.029 C 
ENDBRANCH  13  23
ENDBRANCH   4   7
ENDBRANCH   2   3
ENDBRANCH   1   2
BRANCH   1  29
ATOM     29  C   UNL A   1      40.738  20.702  26.531  1.00  0.00     0.118 C 
BRANCH  29  30
ATOM     30  N   UNL A   1      41.629  22.023  26.343  1.00  0.00    -0.352 N 
ATOM     31  C   UNL A   1      41.727  23.453  26.675  1.00  0.00     0.251 C 
ATOM     32  H   UNL A   1      42.410  21.785  25.794  1.00  0.00     0.163 HD
ATOM     33  O   UNL A   1      42.870  23.759  27.075  1.00  0.00    -0.269 OA
BRANCH  31  34
ATOM     34  C   UNL A   1      40.733  24.700  26.705  1.00  0.00     0.039 A 
ATOM     35  C   UNL A   1      40.994  25.915  25.999  1.00  0.00     0.014 A 
ATOM     36  C   UNL A   1      39.562  24.778  27.424  1.00  0.00     0.014 A 
ATOM     37  C   UNL A   1      40.650  27.180  26.597  1.00  0.00     0.010 A 
ATOM     38  C   UNL A   1      39.181  26.023  27.993  1.00  0.00     0.010 A 
ATOM     39  C   UNL A   1      39.916  27.197  27.780  1.00  0.00    -0.014 A 
BRANCH  39  40
ATOM     40  C   UNL A   1      39.955  28.291  28.830  1.00  0.00     0.031 A 
ATOM     41  C   UNL A   1      39.011  29.400  28.764  1.00  0.00     0.074 A 
ATOM     42  C   UNL A   1      40.683  28.339  29.989  1.00  0.00     0.049 A 
ATOM     43  N   UNL A   1      39.328  30.647  28.872  1.00  0.00    -0.248 NA
ATOM     44  C   UNL A   1      37.588  29.150  28.638  1.00  0.00     0.031 C 
ATOM     45  C   UNL A   1      40.707  29.266  31.140  1.00  0.00     0.029 A 
ATOM     46  N   UNL A   1      41.624  27.436  30.437  1.00  0.00    -0.354 N 
ATOM     47  C   UNL A   1      38.153  31.308  29.162  1.00  0.00     0.074 A 
ATOM     48  C   UNL A   1      37.101  30.378  28.813  1.00  0.00     0.031 C 
ATOM     49  C   UNL A   1      41.857  29.096  31.839  1.00  0.00     0.029 A 
ATOM     50  C   UNL A   1      42.623  28.072  31.164  1.00  0.00     0.049 A 
ATOM     51  H   UNL A   1      41.592  26.468  30.263  1.00  0.00     0.167 HD
ATOM     52  C   UNL A   1      38.156  32.457  29.902  1.00  0.00     0.037 A 
ATOM     53  C   UNL A   1      43.882  28.111  30.628  1.00  0.00     0.037 A 
ATOM     54  C   UNL A   1      39.486  32.707  30.477  1.00  0.00     0.049 A 
ATOM     55  C   UNL A   1      44.200  29.507  30.191  1.00  0.00     0.074 A 
ATOM     56  C   UNL A   1      39.982  32.561  31.766  1.00  0.00     0.029 A 
ATOM     57  N   UNL A   1      40.601  32.843  29.655  1.00  0.00    -0.354 N 
ATOM     58  N   UNL A   1      43.292  30.434  30.139  1.00  0.00    -0.248 NA
ATOM     59  C   UNL A   1      45.516  30.001  29.810  1.00  0.00     0.031 C 
ATOM     60  C   UNL A   1      41.399  32.519  31.697  1.00  0.00     0.029 A 
ATOM     61  C   UNL A   1      41.772  32.668  30.373  1.00  0.00     0.049 A 
ATOM     62  H   UNL A   1      40.562  33.038  28.690  1.00  0.00     0.167 HD
ATOM     63  C   UNL A   1      43.843  31.622  29.788  1.00  0.00     0.074 A 
ATOM     64  C   UNL A   1      45.246  31.303  29.587  1.00  0.00     0.031 C 
ATOM     65  C   UNL A   1      43.075  32.747  29.718  1.00  0.00     0.037 A 
BRANCH  52  66
ATOM     66  C   UNL A   1      36.885  33.146  30.381  1.00  0.00     0.058 A 
ATOM     67  C   UNL A   1      36.014  33.804  29.486  1.00  0.00     0.135 A 
ATOM     68  C   UNL A   1      36.446  33.158  31.724  1.00  0.00     0.135 A 
ATOM     69  F   UNL A   1      36.213  33.775  28.161  1.00  0.00    -0.206 F 
ATOM     70  C   UNL A   1      34.869  34.494  29.899  1.00  0.00     0.059 A 
ATOM     71  C   UNL A   1      35.350  33.901  32.173  1.00  0.00     0.059 A 
ATOM     72  F   UNL A   1      37.011  32.372  32.651  1.00  0.00    -0.206 F 
ATOM     73  C   UNL A   1      34.557  34.560  31.249  1.00  0.00     0.060 A 
BRANCH  73  74
ATOM     74  S   UNL A   1      33.058  35.416  31.764  1.00  0.00     0.124 S 
ATOM     75  O   UNL A   1      32.529  34.528  32.792  1.00  0.00    -0.237 OA
ATOM     76  O   UNL A   1      33.586  36.692  32.237  1.00  0.00    -0.237 OA
ATOM     77  O   UNL A   1      32.266  35.489  30.539  1.00  0.00    -0.744 OA
ENDBRANCH  73  74
ENDBRANCH  52  66
BRANCH  53  78
ATOM     78  C   UNL A   1      44.326  26.816  29.947  1.00  0.00     0.058 A 
ATOM     79  C   UNL A   1      44.938  27.063  28.707  1.00  0.00     0.135 A 
ATOM     80  C   UNL A   1      45.070  25.947  30.724  1.00  0.00     0.135 A 
ATOM     81  F   UNL A   1      44.196  27.397  27.646  1.00  0.00    -0.206 F 
ATOM     82  C   UNL A   1      46.323  27.193  28.613  1.00  0.00     0.059 A 
ATOM     83  C   UNL A   1      46.458  25.899  30.537  1.00  0.00     0.059 A 
ATOM     84  F   UNL A   1      44.507  25.255  31.728  1.00  0.00    -0.206 F 
ATOM     85  C   UNL A   1      47.095  26.796  29.694  1.00  0.00     0.060 A 
BRANCH  85  86
ATOM     86  S   UNL A   1      48.806  27.800  29.950  1.00  0.00     0.124 S 
ATOM     87  O   UNL A   1      49.007  28.248  28.583  1.00  0.00    -0.237 OA
ATOM     88  O   UNL A   1      48.524  28.940  30.816  1.00  0.00    -0.237 OA
ATOM     89  O   UNL A   1      49.819  26.900  30.436  1.00  0.00    -0.744 OA
ENDBRANCH  85  86
ENDBRANCH  53  78
BRANCH  65  90
ATOM     90  C   UNL A   1      43.510  34.064  29.144  1.00  0.00     0.058 A 
ATOM     91  C   UNL A   1      43.872  34.252  27.802  1.00  0.00     0.135 A 
ATOM     92  C   UNL A   1      43.446  35.235  29.938  1.00  0.00     0.135 A 
ATOM     93  F   UNL A   1      43.843  33.247  26.916  1.00  0.00    -0.206 F 
ATOM     94  C   UNL A   1      44.236  35.500  27.305  1.00  0.00     0.059 A 
ATOM     95  C   UNL A   1      43.734  36.498  29.442  1.00  0.00     0.059 A 
ATOM     96  F   UNL A   1      43.091  35.198  31.231  1.00  0.00    -0.206 F 
ATOM     97  C   UNL A   1      44.167  36.615  28.133  1.00  0.00     0.060 A 
BRANCH  97  98
ATOM     98  S   UNL A   1      44.616  38.228  27.483  1.00  0.00     0.124 S 
ATOM     99  O   UNL A   1      44.972  38.941  28.705  1.00  0.00    -0.237 OA
ATOM    100  O   UNL A   1      45.727  37.913  26.590  1.00  0.00    -0.237 OA
ATOM    101  O   UNL A   1      43.397  38.678  26.820  1.00  0.00    -0.744 OA
ENDBRANCH  97  98
ENDBRANCH  65  90
ENDBRANCH  39  40
ENDBRANCH  31  34
ENDBRANCH  29  30
ENDBRANCH   1  29
TORSDOF 16
ENDMDL
MODEL 2
REMARK VINA RESULT:     -13.2      4.205      9.520
REMARK SMILES Cc1ccccc1OC1(C(=O)NCCCNC(=O)c2ccc(-c3c4nc(c(-c5c(F)cc(S(=O)(=O)[O-])cc5F)c5ccc([nH]5)c(-c5c(F)cc(S(=O)(=O)[O-])cc5F)c5nc(c(-c6c(F)cc(S(=O)(=O)[O-])cc6F)c6ccc3[nH]6)C=C5)C=C4)cc2)CCN(C(=O)[C@H]2CCCCO2)CC1
REMARK SMILES IDX 14 1 13 2 12 3 10 4 11 5 9 7 85 8 97 9 86 10 96 11 87 12
REMARK SMILES IDX 88 13 89 14 8 15 7 16 1 17 2 18 3 19 4 20 6 21 5 22 90 23
REMARK SMILES IDX 91 24 95 25 92 26 94 27 93 28 15 29 16 30 17 31 18 33 19 34
REMARK SMILES IDX 20 35 84 36 21 37 83 38 22 39 23 40 24 41 77 42 25 43 82 44
REMARK SMILES IDX 76 45 78 46 26 47 81 48 75 49 74 50 27 52 61 53 40 54 60 55
REMARK SMILES IDX 41 56 44 57 59 58 79 59 42 60 43 61 58 63 80 64 45 65 28 66
REMARK SMILES IDX 29 67 38 68 30 69 31 70 37 71 39 72 32 73 33 74 34 75 35 76
REMARK SMILES IDX 36 77 62 78 63 79 72 80 64 81 65 82 71 83 73 84 66 85 67 86
REMARK SMILES IDX 68 87 69 88 70 89 46 90 47 91 56 92 48 93 49 94 55 95 57 96
REMARK SMILES IDX 50 97 51 98 52 99 53 100 54 101
REMARK H PARENT 12 6 16 32 78 51 44 62
REMARK Flexibility Score: inf
ROOT
ATOM      1  C   UNL A   1      39.314  22.430  26.524  1.00  0.00     0.042 C 
ENDROOT
BRANCH   1   2
ATOM      2  C   UNL A   1      38.245  21.555  25.644  1.00  0.00     0.118 C 
BRANCH   2   3
ATOM      3  N   UNL A   1      37.698  21.921  24.299  1.00  0.00    -0.353 N 
ATOM      4  C   UNL A   1      36.587  22.631  23.827  1.00  0.00     0.264 C 
ATOM      5  O   UNL A   1      36.657  23.193  22.725  1.00  0.00    -0.270 OA
ATOM      6  H   UNL A   1      38.258  21.577  23.565  1.00  0.00     0.163 HD
BRANCH   4   7
ATOM      7  C   UNL A   1      35.206  22.637  24.629  1.00  0.00     0.190 C 
ATOM      8  C   UNL A   1      35.466  23.733  25.656  1.00  0.00     0.080 C 
ATOM      9  C   UNL A   1      34.115  22.746  23.575  1.00  0.00     0.080 C 
ATOM     10  C   UNL A   1      34.826  25.070  25.350  1.00  0.00     0.124 C 
ATOM     11  C   UNL A   1      33.381  24.063  23.483  1.00  0.00     0.124 C 
ATOM     12  N   UNL A   1      33.603  25.063  24.528  1.00  0.00    -0.340 N 
ATOM     13  C   UNL A   1      32.765  26.172  24.695  1.00  0.00     0.251 C 
ATOM     14  O   UNL A   1      32.987  27.015  25.568  1.00  0.00    -0.272 OA
BRANCH   7  15
ATOM     15  O   UNL A   1      34.982  21.384  25.373  1.00  0.00    -0.477 OA
BRANCH  15  16
ATOM     16  C   UNL A   1      34.283  20.248  24.994  1.00  0.00     0.123 A 
ATOM     17  C   UNL A   1      31.745  20.840  25.143  1.00  0.00     0.048 C 
ATOM     18  C   UNL A   1      32.908  19.968  24.846  1.00  0.00    -0.009 A 
ATOM     19  C   UNL A   1      32.466  18.694  24.390  1.00  0.00     0.007 A 
ATOM     20  C   UNL A   1      33.347  17.665  24.132  1.00  0.00     0.001 A 
ATOM     21  C   UNL A   1      35.151  19.166  24.737  1.00  0.00     0.047 A 
ATOM     22  C   UNL A   1      34.698  17.898  24.319  1.00  0.00     0.004 A 
ENDBRANCH  15  16
ENDBRANCH   7  15
BRANCH  13  23
ATOM     23  C   UNL A   1      31.524  26.285  23.784  1.00  0.00     0.207 C 
ATOM     24  C   UNL A   1      30.258  26.076  24.628  1.00  0.00     0.042 C 
ATOM     25  O   UNL A   1      31.537  27.589  23.192  1.00  0.00    -0.368 OA
ATOM     26  C   UNL A   1      28.990  26.463  23.887  1.00  0.00     0.006 C 
ATOM     27  C   UNL A   1      30.393  27.871  22.403  1.00  0.00     0.161 C 
ATOM     28  C   UNL A   1      29.146  27.839  23.270  1.00  0.00     0.029 C 
ENDBRANCH  13  23
ENDBRANCH   4   7
ENDBRANCH   2   3
ENDBRANCH   1   2
BRANCH   1  29
ATOM     29  C   UNL A   1      38.901  23.956  26.823  1.00  0.00     0.118 C 
BRANCH  29  30
ATOM     30  N   UNL A   1      39.810  25.256  27.061  1.00  0.00    -0.352 N 
ATOM     31  C   UNL A   1      40.144  26.320  28.022  1.00  0.00     0.251 C 
ATOM     32  H   UNL A   1      40.354  25.397  26.253  1.00  0.00     0.163 HD
ATOM     33  O   UNL A   1      41.378  26.472  28.135  1.00  0.00    -0.269 OA
BRANCH  31  34
ATOM     34  C   UNL A   1      39.332  27.291  28.993  1.00  0.00     0.039 A 
ATOM     35  C   UNL A   1      38.800  28.546  28.564  1.00  0.00     0.014 A 
ATOM     36  C   UNL A   1      39.090  27.073  30.330  1.00  0.00     0.014 A 
ATOM     37  C   UNL A   1      38.833  29.680  29.452  1.00  0.00     0.010 A 
ATOM     38  C   UNL A   1      39.080  28.178  31.221  1.00  0.00     0.010 A 
ATOM     39  C   UNL A   1      39.230  29.498  30.775  1.00  0.00    -0.014 A 
BRANCH  39  40
ATOM     40  C   UNL A   1      39.874  30.550  31.658  1.00  0.00     0.031 A 
ATOM     41  C   UNL A   1      40.916  30.170  32.604  1.00  0.00     0.074 A 
ATOM     42  C   UNL A   1      39.734  31.911  31.608  1.00  0.00     0.049 A 
ATOM     43  N   UNL A   1      40.951  30.524  33.846  1.00  0.00    -0.248 NA
ATOM     44  C   UNL A   1      42.061  29.395  32.168  1.00  0.00     0.031 C 
ATOM     45  C   UNL A   1      40.399  33.031  32.308  1.00  0.00     0.029 A 
ATOM     46  N   UNL A   1      38.901  32.648  30.793  1.00  0.00    -0.354 N 
ATOM     47  C   UNL A   1      42.250  30.315  34.258  1.00  0.00     0.074 A 
ATOM     48  C   UNL A   1      42.829  29.446  33.256  1.00  0.00     0.031 C 
ATOM     49  C   UNL A   1      39.645  34.152  32.192  1.00  0.00     0.029 A 
ATOM     50  C   UNL A   1      38.465  33.803  31.433  1.00  0.00     0.049 A 
ATOM     51  H   UNL A   1      38.647  32.390  29.878  1.00  0.00     0.167 HD
ATOM     52  C   UNL A   1      42.807  31.081  35.243  1.00  0.00     0.037 A 
ATOM     53  C   UNL A   1      37.139  33.896  31.758  1.00  0.00     0.037 A 
ATOM     54  C   UNL A   1      41.933  32.213  35.586  1.00  0.00     0.049 A 
ATOM     55  C   UNL A   1      36.974  33.779  33.241  1.00  0.00     0.074 A 
ATOM     56  C   UNL A   1      42.010  33.567  35.290  1.00  0.00     0.029 A 
ATOM     57  N   UNL A   1      40.633  31.995  36.034  1.00  0.00    -0.354 N 
ATOM     58  N   UNL A   1      37.951  33.412  34.014  1.00  0.00    -0.248 NA
ATOM     59  C   UNL A   1      35.761  34.078  33.989  1.00  0.00     0.031 C 
ATOM     60  C   UNL A   1      40.724  34.139  35.476  1.00  0.00     0.029 A 
ATOM     61  C   UNL A   1      39.868  33.143  35.913  1.00  0.00     0.049 A 
ATOM     62  H   UNL A   1      40.302  31.139  36.390  1.00  0.00     0.167 HD
ATOM     63  C   UNL A   1      37.573  33.457  35.315  1.00  0.00     0.074 A 
ATOM     64  C   UNL A   1      36.184  33.880  35.253  1.00  0.00     0.031 C 
ATOM     65  C   UNL A   1      38.461  33.155  36.305  1.00  0.00     0.037 A 
BRANCH  52  66
ATOM     66  C   UNL A   1      44.277  30.999  35.636  1.00  0.00     0.058 A 
ATOM     67  C   UNL A   1      44.749  30.035  36.552  1.00  0.00     0.135 A 
ATOM     68  C   UNL A   1      45.288  31.830  35.102  1.00  0.00     0.135 A 
ATOM     69  F   UNL A   1      43.945  29.086  37.051  1.00  0.00    -0.206 F 
ATOM     70  C   UNL A   1      46.080  29.969  36.976  1.00  0.00     0.059 A 
ATOM     71  C   UNL A   1      46.608  31.834  35.563  1.00  0.00     0.059 A 
ATOM     72  F   UNL A   1      45.059  32.617  34.042  1.00  0.00    -0.206 F 
ATOM     73  C   UNL A   1      47.000  30.889  36.496  1.00  0.00     0.060 A 
BRANCH  73  74
ATOM     74  S   UNL A   1      48.720  30.767  37.018  1.00  0.00     0.124 S 
ATOM     75  O   UNL A   1      48.618  29.996  38.252  1.00  0.00    -0.237 OA
ATOM     76  O   UNL A   1      49.331  30.076  35.886  1.00  0.00    -0.237 OA
ATOM     77  O   UNL A   1      49.128  32.159  37.188  1.00  0.00    -0.744 OA
ENDBRANCH  73  74
ENDBRANCH  52  66
BRANCH  53  78
ATOM     78  C   UNL A   1      36.181  33.370  30.688  1.00  0.00     0.058 A 
ATOM     79  C   UNL A   1      34.955  32.964  31.240  1.00  0.00     0.135 A 
ATOM     80  C   UNL A   1      36.005  34.181  29.581  1.00  0.00     0.135 A 
ATOM     81  F   UNL A   1      34.871  31.814  31.917  1.00  0.00    -0.206 F 
ATOM     82  C   UNL A   1      33.876  33.845  31.295  1.00  0.00     0.059 A 
ATOM     83  C   UNL A   1      34.838  34.951  29.493  1.00  0.00     0.059 A 
ATOM     84  F   UNL A   1      36.978  34.336  28.669  1.00  0.00    -0.206 F 
ATOM     85  C   UNL A   1      33.942  35.011  30.549  1.00  0.00     0.060 A 
BRANCH  85  86
ATOM     86  S   UNL A   1      32.969  36.583  31.315  1.00  0.00     0.124 S 
ATOM     87  O   UNL A   1      33.875  36.894  32.407  1.00  0.00    -0.237 OA
ATOM     88  O   UNL A   1      32.999  37.649  30.319  1.00  0.00    -0.237 OA
ATOM     89  O   UNL A   1      31.654  36.174  31.732  1.00  0.00    -0.744 OA
ENDBRANCH  85  86
ENDBRANCH  53  78
BRANCH  65  90
ATOM     90  C   UNL A   1      38.118  32.963  37.753  1.00  0.00     0.058 A 
ATOM     91  C   UNL A   1      37.590  31.776  38.282  1.00  0.00     0.135 A 
ATOM     92  C   UNL A   1      38.447  33.967  38.696  1.00  0.00     0.135 A 
ATOM     93  F   UNL A   1      37.360  30.702  37.514  1.00  0.00    -0.206 F 
ATOM     94  C   UNL A   1      37.319  31.630  39.639  1.00  0.00     0.059 A 
ATOM     95  C   UNL A   1      38.254  33.813  40.060  1.00  0.00     0.059 A 
ATOM     96  F   UNL A   1      38.981  35.141  38.325  1.00  0.00    -0.206 F 
ATOM     97  C   UNL A   1      37.651  32.655  40.519  1.00  0.00     0.060 A 
BRANCH  97  98
ATOM     98  S   UNL A   1      37.322  32.455  42.273  1.00  0.00     0.124 S 
ATOM     99  O   UNL A   1      36.537  31.225  42.280  1.00  0.00    -0.237 OA
ATOM    100  O   UNL A   1      38.664  32.350  42.839  1.00  0.00    -0.237 OA
ATOM    101  O   UNL A   1      36.595  33.671  42.623  1.00  0.00    -0.744 OA
ENDBRANCH  97  98
ENDBRANCH  65  90
ENDBRANCH  39  40
ENDBRANCH  31  34
ENDBRANCH  29  30
ENDBRANCH   1  29
TORSDOF 16
ENDMDL
MODEL 3
REMARK VINA RESULT:     -13.0      4.099      9.466
REMARK SMILES Cc1ccccc1OC1(C(=O)NCCCNC(=O)c2ccc(-c3c4nc(c(-c5c(F)cc(S(=O)(=O)[O-])cc5F)c5ccc([nH]5)c(-c5c(F)cc(S(=O)(=O)[O-])cc5F)c5nc(c(-c6c(F)cc(S(=O)(=O)[O-])cc6F)c6ccc3[nH]6)C=C5)C=C4)cc2)CCN(C(=O)[C@H]2CCCCO2)CC1
REMARK SMILES IDX 14 1 13 2 12 3 10 4 11 5 9 7 85 8 97 9 86 10 96 11 87 12
REMARK SMILES IDX 88 13 89 14 8 15 7 16 1 17 2 18 3 19 4 20 6 21 5 22 90 23
REMARK SMILES IDX 91 24 95 25 92 26 94 27 93 28 15 29 16 30 17 31 18 33 19 34
REMARK SMILES IDX 20 35 84 36 21 37 83 38 22 39 23 40 24 41 77 42 25 43 82 44
REMARK SMILES IDX 76 45 78 46 26 47 81 48 75 49 74 50 27 52 61 53 40 54 60 55
REMARK SMILES IDX 41 56 44 57 59 58 79 59 42 60 43 61 58 63 80 64 45 65 28 66
REMARK SMILES IDX 29 67 38 68 30 69 31 70 37 71 39 72 32 73 33 74 34 75 35 76
REMARK SMILES IDX 36 77 62 78 63 79 72 80 64 81 65 82 71 83 73 84 66 85 67 86
REMARK SMILES IDX 68 87 69 88 70 89 46 90 47 91 56 92 48 93 49 94 55 95 57 96
REMARK SMILES IDX 50 97 51 98 52 99 53 100 54 101
REMARK H PARENT 12 6 16 32 78 51 44 62
REMARK Flexibility Score: inf
ROOT
ATOM      1  C   UNL A   1      38.852  22.285  26.104  1.00  0.00     0.042 C 
ENDROOT
BRANCH   1   2
ATOM      2  C   UNL A   1      37.277  22.532  25.731  1.00  0.00     0.118 C 
BRANCH   2   3
ATOM      3  N   UNL A   1      36.192  22.925  26.687  1.00  0.00    -0.353 N 
ATOM      4  C   UNL A   1      34.794  22.858  26.699  1.00  0.00     0.264 C 
ATOM      5  O   UNL A   1      34.205  22.787  27.786  1.00  0.00    -0.270 OA
ATOM      6  H   UNL A   1      36.552  23.330  27.509  1.00  0.00     0.163 HD
BRANCH   4   7
ATOM      7  C   UNL A   1      33.946  22.982  25.350  1.00  0.00     0.190 C 
ATOM      8  C   UNL A   1      32.542  22.675  25.856  1.00  0.00     0.080 C 
ATOM      9  C   UNL A   1      34.323  24.326  24.746  1.00  0.00     0.080 C 
ATOM     10  C   UNL A   1      31.647  23.879  26.049  1.00  0.00     0.124 C 
ATOM     11  C   UNL A   1      33.279  25.416  24.799  1.00  0.00     0.124 C 
ATOM     12  N   UNL A   1      31.922  25.068  25.221  1.00  0.00    -0.340 N 
ATOM     13  C   UNL A   1      30.831  25.922  25.021  1.00  0.00     0.251 C 
ATOM     14  O   UNL A   1      29.701  25.615  25.409  1.00  0.00    -0.272 OA
BRANCH   7  15
ATOM     15  O   UNL A   1      34.297  21.939  24.369  1.00  0.00    -0.477 OA
BRANCH  15  16
ATOM     16  C   UNL A   1      33.653  20.744  24.085  1.00  0.00     0.123 A 
ATOM     17  C   UNL A   1      31.810  21.280  22.316  1.00  0.00     0.048 C 
ATOM     18  C   UNL A   1      32.612  20.397  23.199  1.00  0.00    -0.009 A 
ATOM     19  C   UNL A   1      32.168  19.050  23.083  1.00  0.00     0.007 A 
ATOM     20  C   UNL A   1      32.687  18.040  23.867  1.00  0.00     0.001 A 
ATOM     21  C   UNL A   1      34.146  19.688  24.881  1.00  0.00     0.047 A 
ATOM     22  C   UNL A   1      33.673  18.364  24.781  1.00  0.00     0.004 A 
ENDBRANCH  15  16
ENDBRANCH   7  15
BRANCH  13  23
ATOM     23  C   UNL A   1      31.076  27.241  24.259  1.00  0.00     0.207 C 
ATOM     24  C   UNL A   1      29.910  27.487  23.290  1.00  0.00     0.042 C 
ATOM     25  O   UNL A   1      31.168  28.292  25.228  1.00  0.00    -0.368 OA
ATOM     26  C   UNL A   1      29.909  28.895  22.720  1.00  0.00     0.006 C 
ATOM     27  C   UNL A   1      31.292  29.585  24.659  1.00  0.00     0.161 C 
ATOM     28  C   UNL A   1      30.058  29.910  23.837  1.00  0.00     0.029 C 
ENDBRANCH  13  23
ENDBRANCH   4   7
ENDBRANCH   2   3
ENDBRANCH   1   2
BRANCH   1  29
ATOM     29  C   UNL A   1      39.540  23.400  27.038  1.00  0.00     0.118 C 
BRANCH  29  30
ATOM     30  N   UNL A   1      39.831  24.954  26.768  1.00  0.00    -0.352 N 
ATOM     31  C   UNL A   1      40.011  26.265  27.413  1.00  0.00     0.251 C 
ATOM     32  H   UNL A   1      39.925  25.079  25.796  1.00  0.00     0.163 HD
ATOM     33  O   UNL A   1      41.011  26.866  26.969  1.00  0.00    -0.269 OA
BRANCH  31  34
ATOM     34  C   UNL A   1      39.285  27.089  28.570  1.00  0.00     0.039 A 
ATOM     35  C   UNL A   1      38.604  28.322  28.331  1.00  0.00     0.014 A 
ATOM     36  C   UNL A   1      39.263  26.752  29.905  1.00  0.00     0.014 A 
ATOM     37  C   UNL A   1      38.686  29.386  29.299  1.00  0.00     0.010 A 
ATOM     38  C   UNL A   1      39.306  27.784  30.879  1.00  0.00     0.010 A 
ATOM     39  C   UNL A   1      39.290  29.141  30.530  1.00  0.00    -0.014 A 
BRANCH  39  40
ATOM     40  C   UNL A   1      39.980  30.177  31.398  1.00  0.00     0.031 A 
ATOM     41  C   UNL A   1      41.000  29.764  32.354  1.00  0.00     0.074 A 
ATOM     42  C   UNL A   1      39.904  31.542  31.325  1.00  0.00     0.049 A 
ATOM     43  N   UNL A   1      41.048  30.137  33.590  1.00  0.00    -0.248 NA
ATOM     44  C   UNL A   1      42.109  28.929  31.935  1.00  0.00     0.031 C 
ATOM     45  C   UNL A   1      40.618  32.640  32.010  1.00  0.00     0.029 A 
ATOM     46  N   UNL A   1      39.108  32.303  30.496  1.00  0.00    -0.354 N 
ATOM     47  C   UNL A   1      42.335  29.874  34.011  1.00  0.00     0.074 A 
ATOM     48  C   UNL A   1      42.875  28.962  33.025  1.00  0.00     0.031 C 
ATOM     49  C   UNL A   1      39.918  33.794  31.873  1.00  0.00     0.029 A 
ATOM     50  C   UNL A   1      38.725  33.487  31.115  1.00  0.00     0.049 A 
ATOM     51  H   UNL A   1      38.845  32.042  29.584  1.00  0.00     0.167 HD
ATOM     52  C   UNL A   1      42.924  30.629  34.985  1.00  0.00     0.037 A 
ATOM     53  C   UNL A   1      37.404  33.647  31.434  1.00  0.00     0.037 A 
ATOM     54  C   UNL A   1      42.103  31.806  35.306  1.00  0.00     0.049 A 
ATOM     55  C   UNL A   1      37.229  33.563  32.918  1.00  0.00     0.074 A 
ATOM     56  C   UNL A   1      42.245  33.150  34.988  1.00  0.00     0.029 A 
ATOM     57  N   UNL A   1      40.793  31.657  35.753  1.00  0.00    -0.354 N 
ATOM     58  N   UNL A   1      38.186  33.163  33.701  1.00  0.00    -0.248 NA
ATOM     59  C   UNL A   1      36.030  33.931  33.657  1.00  0.00     0.031 C 
ATOM     60  C   UNL A   1      40.986  33.784  35.160  1.00  0.00     0.029 A 
ATOM     61  C   UNL A   1      40.083  32.837  35.611  1.00  0.00     0.049 A 
ATOM     62  H   UNL A   1      40.421  30.823  36.121  1.00  0.00     0.167 HD
ATOM     63  C   UNL A   1      37.807  33.248  35.000  1.00  0.00     0.074 A 
ATOM     64  C   UNL A   1      36.439  33.734  34.926  1.00  0.00     0.031 C 
ATOM     65  C   UNL A   1      38.677  32.921  35.997  1.00  0.00     0.037 A 
BRANCH  52  66
ATOM     66  C   UNL A   1      44.387  30.485  35.384  1.00  0.00     0.058 A 
ATOM     67  C   UNL A   1      45.416  31.161  34.694  1.00  0.00     0.135 A 
ATOM     68  C   UNL A   1      44.839  29.715  36.480  1.00  0.00     0.135 A 
ATOM     69  F   UNL A   1      45.150  32.034  33.713  1.00  0.00    -0.206 F 
ATOM     70  C   UNL A   1      46.773  31.007  34.999  1.00  0.00     0.059 A 
ATOM     71  C   UNL A   1      46.190  29.485  36.759  1.00  0.00     0.059 A 
ATOM     72  F   UNL A   1      43.985  29.222  37.387  1.00  0.00    -0.206 F 
ATOM     73  C   UNL A   1      47.154  30.146  36.017  1.00  0.00     0.060 A 
BRANCH  73  74
ATOM     74  S   UNL A   1      48.901  29.989  36.427  1.00  0.00     0.124 S 
ATOM     75  O   UNL A   1      48.857  29.438  37.777  1.00  0.00    -0.237 OA
ATOM     76  O   UNL A   1      49.376  29.082  35.387  1.00  0.00    -0.237 OA
ATOM     77  O   UNL A   1      49.401  31.358  36.332  1.00  0.00    -0.744 OA
ENDBRANCH  73  74
ENDBRANCH  52  66
BRANCH  53  78
ATOM     78  C   UNL A   1      36.425  33.149  30.370  1.00  0.00     0.058 A 
ATOM     79  C   UNL A   1      35.294  32.545  30.943  1.00  0.00     0.135 A 
ATOM     80  C   UNL A   1      36.081  34.062  29.388  1.00  0.00     0.135 A 
ATOM     81  F   UNL A   1      35.382  31.320  31.472  1.00  0.00    -0.206 F 
ATOM     82  C   UNL A   1      34.137  33.287  31.178  1.00  0.00     0.059 A 
ATOM     83  C   UNL A   1      34.837  34.702  29.474  1.00  0.00     0.059 A 
ATOM     84  F   UNL A   1      36.960  34.433  28.443  1.00  0.00    -0.206 F 
ATOM     85  C   UNL A   1      34.025  34.534  30.585  1.00  0.00     0.060 A 
BRANCH  85  86
ATOM     86  S   UNL A   1      32.957  35.884  31.605  1.00  0.00     0.124 S 
ATOM     87  O   UNL A   1      34.040  36.512  32.342  1.00  0.00    -0.237 OA
ATOM     88  O   UNL A   1      32.396  36.823  30.640  1.00  0.00    -0.237 OA
ATOM     89  O   UNL A   1      31.992  35.206  32.429  1.00  0.00    -0.744 OA
ENDBRANCH  85  86
ENDBRANCH  53  78
BRANCH  65  90
ATOM     90  C   UNL A   1      38.322  32.768  37.447  1.00  0.00     0.058 A 
ATOM     91  C   UNL A   1      38.462  33.789  38.399  1.00  0.00     0.135 A 
ATOM     92  C   UNL A   1      37.688  31.585  37.898  1.00  0.00     0.135 A 
ATOM     93  F   UNL A   1      38.925  35.003  38.069  1.00  0.00    -0.206 F 
ATOM     94  C   UNL A   1      38.088  33.614  39.728  1.00  0.00     0.059 A 
ATOM     95  C   UNL A   1      37.240  31.419  39.200  1.00  0.00     0.059 A 
ATOM     96  F   UNL A   1      37.471  30.541  37.084  1.00  0.00    -0.206 F 
ATOM     97  C   UNL A   1      37.481  32.425  40.119  1.00  0.00     0.060 A 
BRANCH  97  98
ATOM     98  S   UNL A   1      36.978  32.210  41.830  1.00  0.00     0.124 S 
ATOM     99  O   UNL A   1      37.921  31.193  42.281  1.00  0.00    -0.237 OA
ATOM    100  O   UNL A   1      37.174  33.545  42.389  1.00  0.00    -0.237 OA
ATOM    101  O   UNL A   1      35.587  31.781  41.723  1.00  0.00    -0.744 OA
ENDBRANCH  97  98
ENDBRANCH  65  90
ENDBRANCH  39  40
ENDBRANCH  31  34
ENDBRANCH  29  30
ENDBRANCH   1  29
TORSDOF 16
ENDMDL
