MODEL 1
REMARK VINA RESULT:     -11.7      0.000      0.000
REMARK SMILES Cc1nc(C[C@H](C(=O)NCCCNC(=O)c2ccc(-c3c4nc(c(-c5c(F)cc(S(=O)(=O)[O-])cc5F)c5ccc([nH]5)c(-c5c(F)cc(S(=O)(=O)[O-])cc5F)c5nc(c(-c6c(F)cc(S(=O)(=O)[O-])cc6F)c6ccc3[nH]6)C=C5)C=C4)cc2)c2ccccc2Br)cs1
REMARK SMILES IDX 11 1 10 2 9 3 7 4 8 5 6 7 5 8 4 9 1 10 2 11 3 12 90 13 89 14
REMARK SMILES IDX 82 15 83 16 87 17 84 18 86 19 88 20 85 21 12 22 13 23 14 24
REMARK SMILES IDX 15 26 16 27 17 28 81 29 18 30 80 31 19 32 20 33 21 34 74 35
REMARK SMILES IDX 22 36 79 37 73 38 75 39 23 40 78 41 72 42 71 43 24 45 58 46
REMARK SMILES IDX 37 47 57 48 38 49 41 50 56 51 76 52 39 53 40 54 55 56 77 57
REMARK SMILES IDX 42 58 25 59 26 60 35 61 27 62 28 63 34 64 36 65 29 66 30 67
REMARK SMILES IDX 31 68 32 69 33 70 59 71 60 72 69 73 61 74 62 75 68 76 70 77
REMARK SMILES IDX 63 78 64 79 65 80 66 81 67 82 43 83 44 84 53 85 45 86 46 87
REMARK SMILES IDX 52 88 54 89 47 90 48 91 49 92 50 93 51 94
REMARK H PARENT 9 6 13 25 75 44 41 55
REMARK Flexibility Score: inf
ROOT
ATOM      1  C   UNL A   1      38.257  23.855  26.310  1.00  0.00     0.042 C 
ENDROOT
BRANCH   1   2
ATOM      2  C   UNL A   1      37.554  22.619  25.755  1.00  0.00     0.117 C 
BRANCH   2   3
ATOM      3  N   UNL A   1      37.375  22.703  24.321  1.00  0.00    -0.355 N 
ATOM      4  C   UNL A   1      36.259  23.001  23.591  1.00  0.00     0.227 C 
ATOM      5  O   UNL A   1      36.390  22.995  22.364  1.00  0.00    -0.274 OA
ATOM      6  H   UNL A   1      38.182  22.516  23.789  1.00  0.00     0.163 HD
BRANCH   4   7
ATOM      7  C   UNL A   1      34.938  23.404  24.279  1.00  0.00     0.115 C 
BRANCH   7   8
ATOM      8  C   UNL A   1      34.321  24.579  23.488  1.00  0.00     0.075 C 
BRANCH   8   9
ATOM      9  C   UNL A   1      33.473  25.588  24.206  1.00  0.00     0.053 A 
ATOM     10  C   UNL A   1      32.977  29.203  24.506  1.00  0.00     0.079 C 
ATOM     11  C   UNL A   1      32.945  27.719  24.588  1.00  0.00     0.090 A 
ATOM     12  N   UNL A   1      33.773  26.923  23.950  1.00  0.00    -0.247 NA
ATOM     13  S   UNL A   1      31.778  26.933  25.565  1.00  0.00    -0.127 S 
ATOM     14  C   UNL A   1      32.420  25.417  25.084  1.00  0.00     0.090 A 
ENDBRANCH   8   9
ENDBRANCH   7   8
BRANCH   7  15
ATOM     15  C   UNL A   1      34.015  22.212  24.549  1.00  0.00    -0.021 A 
ATOM     16  C   UNL A   1      33.447  21.568  23.420  1.00  0.00     0.006 A 
ATOM     17  C   UNL A   1      33.652  21.722  25.815  1.00  0.00     0.021 A 
ATOM     18  C   UNL A   1      32.545  20.512  23.544  1.00  0.00     0.000 A 
ATOM     19  C   UNL A   1      32.760  20.643  25.934  1.00  0.00     0.016 A 
ATOM     20  Br  UNL A   1      34.258  22.463  27.452  1.00  0.00    -0.051 Br
ATOM     21  C   UNL A   1      32.201  20.048  24.805  1.00  0.00     0.001 A 
ENDBRANCH   7  15
ENDBRANCH   4   7
ENDBRANCH   2   3
ENDBRANCH   1   2
BRANCH   1  22
ATOM     22  C   UNL A   1      39.653  23.566  26.848  1.00  0.00     0.118 C 
BRANCH  22  23
ATOM     23  N   UNL A   1      40.681  24.183  26.024  1.00  0.00    -0.352 N 
ATOM     24  C   UNL A   1      41.232  25.437  26.091  1.00  0.00     0.251 C 
ATOM     25  H   UNL A   1      41.038  23.611  25.307  1.00  0.00     0.163 HD
ATOM     26  O   UNL A   1      41.920  25.829  25.151  1.00  0.00    -0.269 OA
BRANCH  24  27
ATOM     27  C   UNL A   1      41.006  26.319  27.261  1.00  0.00     0.039 A 
ATOM     28  C   UNL A   1      41.724  27.517  27.339  1.00  0.00     0.014 A 
ATOM     29  C   UNL A   1      40.155  25.956  28.309  1.00  0.00     0.014 A 
ATOM     30  C   UNL A   1      41.569  28.355  28.445  1.00  0.00     0.010 A 
ATOM     31  C   UNL A   1      39.940  26.830  29.374  1.00  0.00     0.010 A 
ATOM     32  C   UNL A   1      40.661  28.027  29.465  1.00  0.00    -0.014 A 
BRANCH  32  33
ATOM     33  C   UNL A   1      40.485  28.921  30.639  1.00  0.00     0.031 A 
ATOM     34  C   UNL A   1      41.359  28.761  31.856  1.00  0.00     0.074 A 
ATOM     35  C   UNL A   1      39.518  29.860  30.617  1.00  0.00     0.049 A 
ATOM     36  N   UNL A   1      41.357  29.449  32.970  1.00  0.00    -0.248 NA
ATOM     37  C   UNL A   1      42.348  27.671  31.829  1.00  0.00     0.031 C 
ATOM     38  C   UNL A   1      38.569  30.069  29.522  1.00  0.00     0.029 A 
ATOM     39  N   UNL A   1      39.174  30.814  31.540  1.00  0.00    -0.354 N 
ATOM     40  C   UNL A   1      42.329  28.868  33.778  1.00  0.00     0.074 A 
ATOM     41  C   UNL A   1      42.862  27.738  33.048  1.00  0.00     0.031 C 
ATOM     42  C   UNL A   1      37.773  31.109  29.821  1.00  0.00     0.029 A 
ATOM     43  C   UNL A   1      38.137  31.622  31.137  1.00  0.00     0.049 A 
ATOM     44  H   UNL A   1      39.627  30.912  32.409  1.00  0.00     0.167 HD
ATOM     45  C   UNL A   1      42.759  29.257  35.003  1.00  0.00     0.037 A 
ATOM     46  C   UNL A   1      37.552  32.665  31.757  1.00  0.00     0.037 A 
ATOM     47  C   UNL A   1      42.243  30.400  35.710  1.00  0.00     0.049 A 
ATOM     48  C   UNL A   1      38.072  33.103  33.098  1.00  0.00     0.074 A 
ATOM     49  C   UNL A   1      42.643  30.912  36.932  1.00  0.00     0.029 A 
ATOM     50  N   UNL A   1      41.215  31.214  35.255  1.00  0.00    -0.354 N 
ATOM     51  N   UNL A   1      39.035  32.578  33.820  1.00  0.00    -0.248 NA
ATOM     52  C   UNL A   1      37.441  34.283  33.700  1.00  0.00     0.031 C 
ATOM     53  C   UNL A   1      41.834  32.016  37.231  1.00  0.00     0.029 A 
ATOM     54  C   UNL A   1      40.962  32.219  36.175  1.00  0.00     0.049 A 
ATOM     55  H   UNL A   1      40.737  31.096  34.402  1.00  0.00     0.167 HD
ATOM     56  C   UNL A   1      39.141  33.381  34.950  1.00  0.00     0.074 A 
ATOM     57  C   UNL A   1      38.157  34.435  34.805  1.00  0.00     0.031 C 
ATOM     58  C   UNL A   1      39.976  33.258  36.012  1.00  0.00     0.037 A 
BRANCH  45  59
ATOM     59  C   UNL A   1      43.846  28.442  35.650  1.00  0.00     0.058 A 
ATOM     60  C   UNL A   1      45.206  28.707  35.414  1.00  0.00     0.135 A 
ATOM     61  C   UNL A   1      43.531  27.398  36.536  1.00  0.00     0.135 A 
ATOM     62  F   UNL A   1      45.566  29.682  34.564  1.00  0.00    -0.206 F 
ATOM     63  C   UNL A   1      46.210  27.949  36.006  1.00  0.00     0.059 A 
ATOM     64  C   UNL A   1      44.521  26.644  37.161  1.00  0.00     0.059 A 
ATOM     65  F   UNL A   1      42.249  27.100  36.799  1.00  0.00    -0.206 F 
ATOM     66  C   UNL A   1      45.858  26.917  36.876  1.00  0.00     0.060 A 
BRANCH  66  67
ATOM     67  S   UNL A   1      47.174  25.942  37.638  1.00  0.00     0.124 S 
ATOM     68  O   UNL A   1      47.594  25.100  36.522  1.00  0.00    -0.237 OA
ATOM     69  O   UNL A   1      48.126  26.969  38.049  1.00  0.00    -0.237 OA
ATOM     70  O   UNL A   1      46.496  25.248  38.727  1.00  0.00    -0.744 OA
ENDBRANCH  66  67
ENDBRANCH  45  59
BRANCH  46  71
ATOM     71  C   UNL A   1      36.439  33.393  31.091  1.00  0.00     0.058 A 
ATOM     72  C   UNL A   1      36.672  34.185  29.957  1.00  0.00     0.135 A 
ATOM     73  C   UNL A   1      35.121  33.295  31.560  1.00  0.00     0.135 A 
ATOM     74  F   UNL A   1      37.917  34.311  29.472  1.00  0.00    -0.206 F 
ATOM     75  C   UNL A   1      35.642  34.870  29.320  1.00  0.00     0.059 A 
ATOM     76  C   UNL A   1      34.069  33.951  30.926  1.00  0.00     0.059 A 
ATOM     77  F   UNL A   1      34.841  32.534  32.629  1.00  0.00    -0.206 F 
ATOM     78  C   UNL A   1      34.342  34.745  29.813  1.00  0.00     0.060 A 
BRANCH  78  79
ATOM     79  S   UNL A   1      33.002  35.592  28.948  1.00  0.00     0.124 S 
ATOM     80  O   UNL A   1      32.178  36.051  30.060  1.00  0.00    -0.237 OA
ATOM     81  O   UNL A   1      33.719  36.630  28.212  1.00  0.00    -0.237 OA
ATOM     82  O   UNL A   1      32.420  34.539  28.121  1.00  0.00    -0.744 OA
ENDBRANCH  78  79
ENDBRANCH  46  71
BRANCH  58  83
ATOM     83  C   UNL A   1      39.877  34.312  37.081  1.00  0.00     0.058 A 
ATOM     84  C   UNL A   1      39.136  34.105  38.255  1.00  0.00     0.135 A 
ATOM     85  C   UNL A   1      40.539  35.541  36.929  1.00  0.00     0.135 A 
ATOM     86  F   UNL A   1      38.482  32.948  38.448  1.00  0.00    -0.206 F 
ATOM     87  C   UNL A   1      39.015  35.099  39.221  1.00  0.00     0.059 A 
ATOM     88  C   UNL A   1      40.455  36.538  37.896  1.00  0.00     0.059 A 
ATOM     89  F   UNL A   1      41.273  35.783  35.832  1.00  0.00    -0.206 F 
ATOM     90  C   UNL A   1      39.672  36.316  39.027  1.00  0.00     0.060 A 
BRANCH  90  91
ATOM     91  S   UNL A   1      39.501  37.603  40.280  1.00  0.00     0.124 S 
ATOM     92  O   UNL A   1      40.882  38.052  40.429  1.00  0.00    -0.237 OA
ATOM     93  O   UNL A   1      38.592  38.548  39.641  1.00  0.00    -0.237 OA
ATOM     94  O   UNL A   1      38.946  36.888  41.426  1.00  0.00    -0.744 OA
ENDBRANCH  90  91
ENDBRANCH  58  83
ENDBRANCH  32  33
ENDBRANCH  24  27
ENDBRANCH  22  23
ENDBRANCH   1  22
TORSDOF 16
ENDMDL
MODEL 2
REMARK VINA RESULT:     -11.5      6.877     11.582
REMARK SMILES Cc1nc(C[C@H](C(=O)NCCCNC(=O)c2ccc(-c3c4nc(c(-c5c(F)cc(S(=O)(=O)[O-])cc5F)c5ccc([nH]5)c(-c5c(F)cc(S(=O)(=O)[O-])cc5F)c5nc(c(-c6c(F)cc(S(=O)(=O)[O-])cc6F)c6ccc3[nH]6)C=C5)C=C4)cc2)c2ccccc2Br)cs1
REMARK SMILES IDX 11 1 10 2 9 3 7 4 8 5 6 7 5 8 4 9 1 10 2 11 3 12 90 13 89 14
REMARK SMILES IDX 82 15 83 16 87 17 84 18 86 19 88 20 85 21 12 22 13 23 14 24
REMARK SMILES IDX 15 26 16 27 17 28 81 29 18 30 80 31 19 32 20 33 21 34 74 35
REMARK SMILES IDX 22 36 79 37 73 38 75 39 23 40 78 41 72 42 71 43 24 45 58 46
REMARK SMILES IDX 37 47 57 48 38 49 41 50 56 51 76 52 39 53 40 54 55 56 77 57
REMARK SMILES IDX 42 58 25 59 26 60 35 61 27 62 28 63 34 64 36 65 29 66 30 67
REMARK SMILES IDX 31 68 32 69 33 70 59 71 60 72 69 73 61 74 62 75 68 76 70 77
REMARK SMILES IDX 63 78 64 79 65 80 66 81 67 82 43 83 44 84 53 85 45 86 46 87
REMARK SMILES IDX 52 88 54 89 47 90 48 91 49 92 50 93 51 94
REMARK H PARENT 9 6 13 25 75 44 41 55
REMARK Flexibility Score: inf
ROOT
ATOM      1  C   UNL A   1      33.806  28.683  27.121  1.00  0.00     0.042 C 
ENDROOT
BRANCH   1   2
ATOM      2  C   UNL A   1      32.956  29.495  26.146  1.00  0.00     0.117 C 
BRANCH   2   3
ATOM      3  N   UNL A   1      33.559  29.555  24.831  1.00  0.00    -0.355 N 
ATOM      4  C   UNL A   1      33.313  28.804  23.716  1.00  0.00     0.227 C 
ATOM      5  O   UNL A   1      33.989  29.069  22.718  1.00  0.00    -0.274 OA
ATOM      6  H   UNL A   1      34.255  30.244  24.723  1.00  0.00     0.163 HD
BRANCH   4   7
ATOM      7  C   UNL A   1      32.192  27.744  23.698  1.00  0.00     0.115 C 
BRANCH   7   8
ATOM      8  C   UNL A   1      31.391  27.913  22.388  1.00  0.00     0.075 C 
BRANCH   8   9
ATOM      9  C   UNL A   1      30.045  28.578  22.426  1.00  0.00     0.053 A 
ATOM     10  C   UNL A   1      28.198  31.369  20.943  1.00  0.00     0.079 C 
ATOM     11  C   UNL A   1      28.683  30.183  21.697  1.00  0.00     0.090 A 
ATOM     12  N   UNL A   1      29.906  29.709  21.628  1.00  0.00    -0.247 NA
ATOM     13  S   UNL A   1      27.626  29.335  22.746  1.00  0.00    -0.127 S 
ATOM     14  C   UNL A   1      28.898  28.247  23.120  1.00  0.00     0.090 A 
ENDBRANCH   8   9
ENDBRANCH   7   8
BRANCH   7  15
ATOM     15  C   UNL A   1      32.697  26.331  24.004  1.00  0.00    -0.021 A 
ATOM     16  C   UNL A   1      33.606  25.758  23.079  1.00  0.00     0.006 A 
ATOM     17  C   UNL A   1      32.313  25.539  25.100  1.00  0.00     0.021 A 
ATOM     18  C   UNL A   1      34.086  24.456  23.221  1.00  0.00     0.000 A 
ATOM     19  C   UNL A   1      32.817  24.236  25.250  1.00  0.00     0.016 A 
ATOM     20  Br  UNL A   1      31.077  26.093  26.427  1.00  0.00    -0.051 Br
ATOM     21  C   UNL A   1      33.691  23.693  24.310  1.00  0.00     0.001 A 
ENDBRANCH   7  15
ENDBRANCH   4   7
ENDBRANCH   2   3
ENDBRANCH   1   2
BRANCH   1  22
ATOM     22  C   UNL A   1      35.155  29.324  27.424  1.00  0.00     0.118 C 
BRANCH  22  23
ATOM     23  N   UNL A   1      35.178  29.916  28.753  1.00  0.00    -0.352 N 
ATOM     24  C   UNL A   1      36.197  29.989  29.670  1.00  0.00     0.251 C 
ATOM     25  H   UNL A   1      34.333  30.328  29.039  1.00  0.00     0.163 HD
ATOM     26  O   UNL A   1      35.929  30.328  30.820  1.00  0.00    -0.269 OA
BRANCH  24  27
ATOM     27  C   UNL A   1      37.594  29.661  29.300  1.00  0.00     0.039 A 
ATOM     28  C   UNL A   1      38.507  29.393  30.325  1.00  0.00     0.014 A 
ATOM     29  C   UNL A   1      38.033  29.680  27.973  1.00  0.00     0.014 A 
ATOM     30  C   UNL A   1      39.842  29.120  30.019  1.00  0.00     0.010 A 
ATOM     31  C   UNL A   1      39.346  29.329  27.663  1.00  0.00     0.010 A 
ATOM     32  C   UNL A   1      40.270  29.068  28.683  1.00  0.00    -0.014 A 
BRANCH  32  33
ATOM     33  C   UNL A   1      41.687  28.767  28.353  1.00  0.00     0.031 A 
ATOM     34  C   UNL A   1      42.098  27.371  27.962  1.00  0.00     0.074 A 
ATOM     35  C   UNL A   1      42.609  29.747  28.432  1.00  0.00     0.049 A 
ATOM     36  N   UNL A   1      43.282  26.920  27.635  1.00  0.00    -0.248 NA
ATOM     37  C   UNL A   1      41.046  26.341  27.962  1.00  0.00     0.031 C 
ATOM     38  C   UNL A   1      42.344  31.123  28.859  1.00  0.00     0.029 A 
ATOM     39  N   UNL A   1      43.952  29.740  28.155  1.00  0.00    -0.354 N 
ATOM     40  C   UNL A   1      43.121  25.557  27.405  1.00  0.00     0.074 A 
ATOM     41  C   UNL A   1      41.736  25.245  27.684  1.00  0.00     0.031 C 
ATOM     42  C   UNL A   1      43.480  31.835  28.783  1.00  0.00     0.029 A 
ATOM     43  C   UNL A   1      44.558  30.962  28.328  1.00  0.00     0.049 A 
ATOM     44  H   UNL A   1      44.437  28.935  27.860  1.00  0.00     0.167 HD
ATOM     45  C   UNL A   1      44.035  24.654  26.974  1.00  0.00     0.037 A 
ATOM     46  C   UNL A   1      45.836  31.338  28.133  1.00  0.00     0.037 A 
ATOM     47  C   UNL A   1      45.404  24.978  26.672  1.00  0.00     0.049 A 
ATOM     48  C   UNL A   1      46.823  30.328  27.617  1.00  0.00     0.074 A 
ATOM     49  C   UNL A   1      46.400  24.152  26.180  1.00  0.00     0.029 A 
ATOM     50  N   UNL A   1      45.973  26.235  26.828  1.00  0.00    -0.354 N 
ATOM     51  N   UNL A   1      46.637  29.058  27.346  1.00  0.00    -0.248 NA
ATOM     52  C   UNL A   1      48.187  30.806  27.361  1.00  0.00     0.031 C 
ATOM     53  C   UNL A   1      47.578  24.901  26.070  1.00  0.00     0.029 A 
ATOM     54  C   UNL A   1      47.306  26.205  26.450  1.00  0.00     0.049 A 
ATOM     55  H   UNL A   1      45.498  27.033  27.157  1.00  0.00     0.167 HD
ATOM     56  C   UNL A   1      47.855  28.590  26.865  1.00  0.00     0.074 A 
ATOM     57  C   UNL A   1      48.762  29.720  26.865  1.00  0.00     0.031 C 
ATOM     58  C   UNL A   1      48.193  27.341  26.459  1.00  0.00     0.037 A 
BRANCH  45  59
ATOM     59  C   UNL A   1      43.578  23.231  26.797  1.00  0.00     0.058 A 
ATOM     60  C   UNL A   1      43.355  22.681  25.523  1.00  0.00     0.135 A 
ATOM     61  C   UNL A   1      43.381  22.396  27.910  1.00  0.00     0.135 A 
ATOM     62  F   UNL A   1      43.512  23.437  24.425  1.00  0.00    -0.206 F 
ATOM     63  C   UNL A   1      42.925  21.369  25.361  1.00  0.00     0.059 A 
ATOM     64  C   UNL A   1      42.978  21.071  27.769  1.00  0.00     0.059 A 
ATOM     65  F   UNL A   1      43.579  22.868  29.151  1.00  0.00    -0.206 F 
ATOM     66  C   UNL A   1      42.736  20.571  26.490  1.00  0.00     0.060 A 
BRANCH  66  67
ATOM     67  S   UNL A   1      42.178  18.869  26.262  1.00  0.00     0.124 S 
ATOM     68  O   UNL A   1      43.159  18.368  25.304  1.00  0.00    -0.237 OA
ATOM     69  O   UNL A   1      42.277  18.324  27.613  1.00  0.00    -0.237 OA
ATOM     70  O   UNL A   1      40.821  19.021  25.750  1.00  0.00    -0.744 OA
ENDBRANCH  66  67
ENDBRANCH  45  59
BRANCH  46  71
ATOM     71  C   UNL A   1      46.240  32.747  28.384  1.00  0.00     0.058 A 
ATOM     72  C   UNL A   1      46.092  33.727  27.392  1.00  0.00     0.135 A 
ATOM     73  C   UNL A   1      46.762  33.145  29.624  1.00  0.00     0.135 A 
ATOM     74  F   UNL A   1      45.599  33.395  26.189  1.00  0.00    -0.206 F 
ATOM     75  C   UNL A   1      46.462  35.050  27.612  1.00  0.00     0.059 A 
ATOM     76  C   UNL A   1      47.117  34.467  29.877  1.00  0.00     0.059 A 
ATOM     77  F   UNL A   1      46.905  32.249  30.613  1.00  0.00    -0.206 F 
ATOM     78  C   UNL A   1      46.973  35.411  28.860  1.00  0.00     0.060 A 
BRANCH  78  79
ATOM     79  S   UNL A   1      47.400  37.141  29.156  1.00  0.00     0.124 S 
ATOM     80  O   UNL A   1      48.613  37.284  28.360  1.00  0.00    -0.237 OA
ATOM     81  O   UNL A   1      46.219  37.839  28.655  1.00  0.00    -0.237 OA
ATOM     82  O   UNL A   1      47.582  37.196  30.604  1.00  0.00    -0.744 OA
ENDBRANCH  78  79
ENDBRANCH  46  71
BRANCH  58  83
ATOM     83  C   UNL A   1      49.596  27.145  25.953  1.00  0.00     0.058 A 
ATOM     84  C   UNL A   1      50.666  26.889  26.824  1.00  0.00     0.135 A 
ATOM     85  C   UNL A   1      49.869  27.210  24.577  1.00  0.00     0.135 A 
ATOM     86  F   UNL A   1      50.458  26.821  28.149  1.00  0.00    -0.206 F 
ATOM     87  C   UNL A   1      51.968  26.750  26.353  1.00  0.00     0.059 A 
ATOM     88  C   UNL A   1      51.159  27.046  24.082  1.00  0.00     0.059 A 
ATOM     89  F   UNL A   1      48.879  27.438  23.701  1.00  0.00    -0.206 F 
ATOM     90  C   UNL A   1      52.204  26.839  24.980  1.00  0.00     0.060 A 
BRANCH  90  91
ATOM     91  S   UNL A   1      53.898  26.669  24.379  1.00  0.00     0.124 S 
ATOM     92  O   UNL A   1      53.835  27.403  23.119  1.00  0.00    -0.237 OA
ATOM     93  O   UNL A   1      54.675  27.296  25.442  1.00  0.00    -0.237 OA
ATOM     94  O   UNL A   1      54.069  25.224  24.255  1.00  0.00    -0.744 OA
ENDBRANCH  90  91
ENDBRANCH  58  83
ENDBRANCH  32  33
ENDBRANCH  24  27
ENDBRANCH  22  23
ENDBRANCH   1  22
TORSDOF 16
ENDMDL
MODEL 3
REMARK VINA RESULT:     -11.5      5.220      6.807
REMARK SMILES Cc1nc(C[C@H](C(=O)NCCCNC(=O)c2ccc(-c3c4nc(c(-c5c(F)cc(S(=O)(=O)[O-])cc5F)c5ccc([nH]5)c(-c5c(F)cc(S(=O)(=O)[O-])cc5F)c5nc(c(-c6c(F)cc(S(=O)(=O)[O-])cc6F)c6ccc3[nH]6)C=C5)C=C4)cc2)c2ccccc2Br)cs1
REMARK SMILES IDX 11 1 10 2 9 3 7 4 8 5 6 7 5 8 4 9 1 10 2 11 3 12 90 13 89 14
REMARK SMILES IDX 82 15 83 16 87 17 84 18 86 19 88 20 85 21 12 22 13 23 14 24
REMARK SMILES IDX 15 26 16 27 17 28 81 29 18 30 80 31 19 32 20 33 21 34 74 35
REMARK SMILES IDX 22 36 79 37 73 38 75 39 23 40 78 41 72 42 71 43 24 45 58 46
REMARK SMILES IDX 37 47 57 48 38 49 41 50 56 51 76 52 39 53 40 54 55 56 77 57
REMARK SMILES IDX 42 58 25 59 26 60 35 61 27 62 28 63 34 64 36 65 29 66 30 67
REMARK SMILES IDX 31 68 32 69 33 70 59 71 60 72 69 73 61 74 62 75 68 76 70 77
REMARK SMILES IDX 63 78 64 79 65 80 66 81 67 82 43 83 44 84 53 85 45 86 46 87
REMARK SMILES IDX 52 88 54 89 47 90 48 91 49 92 50 93 51 94
REMARK H PARENT 9 6 13 25 75 44 41 55
REMARK Flexibility Score: inf
ROOT
ATOM      1  C   UNL A   1      36.064  23.952  24.699  1.00  0.00     0.042 C 
ENDROOT
BRANCH   1   2
ATOM      2  C   UNL A   1      34.568  24.085  24.426  1.00  0.00     0.117 C 
BRANCH   2   3
ATOM      3  N   UNL A   1      34.311  24.714  23.147  1.00  0.00    -0.355 N 
ATOM      4  C   UNL A   1      33.589  25.834  22.847  1.00  0.00     0.227 C 
ATOM      5  O   UNL A   1      33.529  26.143  21.654  1.00  0.00    -0.274 OA
ATOM      6  H   UNL A   1      34.720  24.263  22.372  1.00  0.00     0.163 HD
BRANCH   4   7
ATOM      7  C   UNL A   1      32.960  26.700  23.959  1.00  0.00     0.115 C 
BRANCH   7   8
ATOM      8  C   UNL A   1      33.745  28.029  24.036  1.00  0.00     0.075 C 
BRANCH   8   9
ATOM      9  C   UNL A   1      33.587  28.910  25.241  1.00  0.00     0.053 A 
ATOM     10  C   UNL A   1      35.360  29.937  28.276  1.00  0.00     0.079 C 
ATOM     11  C   UNL A   1      34.420  29.713  27.146  1.00  0.00     0.090 A 
ATOM     12  N   UNL A   1      34.635  28.875  26.158  1.00  0.00    -0.247 NA
ATOM     13  S   UNL A   1      32.940  30.573  27.070  1.00  0.00    -0.127 S 
ATOM     14  C   UNL A   1      32.570  29.773  25.598  1.00  0.00     0.090 A 
ENDBRANCH   8   9
ENDBRANCH   7   8
BRANCH   7  15
ATOM     15  C   UNL A   1      31.438  26.820  23.837  1.00  0.00    -0.021 A 
ATOM     16  C   UNL A   1      30.939  27.835  22.981  1.00  0.00     0.006 A 
ATOM     17  C   UNL A   1      30.493  26.039  24.524  1.00  0.00     0.021 A 
ATOM     18  C   UNL A   1      29.573  28.078  22.838  1.00  0.00     0.000 A 
ATOM     19  C   UNL A   1      29.118  26.274  24.359  1.00  0.00     0.016 A 
ATOM     20  Br  UNL A   1      30.944  24.663  25.749  1.00  0.00    -0.051 Br
ATOM     21  C   UNL A   1      28.660  27.295  23.529  1.00  0.00     0.001 A 
ENDBRANCH   7  15
ENDBRANCH   4   7
ENDBRANCH   2   3
ENDBRANCH   1   2
BRANCH   1  22
ATOM     22  C   UNL A   1      36.379  23.458  26.106  1.00  0.00     0.118 C 
BRANCH  22  23
ATOM     23  N   UNL A   1      37.402  22.423  26.093  1.00  0.00    -0.352 N 
ATOM     24  C   UNL A   1      38.760  22.521  26.265  1.00  0.00     0.251 C 
ATOM     25  H   UNL A   1      37.069  21.512  25.937  1.00  0.00     0.163 HD
ATOM     26  O   UNL A   1      39.459  21.551  25.983  1.00  0.00    -0.269 OA
BRANCH  24  27
ATOM     27  C   UNL A   1      39.386  23.766  26.770  1.00  0.00     0.039 A 
ATOM     28  C   UNL A   1      39.683  24.780  25.853  1.00  0.00     0.014 A 
ATOM     29  C   UNL A   1      39.747  23.923  28.111  1.00  0.00     0.014 A 
ATOM     30  C   UNL A   1      40.311  25.951  26.283  1.00  0.00     0.010 A 
ATOM     31  C   UNL A   1      40.300  25.123  28.554  1.00  0.00     0.010 A 
ATOM     32  C   UNL A   1      40.609  26.141  27.642  1.00  0.00    -0.014 A 
BRANCH  32  33
ATOM     33  C   UNL A   1      41.266  27.389  28.106  1.00  0.00     0.031 A 
ATOM     34  C   UNL A   1      42.758  27.556  27.981  1.00  0.00     0.074 A 
ATOM     35  C   UNL A   1      40.521  28.362  28.666  1.00  0.00     0.049 A 
ATOM     36  N   UNL A   1      43.508  28.573  28.324  1.00  0.00    -0.248 NA
ATOM     37  C   UNL A   1      43.512  26.423  27.420  1.00  0.00     0.031 C 
ATOM     38  C   UNL A   1      39.077  28.291  28.899  1.00  0.00     0.029 A 
ATOM     39  N   UNL A   1      40.871  29.601  29.138  1.00  0.00    -0.354 N 
ATOM     40  C   UNL A   1      44.816  28.198  28.035  1.00  0.00     0.074 A 
ATOM     41  C   UNL A   1      44.764  26.840  27.540  1.00  0.00     0.031 C 
ATOM     42  C   UNL A   1      38.659  29.449  29.437  1.00  0.00     0.029 A 
ATOM     43  C   UNL A   1      39.807  30.332  29.613  1.00  0.00     0.049 A 
ATOM     44  H   UNL A   1      41.797  29.937  29.137  1.00  0.00     0.167 HD
ATOM     45  C   UNL A   1      45.953  28.928  28.144  1.00  0.00     0.037 A 
ATOM     46  C   UNL A   1      39.762  31.577  30.123  1.00  0.00     0.037 A 
ATOM     47  C   UNL A   1      45.992  30.289  28.610  1.00  0.00     0.049 A 
ATOM     48  C   UNL A   1      41.030  32.382  30.197  1.00  0.00     0.074 A 
ATOM     49  C   UNL A   1      47.082  31.136  28.711  1.00  0.00     0.029 A 
ATOM     50  N   UNL A   1      44.889  31.007  29.051  1.00  0.00    -0.354 N 
ATOM     51  N   UNL A   1      42.249  32.032  29.861  1.00  0.00    -0.248 NA
ATOM     52  C   UNL A   1      40.914  33.755  30.702  1.00  0.00     0.031 C 
ATOM     53  C   UNL A   1      46.643  32.355  29.244  1.00  0.00     0.029 A 
ATOM     54  C   UNL A   1      45.273  32.283  29.432  1.00  0.00     0.049 A 
ATOM     55  H   UNL A   1      43.967  30.661  29.086  1.00  0.00     0.167 HD
ATOM     56  C   UNL A   1      43.042  33.151  30.090  1.00  0.00     0.074 A 
ATOM     57  C   UNL A   1      42.160  34.192  30.576  1.00  0.00     0.031 C 
ATOM     58  C   UNL A   1      44.378  33.304  29.916  1.00  0.00     0.037 A 
BRANCH  45  59
ATOM     59  C   UNL A   1      47.245  28.267  27.743  1.00  0.00     0.058 A 
ATOM     60  C   UNL A   1      47.720  28.320  26.422  1.00  0.00     0.135 A 
ATOM     61  C   UNL A   1      48.032  27.594  28.692  1.00  0.00     0.135 A 
ATOM     62  F   UNL A   1      47.002  28.935  25.469  1.00  0.00    -0.206 F 
ATOM     63  C   UNL A   1      48.910  27.703  26.050  1.00  0.00     0.059 A 
ATOM     64  C   UNL A   1      49.240  26.993  28.348  1.00  0.00     0.059 A 
ATOM     65  F   UNL A   1      47.627  27.513  29.969  1.00  0.00    -0.206 F 
ATOM     66  C   UNL A   1      49.662  27.039  27.020  1.00  0.00     0.060 A 
BRANCH  66  67
ATOM     67  S   UNL A   1      51.205  26.244  26.522  1.00  0.00     0.124 S 
ATOM     68  O   UNL A   1      51.139  26.367  25.069  1.00  0.00    -0.237 OA
ATOM     69  O   UNL A   1      52.211  27.070  27.182  1.00  0.00    -0.237 OA
ATOM     70  O   UNL A   1      51.072  24.887  27.043  1.00  0.00    -0.744 OA
ENDBRANCH  66  67
ENDBRANCH  45  59
BRANCH  46  71
ATOM     71  C   UNL A   1      38.462  32.152  30.559  1.00  0.00     0.058 A 
ATOM     72  C   UNL A   1      37.694  32.940  29.689  1.00  0.00     0.135 A 
ATOM     73  C   UNL A   1      37.952  31.910  31.844  1.00  0.00     0.135 A 
ATOM     74  F   UNL A   1      38.140  33.201  28.451  1.00  0.00    -0.206 F 
ATOM     75  C   UNL A   1      36.474  33.483  30.080  1.00  0.00     0.059 A 
ATOM     76  C   UNL A   1      36.723  32.421  32.251  1.00  0.00     0.059 A 
ATOM     77  F   UNL A   1      38.639  31.146  32.707  1.00  0.00    -0.206 F 
ATOM     78  C   UNL A   1      35.996  33.216  31.365  1.00  0.00     0.060 A 
BRANCH  78  79
ATOM     79  S   UNL A   1      34.386  33.879  31.846  1.00  0.00     0.124 S 
ATOM     80  O   UNL A   1      33.774  34.136  30.549  1.00  0.00    -0.237 OA
ATOM     81  O   UNL A   1      33.817  32.775  32.615  1.00  0.00    -0.237 OA
ATOM     82  O   UNL A   1      34.733  35.062  32.629  1.00  0.00    -0.744 OA
ENDBRANCH  78  79
ENDBRANCH  46  71
BRANCH  58  83
ATOM     83  C   UNL A   1      44.955  34.659  30.223  1.00  0.00     0.058 A 
ATOM     84  C   UNL A   1      45.049  35.661  29.244  1.00  0.00     0.135 A 
ATOM     85  C   UNL A   1      45.413  34.959  31.516  1.00  0.00     0.135 A 
ATOM     86  F   UNL A   1      44.628  35.424  27.991  1.00  0.00    -0.206 F 
ATOM     87  C   UNL A   1      45.621  36.898  29.524  1.00  0.00     0.059 A 
ATOM     88  C   UNL A   1      45.962  36.199  31.825  1.00  0.00     0.059 A 
ATOM     89  F   UNL A   1      45.332  34.041  32.492  1.00  0.00    -0.206 F 
ATOM     90  C   UNL A   1      46.082  37.154  30.817  1.00  0.00     0.060 A 
BRANCH  90  91
ATOM     91  S   UNL A   1      46.833  38.757  31.168  1.00  0.00     0.124 S 
ATOM     92  O   UNL A   1      47.338  38.552  32.522  1.00  0.00    -0.237 OA
ATOM     93  O   UNL A   1      47.845  38.869  30.123  1.00  0.00    -0.237 OA
ATOM     94  O   UNL A   1      45.713  39.688  31.050  1.00  0.00    -0.744 OA
ENDBRANCH  90  91
ENDBRANCH  58  83
ENDBRANCH  32  33
ENDBRANCH  24  27
ENDBRANCH  22  23
ENDBRANCH   1  22
TORSDOF 16
ENDMDL
