MODEL 1
REMARK VINA RESULT:     -11.5      0.000      0.000
REMARK SMILES O=C(CCNC(=O)C1CCCCC1)NCCCNC(=O)c1ccc(-c2c3nc(c(-c4c(F)cc(S(=O)(=O)[O-])cc4F)c4ccc([nH]4)c(-c4c(F)cc(S(=O)(=O)[O-])cc4F)c4nc(c(-c5c(F)cc(S(=O)(=O)[O-])cc5F)c5ccc2[nH]5)C=C4)C=C3)cc1
REMARK SMILES IDX 16 1 15 2 14 3 1 4 2 5 3 7 4 8 5 9 6 10 7 12 8 13 9 14 13 15
REMARK SMILES IDX 10 16 12 17 11 18 17 19 18 20 19 21 20 23 21 24 22 25 86 26
REMARK SMILES IDX 23 27 85 28 24 29 25 30 26 31 79 32 27 33 84 34 78 35 80 36
REMARK SMILES IDX 28 37 83 38 77 39 76 40 29 42 63 43 42 44 62 45 43 46 46 47
REMARK SMILES IDX 61 48 81 49 44 50 45 51 60 53 82 54 47 55 30 56 31 57 40 58
REMARK SMILES IDX 32 59 33 60 39 61 41 62 34 63 35 64 36 65 37 66 38 67 64 68
REMARK SMILES IDX 65 69 74 70 66 71 67 72 73 73 75 74 68 75 69 76 70 77 71 78
REMARK SMILES IDX 72 79 48 80 49 81 58 82 50 83 51 84 57 85 59 86 52 87 53 88
REMARK SMILES IDX 54 89 55 90 56 91
REMARK H PARENT 14 6 5 11 18 22 80 41 46 52
REMARK Flexibility Score: inf
ROOT
ATOM      1  C   UNL A   1      34.005  34.053  28.016  1.00  0.00     0.042 C 
ENDROOT
BRANCH   1   2
ATOM      2  C   UNL A   1      33.099  35.034  28.750  1.00  0.00     0.117 C 
BRANCH   2   3
ATOM      3  N   UNL A   1      33.251  34.962  30.190  1.00  0.00    -0.356 N 
ATOM      4  O   UNL A   1      32.902  37.201  30.607  1.00  0.00    -0.275 OA
ATOM      5  C   UNL A   1      33.105  36.059  31.008  1.00  0.00     0.221 C 
ATOM      6  H   UNL A   1      33.468  34.094  30.600  1.00  0.00     0.163 HD
BRANCH   5   7
ATOM      7  C   UNL A   1      33.172  35.731  32.480  1.00  0.00     0.121 C 
BRANCH   7   8
ATOM      8  C   UNL A   1      34.612  35.817  32.981  1.00  0.00     0.125 C 
BRANCH   8   9
ATOM      9  N   UNL A   1      35.114  34.518  33.409  1.00  0.00    -0.355 N 
ATOM     10  C   UNL A   1      35.970  33.653  32.795  1.00  0.00     0.223 C 
ATOM     11  H   UNL A   1      34.779  34.216  34.284  1.00  0.00     0.163 HD
ATOM     12  O   UNL A   1      36.140  32.558  33.328  1.00  0.00    -0.275 OA
BRANCH  10  13
ATOM     13  C   UNL A   1      36.703  34.078  31.524  1.00  0.00     0.078 C 
ATOM     14  C   UNL A   1      38.149  34.494  31.852  1.00  0.00     0.013 C 
ATOM     15  C   UNL A   1      36.721  32.981  30.453  1.00  0.00     0.013 C 
ATOM     16  C   UNL A   1      38.904  34.953  30.607  1.00  0.00     0.001 C 
ATOM     17  C   UNL A   1      37.445  33.454  29.194  1.00  0.00     0.001 C 
ATOM     18  C   UNL A   1      38.868  33.903  29.501  1.00  0.00     0.000 C 
ENDBRANCH  10  13
ENDBRANCH   8   9
ENDBRANCH   7   8
ENDBRANCH   5   7
ENDBRANCH   2   3
ENDBRANCH   1   2
BRANCH   1  19
ATOM     19  C   UNL A   1      34.040  32.645  28.606  1.00  0.00     0.118 C 
BRANCH  19  20
ATOM     20  N   UNL A   1      33.651  31.613  27.659  1.00  0.00    -0.352 N 
ATOM     21  C   UNL A   1      34.302  30.463  27.288  1.00  0.00     0.251 C 
ATOM     22  H   UNL A   1      32.785  31.762  27.214  1.00  0.00     0.163 HD
ATOM     23  O   UNL A   1      33.851  29.799  26.354  1.00  0.00    -0.269 OA
BRANCH  21  24
ATOM     24  C   UNL A   1      35.546  30.031  27.966  1.00  0.00     0.039 A 
ATOM     25  C   UNL A   1      36.746  30.078  27.251  1.00  0.00     0.014 A 
ATOM     26  C   UNL A   1      35.546  29.558  29.282  1.00  0.00     0.014 A 
ATOM     27  C   UNL A   1      37.943  29.710  27.869  1.00  0.00     0.010 A 
ATOM     28  C   UNL A   1      36.753  29.271  29.923  1.00  0.00     0.010 A 
ATOM     29  C   UNL A   1      37.965  29.338  29.223  1.00  0.00    -0.014 A 
BRANCH  29  30
ATOM     30  C   UNL A   1      39.252  29.029  29.905  1.00  0.00     0.031 A 
ATOM     31  C   UNL A   1      39.673  29.788  31.137  1.00  0.00     0.074 A 
ATOM     32  C   UNL A   1      40.061  28.079  29.393  1.00  0.00     0.049 A 
ATOM     33  N   UNL A   1      40.753  29.646  31.864  1.00  0.00    -0.248 NA
ATOM     34  C   UNL A   1      38.780  30.860  31.599  1.00  0.00     0.031 C 
ATOM     35  C   UNL A   1      39.800  27.314  28.172  1.00  0.00     0.029 A 
ATOM     36  N   UNL A   1      41.268  27.591  29.834  1.00  0.00    -0.354 N 
ATOM     37  C   UNL A   1      40.670  30.609  32.863  1.00  0.00     0.074 A 
ATOM     38  C   UNL A   1      39.465  31.370  32.612  1.00  0.00     0.031 C 
ATOM     39  C   UNL A   1      40.792  26.431  27.983  1.00  0.00     0.029 A 
ATOM     40  C   UNL A   1      41.780  26.588  29.045  1.00  0.00     0.049 A 
ATOM     41  H   UNL A   1      41.722  27.929  30.639  1.00  0.00     0.167 HD
ATOM     42  C   UNL A   1      41.505  30.825  33.909  1.00  0.00     0.037 A 
ATOM     43  C   UNL A   1      42.917  25.873  29.162  1.00  0.00     0.037 A 
ATOM     44  C   UNL A   1      42.696  30.053  34.164  1.00  0.00     0.049 A 
ATOM     45  C   UNL A   1      43.825  26.127  30.335  1.00  0.00     0.074 A 
ATOM     46  C   UNL A   1      43.577  30.158  35.226  1.00  0.00     0.029 A 
ATOM     47  N   UNL A   1      43.175  29.039  33.349  1.00  0.00    -0.354 N 
ATOM     48  N   UNL A   1      43.691  26.994  31.310  1.00  0.00    -0.248 NA
ATOM     49  C   UNL A   1      45.033  25.296  30.430  1.00  0.00     0.031 C 
ATOM     50  C   UNL A   1      44.615  29.241  35.027  1.00  0.00     0.029 A 
ATOM     51  C   UNL A   1      44.351  28.524  33.871  1.00  0.00     0.049 A 
ATOM     52  H   UNL A   1      42.744  28.729  32.520  1.00  0.00     0.167 HD
ATOM     53  C   UNL A   1      44.782  26.793  32.149  1.00  0.00     0.074 A 
ATOM     54  C   UNL A   1      45.555  25.710  31.575  1.00  0.00     0.031 C 
ATOM     55  C   UNL A   1      45.113  27.446  33.292  1.00  0.00     0.037 A 
BRANCH  42  56
ATOM     56  C   UNL A   1      41.161  31.939  34.862  1.00  0.00     0.058 A 
ATOM     57  C   UNL A   1      41.667  33.239  34.693  1.00  0.00     0.135 A 
ATOM     58  C   UNL A   1      40.281  31.718  35.934  1.00  0.00     0.135 A 
ATOM     59  F   UNL A   1      42.523  33.506  33.694  1.00  0.00    -0.206 F 
ATOM     60  C   UNL A   1      41.338  34.269  35.568  1.00  0.00     0.059 A 
ATOM     61  C   UNL A   1      39.913  32.741  36.803  1.00  0.00     0.059 A 
ATOM     62  F   UNL A   1      39.765  30.496  36.144  1.00  0.00    -0.206 F 
ATOM     63  C   UNL A   1      40.459  34.011  36.620  1.00  0.00     0.060 A 
BRANCH  63  64
ATOM     64  S   UNL A   1      40.036  35.362  37.740  1.00  0.00     0.124 S 
ATOM     65  O   UNL A   1      41.268  35.498  38.512  1.00  0.00    -0.237 OA
ATOM     66  O   UNL A   1      39.743  36.453  36.816  1.00  0.00    -0.237 OA
ATOM     67  O   UNL A   1      38.888  34.846  38.479  1.00  0.00    -0.744 OA
ENDBRANCH  63  64
ENDBRANCH  42  56
BRANCH  43  68
ATOM     68  C   UNL A   1      43.244  24.828  28.155  1.00  0.00     0.058 A 
ATOM     69  C   UNL A   1      42.900  23.484  28.367  1.00  0.00     0.135 A 
ATOM     70  C   UNL A   1      43.901  25.151  26.956  1.00  0.00     0.135 A 
ATOM     71  F   UNL A   1      42.278  23.122  29.500  1.00  0.00    -0.206 F 
ATOM     72  C   UNL A   1      43.212  22.495  27.440  1.00  0.00     0.059 A 
ATOM     73  C   UNL A   1      44.197  24.184  26.001  1.00  0.00     0.059 A 
ATOM     74  F   UNL A   1      44.236  26.424  26.696  1.00  0.00    -0.206 F 
ATOM     75  C   UNL A   1      43.859  22.856  26.257  1.00  0.00     0.060 A 
BRANCH  75  76
ATOM     76  S   UNL A   1      44.221  21.572  25.040  1.00  0.00     0.124 S 
ATOM     77  O   UNL A   1      45.564  21.166  25.431  1.00  0.00    -0.237 OA
ATOM     78  O   UNL A   1      43.160  20.602  25.295  1.00  0.00    -0.237 OA
ATOM     79  O   UNL A   1      44.119  22.279  23.766  1.00  0.00    -0.744 OA
ENDBRANCH  75  76
ENDBRANCH  43  68
BRANCH  55  80
ATOM     80  C   UNL A   1      46.348  26.982  34.018  1.00  0.00     0.058 A 
ATOM     81  C   UNL A   1      46.302  25.970  34.990  1.00  0.00     0.135 A 
ATOM     82  C   UNL A   1      47.600  27.545  33.719  1.00  0.00     0.135 A 
ATOM     83  F   UNL A   1      45.131  25.400  35.318  1.00  0.00    -0.206 F 
ATOM     84  C   UNL A   1      47.446  25.561  35.668  1.00  0.00     0.059 A 
ATOM     85  C   UNL A   1      48.761  27.127  34.362  1.00  0.00     0.059 A 
ATOM     86  F   UNL A   1      47.706  28.507  32.788  1.00  0.00    -0.206 F 
ATOM     87  C   UNL A   1      48.672  26.148  35.349  1.00  0.00     0.060 A 
BRANCH  87  88
ATOM     88  S   UNL A   1      50.149  25.604  36.232  1.00  0.00     0.124 S 
ATOM     89  O   UNL A   1      49.821  24.212  36.523  1.00  0.00    -0.237 OA
ATOM     90  O   UNL A   1      51.201  25.815  35.241  1.00  0.00    -0.237 OA
ATOM     91  O   UNL A   1      50.200  26.493  37.389  1.00  0.00    -0.744 OA
ENDBRANCH  87  88
ENDBRANCH  55  80
ENDBRANCH  29  30
ENDBRANCH  21  24
ENDBRANCH  19  20
ENDBRANCH   1  19
TORSDOF 16
ENDMDL
MODEL 2
REMARK VINA RESULT:     -11.5      4.821     11.854
REMARK SMILES O=C(CCNC(=O)C1CCCCC1)NCCCNC(=O)c1ccc(-c2c3nc(c(-c4c(F)cc(S(=O)(=O)[O-])cc4F)c4ccc([nH]4)c(-c4c(F)cc(S(=O)(=O)[O-])cc4F)c4nc(c(-c5c(F)cc(S(=O)(=O)[O-])cc5F)c5ccc2[nH]5)C=C4)C=C3)cc1
REMARK SMILES IDX 16 1 15 2 14 3 1 4 2 5 3 7 4 8 5 9 6 10 7 12 8 13 9 14 13 15
REMARK SMILES IDX 10 16 12 17 11 18 17 19 18 20 19 21 20 23 21 24 22 25 86 26
REMARK SMILES IDX 23 27 85 28 24 29 25 30 26 31 79 32 27 33 84 34 78 35 80 36
REMARK SMILES IDX 28 37 83 38 77 39 76 40 29 42 63 43 42 44 62 45 43 46 46 47
REMARK SMILES IDX 61 48 81 49 44 50 45 51 60 53 82 54 47 55 30 56 31 57 40 58
REMARK SMILES IDX 32 59 33 60 39 61 41 62 34 63 35 64 36 65 37 66 38 67 64 68
REMARK SMILES IDX 65 69 74 70 66 71 67 72 73 73 75 74 68 75 69 76 70 77 71 78
REMARK SMILES IDX 72 79 48 80 49 81 58 82 50 83 51 84 57 85 59 86 52 87 53 88
REMARK SMILES IDX 54 89 55 90 56 91
REMARK H PARENT 14 6 5 11 18 22 80 41 46 52
REMARK Flexibility Score: inf
ROOT
ATOM      1  C   UNL A   1      40.320  22.349  27.446  1.00  0.00     0.042 C 
ENDROOT
BRANCH   1   2
ATOM      2  C   UNL A   1      39.865  21.627  26.184  1.00  0.00     0.117 C 
BRANCH   2   3
ATOM      3  N   UNL A   1      38.577  22.091  25.709  1.00  0.00    -0.356 N 
ATOM      4  O   UNL A   1      37.875  20.080  24.831  1.00  0.00    -0.275 OA
ATOM      5  C   UNL A   1      37.668  21.260  25.096  1.00  0.00     0.221 C 
ATOM      6  H   UNL A   1      38.342  23.040  25.830  1.00  0.00     0.163 HD
BRANCH   5   7
ATOM      7  C   UNL A   1      36.341  21.921  24.805  1.00  0.00     0.121 C 
BRANCH   7   8
ATOM      8  C   UNL A   1      35.204  21.155  25.476  1.00  0.00     0.125 C 
BRANCH   8   9
ATOM      9  N   UNL A   1      33.987  21.185  24.677  1.00  0.00    -0.355 N 
ATOM     10  C   UNL A   1      33.275  20.170  24.109  1.00  0.00     0.223 C 
ATOM     11  H   UNL A   1      33.619  22.084  24.522  1.00  0.00     0.163 HD
ATOM     12  O   UNL A   1      32.336  20.484  23.379  1.00  0.00    -0.275 OA
BRANCH  10  13
ATOM     13  C   UNL A   1      33.631  18.718  24.423  1.00  0.00     0.078 C 
ATOM     14  C   UNL A   1      32.730  18.177  25.549  1.00  0.00     0.013 C 
ATOM     15  C   UNL A   1      33.522  17.801  23.200  1.00  0.00     0.013 C 
ATOM     16  C   UNL A   1      33.077  16.735  25.910  1.00  0.00     0.001 C 
ATOM     17  C   UNL A   1      33.904  16.365  23.554  1.00  0.00     0.001 C 
ATOM     18  C   UNL A   1      33.047  15.820  24.690  1.00  0.00     0.000 C 
ENDBRANCH  10  13
ENDBRANCH   8   9
ENDBRANCH   7   8
ENDBRANCH   5   7
ENDBRANCH   2   3
ENDBRANCH   1   2
BRANCH   1  19
ATOM     19  C   UNL A   1      41.619  23.137  27.303  1.00  0.00     0.118 C 
BRANCH  19  20
ATOM     20  N   UNL A   1      41.630  24.028  26.153  1.00  0.00    -0.352 N 
ATOM     21  C   UNL A   1      41.408  25.381  26.081  1.00  0.00     0.251 C 
ATOM     22  H   UNL A   1      41.828  23.593  25.292  1.00  0.00     0.163 HD
ATOM     23  O   UNL A   1      41.326  25.912  24.973  1.00  0.00    -0.269 OA
BRANCH  21  24
ATOM     24  C   UNL A   1      41.233  26.198  27.305  1.00  0.00     0.039 A 
ATOM     25  C   UNL A   1      42.219  27.135  27.626  1.00  0.00     0.014 A 
ATOM     26  C   UNL A   1      40.132  26.037  28.151  1.00  0.00     0.014 A 
ATOM     27  C   UNL A   1      42.071  27.945  28.755  1.00  0.00     0.010 A 
ATOM     28  C   UNL A   1      39.945  26.903  29.230  1.00  0.00     0.010 A 
ATOM     29  C   UNL A   1      40.915  27.863  29.548  1.00  0.00    -0.014 A 
BRANCH  29  30
ATOM     30  C   UNL A   1      40.719  28.786  30.701  1.00  0.00     0.031 A 
ATOM     31  C   UNL A   1      41.571  28.666  31.938  1.00  0.00     0.074 A 
ATOM     32  C   UNL A   1      39.747  29.720  30.644  1.00  0.00     0.049 A 
ATOM     33  N   UNL A   1      41.547  29.388  33.030  1.00  0.00    -0.248 NA
ATOM     34  C   UNL A   1      42.562  27.580  31.963  1.00  0.00     0.031 C 
ATOM     35  C   UNL A   1      38.814  29.902  29.530  1.00  0.00     0.029 A 
ATOM     36  N   UNL A   1      39.381  30.693  31.541  1.00  0.00    -0.354 N 
ATOM     37  C   UNL A   1      42.511  28.844  33.870  1.00  0.00     0.074 A 
ATOM     38  C   UNL A   1      43.060  27.692  33.187  1.00  0.00     0.031 C 
ATOM     39  C   UNL A   1      38.011  30.944  29.792  1.00  0.00     0.029 A 
ATOM     40  C   UNL A   1      38.343  31.484  31.107  1.00  0.00     0.049 A 
ATOM     41  H   UNL A   1      39.821  30.814  32.413  1.00  0.00     0.167 HD
ATOM     42  C   UNL A   1      42.922  29.276  35.087  1.00  0.00     0.037 A 
ATOM     43  C   UNL A   1      37.727  32.527  31.697  1.00  0.00     0.037 A 
ATOM     44  C   UNL A   1      42.384  30.434  35.757  1.00  0.00     0.049 A 
ATOM     45  C   UNL A   1      38.205  32.993  33.045  1.00  0.00     0.074 A 
ATOM     46  C   UNL A   1      42.771  30.986  36.965  1.00  0.00     0.029 A 
ATOM     47  N   UNL A   1      41.341  31.215  35.279  1.00  0.00    -0.354 N 
ATOM     48  N   UNL A   1      39.169  32.509  33.792  1.00  0.00    -0.248 NA
ATOM     49  C   UNL A   1      37.519  34.155  33.627  1.00  0.00     0.031 C 
ATOM     50  C   UNL A   1      41.930  32.069  37.243  1.00  0.00     0.029 A 
ATOM     51  C   UNL A   1      41.057  32.230  36.178  1.00  0.00     0.049 A 
ATOM     52  H   UNL A   1      40.872  31.070  34.426  1.00  0.00     0.167 HD
ATOM     53  C   UNL A   1      39.225  33.325  34.918  1.00  0.00     0.074 A 
ATOM     54  C   UNL A   1      38.208  34.343  34.743  1.00  0.00     0.031 C 
ATOM     55  C   UNL A   1      40.043  33.239  35.996  1.00  0.00     0.037 A 
BRANCH  42  56
ATOM     56  C   UNL A   1      44.012  28.498  35.776  1.00  0.00     0.058 A 
ATOM     57  C   UNL A   1      45.371  28.782  35.561  1.00  0.00     0.135 A 
ATOM     58  C   UNL A   1      43.696  27.483  36.695  1.00  0.00     0.135 A 
ATOM     59  F   UNL A   1      45.733  29.732  34.684  1.00  0.00    -0.206 F 
ATOM     60  C   UNL A   1      46.376  28.071  36.209  1.00  0.00     0.059 A 
ATOM     61  C   UNL A   1      44.685  26.780  37.377  1.00  0.00     0.059 A 
ATOM     62  F   UNL A   1      42.415  27.170  36.941  1.00  0.00    -0.206 F 
ATOM     63  C   UNL A   1      46.023  27.071  37.115  1.00  0.00     0.060 A 
BRANCH  63  64
ATOM     64  S   UNL A   1      47.340  26.163  37.953  1.00  0.00     0.124 S 
ATOM     65  O   UNL A   1      47.194  24.833  37.368  1.00  0.00    -0.237 OA
ATOM     66  O   UNL A   1      48.532  26.904  37.552  1.00  0.00    -0.237 OA
ATOM     67  O   UNL A   1      46.984  26.270  39.364  1.00  0.00    -0.744 OA
ENDBRANCH  63  64
ENDBRANCH  42  56
BRANCH  43  68
ATOM     68  C   UNL A   1      36.610  33.222  31.001  1.00  0.00     0.058 A 
ATOM     69  C   UNL A   1      36.851  34.063  29.904  1.00  0.00     0.135 A 
ATOM     70  C   UNL A   1      35.278  33.053  31.413  1.00  0.00     0.135 A 
ATOM     71  F   UNL A   1      38.107  34.264  29.476  1.00  0.00    -0.206 F 
ATOM     72  C   UNL A   1      35.817  34.729  29.253  1.00  0.00     0.059 A 
ATOM     73  C   UNL A   1      34.225  33.685  30.760  1.00  0.00     0.059 A 
ATOM     74  F   UNL A   1      34.992  32.245  32.445  1.00  0.00    -0.206 F 
ATOM     75  C   UNL A   1      34.506  34.531  29.688  1.00  0.00     0.060 A 
BRANCH  75  76
ATOM     76  S   UNL A   1      33.166  35.364  28.809  1.00  0.00     0.124 S 
ATOM     77  O   UNL A   1      33.902  36.313  27.984  1.00  0.00    -0.237 OA
ATOM     78  O   UNL A   1      32.531  34.258  28.100  1.00  0.00    -0.237 OA
ATOM     79  O   UNL A   1      32.370  35.947  29.886  1.00  0.00    -0.744 OA
ENDBRANCH  75  76
ENDBRANCH  43  68
BRANCH  55  80
ATOM     80  C   UNL A   1      39.897  34.296  37.059  1.00  0.00     0.058 A 
ATOM     81  C   UNL A   1      40.527  35.547  36.953  1.00  0.00     0.135 A 
ATOM     82  C   UNL A   1      39.096  34.061  38.188  1.00  0.00     0.135 A 
ATOM     83  F   UNL A   1      41.308  35.823  35.896  1.00  0.00    -0.206 F 
ATOM     84  C   UNL A   1      40.400  36.510  37.948  1.00  0.00     0.059 A 
ATOM     85  C   UNL A   1      38.930  35.023  39.179  1.00  0.00     0.059 A 
ATOM     86  F   UNL A   1      38.459  32.888  38.335  1.00  0.00    -0.206 F 
ATOM     87  C   UNL A   1      39.601  36.238  39.060  1.00  0.00     0.060 A 
BRANCH  87  88
ATOM     88  S   UNL A   1      39.441  37.500  40.342  1.00  0.00     0.124 S 
ATOM     89  O   UNL A   1      38.797  36.748  41.414  1.00  0.00    -0.237 OA
ATOM     90  O   UNL A   1      40.830  37.881  40.579  1.00  0.00    -0.237 OA
ATOM     91  O   UNL A   1      38.616  38.524  39.709  1.00  0.00    -0.744 OA
ENDBRANCH  87  88
ENDBRANCH  55  80
ENDBRANCH  29  30
ENDBRANCH  21  24
ENDBRANCH  19  20
ENDBRANCH   1  19
TORSDOF 16
ENDMDL
MODEL 3
REMARK VINA RESULT:     -11.5      4.667     12.109
REMARK SMILES O=C(CCNC(=O)C1CCCCC1)NCCCNC(=O)c1ccc(-c2c3nc(c(-c4c(F)cc(S(=O)(=O)[O-])cc4F)c4ccc([nH]4)c(-c4c(F)cc(S(=O)(=O)[O-])cc4F)c4nc(c(-c5c(F)cc(S(=O)(=O)[O-])cc5F)c5ccc2[nH]5)C=C4)C=C3)cc1
REMARK SMILES IDX 16 1 15 2 14 3 1 4 2 5 3 7 4 8 5 9 6 10 7 12 8 13 9 14 13 15
REMARK SMILES IDX 10 16 12 17 11 18 17 19 18 20 19 21 20 23 21 24 22 25 86 26
REMARK SMILES IDX 23 27 85 28 24 29 25 30 26 31 79 32 27 33 84 34 78 35 80 36
REMARK SMILES IDX 28 37 83 38 77 39 76 40 29 42 63 43 42 44 62 45 43 46 46 47
REMARK SMILES IDX 61 48 81 49 44 50 45 51 60 53 82 54 47 55 30 56 31 57 40 58
REMARK SMILES IDX 32 59 33 60 39 61 41 62 34 63 35 64 36 65 37 66 38 67 64 68
REMARK SMILES IDX 65 69 74 70 66 71 67 72 73 73 75 74 68 75 69 76 70 77 71 78
REMARK SMILES IDX 72 79 48 80 49 81 58 82 50 83 51 84 57 85 59 86 52 87 53 88
REMARK SMILES IDX 54 89 55 90 56 91
REMARK H PARENT 14 6 5 11 18 22 80 41 46 52
REMARK Flexibility Score: inf
ROOT
ATOM      1  C   UNL A   1      40.706  20.246  26.703  1.00  0.00     0.042 C 
ENDROOT
BRANCH   1   2
ATOM      2  C   UNL A   1      41.695  19.265  26.087  1.00  0.00     0.117 C 
BRANCH   2   3
ATOM      3  N   UNL A   1      42.796  19.929  25.420  1.00  0.00    -0.356 N 
ATOM      4  O   UNL A   1      44.193  18.099  25.326  1.00  0.00    -0.275 OA
ATOM      5  C   UNL A   1      43.952  19.273  25.062  1.00  0.00     0.221 C 
ATOM      6  H   UNL A   1      42.716  20.888  25.214  1.00  0.00     0.163 HD
BRANCH   5   7
ATOM      7  C   UNL A   1      44.909  20.124  24.261  1.00  0.00     0.121 C 
BRANCH   7   8
ATOM      8  C   UNL A   1      45.902  20.826  25.184  1.00  0.00     0.125 C 
BRANCH   8   9
ATOM      9  N   UNL A   1      45.895  22.268  24.988  1.00  0.00    -0.355 N 
ATOM     10  C   UNL A   1      45.285  23.257  25.701  1.00  0.00     0.223 C 
ATOM     11  H   UNL A   1      46.416  22.581  24.213  1.00  0.00     0.163 HD
ATOM     12  O   UNL A   1      45.348  24.398  25.247  1.00  0.00    -0.275 OA
BRANCH  10  13
ATOM     13  C   UNL A   1      44.600  22.930  27.027  1.00  0.00     0.078 C 
ATOM     14  C   UNL A   1      45.369  23.567  28.199  1.00  0.00     0.013 C 
ATOM     15  C   UNL A   1      43.138  23.388  27.070  1.00  0.00     0.013 C 
ATOM     16  C   UNL A   1      44.728  23.236  29.545  1.00  0.00     0.001 C 
ATOM     17  C   UNL A   1      42.487  23.025  28.403  1.00  0.00     0.001 C 
ATOM     18  C   UNL A   1      43.252  23.617  29.581  1.00  0.00     0.000 C 
ENDBRANCH  10  13
ENDBRANCH   8   9
ENDBRANCH   7   8
ENDBRANCH   5   7
ENDBRANCH   2   3
ENDBRANCH   1   2
BRANCH   1  19
ATOM     19  C   UNL A   1      40.508  21.539  25.916  1.00  0.00     0.118 C 
BRANCH  19  20
ATOM     20  N   UNL A   1      39.112  21.920  25.774  1.00  0.00    -0.352 N 
ATOM     21  C   UNL A   1      38.462  23.063  26.171  1.00  0.00     0.251 C 
ATOM     22  H   UNL A   1      38.543  21.255  25.323  1.00  0.00     0.163 HD
ATOM     23  O   UNL A   1      37.236  23.114  26.074  1.00  0.00    -0.269 OA
BRANCH  21  24
ATOM     24  C   UNL A   1      39.206  24.211  26.740  1.00  0.00     0.039 A 
ATOM     25  C   UNL A   1      39.930  25.032  25.871  1.00  0.00     0.014 A 
ATOM     26  C   UNL A   1      39.222  24.475  28.113  1.00  0.00     0.014 A 
ATOM     27  C   UNL A   1      40.616  26.143  26.368  1.00  0.00     0.010 A 
ATOM     28  C   UNL A   1      39.838  25.631  28.596  1.00  0.00     0.010 A 
ATOM     29  C   UNL A   1      40.547  26.476  27.731  1.00  0.00    -0.014 A 
BRANCH  29  30
ATOM     30  C   UNL A   1      41.208  27.707  28.246  1.00  0.00     0.031 A 
ATOM     31  C   UNL A   1      42.707  27.855  28.197  1.00  0.00     0.074 A 
ATOM     32  C   UNL A   1      40.454  28.686  28.788  1.00  0.00     0.049 A 
ATOM     33  N   UNL A   1      43.449  28.860  28.589  1.00  0.00    -0.248 NA
ATOM     34  C   UNL A   1      43.473  26.721  27.661  1.00  0.00     0.031 C 
ATOM     35  C   UNL A   1      38.999  28.640  28.951  1.00  0.00     0.029 A 
ATOM     36  N   UNL A   1      40.804  29.911  29.301  1.00  0.00    -0.354 N 
ATOM     37  C   UNL A   1      44.764  28.479  28.352  1.00  0.00     0.074 A 
ATOM     38  C   UNL A   1      44.723  27.126  27.839  1.00  0.00     0.031 C 
ATOM     39  C   UNL A   1      38.579  29.796  29.487  1.00  0.00     0.029 A 
ATOM     40  C   UNL A   1      39.733  30.652  29.742  1.00  0.00     0.049 A 
ATOM     41  H   UNL A   1      41.734  30.228  29.348  1.00  0.00     0.167 HD
ATOM     42  C   UNL A   1      45.902  29.196  28.520  1.00  0.00     0.037 A 
ATOM     43  C   UNL A   1      39.682  31.882  30.290  1.00  0.00     0.037 A 
ATOM     44  C   UNL A   1      45.938  30.550  29.014  1.00  0.00     0.049 A 
ATOM     45  C   UNL A   1      40.957  32.662  30.460  1.00  0.00     0.074 A 
ATOM     46  C   UNL A   1      47.034  31.380  29.168  1.00  0.00     0.029 A 
ATOM     47  N   UNL A   1      44.831  31.270  29.440  1.00  0.00    -0.354 N 
ATOM     48  N   UNL A   1      42.186  32.310  30.162  1.00  0.00    -0.248 NA
ATOM     49  C   UNL A   1      40.839  34.010  31.031  1.00  0.00     0.031 C 
ATOM     50  C   UNL A   1      46.598  32.584  29.732  1.00  0.00     0.029 A 
ATOM     51  C   UNL A   1      45.220  32.526  29.877  1.00  0.00     0.049 A 
ATOM     52  H   UNL A   1      43.904  30.937  29.433  1.00  0.00     0.167 HD
ATOM     53  C   UNL A   1      42.983  33.405  30.481  1.00  0.00     0.074 A 
ATOM     54  C   UNL A   1      42.093  34.435  30.980  1.00  0.00     0.031 C 
ATOM     55  C   UNL A   1      44.327  33.544  30.371  1.00  0.00     0.037 A 
BRANCH  42  56
ATOM     56  C   UNL A   1      47.207  28.535  28.161  1.00  0.00     0.058 A 
ATOM     57  C   UNL A   1      47.931  27.775  29.095  1.00  0.00     0.135 A 
ATOM     58  C   UNL A   1      47.721  28.624  26.856  1.00  0.00     0.135 A 
ATOM     59  F   UNL A   1      47.496  27.666  30.360  1.00  0.00    -0.206 F 
ATOM     60  C   UNL A   1      49.130  27.155  28.758  1.00  0.00     0.059 A 
ATOM     61  C   UNL A   1      48.902  27.986  26.489  1.00  0.00     0.059 A 
ATOM     62  F   UNL A   1      47.071  29.335  25.922  1.00  0.00    -0.206 F 
ATOM     63  C   UNL A   1      49.608  27.265  27.452  1.00  0.00     0.060 A 
BRANCH  63  64
ATOM     64  S   UNL A   1      51.160  26.446  27.030  1.00  0.00     0.124 S 
ATOM     65  O   UNL A   1      50.927  25.099  27.543  1.00  0.00    -0.237 OA
ATOM     66  O   UNL A   1      51.195  26.574  25.577  1.00  0.00    -0.237 OA
ATOM     67  O   UNL A   1      52.163  27.225  27.750  1.00  0.00    -0.744 OA
ENDBRANCH  63  64
ENDBRANCH  42  56
BRANCH  43  68
ATOM     68  C   UNL A   1      38.372  32.465  30.688  1.00  0.00     0.058 A 
ATOM     69  C   UNL A   1      37.830  32.228  31.960  1.00  0.00     0.135 A 
ATOM     70  C   UNL A   1      37.639  33.277  29.808  1.00  0.00     0.135 A 
ATOM     71  F   UNL A   1      38.488  31.453  32.836  1.00  0.00    -0.206 F 
ATOM     72  C   UNL A   1      36.599  32.756  32.340  1.00  0.00     0.059 A 
ATOM     73  C   UNL A   1      36.420  33.840  30.175  1.00  0.00     0.059 A 
ATOM     74  F   UNL A   1      38.120  33.549  28.585  1.00  0.00    -0.206 F 
ATOM     75  C   UNL A   1      35.903  33.564  31.440  1.00  0.00     0.060 A 
BRANCH  75  76
ATOM     76  S   UNL A   1      34.329  34.281  31.957  1.00  0.00     0.124 S 
ATOM     77  O   UNL A   1      33.618  34.376  30.689  1.00  0.00    -0.237 OA
ATOM     78  O   UNL A   1      33.831  33.280  32.896  1.00  0.00    -0.237 OA
ATOM     79  O   UNL A   1      34.721  35.553  32.559  1.00  0.00    -0.744 OA
ENDBRANCH  75  76
ENDBRANCH  43  68
BRANCH  55  80
ATOM     80  C   UNL A   1      44.918  34.873  30.765  1.00  0.00     0.058 A 
ATOM     81  C   UNL A   1      45.052  35.927  29.848  1.00  0.00     0.135 A 
ATOM     82  C   UNL A   1      45.335  35.099  32.087  1.00  0.00     0.135 A 
ATOM     83  F   UNL A   1      44.673  35.764  28.570  1.00  0.00    -0.206 F 
ATOM     84  C   UNL A   1      45.614  37.144  30.218  1.00  0.00     0.059 A 
ATOM     85  C   UNL A   1      45.870  36.320  32.486  1.00  0.00     0.059 A 
ATOM     86  F   UNL A   1      45.218  34.131  33.010  1.00  0.00    -0.206 F 
ATOM     87  C   UNL A   1      46.024  37.331  31.539  1.00  0.00     0.060 A 
BRANCH  87  88
ATOM     88  S   UNL A   1      46.748  38.918  32.006  1.00  0.00     0.124 S 
ATOM     89  O   UNL A   1      45.724  39.456  32.896  1.00  0.00    -0.237 OA
ATOM     90  O   UNL A   1      47.997  38.515  32.646  1.00  0.00    -0.237 OA
ATOM     91  O   UNL A   1      46.899  39.611  30.730  1.00  0.00    -0.744 OA
ENDBRANCH  87  88
ENDBRANCH  55  80
ENDBRANCH  29  30
ENDBRANCH  21  24
ENDBRANCH  19  20
ENDBRANCH   1  19
TORSDOF 16
ENDMDL
