MODEL 1
REMARK VINA RESULT:     -12.4      0.000      0.000
REMARK SMILES CCCc1cc2c(cc1Cl)C=C(C(=O)NCCCNC(=O)c1ccc(-c3c4nc(c(-c5c(F)cc(S(=O)(=O)[O-])cc5F)c5ccc([nH]5)c(-c5c(F)cc(S(=O)(=O)[O-])cc5F)c5nc(c(-c6c(F)cc(S(=O)(=O)[O-])cc6F)c6ccc3[nH]6)C=C5)C=C4)cc1)[C@H](C(F)(F)F)O2
REMARK SMILES IDX 17 1 16 2 15 3 13 4 14 5 12 7 4 8 5 9 9 10 6 11 8 12 10 13
REMARK SMILES IDX 7 14 93 15 11 16 88 17 3 18 2 19 1 20 89 21 90 22 91 23
REMARK SMILES IDX 92 24 18 25 19 26 20 27 21 29 22 30 23 31 87 32 24 33 86 34
REMARK SMILES IDX 25 35 26 36 27 37 80 38 28 39 85 40 79 41 81 42 29 43 84 44
REMARK SMILES IDX 78 45 77 46 30 48 64 49 43 50 63 51 44 52 47 53 62 54 82 55
REMARK SMILES IDX 45 56 46 57 61 59 83 60 48 61 31 62 32 63 41 64 33 65 34 66
REMARK SMILES IDX 40 67 42 68 35 69 36 70 37 71 38 72 39 73 65 74 66 75 75 76
REMARK SMILES IDX 67 77 68 78 74 79 76 80 69 81 70 82 71 83 72 84 73 85 49 86
REMARK SMILES IDX 50 87 59 88 51 89 52 90 58 91 60 92 53 93 54 94 55 95 56 96
REMARK SMILES IDX 57 97
REMARK H PARENT 15 6 19 28 81 47 47 58
REMARK Flexibility Score: inf
ROOT
ATOM      1  C   UNL A   1      37.915  23.898  26.134  1.00  0.00     0.042 C 
ENDROOT
BRANCH   1   2
ATOM      2  C   UNL A   1      37.114  22.733  25.573  1.00  0.00     0.118 C 
BRANCH   2   3
ATOM      3  N   UNL A   1      36.114  22.262  26.516  1.00  0.00    -0.352 N 
ATOM      4  C   UNL A   1      34.780  22.375  26.693  1.00  0.00     0.251 C 
ATOM      5  O   UNL A   1      34.335  21.749  27.662  1.00  0.00    -0.270 OA
ATOM      6  H   UNL A   1      36.521  21.709  27.221  1.00  0.00     0.163 HD
BRANCH   4   7
ATOM      7  C   UNL A   1      33.850  23.163  25.835  1.00  0.00     0.067 C 
ATOM      8  C   UNL A   1      31.665  26.914  23.253  1.00  0.00    -0.026 A 
ATOM      9  C   UNL A   1      31.261  25.624  23.642  1.00  0.00     0.052 A 
ATOM     10  C   UNL A   1      32.928  27.366  23.672  1.00  0.00     0.045 A 
ATOM     11  C   UNL A   1      32.098  24.820  24.414  1.00  0.00     0.128 A 
ATOM     12  C   UNL A   1      33.725  26.586  24.517  1.00  0.00     0.032 A 
ATOM     13  Cl  UNL A   1      33.605  28.862  23.134  1.00  0.00    -0.084 Cl
ATOM     14  C   UNL A   1      33.309  25.311  24.891  1.00  0.00     0.019 A 
ATOM     15  O   UNL A   1      31.672  23.551  24.689  1.00  0.00    -0.475 OA
ATOM     16  C   UNL A   1      34.117  24.480  25.773  1.00  0.00     0.025 C 
ATOM     17  C   UNL A   1      32.734  22.596  24.997  1.00  0.00     0.314 C 
BRANCH   8  18
ATOM     18  C   UNL A   1      30.728  27.728  22.389  1.00  0.00     0.037 C 
BRANCH  18  19
ATOM     19  C   UNL A   1      29.596  28.425  23.154  1.00  0.00     0.001 C 
ATOM     20  C   UNL A   1      29.897  29.865  23.543  1.00  0.00     0.004 C 
ENDBRANCH  18  19
ENDBRANCH   8  18
BRANCH  17  21
ATOM     21  C   UNL A   1      33.237  21.894  23.719  1.00  0.00     0.429 C 
ATOM     22  F   UNL A   1      32.471  22.174  22.639  1.00  0.00    -0.167 F 
ATOM     23  F   UNL A   1      34.496  22.303  23.424  1.00  0.00    -0.167 F 
ATOM     24  F   UNL A   1      33.269  20.547  23.838  1.00  0.00    -0.167 F 
ENDBRANCH  17  21
ENDBRANCH   4   7
ENDBRANCH   2   3
ENDBRANCH   1   2
BRANCH   1  25
ATOM     25  C   UNL A   1      39.169  23.447  26.872  1.00  0.00     0.118 C 
BRANCH  25  26
ATOM     26  N   UNL A   1      40.388  23.880  26.195  1.00  0.00    -0.352 N 
ATOM     27  C   UNL A   1      41.083  25.061  26.285  1.00  0.00     0.251 C 
ATOM     28  H   UNL A   1      40.773  23.220  25.575  1.00  0.00     0.163 HD
ATOM     29  O   UNL A   1      41.936  25.322  25.435  1.00  0.00    -0.269 OA
BRANCH  27  30
ATOM     30  C   UNL A   1      40.805  26.016  27.378  1.00  0.00     0.039 A 
ATOM     31  C   UNL A   1      41.380  27.286  27.372  1.00  0.00     0.014 A 
ATOM     32  C   UNL A   1      39.943  25.650  28.416  1.00  0.00     0.014 A 
ATOM     33  C   UNL A   1      41.261  28.105  28.486  1.00  0.00     0.010 A 
ATOM     34  C   UNL A   1      39.722  26.530  29.481  1.00  0.00     0.010 A 
ATOM     35  C   UNL A   1      40.418  27.747  29.549  1.00  0.00    -0.014 A 
BRANCH  35  36
ATOM     36  C   UNL A   1      40.270  28.680  30.697  1.00  0.00     0.031 A 
ATOM     37  C   UNL A   1      41.207  28.617  31.874  1.00  0.00     0.074 A 
ATOM     38  C   UNL A   1      39.318  29.633  30.642  1.00  0.00     0.049 A 
ATOM     39  N   UNL A   1      41.240  29.375  32.940  1.00  0.00    -0.248 NA
ATOM     40  C   UNL A   1      42.232  27.562  31.859  1.00  0.00     0.031 C 
ATOM     41  C   UNL A   1      38.355  29.796  29.549  1.00  0.00     0.029 A 
ATOM     42  N   UNL A   1      39.020  30.662  31.498  1.00  0.00    -0.354 N 
ATOM     43  C   UNL A   1      42.271  28.880  33.729  1.00  0.00     0.074 A 
ATOM     44  C   UNL A   1      42.816  27.732  33.038  1.00  0.00     0.031 C 
ATOM     45  C   UNL A   1      37.626  30.899  29.764  1.00  0.00     0.029 A 
ATOM     46  C   UNL A   1      38.008  31.476  31.047  1.00  0.00     0.049 A 
ATOM     47  H   UNL A   1      39.485  30.803  32.354  1.00  0.00     0.167 HD
ATOM     48  C   UNL A   1      42.731  29.350  34.915  1.00  0.00     0.037 A 
ATOM     49  C   UNL A   1      37.436  32.560  31.606  1.00  0.00     0.037 A 
ATOM     50  C   UNL A   1      42.190  30.505  35.586  1.00  0.00     0.049 A 
ATOM     51  C   UNL A   1      37.932  33.036  32.939  1.00  0.00     0.074 A 
ATOM     52  C   UNL A   1      42.599  31.076  36.778  1.00  0.00     0.029 A 
ATOM     53  N   UNL A   1      41.123  31.265  35.126  1.00  0.00    -0.354 N 
ATOM     54  N   UNL A   1      38.914  32.561  33.667  1.00  0.00    -0.248 NA
ATOM     55  C   UNL A   1      37.238  34.184  33.535  1.00  0.00     0.031 C 
ATOM     56  C   UNL A   1      41.746  32.146  37.066  1.00  0.00     0.029 A 
ATOM     57  C   UNL A   1      40.840  32.281  36.026  1.00  0.00     0.049 A 
ATOM     58  H   UNL A   1      40.638  31.106  34.285  1.00  0.00     0.167 HD
ATOM     59  C   UNL A   1      38.963  33.356  34.805  1.00  0.00     0.074 A 
ATOM     60  C   UNL A   1      37.922  34.354  34.658  1.00  0.00     0.031 C 
ATOM     61  C   UNL A   1      39.794  33.264  35.872  1.00  0.00     0.037 A 
BRANCH  48  62
ATOM     62  C   UNL A   1      43.858  28.600  35.575  1.00  0.00     0.058 A 
ATOM     63  C   UNL A   1      43.623  27.561  36.490  1.00  0.00     0.135 A 
ATOM     64  C   UNL A   1      45.195  28.910  35.270  1.00  0.00     0.135 A 
ATOM     65  F   UNL A   1      42.367  27.229  36.829  1.00  0.00    -0.206 F 
ATOM     66  C   UNL A   1      44.671  26.883  37.108  1.00  0.00     0.059 A 
ATOM     67  C   UNL A   1      46.257  28.226  35.853  1.00  0.00     0.059 A 
ATOM     68  F   UNL A   1      45.480  29.891  34.400  1.00  0.00    -0.206 F 
ATOM     69  C   UNL A   1      45.986  27.226  36.785  1.00  0.00     0.060 A 
BRANCH  69  70
ATOM     70  S   UNL A   1      47.330  26.352  37.615  1.00  0.00     0.124 S 
ATOM     71  O   UNL A   1      48.125  27.464  38.129  1.00  0.00    -0.237 OA
ATOM     72  O   UNL A   1      46.620  25.566  38.617  1.00  0.00    -0.237 OA
ATOM     73  O   UNL A   1      47.951  25.583  36.542  1.00  0.00    -0.744 OA
ENDBRANCH  69  70
ENDBRANCH  48  62
BRANCH  49  74
ATOM     74  C   UNL A   1      36.341  33.255  30.880  1.00  0.00     0.058 A 
ATOM     75  C   UNL A   1      35.020  33.201  31.345  1.00  0.00     0.135 A 
ATOM     76  C   UNL A   1      36.610  34.064  29.763  1.00  0.00     0.135 A 
ATOM     77  F   UNL A   1      34.712  32.436  32.404  1.00  0.00    -0.206 F 
ATOM     78  C   UNL A   1      34.006  33.937  30.741  1.00  0.00     0.059 A 
ATOM     79  C   UNL A   1      35.619  34.830  29.159  1.00  0.00     0.059 A 
ATOM     80  F   UNL A   1      37.862  34.161  29.289  1.00  0.00    -0.206 F 
ATOM     81  C   UNL A   1      34.319  34.762  29.658  1.00  0.00     0.060 A 
BRANCH  81  82
ATOM     82  S   UNL A   1      33.014  35.792  28.952  1.00  0.00     0.124 S 
ATOM     83  O   UNL A   1      32.338  34.848  28.069  1.00  0.00    -0.237 OA
ATOM     84  O   UNL A   1      32.274  36.200  30.141  1.00  0.00    -0.237 OA
ATOM     85  O   UNL A   1      33.753  36.861  28.286  1.00  0.00    -0.744 OA
ENDBRANCH  81  82
ENDBRANCH  49  74
BRANCH  61  86
ATOM     86  C   UNL A   1      39.625  34.273  36.972  1.00  0.00     0.058 A 
ATOM     87  C   UNL A   1      38.919  33.967  38.146  1.00  0.00     0.135 A 
ATOM     88  C   UNL A   1      40.246  35.531  36.888  1.00  0.00     0.135 A 
ATOM     89  F   UNL A   1      38.299  32.785  38.274  1.00  0.00    -0.206 F 
ATOM     90  C   UNL A   1      38.828  34.877  39.195  1.00  0.00     0.059 A 
ATOM     91  C   UNL A   1      40.191  36.444  37.935  1.00  0.00     0.059 A 
ATOM     92  F   UNL A   1      40.939  35.870  35.789  1.00  0.00    -0.206 F 
ATOM     93  C   UNL A   1      39.475  36.109  39.083  1.00  0.00     0.060 A 
BRANCH  93  94
ATOM     94  S   UNL A   1      39.395  37.253  40.478  1.00  0.00     0.124 S 
ATOM     95  O   UNL A   1      38.617  38.352  39.913  1.00  0.00    -0.237 OA
ATOM     96  O   UNL A   1      38.718  36.456  41.494  1.00  0.00    -0.237 OA
ATOM     97  O   UNL A   1      40.796  37.554  40.753  1.00  0.00    -0.744 OA
ENDBRANCH  93  94
ENDBRANCH  61  86
ENDBRANCH  35  36
ENDBRANCH  27  30
ENDBRANCH  25  26
ENDBRANCH   1  25
TORSDOF 16
ENDMDL
MODEL 2
REMARK VINA RESULT:     -12.4      4.788      7.120
REMARK SMILES CCCc1cc2c(cc1Cl)C=C(C(=O)NCCCNC(=O)c1ccc(-c3c4nc(c(-c5c(F)cc(S(=O)(=O)[O-])cc5F)c5ccc([nH]5)c(-c5c(F)cc(S(=O)(=O)[O-])cc5F)c5nc(c(-c6c(F)cc(S(=O)(=O)[O-])cc6F)c6ccc3[nH]6)C=C5)C=C4)cc1)[C@H](C(F)(F)F)O2
REMARK SMILES IDX 17 1 16 2 15 3 13 4 14 5 12 7 4 8 5 9 9 10 6 11 8 12 10 13
REMARK SMILES IDX 7 14 93 15 11 16 88 17 3 18 2 19 1 20 89 21 90 22 91 23
REMARK SMILES IDX 92 24 18 25 19 26 20 27 21 29 22 30 23 31 87 32 24 33 86 34
REMARK SMILES IDX 25 35 26 36 27 37 80 38 28 39 85 40 79 41 81 42 29 43 84 44
REMARK SMILES IDX 78 45 77 46 30 48 64 49 43 50 63 51 44 52 47 53 62 54 82 55
REMARK SMILES IDX 45 56 46 57 61 59 83 60 48 61 31 62 32 63 41 64 33 65 34 66
REMARK SMILES IDX 40 67 42 68 35 69 36 70 37 71 38 72 39 73 65 74 66 75 75 76
REMARK SMILES IDX 67 77 68 78 74 79 76 80 69 81 70 82 71 83 72 84 73 85 49 86
REMARK SMILES IDX 50 87 59 88 51 89 52 90 58 91 60 92 53 93 54 94 55 95 56 96
REMARK SMILES IDX 57 97
REMARK H PARENT 15 6 19 28 81 47 47 58
REMARK Flexibility Score: inf
ROOT
ATOM      1  C   UNL A   1      41.282  21.224  25.740  1.00  0.00     0.042 C 
ENDROOT
BRANCH   1   2
ATOM      2  C   UNL A   1      42.358  22.263  26.023  1.00  0.00     0.118 C 
BRANCH   2   3
ATOM      3  N   UNL A   1      43.303  22.372  24.924  1.00  0.00    -0.352 N 
ATOM      4  C   UNL A   1      44.262  23.231  24.517  1.00  0.00     0.251 C 
ATOM      5  O   UNL A   1      44.861  22.885  23.492  1.00  0.00    -0.270 OA
ATOM      6  H   UNL A   1      43.222  21.610  24.307  1.00  0.00     0.163 HD
BRANCH   4   7
ATOM      7  C   UNL A   1      44.633  24.508  25.191  1.00  0.00     0.067 C 
ATOM      8  C   UNL A   1      44.540  29.224  26.996  1.00  0.00    -0.026 A 
ATOM      9  C   UNL A   1      45.547  28.256  26.828  1.00  0.00     0.052 A 
ATOM     10  C   UNL A   1      43.244  28.916  26.546  1.00  0.00     0.045 A 
ATOM     11  C   UNL A   1      45.259  27.026  26.238  1.00  0.00     0.128 A 
ATOM     12  C   UNL A   1      42.984  27.714  25.878  1.00  0.00     0.032 A 
ATOM     13  Cl  UNL A   1      41.890  29.950  26.833  1.00  0.00    -0.084 Cl
ATOM     14  C   UNL A   1      43.994  26.767  25.722  1.00  0.00     0.019 A 
ATOM     15  O   UNL A   1      46.268  26.107  26.178  1.00  0.00    -0.475 OA
ATOM     16  C   UNL A   1      43.751  25.511  25.028  1.00  0.00     0.025 C 
ATOM     17  C   UNL A   1      45.831  24.716  26.080  1.00  0.00     0.314 C 
BRANCH   8  18
ATOM     18  C   UNL A   1      44.903  30.527  27.672  1.00  0.00     0.037 C 
BRANCH  18  19
ATOM     19  C   UNL A   1      45.483  31.594  26.734  1.00  0.00     0.001 C 
ATOM     20  C   UNL A   1      44.444  32.523  26.125  1.00  0.00     0.004 C 
ENDBRANCH  18  19
ENDBRANCH   8  18
BRANCH  17  21
ATOM     21  C   UNL A   1      45.663  24.086  27.477  1.00  0.00     0.429 C 
ATOM     22  F   UNL A   1      46.057  22.791  27.511  1.00  0.00    -0.167 F 
ATOM     23  F   UNL A   1      46.421  24.750  28.385  1.00  0.00    -0.167 F 
ATOM     24  F   UNL A   1      44.386  24.119  27.918  1.00  0.00    -0.167 F 
ENDBRANCH  17  21
ENDBRANCH   4   7
ENDBRANCH   2   3
ENDBRANCH   1   2
BRANCH   1  25
ATOM     25  C   UNL A   1      40.026  21.438  26.576  1.00  0.00     0.118 C 
BRANCH  25  26
ATOM     26  N   UNL A   1      38.945  22.033  25.796  1.00  0.00    -0.352 N 
ATOM     27  C   UNL A   1      38.341  23.261  25.909  1.00  0.00     0.251 C 
ATOM     28  H   UNL A   1      38.594  21.464  25.074  1.00  0.00     0.163 HD
ATOM     29  O   UNL A   1      37.276  23.462  25.322  1.00  0.00    -0.269 OA
BRANCH  27  30
ATOM     30  C   UNL A   1      38.948  24.326  26.733  1.00  0.00     0.039 A 
ATOM     31  C   UNL A   1      38.629  24.443  28.086  1.00  0.00     0.014 A 
ATOM     32  C   UNL A   1      39.864  25.212  26.158  1.00  0.00     0.014 A 
ATOM     33  C   UNL A   1      39.060  25.549  28.805  1.00  0.00     0.010 A 
ATOM     34  C   UNL A   1      40.397  26.256  26.921  1.00  0.00     0.010 A 
ATOM     35  C   UNL A   1      39.962  26.463  28.239  1.00  0.00    -0.014 A 
BRANCH  35  36
ATOM     36  C   UNL A   1      40.447  27.601  29.063  1.00  0.00     0.031 A 
ATOM     37  C   UNL A   1      41.860  27.638  29.579  1.00  0.00     0.074 A 
ATOM     38  C   UNL A   1      39.616  28.638  29.293  1.00  0.00     0.049 A 
ATOM     39  N   UNL A   1      42.455  28.568  30.282  1.00  0.00    -0.248 NA
ATOM     40  C   UNL A   1      42.715  26.479  29.277  1.00  0.00     0.031 C 
ATOM     41  C   UNL A   1      38.225  28.717  28.838  1.00  0.00     0.029 A 
ATOM     42  N   UNL A   1      39.822  29.834  29.930  1.00  0.00    -0.354 N 
ATOM     43  C   UNL A   1      43.742  28.102  30.522  1.00  0.00     0.074 A 
ATOM     44  C   UNL A   1      43.832  26.789  29.923  1.00  0.00     0.031 C 
ATOM     45  C   UNL A   1      37.728  29.921  29.146  1.00  0.00     0.029 A 
ATOM     46  C   UNL A   1      38.731  30.672  29.891  1.00  0.00     0.049 A 
ATOM     47  H   UNL A   1      40.668  30.071  30.375  1.00  0.00     0.167 HD
ATOM     48  C   UNL A   1      44.759  28.719  31.171  1.00  0.00     0.037 A 
ATOM     49  C   UNL A   1      38.548  31.901  30.408  1.00  0.00     0.037 A 
ATOM     50  C   UNL A   1      44.662  30.036  31.750  1.00  0.00     0.049 A 
ATOM     51  C   UNL A   1      39.673  32.548  31.160  1.00  0.00     0.074 A 
ATOM     52  C   UNL A   1      45.641  30.760  32.408  1.00  0.00     0.029 A 
ATOM     53  N   UNL A   1      43.519  30.825  31.744  1.00  0.00    -0.354 N 
ATOM     54  N   UNL A   1      40.887  32.096  31.370  1.00  0.00    -0.248 NA
ATOM     55  C   UNL A   1      39.406  33.862  31.757  1.00  0.00     0.031 C 
ATOM     56  C   UNL A   1      45.076  31.961  32.847  1.00  0.00     0.029 A 
ATOM     57  C   UNL A   1      43.760  32.015  32.413  1.00  0.00     0.049 A 
ATOM     58  H   UNL A   1      42.664  30.576  31.326  1.00  0.00     0.167 HD
ATOM     59  C   UNL A   1      41.532  33.073  32.117  1.00  0.00     0.074 A 
ATOM     60  C   UNL A   1      40.579  34.149  32.305  1.00  0.00     0.031 C 
ATOM     61  C   UNL A   1      42.799  33.075  32.601  1.00  0.00     0.037 A 
BRANCH  48  62
ATOM     62  C   UNL A   1      46.058  27.969  31.311  1.00  0.00     0.058 A 
ATOM     63  C   UNL A   1      46.239  26.973  32.285  1.00  0.00     0.135 A 
ATOM     64  C   UNL A   1      47.131  28.233  30.442  1.00  0.00     0.135 A 
ATOM     65  F   UNL A   1      45.253  26.687  33.150  1.00  0.00    -0.206 F 
ATOM     66  C   UNL A   1      47.447  26.295  32.418  1.00  0.00     0.059 A 
ATOM     67  C   UNL A   1      48.338  27.547  30.538  1.00  0.00     0.059 A 
ATOM     68  F   UNL A   1      47.014  29.171  29.490  1.00  0.00    -0.206 F 
ATOM     69  C   UNL A   1      48.493  26.593  31.541  1.00  0.00     0.060 A 
BRANCH  69  70
ATOM     70  S   UNL A   1      50.061  25.720  31.745  1.00  0.00     0.124 S 
ATOM     71  O   UNL A   1      49.738  24.795  32.829  1.00  0.00    -0.237 OA
ATOM     72  O   UNL A   1      50.253  25.113  30.433  1.00  0.00    -0.237 OA
ATOM     73  O   UNL A   1      51.001  26.781  32.089  1.00  0.00    -0.744 OA
ENDBRANCH  69  70
ENDBRANCH  48  62
BRANCH  49  74
ATOM     74  C   UNL A   1      37.242  32.583  30.210  1.00  0.00     0.058 A 
ATOM     75  C   UNL A   1      36.220  32.475  31.163  1.00  0.00     0.135 A 
ATOM     76  C   UNL A   1      37.026  33.430  29.110  1.00  0.00     0.135 A 
ATOM     77  F   UNL A   1      36.377  31.672  32.227  1.00  0.00    -0.206 F 
ATOM     78  C   UNL A   1      35.036  33.196  31.044  1.00  0.00     0.059 A 
ATOM     79  C   UNL A   1      35.863  34.182  28.983  1.00  0.00     0.059 A 
ATOM     80  F   UNL A   1      37.980  33.578  28.178  1.00  0.00    -0.206 F 
ATOM     81  C   UNL A   1      34.874  34.060  29.958  1.00  0.00     0.060 A 
BRANCH  81  82
ATOM     82  S   UNL A   1      33.378  35.068  29.874  1.00  0.00     0.124 S 
ATOM     83  O   UNL A   1      33.908  36.345  29.409  1.00  0.00    -0.237 OA
ATOM     84  O   UNL A   1      32.566  34.326  28.917  1.00  0.00    -0.237 OA
ATOM     85  O   UNL A   1      32.884  35.053  31.248  1.00  0.00    -0.744 OA
ENDBRANCH  81  82
ENDBRANCH  49  74
BRANCH  61  86
ATOM     86  C   UNL A   1      43.242  34.281  33.380  1.00  0.00     0.058 A 
ATOM     87  C   UNL A   1      43.610  35.474  32.739  1.00  0.00     0.135 A 
ATOM     88  C   UNL A   1      43.219  34.270  34.785  1.00  0.00     0.135 A 
ATOM     89  F   UNL A   1      43.659  35.536  31.400  1.00  0.00    -0.206 F 
ATOM     90  C   UNL A   1      43.947  36.613  33.465  1.00  0.00     0.059 A 
ATOM     91  C   UNL A   1      43.525  35.404  35.529  1.00  0.00     0.059 A 
ATOM     92  F   UNL A   1      42.868  33.155  35.446  1.00  0.00    -0.206 F 
ATOM     93  C   UNL A   1      43.893  36.570  34.859  1.00  0.00     0.060 A 
BRANCH  93  94
ATOM     94  S   UNL A   1      44.277  38.073  35.782  1.00  0.00     0.124 S 
ATOM     95  O   UNL A   1      43.582  37.832  37.043  1.00  0.00    -0.237 OA
ATOM     96  O   UNL A   1      45.734  38.034  35.846  1.00  0.00    -0.237 OA
ATOM     97  O   UNL A   1      43.718  39.135  34.952  1.00  0.00    -0.744 OA
ENDBRANCH  93  94
ENDBRANCH  61  86
ENDBRANCH  35  36
ENDBRANCH  27  30
ENDBRANCH  25  26
ENDBRANCH   1  25
TORSDOF 16
ENDMDL
MODEL 3
REMARK VINA RESULT:     -12.3      5.335     12.163
REMARK SMILES CCCc1cc2c(cc1Cl)C=C(C(=O)NCCCNC(=O)c1ccc(-c3c4nc(c(-c5c(F)cc(S(=O)(=O)[O-])cc5F)c5ccc([nH]5)c(-c5c(F)cc(S(=O)(=O)[O-])cc5F)c5nc(c(-c6c(F)cc(S(=O)(=O)[O-])cc6F)c6ccc3[nH]6)C=C5)C=C4)cc1)[C@H](C(F)(F)F)O2
REMARK SMILES IDX 17 1 16 2 15 3 13 4 14 5 12 7 4 8 5 9 9 10 6 11 8 12 10 13
REMARK SMILES IDX 7 14 93 15 11 16 88 17 3 18 2 19 1 20 89 21 90 22 91 23
REMARK SMILES IDX 92 24 18 25 19 26 20 27 21 29 22 30 23 31 87 32 24 33 86 34
REMARK SMILES IDX 25 35 26 36 27 37 80 38 28 39 85 40 79 41 81 42 29 43 84 44
REMARK SMILES IDX 78 45 77 46 30 48 64 49 43 50 63 51 44 52 47 53 62 54 82 55
REMARK SMILES IDX 45 56 46 57 61 59 83 60 48 61 31 62 32 63 41 64 33 65 34 66
REMARK SMILES IDX 40 67 42 68 35 69 36 70 37 71 38 72 39 73 65 74 66 75 75 76
REMARK SMILES IDX 67 77 68 78 74 79 76 80 69 81 70 82 71 83 72 84 73 85 49 86
REMARK SMILES IDX 50 87 59 88 51 89 52 90 58 91 60 92 53 93 54 94 55 95 56 96
REMARK SMILES IDX 57 97
REMARK H PARENT 15 6 19 28 81 47 47 58
REMARK Flexibility Score: inf
ROOT
ATOM      1  C   UNL A   1      34.401  33.247  29.501  1.00  0.00     0.042 C 
ENDROOT
BRANCH   1   2
ATOM      2  C   UNL A   1      34.654  32.254  30.625  1.00  0.00     0.118 C 
BRANCH   2   3
ATOM      3  N   UNL A   1      34.495  32.868  31.933  1.00  0.00    -0.352 N 
ATOM      4  C   UNL A   1      35.247  33.068  33.036  1.00  0.00     0.251 C 
ATOM      5  O   UNL A   1      34.679  33.695  33.939  1.00  0.00    -0.270 OA
ATOM      6  H   UNL A   1      33.591  33.240  32.045  1.00  0.00     0.163 HD
BRANCH   4   7
ATOM      7  C   UNL A   1      36.652  32.610  33.231  1.00  0.00     0.067 C 
ATOM      8  C   UNL A   1      40.799  29.746  33.554  1.00  0.00    -0.026 A 
ATOM      9  C   UNL A   1      40.482  31.062  33.938  1.00  0.00     0.052 A 
ATOM     10  C   UNL A   1      39.783  28.959  32.986  1.00  0.00     0.045 A 
ATOM     11  C   UNL A   1      39.196  31.565  33.751  1.00  0.00     0.128 A 
ATOM     12  C   UNL A   1      38.474  29.443  32.881  1.00  0.00     0.032 A 
ATOM     13  Cl  UNL A   1      40.081  27.387  32.332  1.00  0.00    -0.084 Cl
ATOM     14  C   UNL A   1      38.179  30.749  33.266  1.00  0.00     0.019 A 
ATOM     15  O   UNL A   1      38.980  32.875  34.077  1.00  0.00    -0.475 OA
ATOM     16  C   UNL A   1      36.826  31.277  33.171  1.00  0.00     0.025 C 
ATOM     17  C   UNL A   1      37.853  33.504  33.391  1.00  0.00     0.314 C 
BRANCH   8  18
ATOM     18  C   UNL A   1      42.219  29.265  33.752  1.00  0.00     0.037 C 
BRANCH  18  19
ATOM     19  C   UNL A   1      42.651  29.131  35.218  1.00  0.00     0.001 C 
ATOM     20  C   UNL A   1      41.681  28.345  36.087  1.00  0.00     0.004 C 
ENDBRANCH  18  19
ENDBRANCH   8  18
BRANCH  17  21
ATOM     21  C   UNL A   1      38.302  34.156  32.067  1.00  0.00     0.429 C 
ATOM     22  F   UNL A   1      37.624  35.295  31.796  1.00  0.00    -0.167 F 
ATOM     23  F   UNL A   1      39.615  34.486  32.129  1.00  0.00    -0.167 F 
ATOM     24  F   UNL A   1      38.141  33.341  31.000  1.00  0.00    -0.167 F 
ENDBRANCH  17  21
ENDBRANCH   4   7
ENDBRANCH   2   3
ENDBRANCH   1   2
BRANCH   1  25
ATOM     25  C   UNL A   1      34.576  32.628  28.120  1.00  0.00     0.118 C 
BRANCH  25  26
ATOM     26  N   UNL A   1      33.956  31.310  28.030  1.00  0.00    -0.352 N 
ATOM     27  C   UNL A   1      34.527  30.063  27.948  1.00  0.00     0.251 C 
ATOM     28  H   UNL A   1      32.972  31.315  28.028  1.00  0.00     0.163 HD
ATOM     29  O   UNL A   1      33.828  29.103  27.617  1.00  0.00    -0.269 OA
BRANCH  27  30
ATOM     30  C   UNL A   1      35.963  29.873  28.239  1.00  0.00     0.039 A 
ATOM     31  C   UNL A   1      36.926  30.181  27.279  1.00  0.00     0.014 A 
ATOM     32  C   UNL A   1      36.360  29.398  29.493  1.00  0.00     0.014 A 
ATOM     33  C   UNL A   1      38.252  29.830  27.492  1.00  0.00     0.010 A 
ATOM     34  C   UNL A   1      37.715  29.163  29.751  1.00  0.00     0.010 A 
ATOM     35  C   UNL A   1      38.668  29.331  28.736  1.00  0.00    -0.014 A 
BRANCH  35  36
ATOM     36  C   UNL A   1      40.108  29.024  28.943  1.00  0.00     0.031 A 
ATOM     37  C   UNL A   1      41.016  30.001  29.643  1.00  0.00     0.074 A 
ATOM     38  C   UNL A   1      40.582  27.825  28.549  1.00  0.00     0.049 A 
ATOM     39  N   UNL A   1      42.285  29.879  29.936  1.00  0.00    -0.248 NA
ATOM     40  C   UNL A   1      40.428  31.284  30.059  1.00  0.00     0.031 C 
ATOM     41  C   UNL A   1      39.794  26.794  27.866  1.00  0.00     0.029 A 
ATOM     42  N   UNL A   1      41.819  27.251  28.694  1.00  0.00    -0.354 N 
ATOM     43  C   UNL A   1      42.653  31.069  30.550  1.00  0.00     0.074 A 
ATOM     44  C   UNL A   1      41.481  31.918  30.555  1.00  0.00     0.031 C 
ATOM     45  C   UNL A   1      40.543  25.694  27.717  1.00  0.00     0.029 A 
ATOM     46  C   UNL A   1      41.886  25.963  28.216  1.00  0.00     0.049 A 
ATOM     47  H   UNL A   1      42.585  27.718  29.098  1.00  0.00     0.167 HD
ATOM     48  C   UNL A   1      43.853  31.417  31.076  1.00  0.00     0.037 A 
ATOM     49  C   UNL A   1      42.914  25.096  28.168  1.00  0.00     0.037 A 
ATOM     50  C   UNL A   1      45.009  30.555  31.079  1.00  0.00     0.049 A 
ATOM     51  C   UNL A   1      44.246  25.518  28.716  1.00  0.00     0.074 A 
ATOM     52  C   UNL A   1      46.264  30.803  31.607  1.00  0.00     0.029 A 
ATOM     53  N   UNL A   1      45.052  29.281  30.528  1.00  0.00    -0.354 N 
ATOM     54  N   UNL A   1      44.572  26.645  29.301  1.00  0.00    -0.248 NA
ATOM     55  C   UNL A   1      45.351  24.561  28.587  1.00  0.00     0.031 C 
ATOM     56  C   UNL A   1      47.081  29.703  31.326  1.00  0.00     0.029 A 
ATOM     57  C   UNL A   1      46.322  28.743  30.676  1.00  0.00     0.049 A 
ATOM     58  H   UNL A   1      44.294  28.827  30.096  1.00  0.00     0.167 HD
ATOM     59  C   UNL A   1      45.919  26.531  29.619  1.00  0.00     0.074 A 
ATOM     60  C   UNL A   1      46.341  25.217  29.177  1.00  0.00     0.031 C 
ATOM     61  C   UNL A   1      46.731  27.435  30.222  1.00  0.00     0.037 A 
BRANCH  48  62
ATOM     62  C   UNL A   1      43.985  32.795  31.668  1.00  0.00     0.058 A 
ATOM     63  C   UNL A   1      43.864  33.025  33.048  1.00  0.00     0.135 A 
ATOM     64  C   UNL A   1      44.259  33.902  30.845  1.00  0.00     0.135 A 
ATOM     65  F   UNL A   1      43.590  32.009  33.881  1.00  0.00    -0.206 F 
ATOM     66  C   UNL A   1      43.972  34.305  33.586  1.00  0.00     0.059 A 
ATOM     67  C   UNL A   1      44.400  35.185  31.364  1.00  0.00     0.059 A 
ATOM     68  F   UNL A   1      44.389  33.742  29.519  1.00  0.00    -0.206 F 
ATOM     69  C   UNL A   1      44.236  35.380  32.734  1.00  0.00     0.060 A 
BRANCH  69  70
ATOM     70  S   UNL A   1      44.349  37.035  33.448  1.00  0.00     0.124 S 
ATOM     71  O   UNL A   1      45.325  36.825  34.513  1.00  0.00    -0.237 OA
ATOM     72  O   UNL A   1      44.809  37.832  32.316  1.00  0.00    -0.237 OA
ATOM     73  O   UNL A   1      42.987  37.308  33.893  1.00  0.00    -0.744 OA
ENDBRANCH  69  70
ENDBRANCH  48  62
BRANCH  49  74
ATOM     74  C   UNL A   1      42.697  23.747  27.584  1.00  0.00     0.058 A 
ATOM     75  C   UNL A   1      42.855  23.521  26.210  1.00  0.00     0.135 A 
ATOM     76  C   UNL A   1      42.419  22.639  28.403  1.00  0.00     0.135 A 
ATOM     77  F   UNL A   1      43.114  24.549  25.387  1.00  0.00    -0.206 F 
ATOM     78  C   UNL A   1      42.764  22.243  25.669  1.00  0.00     0.059 A 
ATOM     79  C   UNL A   1      42.350  21.348  27.889  1.00  0.00     0.059 A 
ATOM     80  F   UNL A   1      42.273  22.801  29.727  1.00  0.00    -0.206 F 
ATOM     81  C   UNL A   1      42.527  21.160  26.519  1.00  0.00     0.060 A 
BRANCH  81  82
ATOM     82  S   UNL A   1      42.518  19.497  25.816  1.00  0.00     0.124 S 
ATOM     83  O   UNL A   1      41.114  19.338  25.451  1.00  0.00    -0.237 OA
ATOM     84  O   UNL A   1      43.456  19.631  24.707  1.00  0.00    -0.237 OA
ATOM     85  O   UNL A   1      42.981  18.662  26.921  1.00  0.00    -0.744 OA
ENDBRANCH  81  82
ENDBRANCH  49  74
BRANCH  61  86
ATOM     86  C   UNL A   1      48.162  27.040  30.450  1.00  0.00     0.058 A 
ATOM     87  C   UNL A   1      49.185  27.456  29.584  1.00  0.00     0.135 A 
ATOM     88  C   UNL A   1      48.526  26.306  31.592  1.00  0.00     0.135 A 
ATOM     89  F   UNL A   1      48.891  28.149  28.474  1.00  0.00    -0.206 F 
ATOM     90  C   UNL A   1      50.519  27.151  29.838  1.00  0.00     0.059 A 
ATOM     91  C   UNL A   1      49.855  26.016  31.880  1.00  0.00     0.059 A 
ATOM     92  F   UNL A   1      47.586  25.891  32.456  1.00  0.00    -0.206 F 
ATOM     93  C   UNL A   1      50.844  26.438  30.994  1.00  0.00     0.060 A 
BRANCH  93  94
ATOM     94  S   UNL A   1      52.585  26.104  31.338  1.00  0.00     0.124 S 
ATOM     95  O   UNL A   1      52.952  27.260  32.150  1.00  0.00    -0.237 OA
ATOM     96  O   UNL A   1      52.522  24.829  32.044  1.00  0.00    -0.237 OA
ATOM     97  O   UNL A   1      53.190  26.052  30.011  1.00  0.00    -0.744 OA
ENDBRANCH  93  94
ENDBRANCH  61  86
ENDBRANCH  35  36
ENDBRANCH  27  30
ENDBRANCH  25  26
ENDBRANCH   1  25
TORSDOF 16
ENDMDL
