MODEL 1
REMARK VINA RESULT:      -9.3      0.000      0.000
REMARK SMILES CC(C)c1ccc2c(c1)c(SC(C)(C)C)c(CC(C)(C)C(=O)NCCCNC(=O)c1ccc(-c3c4nc(c(-c5c(F)cc(S(=O)(=O)[O-])cc5F)c5ccc([nH]5)c(-c5c(F)cc(S(=O)(=O)[O-])cc5F)c5nc(c(-c6c(F)cc(S(=O)(=O)[O-])cc6F)c6ccc3[nH]6)C=C5)C=C4)cc1)n2Cc1ccc(Cl)cc1
REMARK SMILES IDX 24 1 23 2 21 3 22 4 18 6 19 7 20 8 17 9 16 10 4 11 5 12 9 13
REMARK SMILES IDX 6 14 8 15 7 16 10 17 96 18 2 19 1 20 3 21 11 22 12 23 13 24
REMARK SMILES IDX 14 25 15 26 97 27 98 28 99 29 104 30 100 31 103 32 101 33
REMARK SMILES IDX 102 34 25 35 26 36 27 37 28 38 29 40 30 41 31 42 95 43 32 44
REMARK SMILES IDX 94 45 33 46 34 47 35 48 88 49 36 50 93 51 87 52 89 53 37 54
REMARK SMILES IDX 92 55 86 56 85 57 38 59 72 60 51 61 71 62 52 63 55 64 70 65
REMARK SMILES IDX 90 66 53 67 54 68 69 70 91 71 56 72 39 73 40 74 49 75 41 76
REMARK SMILES IDX 42 77 48 78 50 79 43 80 44 81 45 82 46 83 47 84 73 85 74 86
REMARK SMILES IDX 83 87 75 88 76 89 82 90 84 91 77 92 78 93 79 94 80 95 81 96
REMARK SMILES IDX 57 97 58 98 67 99 59 100 60 101 66 102 68 103 61 104 62 105
REMARK SMILES IDX 63 106 64 107 65 108
REMARK H PARENT 23 5 27 39 89 58 55 69
REMARK Flexibility Score: inf
ROOT
ATOM      1  C   UNL A   1      36.154  32.854  32.972  1.00  0.00     0.117 C 
ENDROOT
BRANCH   1   2
ATOM      2  N   UNL A   1      37.015  31.781  33.453  1.00  0.00    -0.356 N 
ATOM      3  C   UNL A   1      37.789  31.710  34.579  1.00  0.00     0.226 C 
ATOM      4  O   UNL A   1      38.159  30.585  34.916  1.00  0.00    -0.275 OA
ATOM      5  H   UNL A   1      37.046  30.982  32.877  1.00  0.00     0.163 HD
BRANCH   3   6
ATOM      6  C   UNL A   1      37.943  32.955  35.451  1.00  0.00     0.049 C 
ATOM      7  C   UNL A   1      38.651  32.269  36.647  1.00  0.00     0.022 C 
ATOM      8  C   UNL A   1      36.534  33.593  35.622  1.00  0.00     0.022 C 
BRANCH   6   9
ATOM      9  C   UNL A   1      38.777  34.151  34.893  1.00  0.00     0.071 C 
BRANCH   9  10
ATOM     10  C   UNL A   1      40.185  34.232  35.304  1.00  0.00     0.034 A 
ATOM     11  C   UNL A   1      44.092  33.717  37.747  1.00  0.00    -0.045 A 
ATOM     12  C   UNL A   1      44.298  32.769  36.740  1.00  0.00     0.006 A 
ATOM     13  C   UNL A   1      42.983  34.585  37.609  1.00  0.00     0.015 A 
ATOM     14  C   UNL A   1      43.396  32.595  35.681  1.00  0.00     0.027 A 
ATOM     15  C   UNL A   1      42.024  34.420  36.569  1.00  0.00     0.014 A 
ATOM     16  C   UNL A   1      42.240  33.390  35.643  1.00  0.00     0.050 A 
ATOM     17  C   UNL A   1      40.771  35.070  36.241  1.00  0.00     0.037 A 
ATOM     18  N   UNL A   1      41.146  33.364  34.791  1.00  0.00    -0.339 N 
BRANCH  11  19
ATOM     19  C   UNL A   1      45.028  33.839  38.953  1.00  0.00     0.013 C 
ATOM     20  C   UNL A   1      44.433  34.707  40.076  1.00  0.00     0.012 C 
ATOM     21  C   UNL A   1      45.444  32.499  39.587  1.00  0.00     0.012 C 
ENDBRANCH  11  19
BRANCH  17  22
ATOM     22  S   UNL A   1      40.159  36.448  37.193  1.00  0.00    -0.118 SA
BRANCH  22  23
ATOM     23  C   UNL A   1      39.735  36.234  39.015  1.00  0.00     0.012 C 
ATOM     24  C   UNL A   1      41.018  36.057  39.833  1.00  0.00     0.023 C 
ATOM     25  C   UNL A   1      38.786  37.161  39.814  1.00  0.00     0.023 C 
ATOM     26  C   UNL A   1      38.927  34.906  39.010  1.00  0.00     0.023 C 
ENDBRANCH  22  23
ENDBRANCH  17  22
BRANCH  18  27
ATOM     27  C   UNL A   1      41.133  32.680  33.468  1.00  0.00     0.158 C 
BRANCH  27  28
ATOM     28  C   UNL A   1      41.760  33.388  32.276  1.00  0.00    -0.028 A 
ATOM     29  C   UNL A   1      42.607  34.500  32.454  1.00  0.00     0.007 A 
ATOM     30  C   UNL A   1      41.495  32.981  30.957  1.00  0.00     0.007 A 
ATOM     31  C   UNL A   1      42.993  35.303  31.376  1.00  0.00     0.021 A 
ATOM     32  C   UNL A   1      41.936  33.749  29.867  1.00  0.00     0.021 A 
ATOM     33  C   UNL A   1      42.632  34.936  30.086  1.00  0.00     0.041 A 
ATOM     34  Cl  UNL A   1      43.018  35.972  28.766  1.00  0.00    -0.084 Cl
ENDBRANCH  27  28
ENDBRANCH  18  27
ENDBRANCH   9  10
ENDBRANCH   6   9
ENDBRANCH   3   6
ENDBRANCH   1   2
BRANCH   1  35
ATOM     35  C   UNL A   1      35.000  32.332  32.149  1.00  0.00     0.042 C 
BRANCH  35  36
ATOM     36  C   UNL A   1      34.774  33.181  30.906  1.00  0.00     0.118 C 
BRANCH  36  37
ATOM     37  N   UNL A   1      34.481  32.398  29.722  1.00  0.00    -0.352 N 
ATOM     38  C   UNL A   1      35.131  31.400  29.054  1.00  0.00     0.251 C 
ATOM     39  H   UNL A   1      33.622  32.640  29.306  1.00  0.00     0.163 HD
ATOM     40  O   UNL A   1      34.561  30.952  28.057  1.00  0.00    -0.269 OA
BRANCH  38  41
ATOM     41  C   UNL A   1      36.486  30.898  29.401  1.00  0.00     0.039 A 
ATOM     42  C   UNL A   1      37.620  31.691  29.567  1.00  0.00     0.014 A 
ATOM     43  C   UNL A   1      36.623  29.501  29.476  1.00  0.00     0.014 A 
ATOM     44  C   UNL A   1      38.878  31.119  29.606  1.00  0.00     0.010 A 
ATOM     45  C   UNL A   1      37.875  28.919  29.588  1.00  0.00     0.010 A 
ATOM     46  C   UNL A   1      39.003  29.733  29.568  1.00  0.00    -0.014 A 
BRANCH  46  47
ATOM     47  C   UNL A   1      40.352  29.187  29.584  1.00  0.00     0.031 A 
ATOM     48  C   UNL A   1      40.947  29.043  30.949  1.00  0.00     0.074 A 
ATOM     49  C   UNL A   1      40.948  28.760  28.454  1.00  0.00     0.049 A 
ATOM     50  N   UNL A   1      42.042  29.545  31.423  1.00  0.00    -0.248 NA
ATOM     51  C   UNL A   1      40.125  28.348  31.957  1.00  0.00     0.031 C 
ATOM     52  C   UNL A   1      40.363  28.613  27.117  1.00  0.00     0.029 A 
ATOM     53  N   UNL A   1      42.201  28.262  28.288  1.00  0.00    -0.354 N 
ATOM     54  C   UNL A   1      42.143  29.068  32.731  1.00  0.00     0.074 A 
ATOM     55  C   UNL A   1      40.874  28.467  33.051  1.00  0.00     0.031 C 
ATOM     56  C   UNL A   1      41.172  27.841  26.358  1.00  0.00     0.029 A 
ATOM     57  C   UNL A   1      42.388  27.566  27.101  1.00  0.00     0.049 A 
ATOM     58  H   UNL A   1      42.917  28.385  28.953  1.00  0.00     0.167 HD
ATOM     59  C   UNL A   1      43.321  29.016  33.413  1.00  0.00     0.037 A 
ATOM     60  C   UNL A   1      43.437  26.756  26.809  1.00  0.00     0.037 A 
ATOM     61  C   UNL A   1      44.306  29.898  32.855  1.00  0.00     0.049 A 
ATOM     62  C   UNL A   1      44.528  27.108  27.754  1.00  0.00     0.074 A 
ATOM     63  C   UNL A   1      44.421  31.269  32.739  1.00  0.00     0.029 A 
ATOM     64  N   UNL A   1      45.221  29.372  31.979  1.00  0.00    -0.354 N 
ATOM     65  N   UNL A   1      45.153  28.254  27.760  1.00  0.00    -0.248 NA
ATOM     66  C   UNL A   1      44.629  26.338  28.984  1.00  0.00     0.031 C 
ATOM     67  C   UNL A   1      45.041  31.484  31.473  1.00  0.00     0.029 A 
ATOM     68  C   UNL A   1      45.313  30.235  30.914  1.00  0.00     0.049 A 
ATOM     69  H   UNL A   1      45.720  28.531  32.091  1.00  0.00     0.167 HD
ATOM     70  C   UNL A   1      45.387  28.530  29.099  1.00  0.00     0.074 A 
ATOM     71  C   UNL A   1      45.115  27.278  29.798  1.00  0.00     0.031 C 
ATOM     72  C   UNL A   1      45.517  29.815  29.543  1.00  0.00     0.037 A 
BRANCH  59  73
ATOM     73  C   UNL A   1      43.645  27.930  34.409  1.00  0.00     0.058 A 
ATOM     74  C   UNL A   1      43.897  28.238  35.758  1.00  0.00     0.135 A 
ATOM     75  C   UNL A   1      43.950  26.606  34.018  1.00  0.00     0.135 A 
ATOM     76  F   UNL A   1      43.681  29.478  36.227  1.00  0.00    -0.206 F 
ATOM     77  C   UNL A   1      44.429  27.302  36.649  1.00  0.00     0.059 A 
ATOM     78  C   UNL A   1      44.426  25.642  34.899  1.00  0.00     0.059 A 
ATOM     79  F   UNL A   1      43.883  26.213  32.738  1.00  0.00    -0.206 F 
ATOM     80  C   UNL A   1      44.694  26.007  36.207  1.00  0.00     0.060 A 
BRANCH  80  81
ATOM     81  S   UNL A   1      45.446  24.816  37.331  1.00  0.00     0.124 S 
ATOM     82  O   UNL A   1      46.865  25.105  37.155  1.00  0.00    -0.237 OA
ATOM     83  O   UNL A   1      44.869  25.203  38.614  1.00  0.00    -0.237 OA
ATOM     84  O   UNL A   1      44.995  23.528  36.811  1.00  0.00    -0.744 OA
ENDBRANCH  80  81
ENDBRANCH  59  73
BRANCH  60  85
ATOM     85  C   UNL A   1      43.414  25.455  26.087  1.00  0.00     0.058 A 
ATOM     86  C   UNL A   1      44.405  25.152  25.136  1.00  0.00     0.135 A 
ATOM     87  C   UNL A   1      42.629  24.374  26.533  1.00  0.00     0.135 A 
ATOM     88  F   UNL A   1      45.206  26.120  24.664  1.00  0.00    -0.206 F 
ATOM     89  C   UNL A   1      44.655  23.843  24.712  1.00  0.00     0.059 A 
ATOM     90  C   UNL A   1      42.852  23.063  26.117  1.00  0.00     0.059 A 
ATOM     91  F   UNL A   1      41.684  24.544  27.471  1.00  0.00    -0.206 F 
ATOM     92  C   UNL A   1      43.892  22.800  25.233  1.00  0.00     0.060 A 
BRANCH  92  93
ATOM     93  S   UNL A   1      44.354  21.093  24.856  1.00  0.00     0.124 S 
ATOM     94  O   UNL A   1      44.541  21.143  23.409  1.00  0.00    -0.237 OA
ATOM     95  O   UNL A   1      45.566  20.923  25.650  1.00  0.00    -0.237 OA
ATOM     96  O   UNL A   1      43.201  20.320  25.309  1.00  0.00    -0.744 OA
ENDBRANCH  92  93
ENDBRANCH  60  85
BRANCH  72  97
ATOM     97  C   UNL A   1      45.647  30.906  28.507  1.00  0.00     0.058 A 
ATOM     98  C   UNL A   1      44.554  31.572  27.922  1.00  0.00     0.135 A 
ATOM     99  C   UNL A   1      46.926  31.397  28.206  1.00  0.00     0.135 A 
ATOM    100  F   UNL A   1      43.296  31.235  28.235  1.00  0.00    -0.206 F 
ATOM    101  C   UNL A   1      44.724  32.650  27.052  1.00  0.00     0.059 A 
ATOM    102  C   UNL A   1      47.119  32.491  27.366  1.00  0.00     0.059 A 
ATOM    103  F   UNL A   1      48.007  30.844  28.779  1.00  0.00    -0.206 F 
ATOM    104  C   UNL A   1      46.014  33.109  26.785  1.00  0.00     0.060 A 
BRANCH 104 105
ATOM    105  S   UNL A   1      46.226  34.566  25.736  1.00  0.00     0.124 S 
ATOM    106  O   UNL A   1      45.874  35.653  26.641  1.00  0.00    -0.237 OA
ATOM    107  O   UNL A   1      47.635  34.484  25.361  1.00  0.00    -0.237 OA
ATOM    108  O   UNL A   1      45.286  34.337  24.640  1.00  0.00    -0.744 OA
ENDBRANCH 104 105
ENDBRANCH  72  97
ENDBRANCH  46  47
ENDBRANCH  38  41
ENDBRANCH  36  37
ENDBRANCH  35  36
ENDBRANCH   1  35
TORSDOF 20
ENDMDL
MODEL 2
REMARK VINA RESULT:      -9.2      3.759     11.552
REMARK SMILES CC(C)c1ccc2c(c1)c(SC(C)(C)C)c(CC(C)(C)C(=O)NCCCNC(=O)c1ccc(-c3c4nc(c(-c5c(F)cc(S(=O)(=O)[O-])cc5F)c5ccc([nH]5)c(-c5c(F)cc(S(=O)(=O)[O-])cc5F)c5nc(c(-c6c(F)cc(S(=O)(=O)[O-])cc6F)c6ccc3[nH]6)C=C5)C=C4)cc1)n2Cc1ccc(Cl)cc1
REMARK SMILES IDX 24 1 23 2 21 3 22 4 18 6 19 7 20 8 17 9 16 10 4 11 5 12 9 13
REMARK SMILES IDX 6 14 8 15 7 16 10 17 96 18 2 19 1 20 3 21 11 22 12 23 13 24
REMARK SMILES IDX 14 25 15 26 97 27 98 28 99 29 104 30 100 31 103 32 101 33
REMARK SMILES IDX 102 34 25 35 26 36 27 37 28 38 29 40 30 41 31 42 95 43 32 44
REMARK SMILES IDX 94 45 33 46 34 47 35 48 88 49 36 50 93 51 87 52 89 53 37 54
REMARK SMILES IDX 92 55 86 56 85 57 38 59 72 60 51 61 71 62 52 63 55 64 70 65
REMARK SMILES IDX 90 66 53 67 54 68 69 70 91 71 56 72 39 73 40 74 49 75 41 76
REMARK SMILES IDX 42 77 48 78 50 79 43 80 44 81 45 82 46 83 47 84 73 85 74 86
REMARK SMILES IDX 83 87 75 88 76 89 82 90 84 91 77 92 78 93 79 94 80 95 81 96
REMARK SMILES IDX 57 97 58 98 67 99 59 100 60 101 66 102 68 103 61 104 62 105
REMARK SMILES IDX 63 106 64 107 65 108
REMARK H PARENT 23 5 27 39 89 58 55 69
REMARK Flexibility Score: inf
ROOT
ATOM      1  C   UNL A   1      45.252  23.491  25.872  1.00  0.00     0.117 C 
ENDROOT
BRANCH   1   2
ATOM      2  N   UNL A   1      44.668  24.804  25.628  1.00  0.00    -0.356 N 
ATOM      3  C   UNL A   1      45.168  26.052  25.886  1.00  0.00     0.226 C 
ATOM      4  O   UNL A   1      44.628  26.987  25.295  1.00  0.00    -0.275 OA
ATOM      5  H   UNL A   1      43.775  24.792  25.214  1.00  0.00     0.163 HD
BRANCH   3   6
ATOM      6  C   UNL A   1      46.468  26.180  26.677  1.00  0.00     0.049 C 
ATOM      7  C   UNL A   1      46.292  27.660  27.103  1.00  0.00     0.022 C 
ATOM      8  C   UNL A   1      47.637  25.757  25.741  1.00  0.00     0.022 C 
BRANCH   6   9
ATOM      9  C   UNL A   1      46.682  25.245  27.908  1.00  0.00     0.071 C 
BRANCH   9  10
ATOM     10  C   UNL A   1      47.581  25.727  28.965  1.00  0.00     0.034 A 
ATOM     11  C   UNL A   1      50.598  28.347  31.317  1.00  0.00    -0.045 A 
ATOM     12  C   UNL A   1      49.414  28.655  31.995  1.00  0.00     0.006 A 
ATOM     13  C   UNL A   1      50.552  27.298  30.370  1.00  0.00     0.015 A 
ATOM     14  C   UNL A   1      48.195  28.035  31.690  1.00  0.00     0.027 A 
ATOM     15  C   UNL A   1      49.329  26.666  30.004  1.00  0.00     0.014 A 
ATOM     16  C   UNL A   1      48.161  27.086  30.657  1.00  0.00     0.050 A 
ATOM     17  C   UNL A   1      48.965  25.663  29.024  1.00  0.00     0.037 A 
ATOM     18  N   UNL A   1      47.099  26.405  30.082  1.00  0.00    -0.339 N 
BRANCH  11  19
ATOM     19  C   UNL A   1      51.907  29.095  31.586  1.00  0.00     0.013 C 
ATOM     20  C   UNL A   1      51.974  29.673  33.011  1.00  0.00     0.012 C 
ATOM     21  C   UNL A   1      53.184  28.261  31.373  1.00  0.00     0.012 C 
ENDBRANCH  11  19
BRANCH  17  22
ATOM     22  S   UNL A   1      50.194  24.876  27.997  1.00  0.00    -0.118 SA
BRANCH  22  23
ATOM     23  C   UNL A   1      51.533  25.901  27.159  1.00  0.00     0.012 C 
ATOM     24  C   UNL A   1      50.935  27.206  26.625  1.00  0.00     0.023 C 
ATOM     25  C   UNL A   1      52.911  26.231  27.784  1.00  0.00     0.023 C 
ATOM     26  C   UNL A   1      51.950  24.989  25.972  1.00  0.00     0.023 C 
ENDBRANCH  22  23
ENDBRANCH  17  22
BRANCH  18  27
ATOM     27  C   UNL A   1      45.751  26.281  30.702  1.00  0.00     0.158 C 
BRANCH  27  28
ATOM     28  C   UNL A   1      45.531  25.205  31.756  1.00  0.00    -0.028 A 
ATOM     29  C   UNL A   1      44.544  24.213  31.587  1.00  0.00     0.007 A 
ATOM     30  C   UNL A   1      46.278  25.178  32.945  1.00  0.00     0.007 A 
ATOM     31  C   UNL A   1      44.167  23.372  32.639  1.00  0.00     0.021 A 
ATOM     32  C   UNL A   1      45.945  24.290  33.982  1.00  0.00     0.021 A 
ATOM     33  C   UNL A   1      44.854  23.434  33.845  1.00  0.00     0.041 A 
ATOM     34  Cl  UNL A   1      44.331  22.474  35.174  1.00  0.00    -0.084 Cl
ENDBRANCH  27  28
ENDBRANCH  18  27
ENDBRANCH   9  10
ENDBRANCH   6   9
ENDBRANCH   3   6
ENDBRANCH   1   2
BRANCH   1  35
ATOM     35  C   UNL A   1      44.228  22.386  25.774  1.00  0.00     0.042 C 
BRANCH  35  36
ATOM     36  C   UNL A   1      43.088  22.765  24.838  1.00  0.00     0.118 C 
BRANCH  36  37
ATOM     37  N   UNL A   1      41.777  22.485  25.389  1.00  0.00    -0.352 N 
ATOM     38  C   UNL A   1      40.916  23.168  26.199  1.00  0.00     0.251 C 
ATOM     39  H   UNL A   1      41.428  21.605  25.117  1.00  0.00     0.163 HD
ATOM     40  O   UNL A   1      39.852  22.604  26.462  1.00  0.00    -0.269 OA
BRANCH  38  41
ATOM     41  C   UNL A   1      41.218  24.478  26.833  1.00  0.00     0.039 A 
ATOM     42  C   UNL A   1      42.193  24.696  27.805  1.00  0.00     0.014 A 
ATOM     43  C   UNL A   1      40.381  25.545  26.467  1.00  0.00     0.014 A 
ATOM     44  C   UNL A   1      42.207  25.871  28.534  1.00  0.00     0.010 A 
ATOM     45  C   UNL A   1      40.437  26.753  27.144  1.00  0.00     0.010 A 
ATOM     46  C   UNL A   1      41.296  26.878  28.231  1.00  0.00    -0.014 A 
BRANCH  46  47
ATOM     47  C   UNL A   1      41.339  28.082  29.048  1.00  0.00     0.031 A 
ATOM     48  C   UNL A   1      42.430  29.039  28.685  1.00  0.00     0.074 A 
ATOM     49  C   UNL A   1      40.398  28.331  29.979  1.00  0.00     0.049 A 
ATOM     50  N   UNL A   1      43.385  29.512  29.420  1.00  0.00    -0.248 NA
ATOM     51  C   UNL A   1      42.536  29.409  27.261  1.00  0.00     0.031 C 
ATOM     52  C   UNL A   1      39.153  27.597  30.232  1.00  0.00     0.029 A 
ATOM     53  N   UNL A   1      40.309  29.375  30.841  1.00  0.00    -0.354 N 
ATOM     54  C   UNL A   1      44.097  30.389  28.600  1.00  0.00     0.074 A 
ATOM     55  C   UNL A   1      43.626  30.173  27.257  1.00  0.00     0.031 C 
ATOM     56  C   UNL A   1      38.335  28.354  30.996  1.00  0.00     0.029 A 
ATOM     57  C   UNL A   1      39.050  29.550  31.402  1.00  0.00     0.049 A 
ATOM     58  H   UNL A   1      41.072  29.960  31.052  1.00  0.00     0.167 HD
ATOM     59  C   UNL A   1      44.891  31.382  29.090  1.00  0.00     0.037 A 
ATOM     60  C   UNL A   1      38.622  30.649  32.073  1.00  0.00     0.037 A 
ATOM     61  C   UNL A   1      45.279  31.141  30.451  1.00  0.00     0.049 A 
ATOM     62  C   UNL A   1      39.836  31.398  32.491  1.00  0.00     0.074 A 
ATOM     63  C   UNL A   1      46.058  30.191  31.080  1.00  0.00     0.029 A 
ATOM     64  N   UNL A   1      44.552  31.744  31.445  1.00  0.00    -0.354 N 
ATOM     65  N   UNL A   1      40.707  30.959  33.357  1.00  0.00    -0.248 NA
ATOM     66  C   UNL A   1      40.311  32.456  31.612  1.00  0.00     0.031 C 
ATOM     67  C   UNL A   1      45.414  29.947  32.328  1.00  0.00     0.029 A 
ATOM     68  C   UNL A   1      44.308  30.795  32.409  1.00  0.00     0.049 A 
ATOM     69  H   UNL A   1      44.258  32.683  31.466  1.00  0.00     0.167 HD
ATOM     70  C   UNL A   1      41.937  31.391  32.883  1.00  0.00     0.074 A 
ATOM     71  C   UNL A   1      41.621  32.375  31.852  1.00  0.00     0.031 C 
ATOM     72  C   UNL A   1      43.086  30.716  33.181  1.00  0.00     0.037 A 
BRANCH  59  73
ATOM     73  C   UNL A   1      45.059  32.712  28.400  1.00  0.00     0.058 A 
ATOM     74  C   UNL A   1      46.319  33.133  27.938  1.00  0.00     0.135 A 
ATOM     75  C   UNL A   1      44.046  33.699  28.394  1.00  0.00     0.135 A 
ATOM     76  F   UNL A   1      47.364  32.288  27.938  1.00  0.00    -0.206 F 
ATOM     77  C   UNL A   1      46.559  34.444  27.515  1.00  0.00     0.059 A 
ATOM     78  C   UNL A   1      44.246  34.992  27.926  1.00  0.00     0.059 A 
ATOM     79  F   UNL A   1      42.838  33.475  28.928  1.00  0.00    -0.206 F 
ATOM     80  C   UNL A   1      45.514  35.367  27.517  1.00  0.00     0.060 A 
BRANCH  80  81
ATOM     81  S   UNL A   1      45.832  37.076  27.042  1.00  0.00     0.124 S 
ATOM     82  O   UNL A   1      46.590  36.900  25.808  1.00  0.00    -0.237 OA
ATOM     83  O   UNL A   1      44.481  37.606  26.893  1.00  0.00    -0.237 OA
ATOM     84  O   UNL A   1      46.585  37.607  28.175  1.00  0.00    -0.744 OA
ENDBRANCH  80  81
ENDBRANCH  59  73
BRANCH  60  85
ATOM     85  C   UNL A   1      37.285  31.299  32.006  1.00  0.00     0.058 A 
ATOM     86  C   UNL A   1      36.665  31.775  33.175  1.00  0.00     0.135 A 
ATOM     87  C   UNL A   1      36.741  31.748  30.786  1.00  0.00     0.135 A 
ATOM     88  F   UNL A   1      37.126  31.406  34.380  1.00  0.00    -0.206 F 
ATOM     89  C   UNL A   1      35.619  32.702  33.139  1.00  0.00     0.059 A 
ATOM     90  C   UNL A   1      35.692  32.664  30.725  1.00  0.00     0.059 A 
ATOM     91  F   UNL A   1      37.281  31.390  29.611  1.00  0.00    -0.206 F 
ATOM     92  C   UNL A   1      35.160  33.165  31.907  1.00  0.00     0.060 A 
BRANCH  92  93
ATOM     93  S   UNL A   1      33.964  34.520  31.863  1.00  0.00     0.124 S 
ATOM     94  O   UNL A   1      34.779  35.657  32.276  1.00  0.00    -0.237 OA
ATOM     95  O   UNL A   1      33.545  34.510  30.465  1.00  0.00    -0.237 OA
ATOM     96  O   UNL A   1      32.942  34.103  32.820  1.00  0.00    -0.744 OA
ENDBRANCH  92  93
ENDBRANCH  60  85
BRANCH  72  97
ATOM     97  C   UNL A   1      43.014  29.639  34.237  1.00  0.00     0.058 A 
ATOM     98  C   UNL A   1      43.029  29.892  35.621  1.00  0.00     0.135 A 
ATOM     99  C   UNL A   1      42.769  28.319  33.834  1.00  0.00     0.135 A 
ATOM    100  F   UNL A   1      43.153  31.139  36.092  1.00  0.00    -0.206 F 
ATOM    101  C   UNL A   1      42.847  28.874  36.561  1.00  0.00     0.059 A 
ATOM    102  C   UNL A   1      42.553  27.293  34.752  1.00  0.00     0.059 A 
ATOM    103  F   UNL A   1      42.681  28.023  32.527  1.00  0.00    -0.206 F 
ATOM    104  C   UNL A   1      42.602  27.576  36.115  1.00  0.00     0.060 A 
BRANCH 104 105
ATOM    105  S   UNL A   1      42.270  26.280  37.331  1.00  0.00     0.124 S 
ATOM    106  O   UNL A   1      42.548  25.066  36.574  1.00  0.00    -0.237 OA
ATOM    107  O   UNL A   1      43.218  26.595  38.397  1.00  0.00    -0.237 OA
ATOM    108  O   UNL A   1      40.865  26.492  37.678  1.00  0.00    -0.744 OA
ENDBRANCH 104 105
ENDBRANCH  72  97
ENDBRANCH  46  47
ENDBRANCH  38  41
ENDBRANCH  36  37
ENDBRANCH  35  36
ENDBRANCH   1  35
TORSDOF 20
ENDMDL
MODEL 3
REMARK VINA RESULT:      -8.6      4.224     12.932
REMARK SMILES CC(C)c1ccc2c(c1)c(SC(C)(C)C)c(CC(C)(C)C(=O)NCCCNC(=O)c1ccc(-c3c4nc(c(-c5c(F)cc(S(=O)(=O)[O-])cc5F)c5ccc([nH]5)c(-c5c(F)cc(S(=O)(=O)[O-])cc5F)c5nc(c(-c6c(F)cc(S(=O)(=O)[O-])cc6F)c6ccc3[nH]6)C=C5)C=C4)cc1)n2Cc1ccc(Cl)cc1
REMARK SMILES IDX 24 1 23 2 21 3 22 4 18 6 19 7 20 8 17 9 16 10 4 11 5 12 9 13
REMARK SMILES IDX 6 14 8 15 7 16 10 17 96 18 2 19 1 20 3 21 11 22 12 23 13 24
REMARK SMILES IDX 14 25 15 26 97 27 98 28 99 29 104 30 100 31 103 32 101 33
REMARK SMILES IDX 102 34 25 35 26 36 27 37 28 38 29 40 30 41 31 42 95 43 32 44
REMARK SMILES IDX 94 45 33 46 34 47 35 48 88 49 36 50 93 51 87 52 89 53 37 54
REMARK SMILES IDX 92 55 86 56 85 57 38 59 72 60 51 61 71 62 52 63 55 64 70 65
REMARK SMILES IDX 90 66 53 67 54 68 69 70 91 71 56 72 39 73 40 74 49 75 41 76
REMARK SMILES IDX 42 77 48 78 50 79 43 80 44 81 45 82 46 83 47 84 73 85 74 86
REMARK SMILES IDX 83 87 75 88 76 89 82 90 84 91 77 92 78 93 79 94 80 95 81 96
REMARK SMILES IDX 57 97 58 98 67 99 59 100 60 101 66 102 68 103 61 104 62 105
REMARK SMILES IDX 63 106 64 107 65 108
REMARK H PARENT 23 5 27 39 89 58 55 69
REMARK Flexibility Score: inf
ROOT
ATOM      1  C   UNL A   1      44.753  24.282  29.184  1.00  0.00     0.117 C 
ENDROOT
BRANCH   1   2
ATOM      2  N   UNL A   1      45.244  24.496  27.828  1.00  0.00    -0.356 N 
ATOM      3  C   UNL A   1      44.653  25.126  26.767  1.00  0.00     0.226 C 
ATOM      4  O   UNL A   1      45.399  25.453  25.844  1.00  0.00    -0.275 OA
ATOM      5  H   UNL A   1      46.140  24.129  27.648  1.00  0.00     0.163 HD
BRANCH   3   6
ATOM      6  C   UNL A   1      43.200  25.581  26.892  1.00  0.00     0.049 C 
ATOM      7  C   UNL A   1      42.699  25.007  25.541  1.00  0.00     0.022 C 
ATOM      8  C   UNL A   1      43.203  27.116  27.149  1.00  0.00     0.022 C 
BRANCH   6   9
ATOM      9  C   UNL A   1      42.357  25.050  28.094  1.00  0.00     0.071 C 
BRANCH   9  10
ATOM     10  C   UNL A   1      41.062  24.432  27.780  1.00  0.00     0.034 A 
ATOM     11  C   UNL A   1      37.323  22.998  25.444  1.00  0.00    -0.045 A 
ATOM     12  C   UNL A   1      38.024  21.794  25.561  1.00  0.00     0.006 A 
ATOM     13  C   UNL A   1      37.812  24.110  26.169  1.00  0.00     0.015 A 
ATOM     14  C   UNL A   1      39.225  21.694  26.276  1.00  0.00     0.027 A 
ATOM     15  C   UNL A   1      39.046  24.062  26.879  1.00  0.00     0.014 A 
ATOM     16  C   UNL A   1      39.747  22.849  26.881  1.00  0.00     0.050 A 
ATOM     17  C   UNL A   1      39.828  25.040  27.608  1.00  0.00     0.037 A 
ATOM     18  N   UNL A   1      40.943  23.064  27.548  1.00  0.00    -0.339 N 
BRANCH  11  19
ATOM     19  C   UNL A   1      36.064  23.125  24.581  1.00  0.00     0.013 C 
ATOM     20  C   UNL A   1      35.277  24.415  24.874  1.00  0.00     0.012 C 
ATOM     21  C   UNL A   1      36.312  23.080  23.062  1.00  0.00     0.012 C 
ENDBRANCH  11  19
BRANCH  17  22
ATOM     22  S   UNL A   1      39.252  26.713  27.834  1.00  0.00    -0.118 SA
BRANCH  22  23
ATOM     23  C   UNL A   1      39.641  27.648  29.421  1.00  0.00     0.012 C 
ATOM     24  C   UNL A   1      38.882  27.023  30.596  1.00  0.00     0.023 C 
ATOM     25  C   UNL A   1      41.068  27.999  29.910  1.00  0.00     0.023 C 
ATOM     26  C   UNL A   1      39.069  29.061  29.119  1.00  0.00     0.023 C 
ENDBRANCH  22  23
ENDBRANCH  17  22
BRANCH  18  27
ATOM     27  C   UNL A   1      41.809  21.977  28.085  1.00  0.00     0.158 C 
BRANCH  27  28
ATOM     28  C   UNL A   1      42.631  21.151  27.106  1.00  0.00    -0.028 A 
ATOM     29  C   UNL A   1      43.692  21.728  26.380  1.00  0.00     0.007 A 
ATOM     30  C   UNL A   1      42.344  19.796  26.868  1.00  0.00     0.007 A 
ATOM     31  C   UNL A   1      44.295  21.056  25.312  1.00  0.00     0.021 A 
ATOM     32  C   UNL A   1      42.993  19.097  25.837  1.00  0.00     0.021 A 
ATOM     33  C   UNL A   1      43.922  19.748  25.027  1.00  0.00     0.041 A 
ATOM     34  Cl  UNL A   1      44.587  18.952  23.654  1.00  0.00    -0.084 Cl
ENDBRANCH  27  28
ENDBRANCH  18  27
ENDBRANCH   9  10
ENDBRANCH   6   9
ENDBRANCH   3   6
ENDBRANCH   1   2
BRANCH   1  35
ATOM     35  C   UNL A   1      45.501  25.115  30.198  1.00  0.00     0.042 C 
BRANCH  35  36
ATOM     36  C   UNL A   1      44.551  25.760  31.197  1.00  0.00     0.118 C 
BRANCH  36  37
ATOM     37  N   UNL A   1      44.677  25.221  32.538  1.00  0.00    -0.352 N 
ATOM     38  C   UNL A   1      44.166  25.567  33.756  1.00  0.00     0.251 C 
ATOM     39  H   UNL A   1      45.260  24.429  32.578  1.00  0.00     0.163 HD
ATOM     40  O   UNL A   1      44.495  24.853  34.706  1.00  0.00    -0.269 OA
BRANCH  38  41
ATOM     41  C   UNL A   1      43.332  26.770  34.008  1.00  0.00     0.039 A 
ATOM     42  C   UNL A   1      42.110  27.046  33.395  1.00  0.00     0.014 A 
ATOM     43  C   UNL A   1      43.884  27.731  34.872  1.00  0.00     0.014 A 
ATOM     44  C   UNL A   1      41.553  28.309  33.475  1.00  0.00     0.010 A 
ATOM     45  C   UNL A   1      43.293  28.976  35.016  1.00  0.00     0.010 A 
ATOM     46  C   UNL A   1      42.174  29.284  34.249  1.00  0.00    -0.014 A 
BRANCH  46  47
ATOM     47  C   UNL A   1      41.557  30.603  34.276  1.00  0.00     0.031 A 
ATOM     48  C   UNL A   1      42.527  31.742  34.239  1.00  0.00     0.074 A 
ATOM     49  C   UNL A   1      40.219  30.751  34.233  1.00  0.00     0.049 A 
ATOM     50  N   UNL A   1      42.680  32.715  35.079  1.00  0.00    -0.248 NA
ATOM     51  C   UNL A   1      43.552  31.702  33.180  1.00  0.00     0.031 C 
ATOM     52  C   UNL A   1      39.198  29.724  34.004  1.00  0.00     0.029 A 
ATOM     53  N   UNL A   1      39.487  31.894  34.285  1.00  0.00    -0.354 N 
ATOM     54  C   UNL A   1      43.694  33.516  34.550  1.00  0.00     0.074 A 
ATOM     55  C   UNL A   1      44.289  32.771  33.471  1.00  0.00     0.031 C 
ATOM     56  C   UNL A   1      38.026  30.321  33.692  1.00  0.00     0.029 A 
ATOM     57  C   UNL A   1      38.178  31.756  33.841  1.00  0.00     0.049 A 
ATOM     58  H   UNL A   1      39.853  32.748  34.609  1.00  0.00     0.167 HD
ATOM     59  C   UNL A   1      43.861  34.824  34.894  1.00  0.00     0.037 A 
ATOM     60  C   UNL A   1      37.328  32.770  33.541  1.00  0.00     0.037 A 
ATOM     61  C   UNL A   1      43.228  35.138  36.143  1.00  0.00     0.049 A 
ATOM     62  C   UNL A   1      37.866  33.991  34.194  1.00  0.00     0.074 A 
ATOM     63  C   UNL A   1      43.431  34.755  37.453  1.00  0.00     0.029 A 
ATOM     64  N   UNL A   1      41.975  35.696  36.108  1.00  0.00    -0.354 N 
ATOM     65  N   UNL A   1      37.936  34.162  35.485  1.00  0.00    -0.248 NA
ATOM     66  C   UNL A   1      38.736  34.851  33.404  1.00  0.00     0.031 C 
ATOM     67  C   UNL A   1      42.127  34.663  38.021  1.00  0.00     0.029 A 
ATOM     68  C   UNL A   1      41.208  35.042  37.041  1.00  0.00     0.049 A 
ATOM     69  H   UNL A   1      41.680  36.431  35.523  1.00  0.00     0.167 HD
ATOM     70  C   UNL A   1      39.121  34.853  35.694  1.00  0.00     0.074 A 
ATOM     71  C   UNL A   1      39.527  35.319  34.372  1.00  0.00     0.031 C 
ATOM     72  C   UNL A   1      39.799  34.753  36.875  1.00  0.00     0.037 A 
BRANCH  59  73
ATOM     73  C   UNL A   1      44.359  35.869  33.927  1.00  0.00     0.058 A 
ATOM     74  C   UNL A   1      43.605  36.222  32.792  1.00  0.00     0.135 A 
ATOM     75  C   UNL A   1      45.682  36.367  33.959  1.00  0.00     0.135 A 
ATOM     76  F   UNL A   1      42.349  35.770  32.639  1.00  0.00    -0.206 F 
ATOM     77  C   UNL A   1      44.134  37.000  31.758  1.00  0.00     0.059 A 
ATOM     78  C   UNL A   1      46.211  37.189  32.972  1.00  0.00     0.059 A 
ATOM     79  F   UNL A   1      46.551  36.003  34.912  1.00  0.00    -0.206 F 
ATOM     80  C   UNL A   1      45.440  37.475  31.857  1.00  0.00     0.060 A 
BRANCH  80  81
ATOM     81  S   UNL A   1      46.153  38.418  30.497  1.00  0.00     0.124 S 
ATOM     82  O   UNL A   1      45.299  39.600  30.481  1.00  0.00    -0.237 OA
ATOM     83  O   UNL A   1      47.522  38.624  30.954  1.00  0.00    -0.237 OA
ATOM     84  O   UNL A   1      46.010  37.521  29.353  1.00  0.00    -0.744 OA
ENDBRANCH  80  81
ENDBRANCH  59  73
BRANCH  60  85
ATOM     85  C   UNL A   1      36.358  32.846  32.415  1.00  0.00     0.058 A 
ATOM     86  C   UNL A   1      35.044  33.297  32.637  1.00  0.00     0.135 A 
ATOM     87  C   UNL A   1      36.778  32.789  31.071  1.00  0.00     0.135 A 
ATOM     88  F   UNL A   1      34.567  33.393  33.887  1.00  0.00    -0.206 F 
ATOM     89  C   UNL A   1      34.222  33.739  31.595  1.00  0.00     0.059 A 
ATOM     90  C   UNL A   1      35.972  33.215  30.015  1.00  0.00     0.059 A 
ATOM     91  F   UNL A   1      38.025  32.415  30.748  1.00  0.00    -0.206 F 
ATOM     92  C   UNL A   1      34.709  33.723  30.289  1.00  0.00     0.060 A 
BRANCH  92  93
ATOM     93  S   UNL A   1      33.735  34.494  28.975  1.00  0.00     0.124 S 
ATOM     94  O   UNL A   1      32.577  34.994  29.710  1.00  0.00    -0.237 OA
ATOM     95  O   UNL A   1      34.654  35.507  28.469  1.00  0.00    -0.237 OA
ATOM     96  O   UNL A   1      33.463  33.389  28.060  1.00  0.00    -0.744 OA
ENDBRANCH  92  93
ENDBRANCH  60  85
BRANCH  72  97
ATOM     97  C   UNL A   1      39.101  34.072  38.029  1.00  0.00     0.058 A 
ATOM     98  C   UNL A   1      38.900  32.682  38.118  1.00  0.00     0.135 A 
ATOM     99  C   UNL A   1      38.759  34.838  39.153  1.00  0.00     0.135 A 
ATOM    100  F   UNL A   1      39.293  31.865  37.133  1.00  0.00    -0.206 F 
ATOM    101  C   UNL A   1      38.350  32.086  39.255  1.00  0.00     0.059 A 
ATOM    102  C   UNL A   1      38.239  34.262  40.310  1.00  0.00     0.059 A 
ATOM    103  F   UNL A   1      38.984  36.162  39.155  1.00  0.00    -0.206 F 
ATOM    104  C   UNL A   1      38.028  32.885  40.351  1.00  0.00     0.060 A 
BRANCH 104 105
ATOM    105  S   UNL A   1      37.408  32.099  41.857  1.00  0.00     0.124 S 
ATOM    106  O   UNL A   1      38.452  31.124  42.150  1.00  0.00    -0.237 OA
ATOM    107  O   UNL A   1      37.312  33.223  42.784  1.00  0.00    -0.237 OA
ATOM    108  O   UNL A   1      36.125  31.535  41.443  1.00  0.00    -0.744 OA
ENDBRANCH 104 105
ENDBRANCH  72  97
ENDBRANCH  46  47
ENDBRANCH  38  41
ENDBRANCH  36  37
ENDBRANCH  35  36
ENDBRANCH   1  35
TORSDOF 20
ENDMDL
