MODEL 1
REMARK VINA RESULT:     -11.3      0.000      0.000
REMARK SMILES O=C(Cn1ncc2ccccc2c1=O)N[C@@H]1C[NH2+][C@H](C(=O)NCCCNC(=O)c2ccc(-c3c4nc(c(-c5c(F)cc(S(=O)(=O)[O-])cc5F)c5ccc([nH]5)c(-c5c(F)cc(S(=O)(=O)[O-])cc5F)c5nc(c(-c6c(F)cc(S(=O)(=O)[O-])cc6F)c6ccc3[nH]6)C=C5)C=C4)cc2)C1
REMARK SMILES IDX 24 1 23 2 22 3 20 4 21 5 19 7 16 8 17 9 95 10 18 11 15 14
REMARK SMILES IDX 1 15 2 16 3 18 4 19 5 20 13 21 6 22 12 23 14 24 7 25 11 26
REMARK SMILES IDX 8 27 10 28 9 29 25 30 26 31 27 32 28 34 29 35 30 36 94 37
REMARK SMILES IDX 31 38 93 39 32 40 33 41 34 42 87 43 35 44 92 45 86 46 88 47
REMARK SMILES IDX 36 48 91 49 85 50 84 51 37 53 71 54 50 55 70 56 51 57 54 58
REMARK SMILES IDX 69 59 89 60 52 61 53 62 68 64 90 65 55 66 38 67 39 68 48 69
REMARK SMILES IDX 40 70 41 71 47 72 49 73 42 74 43 75 44 76 45 77 46 78 72 79
REMARK SMILES IDX 73 80 82 81 74 82 75 83 81 84 83 85 76 86 77 87 78 88 79 89
REMARK SMILES IDX 80 90 56 91 57 92 66 93 58 94 59 95 65 96 67 97 60 98 61 99
REMARK SMILES IDX 62 100 63 101 64 102
REMARK H PARENT 22 6 18 12 18 13 15 17 26 33 88 52 54 63
REMARK Flexibility Score: inf
ROOT
ATOM      1  C   UNL A   1      34.782  32.723  29.946  1.00  0.00     0.042 C 
ENDROOT
BRANCH   1   2
ATOM      2  C   UNL A   1      35.116  34.170  30.302  1.00  0.00     0.118 C 
BRANCH   2   3
ATOM      3  N   UNL A   1      34.009  35.068  30.035  1.00  0.00    -0.351 N 
ATOM      4  C   UNL A   1      33.151  35.706  30.886  1.00  0.00     0.278 C 
ATOM      5  O   UNL A   1      32.281  36.405  30.362  1.00  0.00    -0.268 OA
ATOM      6  H   UNL A   1      33.846  35.247  29.081  1.00  0.00     0.163 HD
BRANCH   4   7
ATOM      7  C   UNL A   1      33.355  35.603  32.419  1.00  0.00     0.274 C 
ATOM      8  C   UNL A   1      35.038  34.620  33.843  1.00  0.00     0.143 C 
ATOM      9  C   UNL A   1      34.153  33.536  33.248  1.00  0.00     0.286 C 
ATOM     10  C   UNL A   1      34.805  35.764  32.874  1.00  0.00     0.106 C 
ATOM     11  N   UNL A   1      32.919  34.260  32.911  1.00  0.00    -0.334 N 
ATOM     12  H   UNL A   1      32.329  34.359  33.739  1.00  0.00     0.347 HD
ATOM     13  H   UNL A   1      32.371  33.762  32.210  1.00  0.00     0.347 HD
BRANCH   8  14
ATOM     14  N   UNL A   1      36.435  34.273  33.947  1.00  0.00    -0.346 N 
ATOM     15  O   UNL A   1      36.296  33.546  36.107  1.00  0.00    -0.273 OA
ATOM     16  C   UNL A   1      36.968  33.703  35.088  1.00  0.00     0.242 C 
ATOM     17  H   UNL A   1      37.028  34.448  33.180  1.00  0.00     0.164 HD
BRANCH  16  18
ATOM     18  C   UNL A   1      38.480  33.473  35.072  1.00  0.00     0.248 C 
BRANCH  18  19
ATOM     19  N   UNL A   1      38.836  32.174  34.500  1.00  0.00    -0.220 N 
ATOM     20  N   UNL A   1      37.782  31.392  34.078  1.00  0.00    -0.177 NA
ATOM     21  C   UNL A   1      40.176  31.825  34.355  1.00  0.00     0.275 A 
ATOM     22  C   UNL A   1      38.048  30.244  33.540  1.00  0.00     0.142 A 
ATOM     23  C   UNL A   1      40.456  30.490  33.803  1.00  0.00     0.050 A 
ATOM     24  O   UNL A   1      41.105  32.598  34.585  1.00  0.00    -0.267 OA
ATOM     25  C   UNL A   1      39.393  29.715  33.364  1.00  0.00     0.007 A 
ATOM     26  C   UNL A   1      41.762  30.011  33.676  1.00  0.00     0.014 A 
ATOM     27  C   UNL A   1      39.605  28.471  32.768  1.00  0.00     0.010 A 
ATOM     28  C   UNL A   1      41.986  28.762  33.092  1.00  0.00     0.001 A 
ATOM     29  C   UNL A   1      40.910  27.998  32.630  1.00  0.00     0.001 A 
ENDBRANCH  18  19
ENDBRANCH  16  18
ENDBRANCH   8  14
ENDBRANCH   4   7
ENDBRANCH   2   3
ENDBRANCH   1   2
BRANCH   1  30
ATOM     30  C   UNL A   1      34.588  32.472  28.453  1.00  0.00     0.118 C 
BRANCH  30  31
ATOM     31  N   UNL A   1      34.002  31.170  28.170  1.00  0.00    -0.352 N 
ATOM     32  C   UNL A   1      34.601  29.941  28.012  1.00  0.00     0.251 C 
ATOM     33  H   UNL A   1      33.022  31.168  28.079  1.00  0.00     0.163 HD
ATOM     34  O   UNL A   1      33.928  28.996  27.611  1.00  0.00    -0.269 OA
BRANCH  32  35
ATOM     35  C   UNL A   1      36.046  29.757  28.291  1.00  0.00     0.039 A 
ATOM     36  C   UNL A   1      37.014  30.030  27.323  1.00  0.00     0.014 A 
ATOM     37  C   UNL A   1      36.443  29.321  29.561  1.00  0.00     0.014 A 
ATOM     38  C   UNL A   1      38.347  29.706  27.563  1.00  0.00     0.010 A 
ATOM     39  C   UNL A   1      37.798  29.086  29.831  1.00  0.00     0.010 A 
ATOM     40  C   UNL A   1      38.758  29.229  28.819  1.00  0.00    -0.014 A 
BRANCH  40  41
ATOM     41  C   UNL A   1      40.193  28.896  29.037  1.00  0.00     0.031 A 
ATOM     42  C   UNL A   1      40.749  27.556  28.625  1.00  0.00     0.074 A 
ATOM     43  C   UNL A   1      41.014  29.832  29.558  1.00  0.00     0.049 A 
ATOM     44  N   UNL A   1      41.984  27.126  28.685  1.00  0.00    -0.248 NA
ATOM     45  C   UNL A   1      39.803  26.568  28.083  1.00  0.00     0.031 C 
ATOM     46  C   UNL A   1      40.594  31.158  30.018  1.00  0.00     0.029 A 
ATOM     47  N   UNL A   1      42.370  29.826  29.766  1.00  0.00    -0.354 N 
ATOM     48  C   UNL A   1      41.962  25.821  28.209  1.00  0.00     0.074 A 
ATOM     49  C   UNL A   1      40.585  25.513  27.890  1.00  0.00     0.031 C 
ATOM     50  C   UNL A   1      41.672  31.855  30.404  1.00  0.00     0.029 A 
ATOM     51  C   UNL A   1      42.856  31.011  30.272  1.00  0.00     0.049 A 
ATOM     52  H   UNL A   1      42.942  29.050  29.573  1.00  0.00     0.167 HD
ATOM     53  C   UNL A   1      42.996  24.963  28.035  1.00  0.00     0.037 A 
ATOM     54  C   UNL A   1      44.108  31.379  30.602  1.00  0.00     0.037 A 
ATOM     55  C   UNL A   1      44.372  25.286  28.313  1.00  0.00     0.049 A 
ATOM     56  C   UNL A   1      45.237  30.406  30.402  1.00  0.00     0.074 A 
ATOM     57  C   UNL A   1      45.493  24.501  28.110  1.00  0.00     0.029 A 
ATOM     58  N   UNL A   1      44.815  26.485  28.850  1.00  0.00    -0.354 N 
ATOM     59  N   UNL A   1      45.197  29.194  29.901  1.00  0.00    -0.248 NA
ATOM     60  C   UNL A   1      46.578  30.844  30.814  1.00  0.00     0.031 C 
ATOM     61  C   UNL A   1      46.611  25.206  28.567  1.00  0.00     0.029 A 
ATOM     62  C   UNL A   1      46.191  26.450  29.010  1.00  0.00     0.049 A 
ATOM     63  H   UNL A   1      44.238  27.248  29.082  1.00  0.00     0.167 HD
ATOM     64  C   UNL A   1      46.507  28.729  29.933  1.00  0.00     0.074 A 
ATOM     65  C   UNL A   1      47.319  29.796  30.478  1.00  0.00     0.031 C 
ATOM     66  C   UNL A   1      46.988  27.520  29.551  1.00  0.00     0.037 A 
BRANCH  53  67
ATOM     67  C   UNL A   1      42.701  23.585  27.509  1.00  0.00     0.058 A 
ATOM     68  C   UNL A   1      42.798  23.284  26.142  1.00  0.00     0.135 A 
ATOM     69  C   UNL A   1      42.421  22.531  28.395  1.00  0.00     0.135 A 
ATOM     70  F   UNL A   1      43.049  24.257  25.252  1.00  0.00    -0.206 F 
ATOM     71  C   UNL A   1      42.629  21.987  25.671  1.00  0.00     0.059 A 
ATOM     72  C   UNL A   1      42.269  21.222  27.947  1.00  0.00     0.059 A 
ATOM     73  F   UNL A   1      42.316  22.767  29.712  1.00  0.00    -0.206 F 
ATOM     74  C   UNL A   1      42.373  20.960  26.583  1.00  0.00     0.060 A 
BRANCH  74  75
ATOM     75  S   UNL A   1      42.209  19.274  25.956  1.00  0.00     0.124 S 
ATOM     76  O   UNL A   1      43.083  19.312  24.786  1.00  0.00    -0.237 OA
ATOM     77  O   UNL A   1      42.690  18.477  27.079  1.00  0.00    -0.237 OA
ATOM     78  O   UNL A   1      40.783  19.155  25.668  1.00  0.00    -0.744 OA
ENDBRANCH  74  75
ENDBRANCH  53  67
BRANCH  54  79
ATOM     79  C   UNL A   1      44.357  32.732  31.166  1.00  0.00     0.058 A 
ATOM     80  C   UNL A   1      44.563  33.841  30.333  1.00  0.00     0.135 A 
ATOM     81  C   UNL A   1      44.374  32.945  32.555  1.00  0.00     0.135 A 
ATOM     82  F   UNL A   1      44.562  33.689  29.000  1.00  0.00    -0.206 F 
ATOM     83  C   UNL A   1      44.788  35.111  30.855  1.00  0.00     0.059 A 
ATOM     84  C   UNL A   1      44.569  34.209  33.100  1.00  0.00     0.059 A 
ATOM     85  F   UNL A   1      44.167  31.919  33.395  1.00  0.00    -0.206 F 
ATOM     86  C   UNL A   1      44.787  35.285  32.241  1.00  0.00     0.060 A 
BRANCH  86  87
ATOM     87  S   UNL A   1      45.034  36.946  32.906  1.00  0.00     0.124 S 
ATOM     88  O   UNL A   1      45.574  36.654  34.229  1.00  0.00    -0.237 OA
ATOM     89  O   UNL A   1      45.969  37.524  31.947  1.00  0.00    -0.237 OA
ATOM     90  O   UNL A   1      43.691  37.518  32.885  1.00  0.00    -0.744 OA
ENDBRANCH  86  87
ENDBRANCH  54  79
BRANCH  66  91
ATOM     91  C   UNL A   1      48.464  27.279  29.701  1.00  0.00     0.058 A 
ATOM     92  C   UNL A   1      49.381  27.752  28.750  1.00  0.00     0.135 A 
ATOM     93  C   UNL A   1      48.971  26.650  30.849  1.00  0.00     0.135 A 
ATOM     94  F   UNL A   1      48.945  28.353  27.632  1.00  0.00    -0.206 F 
ATOM     95  C   UNL A   1      50.752  27.606  28.930  1.00  0.00     0.059 A 
ATOM     96  C   UNL A   1      50.340  26.513  31.061  1.00  0.00     0.059 A 
ATOM     97  F   UNL A   1      48.135  26.186  31.792  1.00  0.00    -0.206 F 
ATOM     98  C   UNL A   1      51.222  26.993  30.093  1.00  0.00     0.060 A 
BRANCH  98  99
ATOM     99  S   UNL A   1      53.006  26.867  30.340  1.00  0.00     0.124 S 
ATOM    100  O   UNL A   1      53.083  25.959  31.480  1.00  0.00    -0.237 OA
ATOM    101  O   UNL A   1      53.458  26.324  29.064  1.00  0.00    -0.237 OA
ATOM    102  O   UNL A   1      53.411  28.244  30.608  1.00  0.00    -0.744 OA
ENDBRANCH  98  99
ENDBRANCH  66  91
ENDBRANCH  40  41
ENDBRANCH  32  35
ENDBRANCH  30  31
ENDBRANCH   1  30
TORSDOF 16
ENDMDL
MODEL 2
REMARK VINA RESULT:     -11.0      4.664     12.092
REMARK SMILES O=C(Cn1ncc2ccccc2c1=O)N[C@@H]1C[NH2+][C@H](C(=O)NCCCNC(=O)c2ccc(-c3c4nc(c(-c5c(F)cc(S(=O)(=O)[O-])cc5F)c5ccc([nH]5)c(-c5c(F)cc(S(=O)(=O)[O-])cc5F)c5nc(c(-c6c(F)cc(S(=O)(=O)[O-])cc6F)c6ccc3[nH]6)C=C5)C=C4)cc2)C1
REMARK SMILES IDX 24 1 23 2 22 3 20 4 21 5 19 7 16 8 17 9 95 10 18 11 15 14
REMARK SMILES IDX 1 15 2 16 3 18 4 19 5 20 13 21 6 22 12 23 14 24 7 25 11 26
REMARK SMILES IDX 8 27 10 28 9 29 25 30 26 31 27 32 28 34 29 35 30 36 94 37
REMARK SMILES IDX 31 38 93 39 32 40 33 41 34 42 87 43 35 44 92 45 86 46 88 47
REMARK SMILES IDX 36 48 91 49 85 50 84 51 37 53 71 54 50 55 70 56 51 57 54 58
REMARK SMILES IDX 69 59 89 60 52 61 53 62 68 64 90 65 55 66 38 67 39 68 48 69
REMARK SMILES IDX 40 70 41 71 47 72 49 73 42 74 43 75 44 76 45 77 46 78 72 79
REMARK SMILES IDX 73 80 82 81 74 82 75 83 81 84 83 85 76 86 77 87 78 88 79 89
REMARK SMILES IDX 80 90 56 91 57 92 66 93 58 94 59 95 65 96 67 97 60 98 61 99
REMARK SMILES IDX 62 100 63 101 64 102
REMARK H PARENT 22 6 18 12 18 13 15 17 26 33 88 52 54 63
REMARK Flexibility Score: inf
ROOT
ATOM      1  C   UNL A   1      41.914  21.502  27.181  1.00  0.00     0.042 C 
ENDROOT
BRANCH   1   2
ATOM      2  C   UNL A   1      42.424  21.307  25.755  1.00  0.00     0.118 C 
BRANCH   2   3
ATOM      3  N   UNL A   1      42.878  19.949  25.520  1.00  0.00    -0.351 N 
ATOM      4  C   UNL A   1      44.055  19.476  25.012  1.00  0.00     0.278 C 
ATOM      5  O   UNL A   1      44.151  18.250  24.910  1.00  0.00    -0.268 OA
ATOM      6  H   UNL A   1      42.228  19.252  25.766  1.00  0.00     0.163 HD
BRANCH   4   7
ATOM      7  C   UNL A   1      45.210  20.454  24.683  1.00  0.00     0.274 C 
ATOM      8  C   UNL A   1      45.571  22.819  24.999  1.00  0.00     0.143 C 
ATOM      9  C   UNL A   1      44.596  22.584  23.856  1.00  0.00     0.286 C 
ATOM     10  C   UNL A   1      45.468  21.510  25.757  1.00  0.00     0.106 C 
ATOM     11  N   UNL A   1      44.907  21.212  23.430  1.00  0.00    -0.334 N 
ATOM     12  H   UNL A   1      45.717  21.209  22.808  1.00  0.00     0.347 HD
ATOM     13  H   UNL A   1      44.132  20.794  22.916  1.00  0.00     0.347 HD
BRANCH   8  14
ATOM     14  N   UNL A   1      45.262  23.956  25.834  1.00  0.00    -0.346 N 
ATOM     15  O   UNL A   1      47.356  24.114  26.731  1.00  0.00    -0.273 OA
ATOM     16  C   UNL A   1      46.215  24.565  26.627  1.00  0.00     0.242 C 
ATOM     17  H   UNL A   1      44.342  24.307  25.840  1.00  0.00     0.164 HD
BRANCH  16  18
ATOM     18  C   UNL A   1      45.711  25.702  27.518  1.00  0.00     0.248 C 
BRANCH  18  19
ATOM     19  N   UNL A   1      45.336  25.234  28.853  1.00  0.00    -0.220 N 
ATOM     20  N   UNL A   1      44.326  24.296  28.902  1.00  0.00    -0.177 NA
ATOM     21  C   UNL A   1      46.032  25.691  29.969  1.00  0.00     0.275 A 
ATOM     22  C   UNL A   1      43.977  23.831  30.059  1.00  0.00     0.142 A 
ATOM     23  C   UNL A   1      45.577  25.202  31.280  1.00  0.00     0.050 A 
ATOM     24  O   UNL A   1      47.034  26.401  29.896  1.00  0.00    -0.267 OA
ATOM     25  C   UNL A   1      44.573  24.246  31.321  1.00  0.00     0.007 A 
ATOM     26  C   UNL A   1      46.160  25.647  32.469  1.00  0.00     0.014 A 
ATOM     27  C   UNL A   1      44.151  23.695  32.532  1.00  0.00     0.010 A 
ATOM     28  C   UNL A   1      45.738  25.112  33.688  1.00  0.00     0.001 A 
ATOM     29  C   UNL A   1      44.743  24.131  33.719  1.00  0.00     0.001 A 
ENDBRANCH  18  19
ENDBRANCH  16  18
ENDBRANCH   8  14
ENDBRANCH   4   7
ENDBRANCH   2   3
ENDBRANCH   1   2
BRANCH   1  30
ATOM     30  C   UNL A   1      41.205  22.833  27.418  1.00  0.00     0.118 C 
BRANCH  30  31
ATOM     31  N   UNL A   1      41.303  23.736  26.280  1.00  0.00    -0.352 N 
ATOM     32  C   UNL A   1      41.186  25.106  26.219  1.00  0.00     0.251 C 
ATOM     33  H   UNL A   1      41.481  23.297  25.417  1.00  0.00     0.163 HD
ATOM     34  O   UNL A   1      41.138  25.653  25.123  1.00  0.00    -0.269 OA
BRANCH  32  35
ATOM     35  C   UNL A   1      41.089  25.917  27.458  1.00  0.00     0.039 A 
ATOM     36  C   UNL A   1      40.028  25.758  28.349  1.00  0.00     0.014 A 
ATOM     37  C   UNL A   1      42.100  26.843  27.745  1.00  0.00     0.014 A 
ATOM     38  C   UNL A   1      39.885  26.634  29.423  1.00  0.00     0.010 A 
ATOM     39  C   UNL A   1      42.003  27.659  28.879  1.00  0.00     0.010 A 
ATOM     40  C   UNL A   1      40.869  27.598  29.703  1.00  0.00    -0.014 A 
BRANCH  40  41
ATOM     41  C   UNL A   1      40.682  28.514  30.861  1.00  0.00     0.031 A 
ATOM     42  C   UNL A   1      41.572  28.421  32.075  1.00  0.00     0.074 A 
ATOM     43  C   UNL A   1      39.739  29.477  30.793  1.00  0.00     0.049 A 
ATOM     44  N   UNL A   1      41.587  29.179  33.142  1.00  0.00    -0.248 NA
ATOM     45  C   UNL A   1      42.568  27.338  32.102  1.00  0.00     0.031 C 
ATOM     46  C   UNL A   1      38.799  29.657  29.684  1.00  0.00     0.029 A 
ATOM     47  N   UNL A   1      39.428  30.498  31.655  1.00  0.00    -0.354 N 
ATOM     48  C   UNL A   1      42.574  28.659  33.970  1.00  0.00     0.074 A 
ATOM     49  C   UNL A   1      43.119  27.500  33.299  1.00  0.00     0.031 C 
ATOM     50  C   UNL A   1      38.055  30.751  29.907  1.00  0.00     0.029 A 
ATOM     51  C   UNL A   1      38.424  31.321  31.199  1.00  0.00     0.049 A 
ATOM     52  H   UNL A   1      39.881  30.631  32.519  1.00  0.00     0.167 HD
ATOM     53  C   UNL A   1      43.000  29.116  35.173  1.00  0.00     0.037 A 
ATOM     54  C   UNL A   1      37.855  32.407  31.755  1.00  0.00     0.037 A 
ATOM     55  C   UNL A   1      42.486  30.295  35.820  1.00  0.00     0.049 A 
ATOM     56  C   UNL A   1      38.345  32.891  33.092  1.00  0.00     0.074 A 
ATOM     57  C   UNL A   1      42.900  30.868  37.010  1.00  0.00     0.029 A 
ATOM     58  N   UNL A   1      41.451  31.081  35.337  1.00  0.00    -0.354 N 
ATOM     59  N   UNL A   1      39.316  32.411  33.833  1.00  0.00    -0.248 NA
ATOM     60  C   UNL A   1      37.665  34.057  33.672  1.00  0.00     0.031 C 
ATOM     61  C   UNL A   1      42.086  31.974  37.271  1.00  0.00     0.029 A 
ATOM     62  C   UNL A   1      41.195  32.118  36.219  1.00  0.00     0.049 A 
ATOM     63  H   UNL A   1      40.970  30.925  34.492  1.00  0.00     0.167 HD
ATOM     64  C   UNL A   1      39.365  33.220  34.962  1.00  0.00     0.074 A 
ATOM     65  C   UNL A   1      38.345  34.234  34.797  1.00  0.00     0.031 C 
ATOM     66  C   UNL A   1      40.179  33.123  36.042  1.00  0.00     0.037 A 
BRANCH  53  67
ATOM     67  C   UNL A   1      44.088  28.356  35.881  1.00  0.00     0.058 A 
ATOM     68  C   UNL A   1      45.442  28.686  35.717  1.00  0.00     0.135 A 
ATOM     69  C   UNL A   1      43.765  27.356  36.814  1.00  0.00     0.135 A 
ATOM     70  F   UNL A   1      45.807  29.623  34.829  1.00  0.00    -0.206 F 
ATOM     71  C   UNL A   1      46.437  28.052  36.453  1.00  0.00     0.059 A 
ATOM     72  C   UNL A   1      44.743  26.724  37.576  1.00  0.00     0.059 A 
ATOM     73  F   UNL A   1      42.485  27.002  37.007  1.00  0.00    -0.206 F 
ATOM     74  C   UNL A   1      46.077  27.078  37.388  1.00  0.00     0.060 A 
BRANCH  74  75
ATOM     75  S   UNL A   1      47.381  26.306  38.370  1.00  0.00     0.124 S 
ATOM     76  O   UNL A   1      47.634  25.085  37.611  1.00  0.00    -0.237 OA
ATOM     77  O   UNL A   1      48.439  27.310  38.325  1.00  0.00    -0.237 OA
ATOM     78  O   UNL A   1      46.756  26.114  39.675  1.00  0.00    -0.744 OA
ENDBRANCH  74  75
ENDBRANCH  53  67
BRANCH  54  79
ATOM     79  C   UNL A   1      36.748  33.105  31.050  1.00  0.00     0.058 A 
ATOM     80  C   UNL A   1      36.997  33.936  29.948  1.00  0.00     0.135 A 
ATOM     81  C   UNL A   1      35.413  32.938  31.454  1.00  0.00     0.135 A 
ATOM     82  F   UNL A   1      38.256  34.133  29.527  1.00  0.00    -0.206 F 
ATOM     83  C   UNL A   1      35.964  34.586  29.278  1.00  0.00     0.059 A 
ATOM     84  C   UNL A   1      34.362  33.555  30.784  1.00  0.00     0.059 A 
ATOM     85  F   UNL A   1      35.120  32.141  32.494  1.00  0.00    -0.206 F 
ATOM     86  C   UNL A   1      34.649  34.386  29.704  1.00  0.00     0.060 A 
BRANCH  86  87
ATOM     87  S   UNL A   1      33.313  35.198  28.799  1.00  0.00     0.124 S 
ATOM     88  O   UNL A   1      34.050  36.164  27.993  1.00  0.00    -0.237 OA
ATOM     89  O   UNL A   1      32.714  34.084  28.072  1.00  0.00    -0.237 OA
ATOM     90  O   UNL A   1      32.485  35.762  29.860  1.00  0.00    -0.744 OA
ENDBRANCH  86  87
ENDBRANCH  54  79
BRANCH  66  91
ATOM     91  C   UNL A   1      40.011  34.140  37.135  1.00  0.00     0.058 A 
ATOM     92  C   UNL A   1      40.599  35.412  37.045  1.00  0.00     0.135 A 
ATOM     93  C   UNL A   1      39.183  33.874  38.236  1.00  0.00     0.135 A 
ATOM     94  F   UNL A   1      41.405  35.712  36.015  1.00  0.00    -0.206 F 
ATOM     95  C   UNL A   1      40.374  36.384  38.013  1.00  0.00     0.059 A 
ATOM     96  C   UNL A   1      38.925  34.840  39.205  1.00  0.00     0.059 A 
ATOM     97  F   UNL A   1      38.591  32.676  38.364  1.00  0.00    -0.206 F 
ATOM     98  C   UNL A   1      39.528  36.092  39.085  1.00  0.00     0.060 A 
BRANCH  98  99
ATOM     99  S   UNL A   1      39.197  37.386  40.299  1.00  0.00     0.124 S 
ATOM    100  O   UNL A   1      38.283  38.253  39.564  1.00  0.00    -0.237 OA
ATOM    101  O   UNL A   1      38.610  36.633  41.403  1.00  0.00    -0.237 OA
ATOM    102  O   UNL A   1      40.518  37.949  40.565  1.00  0.00    -0.744 OA
ENDBRANCH  98  99
ENDBRANCH  66  91
ENDBRANCH  40  41
ENDBRANCH  32  35
ENDBRANCH  30  31
ENDBRANCH   1  30
TORSDOF 16
ENDMDL
MODEL 3
REMARK VINA RESULT:     -10.9      5.151     11.875
REMARK SMILES O=C(Cn1ncc2ccccc2c1=O)N[C@@H]1C[NH2+][C@H](C(=O)NCCCNC(=O)c2ccc(-c3c4nc(c(-c5c(F)cc(S(=O)(=O)[O-])cc5F)c5ccc([nH]5)c(-c5c(F)cc(S(=O)(=O)[O-])cc5F)c5nc(c(-c6c(F)cc(S(=O)(=O)[O-])cc6F)c6ccc3[nH]6)C=C5)C=C4)cc2)C1
REMARK SMILES IDX 24 1 23 2 22 3 20 4 21 5 19 7 16 8 17 9 95 10 18 11 15 14
REMARK SMILES IDX 1 15 2 16 3 18 4 19 5 20 13 21 6 22 12 23 14 24 7 25 11 26
REMARK SMILES IDX 8 27 10 28 9 29 25 30 26 31 27 32 28 34 29 35 30 36 94 37
REMARK SMILES IDX 31 38 93 39 32 40 33 41 34 42 87 43 35 44 92 45 86 46 88 47
REMARK SMILES IDX 36 48 91 49 85 50 84 51 37 53 71 54 50 55 70 56 51 57 54 58
REMARK SMILES IDX 69 59 89 60 52 61 53 62 68 64 90 65 55 66 38 67 39 68 48 69
REMARK SMILES IDX 40 70 41 71 47 72 49 73 42 74 43 75 44 76 45 77 46 78 72 79
REMARK SMILES IDX 73 80 82 81 74 82 75 83 81 84 83 85 76 86 77 87 78 88 79 89
REMARK SMILES IDX 80 90 56 91 57 92 66 93 58 94 59 95 65 96 67 97 60 98 61 99
REMARK SMILES IDX 62 100 63 101 64 102
REMARK H PARENT 22 6 18 12 18 13 15 17 26 33 88 52 54 63
REMARK Flexibility Score: inf
ROOT
ATOM      1  C   UNL A   1      37.908  23.684  25.751  1.00  0.00     0.042 C 
ENDROOT
BRANCH   1   2
ATOM      2  C   UNL A   1      37.352  22.328  25.322  1.00  0.00     0.118 C 
BRANCH   2   3
ATOM      3  N   UNL A   1      36.218  21.922  26.130  1.00  0.00    -0.351 N 
ATOM      4  C   UNL A   1      34.911  21.709  25.793  1.00  0.00     0.278 C 
ATOM      5  O   UNL A   1      34.157  21.381  26.713  1.00  0.00    -0.268 OA
ATOM      6  H   UNL A   1      36.424  21.777  27.082  1.00  0.00     0.163 HD
BRANCH   4   7
ATOM      7  C   UNL A   1      34.465  21.795  24.312  1.00  0.00     0.274 C 
ATOM      8  C   UNL A   1      32.922  23.185  23.084  1.00  0.00     0.143 C 
ATOM      9  C   UNL A   1      32.163  22.162  23.915  1.00  0.00     0.286 C 
ATOM     10  C   UNL A   1      34.260  23.219  23.797  1.00  0.00     0.106 C 
ATOM     11  N   UNL A   1      33.155  21.099  24.123  1.00  0.00    -0.334 N 
ATOM     12  H   UNL A   1      33.194  20.485  23.308  1.00  0.00     0.347 HD
ATOM     13  H   UNL A   1      32.920  20.517  24.927  1.00  0.00     0.347 HD
BRANCH   8  14
ATOM     14  N   UNL A   1      32.308  24.490  23.021  1.00  0.00    -0.346 N 
ATOM     15  O   UNL A   1      33.282  25.069  21.038  1.00  0.00    -0.273 OA
ATOM     16  C   UNL A   1      32.503  25.342  21.951  1.00  0.00     0.242 C 
ATOM     17  H   UNL A   1      31.732  24.783  23.765  1.00  0.00     0.164 HD
BRANCH  16  18
ATOM     18  C   UNL A   1      31.853  26.722  22.073  1.00  0.00     0.248 C 
BRANCH  18  19
ATOM     19  N   UNL A   1      32.317  27.449  23.255  1.00  0.00    -0.220 N 
ATOM     20  N   UNL A   1      33.513  27.023  23.794  1.00  0.00    -0.177 NA
ATOM     21  C   UNL A   1      31.591  28.539  23.728  1.00  0.00     0.275 A 
ATOM     22  C   UNL A   1      33.979  27.653  24.826  1.00  0.00     0.142 A 
ATOM     23  C   UNL A   1      32.101  29.199  24.940  1.00  0.00     0.050 A 
ATOM     24  O   UNL A   1      30.616  29.006  23.142  1.00  0.00    -0.267 OA
ATOM     25  C   UNL A   1      33.313  28.778  25.467  1.00  0.00     0.007 A 
ATOM     26  C   UNL A   1      31.416  30.259  25.539  1.00  0.00     0.014 A 
ATOM     27  C   UNL A   1      33.879  29.414  26.573  1.00  0.00     0.010 A 
ATOM     28  C   UNL A   1      31.966  30.896  26.653  1.00  0.00     0.001 A 
ATOM     29  C   UNL A   1      33.200  30.481  27.163  1.00  0.00     0.001 A 
ENDBRANCH  18  19
ENDBRANCH  16  18
ENDBRANCH   8  14
ENDBRANCH   4   7
ENDBRANCH   2   3
ENDBRANCH   1   2
BRANCH   1  30
ATOM     30  C   UNL A   1      39.026  23.604  26.787  1.00  0.00     0.118 C 
BRANCH  30  31
ATOM     31  N   UNL A   1      40.343  23.847  26.218  1.00  0.00    -0.352 N 
ATOM     32  C   UNL A   1      41.227  24.881  26.430  1.00  0.00     0.251 C 
ATOM     33  H   UNL A   1      40.651  23.163  25.581  1.00  0.00     0.163 HD
ATOM     34  O   UNL A   1      42.219  24.974  25.715  1.00  0.00    -0.269 OA
BRANCH  32  35
ATOM     35  C   UNL A   1      40.977  25.891  27.488  1.00  0.00     0.039 A 
ATOM     36  C   UNL A   1      41.753  27.046  27.588  1.00  0.00     0.014 A 
ATOM     37  C   UNL A   1      39.924  25.686  28.387  1.00  0.00     0.014 A 
ATOM     38  C   UNL A   1      41.592  27.899  28.677  1.00  0.00     0.010 A 
ATOM     39  C   UNL A   1      39.702  26.597  29.428  1.00  0.00     0.010 A 
ATOM     40  C   UNL A   1      40.567  27.687  29.614  1.00  0.00    -0.014 A 
BRANCH  40  41
ATOM     41  C   UNL A   1      40.425  28.622  30.763  1.00  0.00     0.031 A 
ATOM     42  C   UNL A   1      41.352  28.536  31.950  1.00  0.00     0.074 A 
ATOM     43  C   UNL A   1      39.491  29.594  30.709  1.00  0.00     0.049 A 
ATOM     44  N   UNL A   1      41.407  29.309  33.005  1.00  0.00    -0.248 NA
ATOM     45  C   UNL A   1      42.337  27.442  31.963  1.00  0.00     0.031 C 
ATOM     46  C   UNL A   1      38.519  29.769  29.627  1.00  0.00     0.029 A 
ATOM     47  N   UNL A   1      39.219  30.631  31.566  1.00  0.00    -0.354 N 
ATOM     48  C   UNL A   1      42.414  28.790  33.811  1.00  0.00     0.074 A 
ATOM     49  C   UNL A   1      42.925  27.615  33.140  1.00  0.00     0.031 C 
ATOM     50  C   UNL A   1      37.795  30.874  29.857  1.00  0.00     0.029 A 
ATOM     51  C   UNL A   1      38.210  31.458  31.128  1.00  0.00     0.049 A 
ATOM     52  H   UNL A   1      39.699  30.771  32.414  1.00  0.00     0.167 HD
ATOM     53  C   UNL A   1      42.882  29.259  34.992  1.00  0.00     0.037 A 
ATOM     54  C   UNL A   1      37.669  32.559  31.686  1.00  0.00     0.037 A 
ATOM     55  C   UNL A   1      42.400  30.453  35.638  1.00  0.00     0.049 A 
ATOM     56  C   UNL A   1      38.206  33.056  33.000  1.00  0.00     0.074 A 
ATOM     57  C   UNL A   1      42.857  31.038  36.806  1.00  0.00     0.029 A 
ATOM     58  N   UNL A   1      41.360  31.244  35.175  1.00  0.00    -0.354 N 
ATOM     59  N   UNL A   1      39.194  32.576  33.717  1.00  0.00    -0.248 NA
ATOM     60  C   UNL A   1      37.556  34.238  33.584  1.00  0.00     0.031 C 
ATOM     61  C   UNL A   1      42.063  32.157  37.075  1.00  0.00     0.029 A 
ATOM     62  C   UNL A   1      41.142  32.297  36.049  1.00  0.00     0.049 A 
ATOM     63  H   UNL A   1      40.852  31.082  34.348  1.00  0.00     0.167 HD
ATOM     64  C   UNL A   1      39.286  33.401  34.833  1.00  0.00     0.074 A 
ATOM     65  C   UNL A   1      38.273  34.424  34.684  1.00  0.00     0.031 C 
ATOM     66  C   UNL A   1      40.132  33.310  35.888  1.00  0.00     0.037 A 
BRANCH  53  67
ATOM     67  C   UNL A   1      43.983  28.497  35.678  1.00  0.00     0.058 A 
ATOM     68  C   UNL A   1      43.707  27.452  36.573  1.00  0.00     0.135 A 
ATOM     69  C   UNL A   1      45.327  28.746  35.354  1.00  0.00     0.135 A 
ATOM     70  F   UNL A   1      42.441  27.182  36.927  1.00  0.00    -0.206 F 
ATOM     71  C   UNL A   1      44.725  26.681  37.123  1.00  0.00     0.059 A 
ATOM     72  C   UNL A   1      46.360  27.973  35.877  1.00  0.00     0.059 A 
ATOM     73  F   UNL A   1      45.645  29.736  34.504  1.00  0.00    -0.206 F 
ATOM     74  C   UNL A   1      46.049  26.943  36.762  1.00  0.00     0.060 A 
BRANCH  74  75
ATOM     75  S   UNL A   1      47.350  25.895  37.447  1.00  0.00     0.124 S 
ATOM     76  O   UNL A   1      47.897  26.755  38.492  1.00  0.00    -0.237 OA
ATOM     77  O   UNL A   1      46.600  24.733  37.912  1.00  0.00    -0.237 OA
ATOM     78  O   UNL A   1      48.231  25.656  36.308  1.00  0.00    -0.744 OA
ENDBRANCH  74  75
ENDBRANCH  53  67
BRANCH  54  79
ATOM     79  C   UNL A   1      36.549  33.259  31.004  1.00  0.00     0.058 A 
ATOM     80  C   UNL A   1      35.232  33.156  31.476  1.00  0.00     0.135 A 
ATOM     81  C   UNL A   1      36.778  34.062  29.875  1.00  0.00     0.135 A 
ATOM     82  F   UNL A   1      34.960  32.396  32.547  1.00  0.00    -0.206 F 
ATOM     83  C   UNL A   1      34.180  33.815  30.846  1.00  0.00     0.059 A 
ATOM     84  C   UNL A   1      35.749  34.753  29.245  1.00  0.00     0.059 A 
ATOM     85  F   UNL A   1      38.023  34.205  29.393  1.00  0.00    -0.206 F 
ATOM     86  C   UNL A   1      34.450  34.613  29.733  1.00  0.00     0.060 A 
BRANCH  86  87
ATOM     87  S   UNL A   1      33.085  35.501  28.952  1.00  0.00     0.124 S 
ATOM     88  O   UNL A   1      33.794  36.533  28.205  1.00  0.00    -0.237 OA
ATOM     89  O   UNL A   1      32.455  34.454  28.154  1.00  0.00    -0.237 OA
ATOM     90  O   UNL A   1      32.298  35.972  30.088  1.00  0.00    -0.744 OA
ENDBRANCH  86  87
ENDBRANCH  54  79
BRANCH  66  91
ATOM     91  C   UNL A   1      40.009  34.345  36.971  1.00  0.00     0.058 A 
ATOM     92  C   UNL A   1      40.667  35.581  36.877  1.00  0.00     0.135 A 
ATOM     93  C   UNL A   1      39.155  34.134  38.065  1.00  0.00     0.135 A 
ATOM     94  F   UNL A   1      41.500  35.827  35.853  1.00  0.00    -0.206 F 
ATOM     95  C   UNL A   1      40.485  36.573  37.834  1.00  0.00     0.059 A 
ATOM     96  C   UNL A   1      38.941  35.122  39.023  1.00  0.00     0.059 A 
ATOM     97  F   UNL A   1      38.497  32.971  38.197  1.00  0.00    -0.206 F 
ATOM     98  C   UNL A   1      39.613  36.337  38.899  1.00  0.00     0.060 A 
BRANCH  98  99
ATOM     99  S   UNL A   1      39.341  37.658  40.099  1.00  0.00     0.124 S 
ATOM    100  O   UNL A   1      40.611  38.376  40.040  1.00  0.00    -0.237 OA
ATOM    101  O   UNL A   1      38.190  38.357  39.537  1.00  0.00    -0.237 OA
ATOM    102  O   UNL A   1      39.085  36.940  41.344  1.00  0.00    -0.744 OA
ENDBRANCH  98  99
ENDBRANCH  66  91
ENDBRANCH  40  41
ENDBRANCH  32  35
ENDBRANCH  30  31
ENDBRANCH   1  30
TORSDOF 16
ENDMDL
