MODEL 1
REMARK VINA RESULT:     -12.2      0.000      0.000
REMARK SMILES O=C(CN1CC2(CCC1=O)CC[NH+](Cc1ccc(Cl)c(F)c1)CC2)NCCCNC(=O)c1ccc(-c2c3nc(c(-c4c(F)cc(S(=O)(=O)[O-])cc4F)c4ccc([nH]4)c(-c4c(F)cc(S(=O)(=O)[O-])cc4F)c4nc(c(-c5c(F)cc(S(=O)(=O)[O-])cc5F)c5ccc2[nH]5)C=C4)C=C3)cc1
REMARK SMILES IDX 27 1 26 2 25 3 1 4 2 5 3 7 4 8 5 9 9 10 6 11 8 12 10 13 7 14
REMARK SMILES IDX 11 15 24 16 12 17 23 18 13 19 14 21 15 22 16 23 22 24 17 25
REMARK SMILES IDX 20 26 18 27 21 28 19 29 28 30 29 31 30 32 31 34 32 35 33 36
REMARK SMILES IDX 97 37 34 38 96 39 35 40 36 41 37 42 90 43 38 44 95 45 89 46
REMARK SMILES IDX 91 47 39 48 94 49 88 50 87 51 40 53 74 54 53 55 73 56 54 57
REMARK SMILES IDX 57 58 72 59 92 60 55 61 56 62 71 64 93 65 58 66 41 67 42 68
REMARK SMILES IDX 51 69 43 70 44 71 50 72 52 73 45 74 46 75 47 76 48 77 49 78
REMARK SMILES IDX 75 79 76 80 85 81 77 82 78 83 84 84 86 85 79 86 80 87 81 88
REMARK SMILES IDX 82 89 83 90 59 91 60 92 69 93 61 94 62 95 68 96 70 97 63 98
REMARK SMILES IDX 64 99 65 100 66 101 67 102
REMARK H PARENT 25 6 13 20 29 33 91 52 57 63
REMARK Flexibility Score: inf
ROOT
ATOM      1  C   UNL A   1      32.185  27.954  27.014  1.00  0.00     0.042 C 
ENDROOT
BRANCH   1   2
ATOM      2  C   UNL A   1      31.548  28.546  25.770  1.00  0.00     0.117 C 
BRANCH   2   3
ATOM      3  N   UNL A   1      31.807  27.764  24.576  1.00  0.00    -0.354 N 
ATOM      4  O   UNL A   1      29.604  27.327  24.082  1.00  0.00    -0.273 OA
ATOM      5  C   UNL A   1      30.790  27.285  23.769  1.00  0.00     0.239 C 
ATOM      6  H   UNL A   1      32.740  27.565  24.333  1.00  0.00     0.163 HD
BRANCH   5   7
ATOM      7  C   UNL A   1      31.272  26.920  22.356  1.00  0.00     0.219 C 
BRANCH   7   8
ATOM      8  N   UNL A   1      31.685  25.513  22.287  1.00  0.00    -0.333 N 
ATOM      9  C   UNL A   1      30.962  24.502  23.059  1.00  0.00     0.127 C 
ATOM     10  C   UNL A   1      32.692  25.154  21.406  1.00  0.00     0.223 C 
ATOM     11  C   UNL A   1      31.931  23.521  23.730  1.00  0.00    -0.001 C 
ATOM     12  C   UNL A   1      33.382  23.819  21.647  1.00  0.00     0.101 C 
ATOM     13  O   UNL A   1      33.110  25.911  20.529  1.00  0.00    -0.275 OA
ATOM     14  C   UNL A   1      32.663  22.833  22.558  1.00  0.00     0.019 C 
ATOM     15  C   UNL A   1      32.934  24.270  24.640  1.00  0.00     0.070 C 
ATOM     16  C   UNL A   1      31.163  22.446  24.534  1.00  0.00     0.070 C 
ATOM     17  C   UNL A   1      32.395  24.633  26.024  1.00  0.00     0.263 C 
ATOM     18  C   UNL A   1      30.718  22.880  25.935  1.00  0.00     0.263 C 
ATOM     19  N   UNL A   1      31.741  23.542  26.732  1.00  0.00    -0.331 N 
ATOM     20  H   UNL A   1      31.203  23.989  27.474  1.00  0.00     0.348 HD
BRANCH  19  21
ATOM     21  C   UNL A   1      32.596  22.707  27.582  1.00  0.00     0.299 C 
BRANCH  21  22
ATOM     22  C   UNL A   1      33.878  22.200  26.961  1.00  0.00     0.009 A 
ATOM     23  C   UNL A   1      33.886  21.019  26.203  1.00  0.00     0.011 A 
ATOM     24  C   UNL A   1      35.060  22.950  27.050  1.00  0.00     0.050 A 
ATOM     25  C   UNL A   1      35.008  20.668  25.446  1.00  0.00     0.024 A 
ATOM     26  C   UNL A   1      36.165  22.613  26.272  1.00  0.00     0.142 A 
ATOM     27  C   UNL A   1      36.135  21.489  25.454  1.00  0.00     0.076 A 
ATOM     28  F   UNL A   1      37.228  23.431  26.278  1.00  0.00    -0.205 F 
ATOM     29  Cl  UNL A   1      37.459  21.120  24.417  1.00  0.00    -0.081 Cl
ENDBRANCH  21  22
ENDBRANCH  19  21
ENDBRANCH   7   8
ENDBRANCH   5   7
ENDBRANCH   2   3
ENDBRANCH   1   2
BRANCH   1  30
ATOM     30  C   UNL A   1      33.533  28.556  27.393  1.00  0.00     0.118 C 
BRANCH  30  31
ATOM     31  N   UNL A   1      33.484  29.967  27.744  1.00  0.00    -0.352 N 
ATOM     32  C   UNL A   1      34.498  30.756  28.245  1.00  0.00     0.251 C 
ATOM     33  H   UNL A   1      32.618  30.414  27.607  1.00  0.00     0.163 HD
ATOM     34  O   UNL A   1      34.265  31.919  28.566  1.00  0.00    -0.269 OA
BRANCH  32  35
ATOM     35  C   UNL A   1      35.850  30.182  28.437  1.00  0.00     0.039 A 
ATOM     36  C   UNL A   1      36.749  30.202  27.368  1.00  0.00     0.014 A 
ATOM     37  C   UNL A   1      36.248  29.671  29.676  1.00  0.00     0.014 A 
ATOM     38  C   UNL A   1      38.069  29.784  27.565  1.00  0.00     0.010 A 
ATOM     39  C   UNL A   1      37.582  29.333  29.890  1.00  0.00     0.010 A 
ATOM     40  C   UNL A   1      38.509  29.386  28.839  1.00  0.00    -0.014 A 
BRANCH  40  41
ATOM     41  C   UNL A   1      39.933  29.036  29.089  1.00  0.00     0.031 A 
ATOM     42  C   UNL A   1      40.877  30.057  29.666  1.00  0.00     0.074 A 
ATOM     43  C   UNL A   1      40.394  27.817  28.740  1.00  0.00     0.049 A 
ATOM     44  N   UNL A   1      42.160  29.955  29.905  1.00  0.00    -0.248 NA
ATOM     45  C   UNL A   1      40.313  31.377  29.990  1.00  0.00     0.031 C 
ATOM     46  C   UNL A   1      39.598  26.756  28.117  1.00  0.00     0.029 A 
ATOM     47  N   UNL A   1      41.648  27.266  28.850  1.00  0.00    -0.354 N 
ATOM     48  C   UNL A   1      42.556  31.195  30.393  1.00  0.00     0.074 A 
ATOM     49  C   UNL A   1      41.390  32.051  30.362  1.00  0.00     0.031 C 
ATOM     50  C   UNL A   1      40.374  25.676  27.927  1.00  0.00     0.029 A 
ATOM     51  C   UNL A   1      41.729  25.976  28.379  1.00  0.00     0.049 A 
ATOM     52  H   UNL A   1      42.416  27.748  29.232  1.00  0.00     0.167 HD
ATOM     53  C   UNL A   1      43.772  31.579  30.851  1.00  0.00     0.037 A 
ATOM     54  C   UNL A   1      42.777  25.131  28.313  1.00  0.00     0.037 A 
ATOM     55  C   UNL A   1      44.923  30.715  30.908  1.00  0.00     0.049 A 
ATOM     56  C   UNL A   1      44.115  25.576  28.837  1.00  0.00     0.074 A 
ATOM     57  C   UNL A   1      46.182  30.993  31.412  1.00  0.00     0.029 A 
ATOM     58  N   UNL A   1      44.958  29.409  30.445  1.00  0.00    -0.354 N 
ATOM     59  N   UNL A   1      44.453  26.730  29.360  1.00  0.00    -0.248 NA
ATOM     60  C   UNL A   1      45.214  24.601  28.772  1.00  0.00     0.031 C 
ATOM     61  C   UNL A   1      46.989  29.868  31.216  1.00  0.00     0.029 A 
ATOM     62  C   UNL A   1      46.221  28.873  30.635  1.00  0.00     0.049 A 
ATOM     63  H   UNL A   1      44.198  28.932  30.041  1.00  0.00     0.167 HD
ATOM     64  C   UNL A   1      45.794  26.612  29.711  1.00  0.00     0.074 A 
ATOM     65  C   UNL A   1      46.201  25.269  29.353  1.00  0.00     0.031 C 
ATOM     66  C   UNL A   1      46.612  27.531  30.280  1.00  0.00     0.037 A 
BRANCH  53  67
ATOM     67  C   UNL A   1      43.918  32.995  31.340  1.00  0.00     0.058 A 
ATOM     68  C   UNL A   1      44.328  34.030  30.483  1.00  0.00     0.135 A 
ATOM     69  C   UNL A   1      43.614  33.328  32.669  1.00  0.00     0.135 A 
ATOM     70  F   UNL A   1      44.646  33.765  29.205  1.00  0.00    -0.206 F 
ATOM     71  C   UNL A   1      44.461  35.338  30.935  1.00  0.00     0.059 A 
ATOM     72  C   UNL A   1      43.713  34.637  33.135  1.00  0.00     0.059 A 
ATOM     73  F   UNL A   1      43.218  32.379  33.531  1.00  0.00    -0.206 F 
ATOM     74  C   UNL A   1      44.152  35.632  32.263  1.00  0.00     0.060 A 
BRANCH  74  75
ATOM     75  S   UNL A   1      44.331  37.336  32.832  1.00  0.00     0.124 S 
ATOM     76  O   UNL A   1      43.775  38.078  31.704  1.00  0.00    -0.237 OA
ATOM     77  O   UNL A   1      43.529  37.343  34.051  1.00  0.00    -0.237 OA
ATOM     78  O   UNL A   1      45.770  37.479  33.029  1.00  0.00    -0.744 OA
ENDBRANCH  74  75
ENDBRANCH  53  67
BRANCH  54  79
ATOM     79  C   UNL A   1      42.595  23.764  27.754  1.00  0.00     0.058 A 
ATOM     80  C   UNL A   1      42.446  22.654  28.598  1.00  0.00     0.135 A 
ATOM     81  C   UNL A   1      42.558  23.540  26.369  1.00  0.00     0.135 A 
ATOM     82  F   UNL A   1      42.480  22.814  29.930  1.00  0.00    -0.206 F 
ATOM     83  C   UNL A   1      42.282  21.368  28.093  1.00  0.00     0.059 A 
ATOM     84  C   UNL A   1      42.370  22.268  25.838  1.00  0.00     0.059 A 
ATOM     85  F   UNL A   1      42.680  24.571  25.519  1.00  0.00    -0.206 F 
ATOM     86  C   UNL A   1      42.244  21.186  26.709  1.00  0.00     0.060 A 
BRANCH  86  87
ATOM     87  S   UNL A   1      41.982  19.520  26.061  1.00  0.00     0.124 S 
ATOM     88  O   UNL A   1      42.428  18.697  27.179  1.00  0.00    -0.237 OA
ATOM     89  O   UNL A   1      40.546  19.517  25.797  1.00  0.00    -0.237 OA
ATOM     90  O   UNL A   1      42.828  19.486  24.873  1.00  0.00    -0.744 OA
ENDBRANCH  86  87
ENDBRANCH  54  79
BRANCH  66  91
ATOM     91  C   UNL A   1      48.023  27.108  30.584  1.00  0.00     0.058 A 
ATOM     92  C   UNL A   1      49.079  27.360  29.695  1.00  0.00     0.135 A 
ATOM     93  C   UNL A   1      48.328  26.481  31.804  1.00  0.00     0.135 A 
ATOM     94  F   UNL A   1      48.841  27.951  28.513  1.00  0.00    -0.206 F 
ATOM     95  C   UNL A   1      50.385  26.984  29.992  1.00  0.00     0.059 A 
ATOM     96  C   UNL A   1      49.631  26.121  32.134  1.00  0.00     0.059 A 
ATOM     97  F   UNL A   1      47.357  26.227  32.696  1.00  0.00    -0.206 F 
ATOM     98  C   UNL A   1      50.651  26.364  31.216  1.00  0.00     0.060 A 
BRANCH  98  99
ATOM     99  S   UNL A   1      52.354  25.905  31.601  1.00  0.00     0.124 S 
ATOM    100  O   UNL A   1      52.703  26.896  32.613  1.00  0.00    -0.237 OA
ATOM    101  O   UNL A   1      52.208  24.534  32.079  1.00  0.00    -0.237 OA
ATOM    102  O   UNL A   1      53.040  26.045  30.320  1.00  0.00    -0.744 OA
ENDBRANCH  98  99
ENDBRANCH  66  91
ENDBRANCH  40  41
ENDBRANCH  32  35
ENDBRANCH  30  31
ENDBRANCH   1  30
TORSDOF 16
ENDMDL
MODEL 2
REMARK VINA RESULT:     -12.2      4.988     10.488
REMARK SMILES O=C(CN1CC2(CCC1=O)CC[NH+](Cc1ccc(Cl)c(F)c1)CC2)NCCCNC(=O)c1ccc(-c2c3nc(c(-c4c(F)cc(S(=O)(=O)[O-])cc4F)c4ccc([nH]4)c(-c4c(F)cc(S(=O)(=O)[O-])cc4F)c4nc(c(-c5c(F)cc(S(=O)(=O)[O-])cc5F)c5ccc2[nH]5)C=C4)C=C3)cc1
REMARK SMILES IDX 27 1 26 2 25 3 1 4 2 5 3 7 4 8 5 9 9 10 6 11 8 12 10 13 7 14
REMARK SMILES IDX 11 15 24 16 12 17 23 18 13 19 14 21 15 22 16 23 22 24 17 25
REMARK SMILES IDX 20 26 18 27 21 28 19 29 28 30 29 31 30 32 31 34 32 35 33 36
REMARK SMILES IDX 97 37 34 38 96 39 35 40 36 41 37 42 90 43 38 44 95 45 89 46
REMARK SMILES IDX 91 47 39 48 94 49 88 50 87 51 40 53 74 54 53 55 73 56 54 57
REMARK SMILES IDX 57 58 72 59 92 60 55 61 56 62 71 64 93 65 58 66 41 67 42 68
REMARK SMILES IDX 51 69 43 70 44 71 50 72 52 73 45 74 46 75 47 76 48 77 49 78
REMARK SMILES IDX 75 79 76 80 85 81 77 82 78 83 84 84 86 85 79 86 80 87 81 88
REMARK SMILES IDX 82 89 83 90 59 91 60 92 69 93 61 94 62 95 68 96 70 97 63 98
REMARK SMILES IDX 64 99 65 100 66 101 67 102
REMARK H PARENT 25 6 13 20 29 33 91 52 57 63
REMARK Flexibility Score: inf
ROOT
ATOM      1  C   UNL A   1      40.014  22.095  27.298  1.00  0.00     0.042 C 
ENDROOT
BRANCH   1   2
ATOM      2  C   UNL A   1      39.366  21.914  25.937  1.00  0.00     0.117 C 
BRANCH   2   3
ATOM      3  N   UNL A   1      37.930  22.120  25.963  1.00  0.00    -0.354 N 
ATOM      4  O   UNL A   1      37.398  20.331  24.620  1.00  0.00    -0.273 OA
ATOM      5  C   UNL A   1      37.044  21.242  25.362  1.00  0.00     0.239 C 
ATOM      6  H   UNL A   1      37.573  22.913  26.424  1.00  0.00     0.163 HD
BRANCH   5   7
ATOM      7  C   UNL A   1      35.614  21.374  25.905  1.00  0.00     0.219 C 
BRANCH   7   8
ATOM      8  N   UNL A   1      34.632  21.359  24.813  1.00  0.00    -0.333 N 
ATOM      9  C   UNL A   1      34.696  22.376  23.762  1.00  0.00     0.127 C 
ATOM     10  C   UNL A   1      33.723  20.317  24.743  1.00  0.00     0.223 C 
ATOM     11  C   UNL A   1      33.299  22.908  23.422  1.00  0.00    -0.001 C 
ATOM     12  C   UNL A   1      32.482  20.533  23.890  1.00  0.00     0.101 C 
ATOM     13  O   UNL A   1      33.831  19.294  25.421  1.00  0.00    -0.275 OA
ATOM     14  C   UNL A   1      32.532  21.680  22.889  1.00  0.00     0.019 C 
ATOM     15  C   UNL A   1      32.606  23.486  24.680  1.00  0.00     0.070 C 
ATOM     16  C   UNL A   1      33.370  23.973  22.301  1.00  0.00     0.070 C 
ATOM     17  C   UNL A   1      33.026  24.911  25.044  1.00  0.00     0.263 C 
ATOM     18  C   UNL A   1      33.735  25.385  22.772  1.00  0.00     0.263 C 
ATOM     19  N   UNL A   1      33.004  25.858  23.938  1.00  0.00    -0.331 N 
ATOM     20  H   UNL A   1      33.560  26.651  24.254  1.00  0.00     0.348 HD
BRANCH  19  21
ATOM     21  C   UNL A   1      31.744  26.575  23.715  1.00  0.00     0.299 C 
BRANCH  21  22
ATOM     22  C   UNL A   1      31.693  28.012  24.184  1.00  0.00     0.009 A 
ATOM     23  C   UNL A   1      30.641  28.855  23.793  1.00  0.00     0.011 A 
ATOM     24  C   UNL A   1      32.642  28.500  25.095  1.00  0.00     0.050 A 
ATOM     25  C   UNL A   1      30.468  30.103  24.397  1.00  0.00     0.024 A 
ATOM     26  C   UNL A   1      32.449  29.732  25.715  1.00  0.00     0.142 A 
ATOM     27  C   UNL A   1      31.355  30.524  25.386  1.00  0.00     0.076 A 
ATOM     28  F   UNL A   1      33.303  30.105  26.681  1.00  0.00    -0.205 F 
ATOM     29  Cl  UNL A   1      31.058  32.002  26.217  1.00  0.00    -0.081 Cl
ENDBRANCH  21  22
ENDBRANCH  19  21
ENDBRANCH   7   8
ENDBRANCH   5   7
ENDBRANCH   2   3
ENDBRANCH   1   2
BRANCH   1  30
ATOM     30  C   UNL A   1      41.170  23.087  27.332  1.00  0.00     0.118 C 
BRANCH  30  31
ATOM     31  N   UNL A   1      41.259  23.946  26.161  1.00  0.00    -0.352 N 
ATOM     32  C   UNL A   1      41.231  25.323  26.109  1.00  0.00     0.251 C 
ATOM     33  H   UNL A   1      41.351  23.485  25.295  1.00  0.00     0.163 HD
ATOM     34  O   UNL A   1      41.237  25.894  25.021  1.00  0.00    -0.269 OA
BRANCH  32  35
ATOM     35  C   UNL A   1      41.147  26.104  27.365  1.00  0.00     0.039 A 
ATOM     36  C   UNL A   1      42.186  26.981  27.686  1.00  0.00     0.014 A 
ATOM     37  C   UNL A   1      40.029  26.011  28.200  1.00  0.00     0.014 A 
ATOM     38  C   UNL A   1      42.067  27.820  28.798  1.00  0.00     0.010 A 
ATOM     39  C   UNL A   1      39.877  26.904  29.258  1.00  0.00     0.010 A 
ATOM     40  C   UNL A   1      40.893  27.820  29.569  1.00  0.00    -0.014 A 
BRANCH  40  41
ATOM     41  C   UNL A   1      40.707  28.776  30.694  1.00  0.00     0.031 A 
ATOM     42  C   UNL A   1      41.538  28.651  31.944  1.00  0.00     0.074 A 
ATOM     43  C   UNL A   1      39.747  29.721  30.618  1.00  0.00     0.049 A 
ATOM     44  N   UNL A   1      41.484  29.355  33.046  1.00  0.00    -0.248 NA
ATOM     45  C   UNL A   1      42.542  27.575  31.970  1.00  0.00     0.031 C 
ATOM     46  C   UNL A   1      38.834  29.912  29.489  1.00  0.00     0.029 A 
ATOM     47  N   UNL A   1      39.372  30.694  31.512  1.00  0.00    -0.354 N 
ATOM     48  C   UNL A   1      42.433  28.800  33.897  1.00  0.00     0.074 A 
ATOM     49  C   UNL A   1      43.008  27.666  33.206  1.00  0.00     0.031 C 
ATOM     50  C   UNL A   1      38.026  30.953  29.746  1.00  0.00     0.029 A 
ATOM     51  C   UNL A   1      38.335  31.483  31.070  1.00  0.00     0.049 A 
ATOM     52  H   UNL A   1      39.806  30.816  32.387  1.00  0.00     0.167 HD
ATOM     53  C   UNL A   1      42.812  29.213  35.131  1.00  0.00     0.037 A 
ATOM     54  C   UNL A   1      37.702  32.513  31.665  1.00  0.00     0.037 A 
ATOM     55  C   UNL A   1      42.258  30.360  35.804  1.00  0.00     0.049 A 
ATOM     56  C   UNL A   1      38.147  32.961  33.031  1.00  0.00     0.074 A 
ATOM     57  C   UNL A   1      42.619  30.894  37.029  1.00  0.00     0.029 A 
ATOM     58  N   UNL A   1      41.228  31.147  35.313  1.00  0.00    -0.354 N 
ATOM     59  N   UNL A   1      39.095  32.466  33.792  1.00  0.00    -0.248 NA
ATOM     60  C   UNL A   1      37.444  34.111  33.617  1.00  0.00     0.031 C 
ATOM     61  C   UNL A   1      41.779  31.980  37.296  1.00  0.00     0.029 A 
ATOM     62  C   UNL A   1      40.929  32.153  36.217  1.00  0.00     0.049 A 
ATOM     63  H   UNL A   1      40.777  31.012  34.449  1.00  0.00     0.167 HD
ATOM     64  C   UNL A   1      39.120  33.262  34.933  1.00  0.00     0.074 A 
ATOM     65  C   UNL A   1      38.102  34.276  34.757  1.00  0.00     0.031 C 
ATOM     66  C   UNL A   1      39.915  33.161  36.026  1.00  0.00     0.037 A 
BRANCH  53  67
ATOM     67  C   UNL A   1      43.886  28.425  35.830  1.00  0.00     0.058 A 
ATOM     68  C   UNL A   1      45.247  28.735  35.672  1.00  0.00     0.135 A 
ATOM     69  C   UNL A   1      43.552  27.369  36.693  1.00  0.00     0.135 A 
ATOM     70  F   UNL A   1      45.624  29.725  34.848  1.00  0.00    -0.206 F 
ATOM     71  C   UNL A   1      46.239  28.006  36.320  1.00  0.00     0.059 A 
ATOM     72  C   UNL A   1      44.527  26.645  37.374  1.00  0.00     0.059 A 
ATOM     73  F   UNL A   1      42.267  27.029  36.880  1.00  0.00    -0.206 F 
ATOM     74  C   UNL A   1      45.869  26.962  37.168  1.00  0.00     0.060 A 
BRANCH  74  75
ATOM     75  S   UNL A   1      47.170  26.027  38.001  1.00  0.00     0.124 S 
ATOM     76  O   UNL A   1      48.340  26.386  37.205  1.00  0.00    -0.237 OA
ATOM     77  O   UNL A   1      47.132  26.575  39.353  1.00  0.00    -0.237 OA
ATOM     78  O   UNL A   1      46.727  24.642  37.875  1.00  0.00    -0.744 OA
ENDBRANCH  74  75
ENDBRANCH  53  67
BRANCH  54  79
ATOM     79  C   UNL A   1      36.597  33.214  30.958  1.00  0.00     0.058 A 
ATOM     80  C   UNL A   1      35.263  33.046  31.360  1.00  0.00     0.135 A 
ATOM     81  C   UNL A   1      36.849  34.071  29.876  1.00  0.00     0.135 A 
ATOM     82  F   UNL A   1      34.969  32.232  32.386  1.00  0.00    -0.206 F 
ATOM     83  C   UNL A   1      34.216  33.688  30.706  1.00  0.00     0.059 A 
ATOM     84  C   UNL A   1      35.822  34.745  29.222  1.00  0.00     0.059 A 
ATOM     85  F   UNL A   1      38.109  34.279  29.464  1.00  0.00    -0.206 F 
ATOM     86  C   UNL A   1      34.507  34.538  29.637  1.00  0.00     0.060 A 
BRANCH  86  87
ATOM     87  S   UNL A   1      33.147  35.406  28.826  1.00  0.00     0.124 S 
ATOM     88  O   UNL A   1      32.395  35.909  29.969  1.00  0.00    -0.237 OA
ATOM     89  O   UNL A   1      33.854  36.410  28.034  1.00  0.00    -0.237 OA
ATOM     90  O   UNL A   1      32.494  34.356  28.051  1.00  0.00    -0.744 OA
ENDBRANCH  86  87
ENDBRANCH  54  79
BRANCH  66  91
ATOM     91  C   UNL A   1      39.744  34.196  37.105  1.00  0.00     0.058 A 
ATOM     92  C   UNL A   1      38.989  33.940  38.260  1.00  0.00     0.135 A 
ATOM     93  C   UNL A   1      40.382  35.442  37.001  1.00  0.00     0.135 A 
ATOM     94  F   UNL A   1      38.354  32.767  38.407  1.00  0.00    -0.206 F 
ATOM     95  C   UNL A   1      38.851  34.894  39.263  1.00  0.00     0.059 A 
ATOM     96  C   UNL A   1      40.281  36.401  38.004  1.00  0.00     0.059 A 
ATOM     97  F   UNL A   1      41.126  35.733  35.922  1.00  0.00    -0.206 F 
ATOM     98  C   UNL A   1      39.501  36.123  39.126  1.00  0.00     0.060 A 
BRANCH  98  99
ATOM     99  S   UNL A   1      39.336  37.342  40.447  1.00  0.00     0.124 S 
ATOM    100  O   UNL A   1      40.706  37.827  40.571  1.00  0.00    -0.237 OA
ATOM    101  O   UNL A   1      38.378  38.287  39.882  1.00  0.00    -0.237 OA
ATOM    102  O   UNL A   1      38.842  36.556  41.573  1.00  0.00    -0.744 OA
ENDBRANCH  98  99
ENDBRANCH  66  91
ENDBRANCH  40  41
ENDBRANCH  32  35
ENDBRANCH  30  31
ENDBRANCH   1  30
TORSDOF 16
ENDMDL
MODEL 3
REMARK VINA RESULT:     -12.1      5.001     10.348
REMARK SMILES O=C(CN1CC2(CCC1=O)CC[NH+](Cc1ccc(Cl)c(F)c1)CC2)NCCCNC(=O)c1ccc(-c2c3nc(c(-c4c(F)cc(S(=O)(=O)[O-])cc4F)c4ccc([nH]4)c(-c4c(F)cc(S(=O)(=O)[O-])cc4F)c4nc(c(-c5c(F)cc(S(=O)(=O)[O-])cc5F)c5ccc2[nH]5)C=C4)C=C3)cc1
REMARK SMILES IDX 27 1 26 2 25 3 1 4 2 5 3 7 4 8 5 9 9 10 6 11 8 12 10 13 7 14
REMARK SMILES IDX 11 15 24 16 12 17 23 18 13 19 14 21 15 22 16 23 22 24 17 25
REMARK SMILES IDX 20 26 18 27 21 28 19 29 28 30 29 31 30 32 31 34 32 35 33 36
REMARK SMILES IDX 97 37 34 38 96 39 35 40 36 41 37 42 90 43 38 44 95 45 89 46
REMARK SMILES IDX 91 47 39 48 94 49 88 50 87 51 40 53 74 54 53 55 73 56 54 57
REMARK SMILES IDX 57 58 72 59 92 60 55 61 56 62 71 64 93 65 58 66 41 67 42 68
REMARK SMILES IDX 51 69 43 70 44 71 50 72 52 73 45 74 46 75 47 76 48 77 49 78
REMARK SMILES IDX 75 79 76 80 85 81 77 82 78 83 84 84 86 85 79 86 80 87 81 88
REMARK SMILES IDX 82 89 83 90 59 91 60 92 69 93 61 94 62 95 68 96 70 97 63 98
REMARK SMILES IDX 64 99 65 100 66 101 67 102
REMARK H PARENT 25 6 13 20 29 33 91 52 57 63
REMARK Flexibility Score: inf
ROOT
ATOM      1  C   UNL A   1      39.647  22.428  26.903  1.00  0.00     0.042 C 
ENDROOT
BRANCH   1   2
ATOM      2  C   UNL A   1      38.625  23.286  26.179  1.00  0.00     0.117 C 
BRANCH   2   3
ATOM      3  N   UNL A   1      37.289  22.722  26.215  1.00  0.00    -0.354 N 
ATOM      4  O   UNL A   1      37.352  21.800  24.109  1.00  0.00    -0.273 OA
ATOM      5  C   UNL A   1      36.788  21.937  25.190  1.00  0.00     0.239 C 
ATOM      6  H   UNL A   1      36.717  22.907  26.994  1.00  0.00     0.163 HD
BRANCH   5   7
ATOM      7  C   UNL A   1      35.595  21.075  25.629  1.00  0.00     0.219 C 
BRANCH   7   8
ATOM      8  N   UNL A   1      34.503  21.148  24.649  1.00  0.00    -0.333 N 
ATOM      9  C   UNL A   1      34.294  22.377  23.883  1.00  0.00     0.127 C 
ATOM     10  C   UNL A   1      33.754  20.011  24.396  1.00  0.00     0.223 C 
ATOM     11  C   UNL A   1      32.803  22.728  23.798  1.00  0.00    -0.001 C 
ATOM     12  C   UNL A   1      32.402  20.206  23.725  1.00  0.00     0.101 C 
ATOM     13  O   UNL A   1      34.089  18.893  24.787  1.00  0.00    -0.275 OA
ATOM     14  C   UNL A   1      32.165  21.545  23.040  1.00  0.00     0.019 C 
ATOM     15  C   UNL A   1      32.188  22.872  25.211  1.00  0.00     0.070 C 
ATOM     16  C   UNL A   1      32.585  24.020  22.974  1.00  0.00     0.070 C 
ATOM     17  C   UNL A   1      32.436  24.223  25.883  1.00  0.00     0.263 C 
ATOM     18  C   UNL A   1      32.794  25.325  23.750  1.00  0.00     0.263 C 
ATOM     19  N   UNL A   1      32.146  25.382  25.052  1.00  0.00    -0.331 N 
ATOM     20  H   UNL A   1      32.614  26.163  25.510  1.00  0.00     0.348 HD
BRANCH  19  21
ATOM     21  C   UNL A   1      30.778  25.907  25.116  1.00  0.00     0.299 C 
BRANCH  21  22
ATOM     22  C   UNL A   1      30.530  27.233  24.430  1.00  0.00     0.009 A 
ATOM     23  C   UNL A   1      29.665  27.317  23.329  1.00  0.00     0.011 A 
ATOM     24  C   UNL A   1      31.085  28.415  24.942  1.00  0.00     0.050 A 
ATOM     25  C   UNL A   1      29.260  28.561  22.836  1.00  0.00     0.024 A 
ATOM     26  C   UNL A   1      30.658  29.653  24.467  1.00  0.00     0.142 A 
ATOM     27  C   UNL A   1      29.731  29.730  23.432  1.00  0.00     0.076 A 
ATOM     28  F   UNL A   1      31.107  30.763  25.072  1.00  0.00    -0.205 F 
ATOM     29  Cl  UNL A   1      29.126  31.253  22.907  1.00  0.00    -0.081 Cl
ENDBRANCH  21  22
ENDBRANCH  19  21
ENDBRANCH   7   8
ENDBRANCH   5   7
ENDBRANCH   2   3
ENDBRANCH   1   2
BRANCH   1  30
ATOM     30  C   UNL A   1      40.993  23.101  27.144  1.00  0.00     0.118 C 
BRANCH  30  31
ATOM     31  N   UNL A   1      41.458  23.928  26.042  1.00  0.00    -0.352 N 
ATOM     32  C   UNL A   1      41.737  25.279  26.048  1.00  0.00     0.251 C 
ATOM     33  H   UNL A   1      41.590  23.466  25.182  1.00  0.00     0.163 HD
ATOM     34  O   UNL A   1      42.046  25.844  25.002  1.00  0.00    -0.269 OA
BRANCH  32  35
ATOM     35  C   UNL A   1      41.617  26.048  27.308  1.00  0.00     0.039 A 
ATOM     36  C   UNL A   1      42.632  26.946  27.650  1.00  0.00     0.014 A 
ATOM     37  C   UNL A   1      40.490  25.924  28.126  1.00  0.00     0.014 A 
ATOM     38  C   UNL A   1      42.478  27.774  28.766  1.00  0.00     0.010 A 
ATOM     39  C   UNL A   1      40.303  26.805  29.188  1.00  0.00     0.010 A 
ATOM     40  C   UNL A   1      41.293  27.742  29.520  1.00  0.00    -0.014 A 
BRANCH  40  41
ATOM     41  C   UNL A   1      41.069  28.685  30.649  1.00  0.00     0.031 A 
ATOM     42  C   UNL A   1      41.892  28.576  31.905  1.00  0.00     0.074 A 
ATOM     43  C   UNL A   1      40.083  29.602  30.570  1.00  0.00     0.049 A 
ATOM     44  N   UNL A   1      41.808  29.271  33.011  1.00  0.00    -0.248 NA
ATOM     45  C   UNL A   1      42.927  27.530  31.934  1.00  0.00     0.031 C 
ATOM     46  C   UNL A   1      39.174  29.773  29.433  1.00  0.00     0.029 A 
ATOM     47  N   UNL A   1      39.672  30.558  31.466  1.00  0.00    -0.354 N 
ATOM     48  C   UNL A   1      42.765  28.739  33.867  1.00  0.00     0.074 A 
ATOM     49  C   UNL A   1      43.379  27.627  33.175  1.00  0.00     0.031 C 
ATOM     50  C   UNL A   1      38.334  30.789  29.689  1.00  0.00     0.029 A 
ATOM     51  C   UNL A   1      38.616  31.319  31.020  1.00  0.00     0.049 A 
ATOM     52  H   UNL A   1      40.094  30.687  32.346  1.00  0.00     0.167 HD
ATOM     53  C   UNL A   1      43.121  29.156  35.107  1.00  0.00     0.037 A 
ATOM     54  C   UNL A   1      37.948  32.327  31.615  1.00  0.00     0.037 A 
ATOM     55  C   UNL A   1      42.528  30.281  35.782  1.00  0.00     0.049 A 
ATOM     56  C   UNL A   1      38.367  32.779  32.988  1.00  0.00     0.074 A 
ATOM     57  C   UNL A   1      42.862  30.819  37.014  1.00  0.00     0.029 A 
ATOM     58  N   UNL A   1      41.480  31.041  35.286  1.00  0.00    -0.354 N 
ATOM     59  N   UNL A   1      39.322  32.307  33.753  1.00  0.00    -0.248 NA
ATOM     60  C   UNL A   1      37.626  33.904  33.574  1.00  0.00     0.031 C 
ATOM     61  C   UNL A   1      41.989  31.878  37.280  1.00  0.00     0.029 A 
ATOM     62  C   UNL A   1      41.143  32.032  36.194  1.00  0.00     0.049 A 
ATOM     63  H   UNL A   1      41.040  30.899  34.417  1.00  0.00     0.167 HD
ATOM     64  C   UNL A   1      39.314  33.096  34.899  1.00  0.00     0.074 A 
ATOM     65  C   UNL A   1      38.268  34.082  34.720  1.00  0.00     0.031 C 
ATOM     66  C   UNL A   1      40.102  33.012  35.999  1.00  0.00     0.037 A 
BRANCH  53  67
ATOM     67  C   UNL A   1      44.211  28.395  35.812  1.00  0.00     0.058 A 
ATOM     68  C   UNL A   1      45.565  28.734  35.653  1.00  0.00     0.135 A 
ATOM     69  C   UNL A   1      43.899  27.336  36.679  1.00  0.00     0.135 A 
ATOM     70  F   UNL A   1      45.922  29.727  34.824  1.00  0.00    -0.206 F 
ATOM     71  C   UNL A   1      46.572  28.030  36.306  1.00  0.00     0.059 A 
ATOM     72  C   UNL A   1      44.890  26.637  37.365  1.00  0.00     0.059 A 
ATOM     73  F   UNL A   1      42.622  26.969  36.868  1.00  0.00    -0.206 F 
ATOM     74  C   UNL A   1      46.224  26.983  37.159  1.00  0.00     0.060 A 
BRANCH  74  75
ATOM     75  S   UNL A   1      47.544  26.080  37.998  1.00  0.00     0.124 S 
ATOM     76  O   UNL A   1      48.695  26.941  37.736  1.00  0.00    -0.237 OA
ATOM     77  O   UNL A   1      47.075  26.054  39.379  1.00  0.00    -0.237 OA
ATOM     78  O   UNL A   1      47.560  24.790  37.317  1.00  0.00    -0.744 OA
ENDBRANCH  74  75
ENDBRANCH  53  67
BRANCH  54  79
ATOM     79  C   UNL A   1      36.829  32.999  30.902  1.00  0.00     0.058 A 
ATOM     80  C   UNL A   1      35.496  32.771  31.275  1.00  0.00     0.135 A 
ATOM     81  C   UNL A   1      37.067  33.890  29.843  1.00  0.00     0.135 A 
ATOM     82  F   UNL A   1      35.215  31.923  32.277  1.00  0.00    -0.206 F 
ATOM     83  C   UNL A   1      34.437  33.386  30.614  1.00  0.00     0.059 A 
ATOM     84  C   UNL A   1      36.026  34.537  29.184  1.00  0.00     0.059 A 
ATOM     85  F   UNL A   1      38.325  34.155  29.459  1.00  0.00    -0.206 F 
ATOM     86  C   UNL A   1      34.714  34.270  29.570  1.00  0.00     0.060 A 
BRANCH  86  87
ATOM     87  S   UNL A   1      33.335  35.102  28.751  1.00  0.00     0.124 S 
ATOM     88  O   UNL A   1      32.771  34.020  27.953  1.00  0.00    -0.237 OA
ATOM     89  O   UNL A   1      32.530  35.548  29.884  1.00  0.00    -0.237 OA
ATOM     90  O   UNL A   1      33.988  36.169  27.999  1.00  0.00    -0.744 OA
ENDBRANCH  86  87
ENDBRANCH  54  79
BRANCH  66  91
ATOM     91  C   UNL A   1      39.891  34.034  37.083  1.00  0.00     0.058 A 
ATOM     92  C   UNL A   1      40.499  35.298  37.036  1.00  0.00     0.135 A 
ATOM     93  C   UNL A   1      39.031  33.759  38.159  1.00  0.00     0.135 A 
ATOM     94  F   UNL A   1      41.333  35.610  36.032  1.00  0.00    -0.206 F 
ATOM     95  C   UNL A   1      40.283  36.245  38.032  1.00  0.00     0.059 A 
ATOM     96  C   UNL A   1      38.778  34.701  39.151  1.00  0.00     0.059 A 
ATOM     97  F   UNL A   1      38.415  32.569  38.246  1.00  0.00    -0.206 F 
ATOM     98  C   UNL A   1      39.420  35.937  39.087  1.00  0.00     0.060 A 
BRANCH  98  99
ATOM     99  S   UNL A   1      39.127  37.184  40.358  1.00  0.00     0.124 S 
ATOM    100  O   UNL A   1      38.411  38.208  39.605  1.00  0.00    -0.237 OA
ATOM    101  O   UNL A   1      38.336  36.450  41.341  1.00  0.00    -0.237 OA
ATOM    102  O   UNL A   1      40.473  37.548  40.792  1.00  0.00    -0.744 OA
ENDBRANCH  98  99
ENDBRANCH  66  91
ENDBRANCH  40  41
ENDBRANCH  32  35
ENDBRANCH  30  31
ENDBRANCH   1  30
TORSDOF 16
ENDMDL
