MODEL 1
REMARK VINA RESULT:     -11.7      0.000      0.000
REMARK SMILES COc1cc(OC)cc(-c2ccc([C@@H](C)C(=O)NCCCNC(=O)c3ccc(-c4c5nc(c(-c6c(F)cc(S(=O)(=O)[O-])cc6F)c6ccc([nH]6)c(-c6c(F)cc(S(=O)(=O)[O-])cc6F)c6nc(c(-c7c(F)cc(S(=O)(=O)[O-])cc7F)c7ccc4[nH]7)C=C6)C=C5)cc3)cc2F)c1
REMARK SMILES IDX 20 1 19 2 18 3 16 4 17 5 14 7 15 8 13 9 10 10 11 11 92 12
REMARK SMILES IDX 12 13 91 14 93 15 9 16 3 17 4 18 94 19 5 20 8 21 2 22 1 23
REMARK SMILES IDX 6 24 7 25 21 26 22 27 23 28 24 30 25 31 26 32 90 33 27 34
REMARK SMILES IDX 89 35 28 36 29 37 30 38 83 39 31 40 88 41 82 42 84 43 32 44
REMARK SMILES IDX 87 45 81 46 80 47 33 49 67 50 46 51 66 52 47 53 50 54 65 55
REMARK SMILES IDX 85 56 48 57 49 58 64 60 86 61 51 62 34 63 35 64 44 65 36 66
REMARK SMILES IDX 37 67 43 68 45 69 38 70 39 71 40 72 41 73 42 74 68 75 69 76
REMARK SMILES IDX 78 77 70 78 71 79 77 80 79 81 72 82 73 83 74 84 75 85 76 86
REMARK SMILES IDX 52 87 53 88 62 89 54 90 55 91 61 92 63 93 56 94 57 95 58 96
REMARK SMILES IDX 59 97 60 98
REMARK H PARENT 18 6 22 29 84 48 50 59
REMARK Flexibility Score: inf
ROOT
ATOM      1  C   UNL A   1      43.983  22.419  26.612  1.00  0.00     0.042 C 
ENDROOT
BRANCH   1   2
ATOM      2  C   UNL A   1      43.852  22.028  25.143  1.00  0.00     0.117 C 
BRANCH   2   3
ATOM      3  N   UNL A   1      43.807  20.590  24.950  1.00  0.00    -0.356 N 
ATOM      4  C   UNL A   1      43.147  19.600  25.609  1.00  0.00     0.227 C 
ATOM      5  O   UNL A   1      43.350  18.447  25.208  1.00  0.00    -0.274 OA
ATOM      6  H   UNL A   1      44.361  20.271  24.200  1.00  0.00     0.163 HD
BRANCH   4   7
ATOM      7  C   UNL A   1      42.189  19.837  26.786  1.00  0.00     0.105 C 
ATOM      8  C   UNL A   1      42.277  18.791  27.897  1.00  0.00     0.023 C 
BRANCH   7   9
ATOM      9  C   UNL A   1      40.784  20.221  26.350  1.00  0.00    -0.033 A 
ATOM     10  C   UNL A   1      38.211  21.053  25.406  1.00  0.00     0.018 A 
ATOM     11  C   UNL A   1      38.672  19.734  25.246  1.00  0.00     0.012 A 
ATOM     12  C   UNL A   1      39.074  21.937  26.067  1.00  0.00     0.131 A 
ATOM     13  C   UNL A   1      39.910  19.317  25.744  1.00  0.00     0.005 A 
ATOM     14  C   UNL A   1      40.339  21.541  26.514  1.00  0.00     0.044 A 
ATOM     15  F   UNL A   1      38.699  23.204  26.309  1.00  0.00    -0.206 F 
BRANCH  10  16
ATOM     16  C   UNL A   1      36.866  21.439  24.923  1.00  0.00    -0.008 A 
ATOM     17  C   UNL A   1      35.378  22.842  23.586  1.00  0.00     0.123 A 
ATOM     18  C   UNL A   1      34.279  22.122  24.057  1.00  0.00     0.092 A 
ATOM     19  C   UNL A   1      36.664  22.497  24.015  1.00  0.00     0.055 A 
ATOM     20  C   UNL A   1      34.446  21.066  24.948  1.00  0.00     0.123 A 
ATOM     21  C   UNL A   1      35.730  20.738  25.376  1.00  0.00     0.055 A 
BRANCH  17  22
ATOM     22  O   UNL A   1      35.061  23.879  22.751  1.00  0.00    -0.497 OA
ATOM     23  C   UNL A   1      33.999  24.730  23.155  1.00  0.00     0.278 C 
ENDBRANCH  17  22
BRANCH  20  24
ATOM     24  O   UNL A   1      33.293  20.444  25.338  1.00  0.00    -0.497 OA
ATOM     25  C   UNL A   1      32.103  20.777  24.635  1.00  0.00     0.278 C 
ENDBRANCH  20  24
ENDBRANCH  10  16
ENDBRANCH   7   9
ENDBRANCH   4   7
ENDBRANCH   2   3
ENDBRANCH   1   2
BRANCH   1  26
ATOM     26  C   UNL A   1      43.348  23.760  26.958  1.00  0.00     0.118 C 
BRANCH  26  27
ATOM     27  N   UNL A   1      42.446  24.226  25.914  1.00  0.00    -0.352 N 
ATOM     28  C   UNL A   1      41.434  25.155  25.953  1.00  0.00     0.251 C 
ATOM     29  H   UNL A   1      42.583  23.805  25.034  1.00  0.00     0.163 HD
ATOM     30  O   UNL A   1      40.661  25.224  25.002  1.00  0.00    -0.269 OA
BRANCH  28  31
ATOM     31  C   UNL A   1      41.259  26.058  27.116  1.00  0.00     0.039 A 
ATOM     32  C   UNL A   1      42.040  27.217  27.191  1.00  0.00     0.014 A 
ATOM     33  C   UNL A   1      40.381  25.750  28.159  1.00  0.00     0.014 A 
ATOM     34  C   UNL A   1      41.903  28.086  28.278  1.00  0.00     0.010 A 
ATOM     35  C   UNL A   1      40.182  26.658  29.197  1.00  0.00     0.010 A 
ATOM     36  C   UNL A   1      40.950  27.829  29.277  1.00  0.00    -0.014 A 
BRANCH  36  37
ATOM     37  C   UNL A   1      40.759  28.753  30.424  1.00  0.00     0.031 A 
ATOM     38  C   UNL A   1      41.605  28.607  31.662  1.00  0.00     0.074 A 
ATOM     39  C   UNL A   1      39.788  29.686  30.378  1.00  0.00     0.049 A 
ATOM     40  N   UNL A   1      41.543  29.264  32.791  1.00  0.00    -0.248 NA
ATOM     41  C   UNL A   1      42.642  27.562  31.635  1.00  0.00     0.031 C 
ATOM     42  C   UNL A   1      38.879  29.905  29.250  1.00  0.00     0.029 A 
ATOM     43  N   UNL A   1      39.398  30.621  31.303  1.00  0.00    -0.354 N 
ATOM     44  C   UNL A   1      42.518  28.706  33.611  1.00  0.00     0.074 A 
ATOM     45  C   UNL A   1      43.116  27.616  32.870  1.00  0.00     0.031 C 
ATOM     46  C   UNL A   1      38.061  30.930  29.537  1.00  0.00     0.029 A 
ATOM     47  C   UNL A   1      38.357  31.414  30.882  1.00  0.00     0.049 A 
ATOM     48  H   UNL A   1      39.824  30.715  32.186  1.00  0.00     0.167 HD
ATOM     49  C   UNL A   1      42.899  29.082  34.856  1.00  0.00     0.037 A 
ATOM     50  C   UNL A   1      37.712  32.417  31.510  1.00  0.00     0.037 A 
ATOM     51  C   UNL A   1      42.312  30.180  35.579  1.00  0.00     0.049 A 
ATOM     52  C   UNL A   1      38.138  32.805  32.900  1.00  0.00     0.074 A 
ATOM     53  C   UNL A   1      42.653  30.670  36.828  1.00  0.00     0.029 A 
ATOM     54  N   UNL A   1      41.262  30.960  35.117  1.00  0.00    -0.354 N 
ATOM     55  N   UNL A   1      39.094  32.297  33.642  1.00  0.00    -0.248 NA
ATOM     56  C   UNL A   1      37.399  33.903  33.538  1.00  0.00     0.031 C 
ATOM     57  C   UNL A   1      41.782  31.721  37.137  1.00  0.00     0.029 A 
ATOM     58  C   UNL A   1      40.928  31.917  36.063  1.00  0.00     0.049 A 
ATOM     59  H   UNL A   1      40.817  30.849  34.246  1.00  0.00     0.167 HD
ATOM     60  C   UNL A   1      39.092  33.034  34.821  1.00  0.00     0.074 A 
ATOM     61  C   UNL A   1      38.044  34.026  34.689  1.00  0.00     0.031 C 
ATOM     62  C   UNL A   1      39.887  32.903  35.912  1.00  0.00     0.037 A 
BRANCH  49  63
ATOM     63  C   UNL A   1      44.003  28.292  35.507  1.00  0.00     0.058 A 
ATOM     64  C   UNL A   1      45.355  28.640  35.339  1.00  0.00     0.135 A 
ATOM     65  C   UNL A   1      43.712  27.175  36.307  1.00  0.00     0.135 A 
ATOM     66  F   UNL A   1      45.692  29.690  34.574  1.00  0.00    -0.206 F 
ATOM     67  C   UNL A   1      46.377  27.879  35.896  1.00  0.00     0.059 A 
ATOM     68  C   UNL A   1      44.719  26.418  36.900  1.00  0.00     0.059 A 
ATOM     69  F   UNL A   1      42.439  26.800  36.508  1.00  0.00    -0.206 F 
ATOM     70  C   UNL A   1      46.050  26.765  36.669  1.00  0.00     0.060 A 
BRANCH  70  71
ATOM     71  S   UNL A   1      47.389  25.769  37.357  1.00  0.00     0.124 S 
ATOM     72  O   UNL A   1      48.553  26.358  36.703  1.00  0.00    -0.237 OA
ATOM     73  O   UNL A   1      47.269  26.026  38.788  1.00  0.00    -0.237 OA
ATOM     74  O   UNL A   1      47.054  24.411  36.936  1.00  0.00    -0.744 OA
ENDBRANCH  70  71
ENDBRANCH  49  63
BRANCH  50  75
ATOM     75  C   UNL A   1      36.627  33.155  30.809  1.00  0.00     0.058 A 
ATOM     76  C   UNL A   1      35.288  32.983  31.187  1.00  0.00     0.135 A 
ATOM     77  C   UNL A   1      36.902  34.059  29.772  1.00  0.00     0.135 A 
ATOM     78  F   UNL A   1      34.974  32.124  32.170  1.00  0.00    -0.206 F 
ATOM     79  C   UNL A   1      34.258  33.671  30.557  1.00  0.00     0.059 A 
ATOM     80  C   UNL A   1      35.891  34.780  29.142  1.00  0.00     0.059 A 
ATOM     81  F   UNL A   1      38.169  34.270  29.384  1.00  0.00    -0.206 F 
ATOM     82  C   UNL A   1      34.569  34.572  29.538  1.00  0.00     0.060 A 
BRANCH  82  83
ATOM     83  S   UNL A   1      33.225  35.502  28.770  1.00  0.00     0.124 S 
ATOM     84  O   UNL A   1      33.959  36.484  27.982  1.00  0.00    -0.237 OA
ATOM     85  O   UNL A   1      32.530  34.466  28.013  1.00  0.00    -0.237 OA
ATOM     86  O   UNL A   1      32.487  36.032  29.914  1.00  0.00    -0.744 OA
ENDBRANCH  82  83
ENDBRANCH  50  75
BRANCH  62  87
ATOM     87  C   UNL A   1      39.682  33.878  37.037  1.00  0.00     0.058 A 
ATOM     88  C   UNL A   1      38.920  33.550  38.169  1.00  0.00     0.135 A 
ATOM     89  C   UNL A   1      40.295  35.141  37.002  1.00  0.00     0.135 A 
ATOM     90  F   UNL A   1      38.306  32.359  38.250  1.00  0.00    -0.206 F 
ATOM     91  C   UNL A   1      38.757  34.448  39.220  1.00  0.00     0.059 A 
ATOM     92  C   UNL A   1      40.167  36.045  38.053  1.00  0.00     0.059 A 
ATOM     93  F   UNL A   1      41.042  35.500  35.946  1.00  0.00    -0.206 F 
ATOM     94  C   UNL A   1      39.387  35.694  39.153  1.00  0.00     0.060 A 
BRANCH  94  95
ATOM     95  S   UNL A   1      39.198  36.836  40.538  1.00  0.00     0.124 S 
ATOM     96  O   UNL A   1      40.587  37.069  40.918  1.00  0.00    -0.237 OA
ATOM     97  O   UNL A   1      38.510  37.966  39.920  1.00  0.00    -0.237 OA
ATOM     98  O   UNL A   1      38.403  36.077  41.498  1.00  0.00    -0.744 OA
ENDBRANCH  94  95
ENDBRANCH  62  87
ENDBRANCH  36  37
ENDBRANCH  28  31
ENDBRANCH  26  27
ENDBRANCH   1  26
TORSDOF 17
ENDMDL
MODEL 2
REMARK VINA RESULT:     -11.7      6.507     12.408
REMARK SMILES COc1cc(OC)cc(-c2ccc([C@@H](C)C(=O)NCCCNC(=O)c3ccc(-c4c5nc(c(-c6c(F)cc(S(=O)(=O)[O-])cc6F)c6ccc([nH]6)c(-c6c(F)cc(S(=O)(=O)[O-])cc6F)c6nc(c(-c7c(F)cc(S(=O)(=O)[O-])cc7F)c7ccc4[nH]7)C=C6)C=C5)cc3)cc2F)c1
REMARK SMILES IDX 20 1 19 2 18 3 16 4 17 5 14 7 15 8 13 9 10 10 11 11 92 12
REMARK SMILES IDX 12 13 91 14 93 15 9 16 3 17 4 18 94 19 5 20 8 21 2 22 1 23
REMARK SMILES IDX 6 24 7 25 21 26 22 27 23 28 24 30 25 31 26 32 90 33 27 34
REMARK SMILES IDX 89 35 28 36 29 37 30 38 83 39 31 40 88 41 82 42 84 43 32 44
REMARK SMILES IDX 87 45 81 46 80 47 33 49 67 50 46 51 66 52 47 53 50 54 65 55
REMARK SMILES IDX 85 56 48 57 49 58 64 60 86 61 51 62 34 63 35 64 44 65 36 66
REMARK SMILES IDX 37 67 43 68 45 69 38 70 39 71 40 72 41 73 42 74 68 75 69 76
REMARK SMILES IDX 78 77 70 78 71 79 77 80 79 81 72 82 73 83 74 84 75 85 76 86
REMARK SMILES IDX 52 87 53 88 62 89 54 90 55 91 61 92 63 93 56 94 57 95 58 96
REMARK SMILES IDX 59 97 60 98
REMARK H PARENT 18 6 22 29 84 48 50 59
REMARK Flexibility Score: inf
ROOT
ATOM      1  C   UNL A   1      33.739  28.722  27.222  1.00  0.00     0.042 C 
ENDROOT
BRANCH   1   2
ATOM      2  C   UNL A   1      32.931  29.362  26.098  1.00  0.00     0.117 C 
BRANCH   2   3
ATOM      3  N   UNL A   1      33.651  29.391  24.839  1.00  0.00    -0.356 N 
ATOM      4  C   UNL A   1      33.470  28.725  23.667  1.00  0.00     0.227 C 
ATOM      5  O   UNL A   1      34.296  28.955  22.774  1.00  0.00    -0.274 OA
ATOM      6  H   UNL A   1      34.418  30.009  24.832  1.00  0.00     0.163 HD
BRANCH   4   7
ATOM      7  C   UNL A   1      32.323  27.736  23.404  1.00  0.00     0.105 C 
ATOM      8  C   UNL A   1      30.971  28.168  23.971  1.00  0.00     0.023 C 
BRANCH   7   9
ATOM      9  C   UNL A   1      32.711  26.287  23.650  1.00  0.00    -0.033 A 
ATOM     10  C   UNL A   1      33.281  23.533  24.188  1.00  0.00     0.018 A 
ATOM     11  C   UNL A   1      33.165  24.026  22.877  1.00  0.00     0.012 A 
ATOM     12  C   UNL A   1      33.119  24.465  25.221  1.00  0.00     0.131 A 
ATOM     13  C   UNL A   1      32.928  25.379  22.614  1.00  0.00     0.005 A 
ATOM     14  C   UNL A   1      32.822  25.809  24.965  1.00  0.00     0.044 A 
ATOM     15  F   UNL A   1      33.261  24.095  26.504  1.00  0.00    -0.206 F 
BRANCH  10  16
ATOM     16  C   UNL A   1      33.597  22.105  24.425  1.00  0.00    -0.008 A 
ATOM     17  C   UNL A   1      32.935  19.773  24.724  1.00  0.00     0.123 A 
ATOM     18  C   UNL A   1      34.273  19.415  24.888  1.00  0.00     0.092 A 
ATOM     19  C   UNL A   1      32.601  21.111  24.489  1.00  0.00     0.055 A 
ATOM     20  C   UNL A   1      35.282  20.372  24.822  1.00  0.00     0.123 A 
ATOM     21  C   UNL A   1      34.938  21.704  24.598  1.00  0.00     0.055 A 
BRANCH  17  22
ATOM     22  O   UNL A   1      32.050  18.737  24.857  1.00  0.00    -0.497 OA
ATOM     23  C   UNL A   1      32.565  17.511  25.356  1.00  0.00     0.278 C 
ENDBRANCH  17  22
BRANCH  20  24
ATOM     24  O   UNL A   1      36.550  19.897  25.003  1.00  0.00    -0.497 OA
ATOM     25  C   UNL A   1      37.612  20.840  24.947  1.00  0.00     0.278 C 
ENDBRANCH  20  24
ENDBRANCH  10  16
ENDBRANCH   7   9
ENDBRANCH   4   7
ENDBRANCH   2   3
ENDBRANCH   1   2
BRANCH   1  26
ATOM     26  C   UNL A   1      35.103  29.361  27.451  1.00  0.00     0.118 C 
BRANCH  26  27
ATOM     27  N   UNL A   1      35.152  30.122  28.690  1.00  0.00    -0.352 N 
ATOM     28  C   UNL A   1      36.171  30.295  29.597  1.00  0.00     0.251 C 
ATOM     29  H   UNL A   1      34.317  30.592  28.918  1.00  0.00     0.163 HD
ATOM     30  O   UNL A   1      35.912  30.803  30.684  1.00  0.00    -0.269 OA
BRANCH  28  31
ATOM     31  C   UNL A   1      37.559  29.873  29.288  1.00  0.00     0.039 A 
ATOM     32  C   UNL A   1      37.982  29.880  27.954  1.00  0.00     0.014 A 
ATOM     33  C   UNL A   1      38.426  29.419  30.284  1.00  0.00     0.014 A 
ATOM     34  C   UNL A   1      39.283  29.482  27.630  1.00  0.00     0.010 A 
ATOM     35  C   UNL A   1      39.747  29.106  29.972  1.00  0.00     0.010 A 
ATOM     36  C   UNL A   1      40.188  29.120  28.641  1.00  0.00    -0.014 A 
BRANCH  36  37
ATOM     37  C   UNL A   1      41.586  28.728  28.327  1.00  0.00     0.031 A 
ATOM     38  C   UNL A   1      42.681  29.763  28.332  1.00  0.00     0.074 A 
ATOM     39  C   UNL A   1      41.862  27.456  27.981  1.00  0.00     0.049 A 
ATOM     40  N   UNL A   1      43.943  29.634  28.017  1.00  0.00    -0.248 NA
ATOM     41  C   UNL A   1      42.297  31.131  28.718  1.00  0.00     0.031 C 
ATOM     42  C   UNL A   1      40.884  26.368  27.905  1.00  0.00     0.029 A 
ATOM     43  N   UNL A   1      43.046  26.861  27.624  1.00  0.00    -0.354 N 
ATOM     44  C   UNL A   1      44.500  30.902  28.151  1.00  0.00     0.074 A 
ATOM     45  C   UNL A   1      43.424  31.796  28.518  1.00  0.00     0.031 C 
ATOM     46  C   UNL A   1      41.512  25.234  27.556  1.00  0.00     0.029 A 
ATOM     47  C   UNL A   1      42.929  25.520  27.344  1.00  0.00     0.049 A 
ATOM     48  H   UNL A   1      43.900  27.348  27.571  1.00  0.00     0.167 HD
ATOM     49  C   UNL A   1      45.793  31.283  28.007  1.00  0.00     0.037 A 
ATOM     50  C   UNL A   1      43.856  24.622  26.958  1.00  0.00     0.037 A 
ATOM     51  C   UNL A   1      46.862  30.383  27.661  1.00  0.00     0.049 A 
ATOM     52  C   UNL A   1      45.282  25.070  26.785  1.00  0.00     0.074 A 
ATOM     53  C   UNL A   1      48.213  30.658  27.531  1.00  0.00     0.029 A 
ATOM     54  N   UNL A   1      46.702  29.032  27.388  1.00  0.00    -0.354 N 
ATOM     55  N   UNL A   1      45.799  26.263  26.963  1.00  0.00    -0.248 NA
ATOM     56  C   UNL A   1      46.251  24.051  26.361  1.00  0.00     0.031 C 
ATOM     57  C   UNL A   1      48.863  29.482  27.142  1.00  0.00     0.029 A 
ATOM     58  C   UNL A   1      47.925  28.462  27.074  1.00  0.00     0.049 A 
ATOM     59  H   UNL A   1      45.845  28.549  27.414  1.00  0.00     0.167 HD
ATOM     60  C   UNL A   1      47.159  26.130  26.703  1.00  0.00     0.074 A 
ATOM     61  C   UNL A   1      47.383  24.740  26.363  1.00  0.00     0.031 C 
ATOM     62  C   UNL A   1      48.133  27.073  26.745  1.00  0.00     0.037 A 
BRANCH  49  63
ATOM     63  C   UNL A   1      46.112  32.738  28.227  1.00  0.00     0.058 A 
ATOM     64  C   UNL A   1      46.479  33.228  29.492  1.00  0.00     0.135 A 
ATOM     65  C   UNL A   1      46.049  33.655  27.166  1.00  0.00     0.135 A 
ATOM     66  F   UNL A   1      46.542  32.399  30.545  1.00  0.00    -0.206 F 
ATOM     67  C   UNL A   1      46.722  34.581  29.707  1.00  0.00     0.059 A 
ATOM     68  C   UNL A   1      46.319  35.008  27.352  1.00  0.00     0.059 A 
ATOM     69  F   UNL A   1      45.710  33.243  25.934  1.00  0.00    -0.206 F 
ATOM     70  C   UNL A   1      46.631  35.465  28.631  1.00  0.00     0.060 A 
BRANCH  70  71
ATOM     71  S   UNL A   1      46.916  37.222  28.933  1.00  0.00     0.124 S 
ATOM     72  O   UNL A   1      45.749  37.819  28.293  1.00  0.00    -0.237 OA
ATOM     73  O   UNL A   1      46.944  37.290  30.391  1.00  0.00    -0.237 OA
ATOM     74  O   UNL A   1      48.193  37.478  28.272  1.00  0.00    -0.744 OA
ENDBRANCH  70  71
ENDBRANCH  49  63
BRANCH  50  75
ATOM     75  C   UNL A   1      43.472  23.199  26.756  1.00  0.00     0.058 A 
ATOM     76  C   UNL A   1      43.198  22.371  27.855  1.00  0.00     0.135 A 
ATOM     77  C   UNL A   1      43.348  22.645  25.474  1.00  0.00     0.135 A 
ATOM     78  F   UNL A   1      43.310  22.855  29.102  1.00  0.00    -0.206 F 
ATOM     79  C   UNL A   1      42.825  21.042  27.692  1.00  0.00     0.059 A 
ATOM     80  C   UNL A   1      42.951  21.323  25.283  1.00  0.00     0.059 A 
ATOM     81  F   UNL A   1      43.585  23.400  24.390  1.00  0.00    -0.206 F 
ATOM     82  C   UNL A   1      42.699  20.528  26.401  1.00  0.00     0.060 A 
BRANCH  82  83
ATOM     83  S   UNL A   1      42.155  18.817  26.206  1.00  0.00     0.124 S 
ATOM     84  O   UNL A   1      40.779  18.995  25.758  1.00  0.00    -0.237 OA
ATOM     85  O   UNL A   1      43.092  18.311  25.207  1.00  0.00    -0.237 OA
ATOM     86  O   UNL A   1      42.318  18.258  27.545  1.00  0.00    -0.744 OA
ENDBRANCH  82  83
ENDBRANCH  50  75
BRANCH  62  87
ATOM     87  C   UNL A   1      49.538  26.628  26.451  1.00  0.00     0.058 A 
ATOM     88  C   UNL A   1      50.340  26.022  27.430  1.00  0.00     0.135 A 
ATOM     89  C   UNL A   1      50.071  26.767  25.160  1.00  0.00     0.135 A 
ATOM     90  F   UNL A   1      49.882  25.872  28.683  1.00  0.00    -0.206 F 
ATOM     91  C   UNL A   1      51.631  25.587  27.144  1.00  0.00     0.059 A 
ATOM     92  C   UNL A   1      51.349  26.316  24.845  1.00  0.00     0.059 A 
ATOM     93  F   UNL A   1      49.341  27.332  24.185  1.00  0.00    -0.206 F 
ATOM     94  C   UNL A   1      52.126  25.738  25.847  1.00  0.00     0.060 A 
BRANCH  94  95
ATOM     95  S   UNL A   1      53.788  25.137  25.478  1.00  0.00     0.124 S 
ATOM     96  O   UNL A   1      54.535  25.610  26.639  1.00  0.00    -0.237 OA
ATOM     97  O   UNL A   1      53.588  23.693  25.398  1.00  0.00    -0.237 OA
ATOM     98  O   UNL A   1      54.112  25.788  24.213  1.00  0.00    -0.744 OA
ENDBRANCH  94  95
ENDBRANCH  62  87
ENDBRANCH  36  37
ENDBRANCH  28  31
ENDBRANCH  26  27
ENDBRANCH   1  26
TORSDOF 17
ENDMDL
MODEL 3
REMARK VINA RESULT:     -11.7      4.017     12.031
REMARK SMILES COc1cc(OC)cc(-c2ccc([C@@H](C)C(=O)NCCCNC(=O)c3ccc(-c4c5nc(c(-c6c(F)cc(S(=O)(=O)[O-])cc6F)c6ccc([nH]6)c(-c6c(F)cc(S(=O)(=O)[O-])cc6F)c6nc(c(-c7c(F)cc(S(=O)(=O)[O-])cc7F)c7ccc4[nH]7)C=C6)C=C5)cc3)cc2F)c1
REMARK SMILES IDX 20 1 19 2 18 3 16 4 17 5 14 7 15 8 13 9 10 10 11 11 92 12
REMARK SMILES IDX 12 13 91 14 93 15 9 16 3 17 4 18 94 19 5 20 8 21 2 22 1 23
REMARK SMILES IDX 6 24 7 25 21 26 22 27 23 28 24 30 25 31 26 32 90 33 27 34
REMARK SMILES IDX 89 35 28 36 29 37 30 38 83 39 31 40 88 41 82 42 84 43 32 44
REMARK SMILES IDX 87 45 81 46 80 47 33 49 67 50 46 51 66 52 47 53 50 54 65 55
REMARK SMILES IDX 85 56 48 57 49 58 64 60 86 61 51 62 34 63 35 64 44 65 36 66
REMARK SMILES IDX 37 67 43 68 45 69 38 70 39 71 40 72 41 73 42 74 68 75 69 76
REMARK SMILES IDX 78 77 70 78 71 79 77 80 79 81 72 82 73 83 74 84 75 85 76 86
REMARK SMILES IDX 52 87 53 88 62 89 54 90 55 91 61 92 63 93 56 94 57 95 58 96
REMARK SMILES IDX 59 97 60 98
REMARK H PARENT 18 6 22 29 84 48 50 59
REMARK Flexibility Score: inf
ROOT
ATOM      1  C   UNL A   1      33.358  33.838  28.288  1.00  0.00     0.042 C 
ENDROOT
BRANCH   1   2
ATOM      2  C   UNL A   1      33.930  35.179  28.738  1.00  0.00     0.117 C 
BRANCH   2   3
ATOM      3  N   UNL A   1      33.838  35.371  30.174  1.00  0.00    -0.356 N 
ATOM      4  C   UNL A   1      34.316  34.652  31.225  1.00  0.00     0.227 C 
ATOM      5  O   UNL A   1      34.030  35.076  32.352  1.00  0.00    -0.274 OA
ATOM      6  H   UNL A   1      33.333  36.175  30.436  1.00  0.00     0.163 HD
BRANCH   4   7
ATOM      7  C   UNL A   1      35.169  33.382  31.085  1.00  0.00     0.105 C 
ATOM      8  C   UNL A   1      34.942  32.342  32.181  1.00  0.00     0.023 C 
BRANCH   7   9
ATOM      9  C   UNL A   1      36.620  33.669  30.735  1.00  0.00    -0.033 A 
ATOM     10  C   UNL A   1      39.402  34.083  30.194  1.00  0.00     0.018 A 
ATOM     11  C   UNL A   1      38.525  33.562  29.227  1.00  0.00     0.012 A 
ATOM     12  C   UNL A   1      38.838  34.404  31.436  1.00  0.00     0.131 A 
ATOM     13  C   UNL A   1      37.159  33.399  29.477  1.00  0.00     0.005 A 
ATOM     14  C   UNL A   1      37.484  34.187  31.712  1.00  0.00     0.044 A 
ATOM     15  F   UNL A   1      39.588  34.953  32.406  1.00  0.00    -0.206 F 
BRANCH  10  16
ATOM     16  C   UNL A   1      40.830  34.302  29.869  1.00  0.00    -0.008 A 
ATOM     17  C   UNL A   1      42.619  35.516  28.732  1.00  0.00     0.123 A 
ATOM     18  C   UNL A   1      43.560  34.650  29.290  1.00  0.00     0.092 A 
ATOM     19  C   UNL A   1      41.262  35.344  29.025  1.00  0.00     0.055 A 
ATOM     20  C   UNL A   1      43.166  33.617  30.135  1.00  0.00     0.123 A 
ATOM     21  C   UNL A   1      41.811  33.448  30.413  1.00  0.00     0.055 A 
BRANCH  17  22
ATOM     22  O   UNL A   1      43.144  36.456  27.888  1.00  0.00    -0.497 OA
ATOM     23  C   UNL A   1      42.287  36.965  26.876  1.00  0.00     0.278 C 
ENDBRANCH  17  22
BRANCH  20  24
ATOM     24  O   UNL A   1      44.180  32.835  30.613  1.00  0.00    -0.497 OA
ATOM     25  C   UNL A   1      43.993  31.427  30.568  1.00  0.00     0.278 C 
ENDBRANCH  20  24
ENDBRANCH  10  16
ENDBRANCH   7   9
ENDBRANCH   4   7
ENDBRANCH   2   3
ENDBRANCH   1   2
BRANCH   1  26
ATOM     26  C   UNL A   1      34.404  32.853  27.782  1.00  0.00     0.118 C 
BRANCH  26  27
ATOM     27  N   UNL A   1      33.813  31.588  27.368  1.00  0.00    -0.352 N 
ATOM     28  C   UNL A   1      34.342  30.320  27.336  1.00  0.00     0.251 C 
ATOM     29  H   UNL A   1      32.879  31.652  27.060  1.00  0.00     0.163 HD
ATOM     30  O   UNL A   1      33.726  29.441  26.739  1.00  0.00    -0.269 OA
BRANCH  28  31
ATOM     31  C   UNL A   1      35.632  30.004  27.994  1.00  0.00     0.039 A 
ATOM     32  C   UNL A   1      35.628  29.659  29.350  1.00  0.00     0.014 A 
ATOM     33  C   UNL A   1      36.847  30.099  27.311  1.00  0.00     0.014 A 
ATOM     34  C   UNL A   1      36.829  29.362  30.001  1.00  0.00     0.010 A 
ATOM     35  C   UNL A   1      38.033  29.719  27.936  1.00  0.00     0.010 A 
ATOM     36  C   UNL A   1      38.040  29.359  29.291  1.00  0.00    -0.014 A 
BRANCH  36  37
ATOM     37  C   UNL A   1      39.326  29.012  29.951  1.00  0.00     0.031 A 
ATOM     38  C   UNL A   1      39.776  29.767  31.175  1.00  0.00     0.074 A 
ATOM     39  C   UNL A   1      40.116  28.061  29.417  1.00  0.00     0.049 A 
ATOM     40  N   UNL A   1      40.892  29.664  31.847  1.00  0.00    -0.248 NA
ATOM     41  C   UNL A   1      38.857  30.795  31.694  1.00  0.00     0.031 C 
ATOM     42  C   UNL A   1      39.809  27.282  28.215  1.00  0.00     0.029 A 
ATOM     43  N   UNL A   1      41.342  27.587  29.813  1.00  0.00    -0.354 N 
ATOM     44  C   UNL A   1      40.818  30.619  32.857  1.00  0.00     0.074 A 
ATOM     45  C   UNL A   1      39.573  31.331  32.670  1.00  0.00     0.031 C 
ATOM     46  C   UNL A   1      40.803  26.408  27.991  1.00  0.00     0.029 A 
ATOM     47  C   UNL A   1      41.836  26.590  29.006  1.00  0.00     0.049 A 
ATOM     48  H   UNL A   1      41.823  27.930  30.601  1.00  0.00     0.167 HD
ATOM     49  C   UNL A   1      41.693  30.862  33.862  1.00  0.00     0.037 A 
ATOM     50  C   UNL A   1      42.992  25.901  29.075  1.00  0.00     0.037 A 
ATOM     51  C   UNL A   1      42.922  30.136  34.054  1.00  0.00     0.049 A 
ATOM     52  C   UNL A   1      43.959  26.202  30.188  1.00  0.00     0.074 A 
ATOM     53  C   UNL A   1      43.858  30.276  35.064  1.00  0.00     0.029 A 
ATOM     54  N   UNL A   1      43.385  29.132  33.216  1.00  0.00    -0.354 N 
ATOM     55  N   UNL A   1      43.850  27.076  31.162  1.00  0.00    -0.248 NA
ATOM     56  C   UNL A   1      45.204  25.424  30.214  1.00  0.00     0.031 C 
ATOM     57  C   UNL A   1      44.906  29.383  34.814  1.00  0.00     0.029 A 
ATOM     58  C   UNL A   1      44.602  28.654  33.674  1.00  0.00     0.049 A 
ATOM     59  H   UNL A   1      42.918  28.807  32.412  1.00  0.00     0.167 HD
ATOM     60  C   UNL A   1      44.998  26.929  31.933  1.00  0.00     0.074 A 
ATOM     61  C   UNL A   1      45.783  25.880  31.316  1.00  0.00     0.031 C 
ATOM     62  C   UNL A   1      45.367  27.601  33.052  1.00  0.00     0.037 A 
BRANCH  49  63
ATOM     63  C   UNL A   1      41.344  31.964  34.829  1.00  0.00     0.058 A 
ATOM     64  C   UNL A   1      40.533  31.728  35.952  1.00  0.00     0.135 A 
ATOM     65  C   UNL A   1      41.821  33.269  34.633  1.00  0.00     0.135 A 
ATOM     66  F   UNL A   1      40.038  30.501  36.182  1.00  0.00    -0.206 F 
ATOM     67  C   UNL A   1      40.166  32.755  36.815  1.00  0.00     0.059 A 
ATOM     68  C   UNL A   1      41.492  34.306  35.501  1.00  0.00     0.059 A 
ATOM     69  F   UNL A   1      42.605  33.553  33.580  1.00  0.00    -0.206 F 
ATOM     70  C   UNL A   1      40.645  34.044  36.576  1.00  0.00     0.060 A 
BRANCH  70  71
ATOM     71  S   UNL A   1      40.133  35.372  37.686  1.00  0.00     0.124 S 
ATOM     72  O   UNL A   1      41.343  35.572  38.477  1.00  0.00    -0.237 OA
ATOM     73  O   UNL A   1      39.798  36.447  36.757  1.00  0.00    -0.237 OA
ATOM     74  O   UNL A   1      39.001  34.796  38.407  1.00  0.00    -0.744 OA
ENDBRANCH  70  71
ENDBRANCH  49  63
BRANCH  50  75
ATOM     75  C   UNL A   1      43.276  24.827  28.086  1.00  0.00     0.058 A 
ATOM     76  C   UNL A   1      43.948  25.118  26.890  1.00  0.00     0.135 A 
ATOM     77  C   UNL A   1      42.907  23.494  28.321  1.00  0.00     0.135 A 
ATOM     78  F   UNL A   1      44.315  26.380  26.618  1.00  0.00    -0.206 F 
ATOM     79  C   UNL A   1      44.237  24.130  25.956  1.00  0.00     0.059 A 
ATOM     80  C   UNL A   1      43.207  22.481  27.413  1.00  0.00     0.059 A 
ATOM     81  F   UNL A   1      42.275  23.162  29.457  1.00  0.00    -0.206 F 
ATOM     82  C   UNL A   1      43.867  22.811  26.229  1.00  0.00     0.060 A 
BRANCH  82  83
ATOM     83  S   UNL A   1      44.302  21.531  25.033  1.00  0.00     0.124 S 
ATOM     84  O   UNL A   1      45.670  21.215  25.426  1.00  0.00    -0.237 OA
ATOM     85  O   UNL A   1      43.305  20.502  25.311  1.00  0.00    -0.237 OA
ATOM     86  O   UNL A   1      44.152  22.206  23.747  1.00  0.00    -0.744 OA
ENDBRANCH  82  83
ENDBRANCH  50  75
BRANCH  62  87
ATOM     87  C   UNL A   1      46.659  27.198  33.705  1.00  0.00     0.058 A 
ATOM     88  C   UNL A   1      46.714  26.176  34.665  1.00  0.00     0.135 A 
ATOM     89  C   UNL A   1      47.865  27.811  33.330  1.00  0.00     0.135 A 
ATOM     90  F   UNL A   1      45.589  25.563  35.065  1.00  0.00    -0.206 F 
ATOM     91  C   UNL A   1      47.918  25.789  35.246  1.00  0.00     0.059 A 
ATOM     92  C   UNL A   1      49.084  27.422  33.878  1.00  0.00     0.059 A 
ATOM     93  F   UNL A   1      47.869  28.788  32.409  1.00  0.00    -0.206 F 
ATOM     94  C   UNL A   1      49.099  26.418  34.844  1.00  0.00     0.060 A 
BRANCH  94  95
ATOM     95  S   UNL A   1      50.659  25.883  35.577  1.00  0.00     0.124 S 
ATOM     96  O   UNL A   1      50.525  26.374  36.944  1.00  0.00    -0.237 OA
ATOM     97  O   UNL A   1      50.599  24.433  35.415  1.00  0.00    -0.237 OA
ATOM     98  O   UNL A   1      51.666  26.556  34.763  1.00  0.00    -0.744 OA
ENDBRANCH  94  95
ENDBRANCH  62  87
ENDBRANCH  36  37
ENDBRANCH  28  31
ENDBRANCH  26  27
ENDBRANCH   1  26
TORSDOF 17
ENDMDL
