MODEL 1
REMARK VINA RESULT:     -11.3      0.000      0.000
REMARK SMILES C[C@@](O)(CNC(=O)CC1([NH3+])CCC1)C(=O)NCCCNC(=O)c1ccc(-c2c3nc(c(-c4c(F)cc(S(=O)(=O)[O-])cc4F)c4ccc([nH]4)c(-c4c(F)cc(S(=O)(=O)[O-])cc4F)c4nc(c(-c5c(F)cc(S(=O)(=O)[O-])cc5F)c5ccc2[nH]5)C=C4)C=C3)cc1
REMARK SMILES IDX 17 1 16 2 14 3 15 4 2 6 1 7 3 8 4 10 5 11 6 12 7 14 8 15
REMARK SMILES IDX 9 16 11 17 13 18 12 19 10 20 18 24 19 25 20 26 21 27 22 29
REMARK SMILES IDX 23 30 24 31 88 32 25 33 87 34 26 35 27 36 28 37 81 38 29 39
REMARK SMILES IDX 86 40 80 41 82 42 30 43 85 44 79 45 78 46 31 48 65 49 44 50
REMARK SMILES IDX 64 51 45 52 48 53 63 54 83 55 46 56 47 57 62 59 84 60 49 61
REMARK SMILES IDX 32 62 33 63 42 64 34 65 35 66 41 67 43 68 36 69 37 70 38 71
REMARK SMILES IDX 39 72 40 73 66 74 67 75 76 76 68 77 69 78 75 79 77 80 70 81
REMARK SMILES IDX 71 82 72 83 73 84 74 85 50 86 51 87 60 88 52 89 53 90 59 91
REMARK SMILES IDX 61 92 54 93 55 94 56 95 57 96 58 97
REMARK H PARENT 16 5 3 9 5 13 10 21 10 22 10 23 20 28 82 47 48 58
REMARK Flexibility Score: inf
ROOT
ATOM      1  C   UNL A   1      42.907  19.002  25.795  1.00  0.00     0.117 C 
ENDROOT
BRANCH   1   2
ATOM      2  N   UNL A   1      44.256  18.409  26.090  1.00  0.00    -0.353 N 
ATOM      3  C   UNL A   1      45.377  18.649  25.320  1.00  0.00     0.253 C 
ATOM      4  O   UNL A   1      46.390  18.021  25.650  1.00  0.00    -0.272 OA
ATOM      5  H   UNL A   1      44.345  17.818  26.873  1.00  0.00     0.163 HD
BRANCH   3   6
ATOM      6  C   UNL A   1      45.426  19.779  24.167  1.00  0.00     0.157 C 
ATOM      7  C   UNL A   1      44.880  19.121  22.895  1.00  0.00     0.055 C 
BRANCH   6   8
ATOM      8  O   UNL A   1      46.857  19.969  23.956  1.00  0.00    -0.378 OA
ATOM      9  H   UNL A   1      47.268  19.117  23.742  1.00  0.00     0.212 HD
ENDBRANCH   6   8
BRANCH   6  10
ATOM     10  C   UNL A   1      44.844  21.267  24.233  1.00  0.00     0.160 C 
BRANCH  10  11
ATOM     11  N   UNL A   1      45.627  22.432  23.812  1.00  0.00    -0.352 N 
ATOM     12  C   UNL A   1      45.757  23.679  24.409  1.00  0.00     0.226 C 
ATOM     13  H   UNL A   1      46.140  22.311  22.980  1.00  0.00     0.163 HD
ATOM     14  O   UNL A   1      46.766  24.330  24.123  1.00  0.00    -0.275 OA
BRANCH  12  15
ATOM     15  C   UNL A   1      44.633  24.289  25.299  1.00  0.00     0.168 C 
BRANCH  15  16
ATOM     16  C   UNL A   1      45.029  24.586  26.773  1.00  0.00     0.103 C 
ATOM     17  C   UNL A   1      43.522  23.531  27.802  1.00  0.00     0.069 C 
ATOM     18  C   UNL A   1      46.191  24.564  28.519  1.00  0.00     0.069 C 
ATOM     19  C   UNL A   1      44.679  23.522  29.589  1.00  0.00     0.013 C 
BRANCH  16  20
ATOM     20  N   UNL A   1      45.542  25.997  26.611  1.00  0.00    -0.352 N 
ATOM     21  H   UNL A   1      45.439  26.499  27.493  1.00  0.00     0.344 HD
ATOM     22  H   UNL A   1      45.007  26.472  25.884  1.00  0.00     0.344 HD
ATOM     23  H   UNL A   1      46.527  25.973  26.346  1.00  0.00     0.344 HD
ENDBRANCH  16  20
ENDBRANCH  15  16
ENDBRANCH  12  15
ENDBRANCH  10  11
ENDBRANCH   6  10
ENDBRANCH   3   6
ENDBRANCH   1   2
BRANCH   1  24
ATOM     24  C   UNL A   1      41.410  20.400  26.721  1.00  0.00     0.042 C 
BRANCH  24  25
ATOM     25  C   UNL A   1      40.953  22.039  26.222  1.00  0.00     0.118 C 
BRANCH  25  26
ATOM     26  N   UNL A   1      39.611  22.340  25.704  1.00  0.00    -0.352 N 
ATOM     27  C   UNL A   1      38.801  23.379  26.110  1.00  0.00     0.251 C 
ATOM     28  H   UNL A   1      39.259  21.746  25.002  1.00  0.00     0.163 HD
ATOM     29  O   UNL A   1      37.605  23.416  25.861  1.00  0.00    -0.269 OA
BRANCH  27  30
ATOM     30  C   UNL A   1      39.476  24.445  26.865  1.00  0.00     0.039 A 
ATOM     31  C   UNL A   1      40.123  25.482  26.202  1.00  0.00     0.014 A 
ATOM     32  C   UNL A   1      39.202  24.505  28.233  1.00  0.00     0.014 A 
ATOM     33  C   UNL A   1      40.474  26.609  26.937  1.00  0.00     0.010 A 
ATOM     34  C   UNL A   1      39.323  25.715  28.878  1.00  0.00     0.010 A 
ATOM     35  C   UNL A   1      40.047  26.742  28.272  1.00  0.00    -0.014 A 
BRANCH  35  36
ATOM     36  C   UNL A   1      40.446  27.892  29.108  1.00  0.00     0.031 A 
ATOM     37  C   UNL A   1      41.831  27.903  29.705  1.00  0.00     0.074 A 
ATOM     38  C   UNL A   1      39.578  28.897  29.327  1.00  0.00     0.049 A 
ATOM     39  N   UNL A   1      42.395  28.808  30.458  1.00  0.00    -0.248 NA
ATOM     40  C   UNL A   1      42.686  26.723  29.465  1.00  0.00     0.031 C 
ATOM     41  C   UNL A   1      38.196  28.949  28.842  1.00  0.00     0.029 A 
ATOM     42  N   UNL A   1      39.739  30.080  29.994  1.00  0.00    -0.354 N 
ATOM     43  C   UNL A   1      43.649  28.298  30.776  1.00  0.00     0.074 A 
ATOM     44  C   UNL A   1      43.719  26.960  30.251  1.00  0.00     0.031 C 
ATOM     45  C   UNL A   1      37.665  30.140  29.157  1.00  0.00     0.029 A 
ATOM     46  C   UNL A   1      38.643  30.906  29.920  1.00  0.00     0.049 A 
ATOM     47  H   UNL A   1      40.563  30.319  30.479  1.00  0.00     0.167 HD
ATOM     48  C   UNL A   1      44.679  28.912  31.396  1.00  0.00     0.037 A 
ATOM     49  C   UNL A   1      38.462  32.144  30.413  1.00  0.00     0.037 A 
ATOM     50  C   UNL A   1      44.596  30.254  31.895  1.00  0.00     0.049 A 
ATOM     51  C   UNL A   1      39.601  32.790  31.153  1.00  0.00     0.074 A 
ATOM     52  C   UNL A   1      45.573  30.999  32.522  1.00  0.00     0.029 A 
ATOM     53  N   UNL A   1      43.458  31.046  31.832  1.00  0.00    -0.354 N 
ATOM     54  N   UNL A   1      40.806  32.323  31.386  1.00  0.00    -0.248 NA
ATOM     55  C   UNL A   1      39.360  34.132  31.694  1.00  0.00     0.031 C 
ATOM     56  C   UNL A   1      45.002  32.213  32.910  1.00  0.00     0.029 A 
ATOM     57  C   UNL A   1      43.697  32.262  32.443  1.00  0.00     0.049 A 
ATOM     58  H   UNL A   1      42.607  30.781  31.413  1.00  0.00     0.167 HD
ATOM     59  C   UNL A   1      41.479  33.329  32.068  1.00  0.00     0.074 A 
ATOM     60  C   UNL A   1      40.550  34.434  32.194  1.00  0.00     0.031 C 
ATOM     61  C   UNL A   1      42.750  33.344  32.545  1.00  0.00     0.037 A 
BRANCH  48  62
ATOM     62  C   UNL A   1      45.955  28.130  31.564  1.00  0.00     0.058 A 
ATOM     63  C   UNL A   1      46.245  27.417  32.743  1.00  0.00     0.135 A 
ATOM     64  C   UNL A   1      46.911  28.104  30.537  1.00  0.00     0.135 A 
ATOM     65  F   UNL A   1      45.382  27.426  33.772  1.00  0.00    -0.206 F 
ATOM     66  C   UNL A   1      47.451  26.748  32.911  1.00  0.00     0.059 A 
ATOM     67  C   UNL A   1      48.105  27.402  30.667  1.00  0.00     0.059 A 
ATOM     68  F   UNL A   1      46.696  28.774  29.395  1.00  0.00    -0.206 F 
ATOM     69  C   UNL A   1      48.373  26.742  31.865  1.00  0.00     0.060 A 
BRANCH  69  70
ATOM     70  S   UNL A   1      49.928  25.858  32.098  1.00  0.00     0.124 S 
ATOM     71  O   UNL A   1      50.697  26.820  32.882  1.00  0.00    -0.237 OA
ATOM     72  O   UNL A   1      49.497  24.661  32.812  1.00  0.00    -0.237 OA
ATOM     73  O   UNL A   1      50.403  25.638  30.736  1.00  0.00    -0.744 OA
ENDBRANCH  69  70
ENDBRANCH  48  62
BRANCH  49  74
ATOM     74  C   UNL A   1      37.174  32.856  30.193  1.00  0.00     0.058 A 
ATOM     75  C   UNL A   1      36.177  32.871  31.181  1.00  0.00     0.135 A 
ATOM     76  C   UNL A   1      36.918  33.551  29.000  1.00  0.00     0.135 A 
ATOM     77  F   UNL A   1      36.371  32.224  32.341  1.00  0.00    -0.206 F 
ATOM     78  C   UNL A   1      34.966  33.524  30.985  1.00  0.00     0.059 A 
ATOM     79  C   UNL A   1      35.729  34.242  28.795  1.00  0.00     0.059 A 
ATOM     80  F   UNL A   1      37.845  33.587  28.030  1.00  0.00    -0.206 F 
ATOM     81  C   UNL A   1      34.754  34.214  29.789  1.00  0.00     0.060 A 
BRANCH  81  82
ATOM     82  S   UNL A   1      33.197  35.099  29.570  1.00  0.00     0.124 S 
ATOM     83  O   UNL A   1      32.578  34.939  30.880  1.00  0.00    -0.237 OA
ATOM     84  O   UNL A   1      33.659  36.444  29.241  1.00  0.00    -0.237 OA
ATOM     85  O   UNL A   1      32.553  34.380  28.475  1.00  0.00    -0.744 OA
ENDBRANCH  81  82
ENDBRANCH  49  74
BRANCH  61  86
ATOM     86  C   UNL A   1      43.225  34.610  33.203  1.00  0.00     0.058 A 
ATOM     87  C   UNL A   1      43.765  35.674  32.467  1.00  0.00     0.135 A 
ATOM     88  C   UNL A   1      43.077  34.777  34.590  1.00  0.00     0.135 A 
ATOM     89  F   UNL A   1      43.931  35.565  31.140  1.00  0.00    -0.206 F 
ATOM     90  C   UNL A   1      44.175  36.848  33.088  1.00  0.00     0.059 A 
ATOM     91  C   UNL A   1      43.436  35.959  35.225  1.00  0.00     0.059 A 
ATOM     92  F   UNL A   1      42.552  33.795  35.341  1.00  0.00    -0.206 F 
ATOM     93  C   UNL A   1      43.997  36.984  34.466  1.00  0.00     0.060 A 
BRANCH  93  94
ATOM     94  S   UNL A   1      44.493  38.531  35.248  1.00  0.00     0.124 S 
ATOM     95  O   UNL A   1      45.926  38.554  34.974  1.00  0.00    -0.237 OA
ATOM     96  O   UNL A   1      43.692  39.512  34.524  1.00  0.00    -0.237 OA
ATOM     97  O   UNL A   1      44.125  38.339  36.648  1.00  0.00    -0.744 OA
ENDBRANCH  93  94
ENDBRANCH  61  86
ENDBRANCH  35  36
ENDBRANCH  27  30
ENDBRANCH  25  26
ENDBRANCH  24  25
ENDBRANCH   1  24
TORSDOF 19
ENDMDL
MODEL 2
REMARK VINA RESULT:     -10.2      4.024      7.054
REMARK SMILES C[C@@](O)(CNC(=O)CC1([NH3+])CCC1)C(=O)NCCCNC(=O)c1ccc(-c2c3nc(c(-c4c(F)cc(S(=O)(=O)[O-])cc4F)c4ccc([nH]4)c(-c4c(F)cc(S(=O)(=O)[O-])cc4F)c4nc(c(-c5c(F)cc(S(=O)(=O)[O-])cc5F)c5ccc2[nH]5)C=C4)C=C3)cc1
REMARK SMILES IDX 17 1 16 2 14 3 15 4 2 6 1 7 3 8 4 10 5 11 6 12 7 14 8 15
REMARK SMILES IDX 9 16 11 17 13 18 12 19 10 20 18 24 19 25 20 26 21 27 22 29
REMARK SMILES IDX 23 30 24 31 88 32 25 33 87 34 26 35 27 36 28 37 81 38 29 39
REMARK SMILES IDX 86 40 80 41 82 42 30 43 85 44 79 45 78 46 31 48 65 49 44 50
REMARK SMILES IDX 64 51 45 52 48 53 63 54 83 55 46 56 47 57 62 59 84 60 49 61
REMARK SMILES IDX 32 62 33 63 42 64 34 65 35 66 41 67 43 68 36 69 37 70 38 71
REMARK SMILES IDX 39 72 40 73 66 74 67 75 76 76 68 77 69 78 75 79 77 80 70 81
REMARK SMILES IDX 71 82 72 83 73 84 74 85 50 86 51 87 60 88 52 89 53 90 59 91
REMARK SMILES IDX 61 92 54 93 55 94 56 95 57 96 58 97
REMARK H PARENT 16 5 3 9 5 13 10 21 10 22 10 23 20 28 82 47 48 58
REMARK Flexibility Score: inf
ROOT
ATOM      1  C   UNL A   1      34.070  25.488  25.133  1.00  0.00     0.117 C 
ENDROOT
BRANCH   1   2
ATOM      2  N   UNL A   1      33.151  26.146  26.123  1.00  0.00    -0.353 N 
ATOM      3  C   UNL A   1      31.810  25.834  26.240  1.00  0.00     0.253 C 
ATOM      4  O   UNL A   1      31.174  26.523  27.046  1.00  0.00    -0.272 OA
ATOM      5  H   UNL A   1      33.523  26.835  26.719  1.00  0.00     0.163 HD
BRANCH   3   6
ATOM      6  C   UNL A   1      31.136  24.564  25.504  1.00  0.00     0.157 C 
ATOM      7  C   UNL A   1      30.791  25.023  24.082  1.00  0.00     0.055 C 
BRANCH   6   8
ATOM      8  O   UNL A   1      29.869  24.412  26.210  1.00  0.00    -0.378 OA
ATOM      9  H   UNL A   1      29.760  23.487  26.484  1.00  0.00     0.212 HD
ENDBRANCH   6   8
BRANCH   6  10
ATOM     10  C   UNL A   1      31.707  23.074  25.408  1.00  0.00     0.160 C 
BRANCH  10  11
ATOM     11  N   UNL A   1      32.223  22.358  26.579  1.00  0.00    -0.352 N 
ATOM     12  C   UNL A   1      33.375  21.597  26.720  1.00  0.00     0.226 C 
ATOM     13  H   UNL A   1      31.667  22.429  27.389  1.00  0.00     0.163 HD
ATOM     14  O   UNL A   1      33.810  21.452  27.866  1.00  0.00    -0.275 OA
BRANCH  12  15
ATOM     15  C   UNL A   1      34.027  20.854  25.514  1.00  0.00     0.168 C 
BRANCH  15  16
ATOM     16  C   UNL A   1      33.334  19.531  25.086  1.00  0.00     0.103 C 
ATOM     17  C   UNL A   1      32.488  20.111  23.244  1.00  0.00     0.069 C 
ATOM     18  C   UNL A   1      33.162  17.525  24.495  1.00  0.00     0.069 C 
ATOM     19  C   UNL A   1      32.285  18.080  22.640  1.00  0.00     0.013 C 
BRANCH  16  20
ATOM     20  N   UNL A   1      32.904  19.027  26.443  1.00  0.00    -0.352 N 
ATOM     21  H   UNL A   1      32.622  18.050  26.369  1.00  0.00     0.344 HD
ATOM     22  H   UNL A   1      32.119  19.583  26.779  1.00  0.00     0.344 HD
ATOM     23  H   UNL A   1      33.683  19.107  27.098  1.00  0.00     0.344 HD
ENDBRANCH  16  20
ENDBRANCH  15  16
ENDBRANCH  12  15
ENDBRANCH  10  11
ENDBRANCH   6  10
ENDBRANCH   3   6
ENDBRANCH   1   2
BRANCH   1  24
ATOM     24  C   UNL A   1      35.792  24.044  25.092  1.00  0.00     0.042 C 
BRANCH  24  25
ATOM     25  C   UNL A   1      37.231  23.989  26.126  1.00  0.00     0.118 C 
BRANCH  25  26
ATOM     26  N   UNL A   1      37.912  22.723  26.431  1.00  0.00    -0.352 N 
ATOM     27  C   UNL A   1      39.268  22.557  26.616  1.00  0.00     0.251 C 
ATOM     28  H   UNL A   1      37.348  21.919  26.512  1.00  0.00     0.163 HD
ATOM     29  O   UNL A   1      39.806  21.460  26.583  1.00  0.00    -0.269 OA
BRANCH  27  30
ATOM     30  C   UNL A   1      40.025  23.793  26.859  1.00  0.00     0.039 A 
ATOM     31  C   UNL A   1      39.927  24.869  25.983  1.00  0.00     0.014 A 
ATOM     32  C   UNL A   1      40.609  23.924  28.121  1.00  0.00     0.014 A 
ATOM     33  C   UNL A   1      40.408  26.103  26.407  1.00  0.00     0.010 A 
ATOM     34  C   UNL A   1      40.840  25.188  28.614  1.00  0.00     0.010 A 
ATOM     35  C   UNL A   1      40.837  26.274  27.737  1.00  0.00    -0.014 A 
BRANCH  35  36
ATOM     36  C   UNL A   1      41.410  27.549  28.214  1.00  0.00     0.031 A 
ATOM     37  C   UNL A   1      42.895  27.770  28.071  1.00  0.00     0.074 A 
ATOM     38  C   UNL A   1      40.611  28.479  28.767  1.00  0.00     0.049 A 
ATOM     39  N   UNL A   1      43.609  28.810  28.409  1.00  0.00    -0.248 NA
ATOM     40  C   UNL A   1      43.699  26.662  27.515  1.00  0.00     0.031 C 
ATOM     41  C   UNL A   1      39.172  28.334  29.004  1.00  0.00     0.029 A 
ATOM     42  N   UNL A   1      40.892  29.743  29.208  1.00  0.00    -0.354 N 
ATOM     43  C   UNL A   1      44.924  28.470  28.114  1.00  0.00     0.074 A 
ATOM     44  C   UNL A   1      44.934  27.093  27.694  1.00  0.00     0.031 C 
ATOM     45  C   UNL A   1      38.684  29.493  29.469  1.00  0.00     0.029 A 
ATOM     46  C   UNL A   1      39.783  30.439  29.625  1.00  0.00     0.049 A 
ATOM     47  H   UNL A   1      41.803  30.119  29.225  1.00  0.00     0.167 HD
ATOM     48  C   UNL A   1      46.023  29.253  28.128  1.00  0.00     0.037 A 
ATOM     49  C   UNL A   1      39.676  31.702  30.075  1.00  0.00     0.037 A 
ATOM     50  C   UNL A   1      45.990  30.629  28.532  1.00  0.00     0.049 A 
ATOM     51  C   UNL A   1      40.922  32.542  30.141  1.00  0.00     0.074 A 
ATOM     52  C   UNL A   1      47.027  31.539  28.570  1.00  0.00     0.029 A 
ATOM     53  N   UNL A   1      44.854  31.289  28.979  1.00  0.00    -0.354 N 
ATOM     54  N   UNL A   1      42.149  32.230  29.791  1.00  0.00    -0.248 NA
ATOM     55  C   UNL A   1      40.771  33.907  30.656  1.00  0.00     0.031 C 
ATOM     56  C   UNL A   1      46.536  32.726  29.117  1.00  0.00     0.029 A 
ATOM     57  C   UNL A   1      45.172  32.586  29.332  1.00  0.00     0.049 A 
ATOM     58  H   UNL A   1      43.954  30.892  29.035  1.00  0.00     0.167 HD
ATOM     59  C   UNL A   1      42.909  33.373  30.011  1.00  0.00     0.074 A 
ATOM     60  C   UNL A   1      41.998  34.385  30.506  1.00  0.00     0.031 C 
ATOM     61  C   UNL A   1      44.238  33.572  29.817  1.00  0.00     0.037 A 
BRANCH  48  62
ATOM     62  C   UNL A   1      47.327  28.630  27.705  1.00  0.00     0.058 A 
ATOM     63  C   UNL A   1      47.702  28.526  26.353  1.00  0.00     0.135 A 
ATOM     64  C   UNL A   1      48.211  28.115  28.666  1.00  0.00     0.135 A 
ATOM     65  F   UNL A   1      46.886  28.976  25.385  1.00  0.00    -0.206 F 
ATOM     66  C   UNL A   1      48.879  27.896  25.969  1.00  0.00     0.059 A 
ATOM     67  C   UNL A   1      49.417  27.523  28.307  1.00  0.00     0.059 A 
ATOM     68  F   UNL A   1      47.904  28.175  29.971  1.00  0.00    -0.206 F 
ATOM     69  C   UNL A   1      49.734  27.402  26.954  1.00  0.00     0.060 A 
BRANCH  69  70
ATOM     70  S   UNL A   1      51.264  26.598  26.438  1.00  0.00     0.124 S 
ATOM     71  O   UNL A   1      50.783  25.694  25.397  1.00  0.00    -0.237 OA
ATOM     72  O   UNL A   1      52.063  27.728  25.975  1.00  0.00    -0.237 OA
ATOM     73  O   UNL A   1      51.739  25.953  27.657  1.00  0.00    -0.744 OA
ENDBRANCH  69  70
ENDBRANCH  48  62
BRANCH  49  74
ATOM     74  C   UNL A   1      38.348  32.249  30.462  1.00  0.00     0.058 A 
ATOM     75  C   UNL A   1      37.791  31.975  31.721  1.00  0.00     0.135 A 
ATOM     76  C   UNL A   1      37.615  33.069  29.590  1.00  0.00     0.135 A 
ATOM     77  F   UNL A   1      38.451  31.198  32.593  1.00  0.00    -0.206 F 
ATOM     78  C   UNL A   1      36.546  32.472  32.091  1.00  0.00     0.059 A 
ATOM     79  C   UNL A   1      36.384  33.608  29.952  1.00  0.00     0.059 A 
ATOM     80  F   UNL A   1      38.109  33.380  28.382  1.00  0.00    -0.206 F 
ATOM     81  C   UNL A   1      35.853  33.295  31.201  1.00  0.00     0.060 A 
BRANCH  81  82
ATOM     82  S   UNL A   1      34.263  33.973  31.715  1.00  0.00     0.124 S 
ATOM     83  O   UNL A   1      33.597  34.171  30.434  1.00  0.00    -0.237 OA
ATOM     84  O   UNL A   1      33.734  32.901  32.552  1.00  0.00    -0.237 OA
ATOM     85  O   UNL A   1      34.632  35.192  32.429  1.00  0.00    -0.744 OA
ENDBRANCH  81  82
ENDBRANCH  49  74
BRANCH  61  86
ATOM     86  C   UNL A   1      44.777  34.947  30.095  1.00  0.00     0.058 A 
ATOM     87  C   UNL A   1      44.762  35.963  29.128  1.00  0.00     0.135 A 
ATOM     88  C   UNL A   1      45.260  35.265  31.376  1.00  0.00     0.135 A 
ATOM     89  F   UNL A   1      44.313  35.712  27.888  1.00  0.00    -0.206 F 
ATOM     90  C   UNL A   1      45.239  37.238  29.410  1.00  0.00     0.059 A 
ATOM     91  C   UNL A   1      45.698  36.545  31.693  1.00  0.00     0.059 A 
ATOM     92  F   UNL A   1      45.284  34.334  32.343  1.00  0.00    -0.206 F 
ATOM     93  C   UNL A   1      45.696  37.521  30.699  1.00  0.00     0.060 A 
BRANCH  93  94
ATOM     94  S   UNL A   1      46.270  39.191  31.059  1.00  0.00     0.124 S 
ATOM     95  O   UNL A   1      47.618  39.167  30.501  1.00  0.00    -0.237 OA
ATOM     96  O   UNL A   1      45.300  40.011  30.342  1.00  0.00    -0.237 OA
ATOM     97  O   UNL A   1      46.197  39.271  32.515  1.00  0.00    -0.744 OA
ENDBRANCH  93  94
ENDBRANCH  61  86
ENDBRANCH  35  36
ENDBRANCH  27  30
ENDBRANCH  25  26
ENDBRANCH  24  25
ENDBRANCH   1  24
TORSDOF 19
ENDMDL
MODEL 3
REMARK VINA RESULT:     -10.1      4.497     11.040
REMARK SMILES C[C@@](O)(CNC(=O)CC1([NH3+])CCC1)C(=O)NCCCNC(=O)c1ccc(-c2c3nc(c(-c4c(F)cc(S(=O)(=O)[O-])cc4F)c4ccc([nH]4)c(-c4c(F)cc(S(=O)(=O)[O-])cc4F)c4nc(c(-c5c(F)cc(S(=O)(=O)[O-])cc5F)c5ccc2[nH]5)C=C4)C=C3)cc1
REMARK SMILES IDX 17 1 16 2 14 3 15 4 2 6 1 7 3 8 4 10 5 11 6 12 7 14 8 15
REMARK SMILES IDX 9 16 11 17 13 18 12 19 10 20 18 24 19 25 20 26 21 27 22 29
REMARK SMILES IDX 23 30 24 31 88 32 25 33 87 34 26 35 27 36 28 37 81 38 29 39
REMARK SMILES IDX 86 40 80 41 82 42 30 43 85 44 79 45 78 46 31 48 65 49 44 50
REMARK SMILES IDX 64 51 45 52 48 53 63 54 83 55 46 56 47 57 62 59 84 60 49 61
REMARK SMILES IDX 32 62 33 63 42 64 34 65 35 66 41 67 43 68 36 69 37 70 38 71
REMARK SMILES IDX 39 72 40 73 66 74 67 75 76 76 68 77 69 78 75 79 77 80 70 81
REMARK SMILES IDX 71 82 72 83 73 84 74 85 50 86 51 87 60 88 52 89 53 90 59 91
REMARK SMILES IDX 61 92 54 93 55 94 56 95 57 96 58 97
REMARK H PARENT 16 5 3 9 5 13 10 21 10 22 10 23 20 28 82 47 48 58
REMARK Flexibility Score: inf
ROOT
ATOM      1  C   UNL A   1      32.344  26.577  25.345  1.00  0.00     0.117 C 
ENDROOT
BRANCH   1   2
ATOM      2  N   UNL A   1      31.269  26.084  26.273  1.00  0.00    -0.353 N 
ATOM      3  C   UNL A   1      30.560  24.917  26.063  1.00  0.00     0.253 C 
ATOM      4  O   UNL A   1      29.655  24.694  26.875  1.00  0.00    -0.272 OA
ATOM      5  H   UNL A   1      31.060  26.620  27.072  1.00  0.00     0.163 HD
BRANCH   3   6
ATOM      6  C   UNL A   1      30.967  23.831  24.938  1.00  0.00     0.157 C 
ATOM      7  C   UNL A   1      30.278  24.275  23.642  1.00  0.00     0.055 C 
BRANCH   6   8
ATOM      8  O   UNL A   1      30.278  22.625  25.384  1.00  0.00    -0.378 OA
ATOM      9  H   UNL A   1      29.691  22.843  26.124  1.00  0.00     0.212 HD
ENDBRANCH   6   8
BRANCH   6  10
ATOM     10  C   UNL A   1      32.434  23.322  24.559  1.00  0.00     0.160 C 
BRANCH  10  11
ATOM     11  N   UNL A   1      33.279  22.596  25.511  1.00  0.00    -0.352 N 
ATOM     12  C   UNL A   1      33.569  21.240  25.589  1.00  0.00     0.226 C 
ATOM     13  H   UNL A   1      33.706  23.155  26.201  1.00  0.00     0.163 HD
ATOM     14  O   UNL A   1      34.604  20.926  26.184  1.00  0.00    -0.275 OA
BRANCH  12  15
ATOM     15  C   UNL A   1      32.585  20.153  25.062  1.00  0.00     0.168 C 
BRANCH  15  16
ATOM     16  C   UNL A   1      33.150  18.707  25.001  1.00  0.00     0.103 C 
ATOM     17  C   UNL A   1      32.595  18.153  23.043  1.00  0.00     0.069 C 
ATOM     18  C   UNL A   1      34.582  17.173  24.993  1.00  0.00     0.069 C 
ATOM     19  C   UNL A   1      34.028  16.578  23.030  1.00  0.00     0.013 C 
BRANCH  16  20
ATOM     20  N   UNL A   1      32.903  18.285  26.430  1.00  0.00    -0.352 N 
ATOM     21  H   UNL A   1      32.297  17.464  26.443  1.00  0.00     0.344 HD
ATOM     22  H   UNL A   1      32.454  19.047  26.937  1.00  0.00     0.344 HD
ATOM     23  H   UNL A   1      33.792  18.058  26.876  1.00  0.00     0.344 HD
ENDBRANCH  16  20
ENDBRANCH  15  16
ENDBRANCH  12  15
ENDBRANCH  10  11
ENDBRANCH   6  10
ENDBRANCH   3   6
ENDBRANCH   1   2
BRANCH   1  24
ATOM     24  C   UNL A   1      34.158  27.904  25.376  1.00  0.00     0.042 C 
BRANCH  24  25
ATOM     25  C   UNL A   1      34.708  29.017  26.642  1.00  0.00     0.118 C 
BRANCH  25  26
ATOM     26  N   UNL A   1      34.286  30.424  26.666  1.00  0.00    -0.352 N 
ATOM     27  C   UNL A   1      34.600  31.347  27.641  1.00  0.00     0.251 C 
ATOM     28  H   UNL A   1      33.728  30.737  25.917  1.00  0.00     0.163 HD
ATOM     29  O   UNL A   1      33.999  32.405  27.762  1.00  0.00    -0.269 OA
BRANCH  27  30
ATOM     30  C   UNL A   1      35.712  30.972  28.526  1.00  0.00     0.039 A 
ATOM     31  C   UNL A   1      35.677  29.781  29.243  1.00  0.00     0.014 A 
ATOM     32  C   UNL A   1      36.887  31.718  28.396  1.00  0.00     0.014 A 
ATOM     33  C   UNL A   1      36.861  29.328  29.815  1.00  0.00     0.010 A 
ATOM     34  C   UNL A   1      38.082  31.132  28.743  1.00  0.00     0.010 A 
ATOM     35  C   UNL A   1      38.075  29.986  29.540  1.00  0.00    -0.014 A 
BRANCH  35  36
ATOM     36  C   UNL A   1      39.345  29.577  30.173  1.00  0.00     0.031 A 
ATOM     37  C   UNL A   1      39.757  30.244  31.461  1.00  0.00     0.074 A 
ATOM     38  C   UNL A   1      40.109  28.632  29.595  1.00  0.00     0.049 A 
ATOM     39  N   UNL A   1      40.819  30.037  32.192  1.00  0.00    -0.248 NA
ATOM     40  C   UNL A   1      38.887  31.319  31.981  1.00  0.00     0.031 C 
ATOM     41  C   UNL A   1      39.825  27.970  28.318  1.00  0.00     0.029 A 
ATOM     42  N   UNL A   1      41.268  28.044  30.020  1.00  0.00    -0.354 N 
ATOM     43  C   UNL A   1      40.738  30.954  33.234  1.00  0.00     0.074 A 
ATOM     44  C   UNL A   1      39.603  31.803  32.978  1.00  0.00     0.031 C 
ATOM     45  C   UNL A   1      40.739  27.012  28.107  1.00  0.00     0.029 A 
ATOM     46  C   UNL A   1      41.708  27.036  29.197  1.00  0.00     0.049 A 
ATOM     47  H   UNL A   1      41.743  28.318  30.839  1.00  0.00     0.167 HD
ATOM     48  C   UNL A   1      41.502  31.044  34.342  1.00  0.00     0.037 A 
ATOM     49  C   UNL A   1      42.772  26.223  29.321  1.00  0.00     0.037 A 
ATOM     50  C   UNL A   1      42.618  30.177  34.588  1.00  0.00     0.049 A 
ATOM     51  C   UNL A   1      43.648  26.377  30.534  1.00  0.00     0.074 A 
ATOM     52  C   UNL A   1      43.459  30.148  35.682  1.00  0.00     0.029 A 
ATOM     53  N   UNL A   1      43.051  29.189  33.715  1.00  0.00    -0.354 N 
ATOM     54  N   UNL A   1      43.519  27.202  31.547  1.00  0.00    -0.248 NA
ATOM     55  C   UNL A   1      44.811  25.488  30.626  1.00  0.00     0.031 C 
ATOM     56  C   UNL A   1      44.451  29.197  35.433  1.00  0.00     0.029 A 
ATOM     57  C   UNL A   1      44.174  28.568  34.228  1.00  0.00     0.049 A 
ATOM     58  H   UNL A   1      42.623  28.964  32.857  1.00  0.00     0.167 HD
ATOM     59  C   UNL A   1      44.563  26.906  32.415  1.00  0.00     0.074 A 
ATOM     60  C   UNL A   1      45.303  25.815  31.812  1.00  0.00     0.031 C 
ATOM     61  C   UNL A   1      44.883  27.479  33.604  1.00  0.00     0.037 A 
BRANCH  48  62
ATOM     62  C   UNL A   1      41.153  32.113  35.344  1.00  0.00     0.058 A 
ATOM     63  C   UNL A   1      40.108  31.954  36.273  1.00  0.00     0.135 A 
ATOM     64  C   UNL A   1      41.863  33.323  35.366  1.00  0.00     0.135 A 
ATOM     65  F   UNL A   1      39.374  30.828  36.284  1.00  0.00    -0.206 F 
ATOM     66  C   UNL A   1      39.754  32.969  37.153  1.00  0.00     0.059 A 
ATOM     67  C   UNL A   1      41.556  34.335  36.270  1.00  0.00     0.059 A 
ATOM     68  F   UNL A   1      42.862  33.538  34.496  1.00  0.00    -0.206 F 
ATOM     69  C   UNL A   1      40.488  34.155  37.148  1.00  0.00     0.060 A 
BRANCH  69  70
ATOM     70  S   UNL A   1      40.022  35.457  38.306  1.00  0.00     0.124 S 
ATOM     71  O   UNL A   1      39.676  36.546  37.398  1.00  0.00    -0.237 OA
ATOM     72  O   UNL A   1      38.904  34.847  39.018  1.00  0.00    -0.237 OA
ATOM     73  O   UNL A   1      41.232  35.661  39.096  1.00  0.00    -0.744 OA
ENDBRANCH  69  70
ENDBRANCH  48  62
BRANCH  49  74
ATOM     74  C   UNL A   1      43.043  25.181  28.294  1.00  0.00     0.058 A 
ATOM     75  C   UNL A   1      43.594  25.520  27.047  1.00  0.00     0.135 A 
ATOM     76  C   UNL A   1      42.773  23.826  28.540  1.00  0.00     0.135 A 
ATOM     77  F   UNL A   1      43.872  26.801  26.762  1.00  0.00    -0.206 F 
ATOM     78  C   UNL A   1      43.843  24.557  26.075  1.00  0.00     0.059 A 
ATOM     79  C   UNL A   1      43.048  22.841  27.597  1.00  0.00     0.059 A 
ATOM     80  F   UNL A   1      42.265  23.444  29.722  1.00  0.00    -0.206 F 
ATOM     81  C   UNL A   1      43.572  23.218  26.363  1.00  0.00     0.060 A 
BRANCH  81  82
ATOM     82  S   UNL A   1      43.948  21.975  25.110  1.00  0.00     0.124 S 
ATOM     83  O   UNL A   1      43.744  22.726  23.878  1.00  0.00    -0.237 OA
ATOM     84  O   UNL A   1      45.330  21.634  25.430  1.00  0.00    -0.237 OA
ATOM     85  O   UNL A   1      42.972  20.923  25.377  1.00  0.00    -0.744 OA
ENDBRANCH  81  82
ENDBRANCH  49  74
BRANCH  61  86
ATOM     86  C   UNL A   1      46.053  26.905  34.353  1.00  0.00     0.058 A 
ATOM     87  C   UNL A   1      47.354  27.408  34.203  1.00  0.00     0.135 A 
ATOM     88  C   UNL A   1      45.851  25.871  35.283  1.00  0.00     0.135 A 
ATOM     89  F   UNL A   1      47.602  28.393  33.326  1.00  0.00    -0.206 F 
ATOM     90  C   UNL A   1      48.420  26.884  34.924  1.00  0.00     0.059 A 
ATOM     91  C   UNL A   1      46.893  25.365  36.049  1.00  0.00     0.059 A 
ATOM     92  F   UNL A   1      44.623  25.362  35.477  1.00  0.00    -0.206 F 
ATOM     93  C   UNL A   1      48.177  25.869  35.852  1.00  0.00     0.060 A 
BRANCH  93  94
ATOM     94  S   UNL A   1      49.564  25.231  36.810  1.00  0.00     0.124 S 
ATOM     95  O   UNL A   1      50.700  25.848  36.133  1.00  0.00    -0.237 OA
ATOM     96  O   UNL A   1      49.272  25.736  38.147  1.00  0.00    -0.237 OA
ATOM     97  O   UNL A   1      49.452  23.784  36.653  1.00  0.00    -0.744 OA
ENDBRANCH  93  94
ENDBRANCH  61  86
ENDBRANCH  35  36
ENDBRANCH  27  30
ENDBRANCH  25  26
ENDBRANCH  24  25
ENDBRANCH   1  24
TORSDOF 19
ENDMDL
