MODEL 1
REMARK VINA RESULT:     -10.7      0.000      0.000
REMARK SMILES C[C@H](O)C[C@@]1(C(=O)NCCCNC(=O)c2ccc(-c3c4nc(c(-c5c(F)cc(S(=O)(=O)[O-])cc5F)c5ccc([nH]5)c(-c5c(F)cc(S(=O)(=O)[O-])cc5F)c5nc(c(-c6c(F)cc(S(=O)(=O)[O-])cc6F)c6ccc3[nH]6)C=C5)C=C4)cc2)CCN(C(=O)OC(C)(C)C)C1
REMARK SMILES IDX 10 1 9 2 8 3 6 4 7 5 5 7 81 8 91 9 82 10 83 11 4 12 2 13
REMARK SMILES IDX 1 14 3 15 84 17 85 18 86 19 87 20 88 21 89 22 90 23 11 24
REMARK SMILES IDX 12 25 13 26 14 28 15 29 16 30 80 31 17 32 79 33 18 34 19 35
REMARK SMILES IDX 20 36 73 37 21 38 78 39 72 40 74 41 22 42 77 43 71 44 70 45
REMARK SMILES IDX 23 47 57 48 36 49 56 50 37 51 40 52 55 53 75 54 38 55 39 56
REMARK SMILES IDX 54 58 76 59 41 60 24 61 25 62 34 63 26 64 27 65 33 66 35 67
REMARK SMILES IDX 28 68 29 69 30 70 31 71 32 72 58 73 59 74 68 75 60 76 61 77
REMARK SMILES IDX 67 78 69 79 62 80 63 81 64 82 65 83 66 84 42 85 43 86 52 87
REMARK SMILES IDX 44 88 45 89 51 90 53 91 46 92 47 93 48 94 49 95 50 96
REMARK H PARENT 8 6 3 16 12 27 74 46 40 57
REMARK Flexibility Score: inf
ROOT
ATOM      1  C   UNL A   1      33.221  27.701  26.854  1.00  0.00     0.042 C 
ENDROOT
BRANCH   1   2
ATOM      2  C   UNL A   1      31.766  27.923  26.479  1.00  0.00     0.117 C 
BRANCH   2   3
ATOM      3  N   UNL A   1      31.001  26.723  26.753  1.00  0.00    -0.355 N 
ATOM      4  C   UNL A   1      30.409  25.828  25.919  1.00  0.00     0.228 C 
ATOM      5  O   UNL A   1      29.893  24.848  26.460  1.00  0.00    -0.274 OA
ATOM      6  H   UNL A   1      30.892  26.520  27.710  1.00  0.00     0.163 HD
BRANCH   4   7
ATOM      7  C   UNL A   1      30.565  25.930  24.397  1.00  0.00     0.071 C 
ATOM      8  C   UNL A   1      30.098  24.670  23.619  1.00  0.00     0.040 C 
ATOM      9  C   UNL A   1      32.084  25.939  24.039  1.00  0.00     0.140 C 
ATOM     10  C   UNL A   1      31.256  23.706  23.710  1.00  0.00     0.124 C 
ATOM     11  N   UNL A   1      32.395  24.578  23.603  1.00  0.00    -0.307 N 
BRANCH   7  12
ATOM     12  C   UNL A   1      29.805  27.187  23.868  1.00  0.00     0.050 C 
BRANCH  12  13
ATOM     13  C   UNL A   1      30.630  28.252  23.119  1.00  0.00     0.112 C 
ATOM     14  C   UNL A   1      30.215  29.657  23.546  1.00  0.00     0.038 C 
BRANCH  13  15
ATOM     15  O   UNL A   1      30.443  28.110  21.719  1.00  0.00    -0.393 OA
ATOM     16  H   UNL A   1      30.987  27.376  21.394  1.00  0.00     0.210 HD
ENDBRANCH  13  15
ENDBRANCH  12  13
ENDBRANCH   7  12
BRANCH  11  17
ATOM     17  C   UNL A   1      33.616  24.210  23.091  1.00  0.00     0.410 C 
ATOM     18  O   UNL A   1      34.207  24.843  22.233  1.00  0.00    -0.224 OA
BRANCH  17  19
ATOM     19  O   UNL A   1      34.039  23.034  23.631  1.00  0.00    -0.444 OA
BRANCH  19  20
ATOM     20  C   UNL A   1      34.892  22.997  24.802  1.00  0.00     0.106 C 
ATOM     21  C   UNL A   1      36.021  21.973  24.645  1.00  0.00     0.056 C 
ATOM     22  C   UNL A   1      35.417  24.396  25.131  1.00  0.00     0.056 C 
ATOM     23  C   UNL A   1      33.980  22.529  25.949  1.00  0.00     0.056 C 
ENDBRANCH  19  20
ENDBRANCH  17  19
ENDBRANCH  11  17
ENDBRANCH   4   7
ENDBRANCH   2   3
ENDBRANCH   1   2
BRANCH   1  24
ATOM     24  C   UNL A   1      34.102  28.813  26.310  1.00  0.00     0.118 C 
BRANCH  24  25
ATOM     25  N   UNL A   1      33.877  30.061  27.027  1.00  0.00    -0.352 N 
ATOM     26  C   UNL A   1      34.648  30.618  28.015  1.00  0.00     0.251 C 
ATOM     27  H   UNL A   1      33.073  30.569  26.769  1.00  0.00     0.163 HD
ATOM     28  O   UNL A   1      34.212  31.531  28.706  1.00  0.00    -0.269 OA
BRANCH  26  29
ATOM     29  C   UNL A   1      36.001  30.076  28.234  1.00  0.00     0.039 A 
ATOM     30  C   UNL A   1      36.948  30.165  27.213  1.00  0.00     0.014 A 
ATOM     31  C   UNL A   1      36.337  29.539  29.480  1.00  0.00     0.014 A 
ATOM     32  C   UNL A   1      38.257  29.760  27.465  1.00  0.00     0.010 A 
ATOM     33  C   UNL A   1      37.658  29.224  29.754  1.00  0.00     0.010 A 
ATOM     34  C   UNL A   1      38.629  29.319  28.746  1.00  0.00    -0.014 A 
BRANCH  34  35
ATOM     35  C   UNL A   1      40.024  28.932  29.060  1.00  0.00     0.031 A 
ATOM     36  C   UNL A   1      40.968  29.961  29.621  1.00  0.00     0.074 A 
ATOM     37  C   UNL A   1      40.458  27.691  28.761  1.00  0.00     0.049 A 
ATOM     38  N   UNL A   1      42.249  29.862  29.855  1.00  0.00    -0.248 NA
ATOM     39  C   UNL A   1      40.403  31.288  29.925  1.00  0.00     0.031 C 
ATOM     40  C   UNL A   1      39.643  26.630  28.162  1.00  0.00     0.029 A 
ATOM     41  N   UNL A   1      41.696  27.118  28.898  1.00  0.00    -0.354 N 
ATOM     42  C   UNL A   1      42.647  31.116  30.305  1.00  0.00     0.074 A 
ATOM     43  C   UNL A   1      41.485  31.972  30.269  1.00  0.00     0.031 C 
ATOM     44  C   UNL A   1      40.401  25.535  27.994  1.00  0.00     0.029 A 
ATOM     45  C   UNL A   1      41.764  25.827  28.427  1.00  0.00     0.049 A 
ATOM     46  H   UNL A   1      42.466  27.587  29.296  1.00  0.00     0.167 HD
ATOM     47  C   UNL A   1      43.871  31.508  30.730  1.00  0.00     0.037 A 
ATOM     48  C   UNL A   1      42.811  24.984  28.334  1.00  0.00     0.037 A 
ATOM     49  C   UNL A   1      45.009  30.632  30.801  1.00  0.00     0.049 A 
ATOM     50  C   UNL A   1      44.158  25.442  28.829  1.00  0.00     0.074 A 
ATOM     51  C   UNL A   1      46.271  30.905  31.298  1.00  0.00     0.029 A 
ATOM     52  N   UNL A   1      45.027  29.317  30.358  1.00  0.00    -0.354 N 
ATOM     53  N   UNL A   1      44.497  26.605  29.333  1.00  0.00    -0.248 NA
ATOM     54  C   UNL A   1      45.262  24.476  28.750  1.00  0.00     0.031 C 
ATOM     55  C   UNL A   1      47.069  29.775  31.103  1.00  0.00     0.029 A 
ATOM     56  C   UNL A   1      46.286  28.776  30.544  1.00  0.00     0.049 A 
ATOM     57  H   UNL A   1      44.258  28.841  29.970  1.00  0.00     0.167 HD
ATOM     58  C   UNL A   1      45.845  26.499  29.660  1.00  0.00     0.074 A 
ATOM     59  C   UNL A   1      46.255  25.156  29.307  1.00  0.00     0.031 C 
ATOM     60  C   UNL A   1      46.670  27.429  30.203  1.00  0.00     0.037 A 
BRANCH  47  61
ATOM     61  C   UNL A   1      44.049  32.939  31.154  1.00  0.00     0.058 A 
ATOM     62  C   UNL A   1      44.463  33.933  30.254  1.00  0.00     0.135 A 
ATOM     63  C   UNL A   1      43.729  33.333  32.464  1.00  0.00     0.135 A 
ATOM     64  F   UNL A   1      44.800  33.610  28.995  1.00  0.00    -0.206 F 
ATOM     65  C   UNL A   1      44.565  35.266  30.640  1.00  0.00     0.059 A 
ATOM     66  C   UNL A   1      43.796  34.664  32.863  1.00  0.00     0.059 A 
ATOM     67  F   UNL A   1      43.336  32.422  33.368  1.00  0.00    -0.206 F 
ATOM     68  C   UNL A   1      44.220  35.623  31.945  1.00  0.00     0.060 A 
BRANCH  68  69
ATOM     69  S   UNL A   1      44.315  37.363  32.413  1.00  0.00     0.124 S 
ATOM     70  O   UNL A   1      43.914  38.021  31.174  1.00  0.00    -0.237 OA
ATOM     71  O   UNL A   1      43.357  37.442  33.511  1.00  0.00    -0.237 OA
ATOM     72  O   UNL A   1      45.715  37.538  32.791  1.00  0.00    -0.744 OA
ENDBRANCH  68  69
ENDBRANCH  47  61
BRANCH  48  73
ATOM     73  C   UNL A   1      42.632  23.629  27.745  1.00  0.00     0.058 A 
ATOM     74  C   UNL A   1      42.405  22.507  28.557  1.00  0.00     0.135 A 
ATOM     75  C   UNL A   1      42.695  23.427  26.357  1.00  0.00     0.135 A 
ATOM     76  F   UNL A   1      42.339  22.646  29.890  1.00  0.00    -0.206 F 
ATOM     77  C   UNL A   1      42.278  21.231  28.018  1.00  0.00     0.059 A 
ATOM     78  C   UNL A   1      42.541  22.165  25.793  1.00  0.00     0.059 A 
ATOM     79  F   UNL A   1      42.889  24.468  25.533  1.00  0.00    -0.206 F 
ATOM     80  C   UNL A   1      42.348  21.069  26.634  1.00  0.00     0.060 A 
BRANCH  80  81
ATOM     81  S   UNL A   1      42.159  19.412  25.942  1.00  0.00     0.124 S 
ATOM     82  O   UNL A   1      42.983  19.499  24.743  1.00  0.00    -0.237 OA
ATOM     83  O   UNL A   1      42.679  18.572  27.017  1.00  0.00    -0.237 OA
ATOM     84  O   UNL A   1      40.721  19.306  25.715  1.00  0.00    -0.744 OA
ENDBRANCH  80  81
ENDBRANCH  48  73
BRANCH  60  85
ATOM     85  C   UNL A   1      48.086  27.019  30.496  1.00  0.00     0.058 A 
ATOM     86  C   UNL A   1      49.133  27.281  29.600  1.00  0.00     0.135 A 
ATOM     87  C   UNL A   1      48.408  26.430  31.731  1.00  0.00     0.135 A 
ATOM     88  F   UNL A   1      48.878  27.836  28.405  1.00  0.00    -0.206 F 
ATOM     89  C   UNL A   1      50.450  26.958  29.910  1.00  0.00     0.059 A 
ATOM     90  C   UNL A   1      49.721  26.128  32.074  1.00  0.00     0.059 A 
ATOM     91  F   UNL A   1      47.445  26.170  32.628  1.00  0.00    -0.206 F 
ATOM     92  C   UNL A   1      50.735  26.388  31.154  1.00  0.00     0.060 A 
BRANCH  92  93
ATOM     93  S   UNL A   1      52.454  26.023  31.563  1.00  0.00     0.124 S 
ATOM     94  O   UNL A   1      52.346  24.679  32.119  1.00  0.00    -0.237 OA
ATOM     95  O   UNL A   1      53.110  26.121  30.262  1.00  0.00    -0.237 OA
ATOM     96  O   UNL A   1      52.806  27.071  32.516  1.00  0.00    -0.744 OA
ENDBRANCH  92  93
ENDBRANCH  60  85
ENDBRANCH  34  35
ENDBRANCH  26  29
ENDBRANCH  24  25
ENDBRANCH   1  24
TORSDOF 19
ENDMDL
MODEL 2
REMARK VINA RESULT:     -10.7      1.163      2.068
REMARK SMILES C[C@H](O)C[C@@]1(C(=O)NCCCNC(=O)c2ccc(-c3c4nc(c(-c5c(F)cc(S(=O)(=O)[O-])cc5F)c5ccc([nH]5)c(-c5c(F)cc(S(=O)(=O)[O-])cc5F)c5nc(c(-c6c(F)cc(S(=O)(=O)[O-])cc6F)c6ccc3[nH]6)C=C5)C=C4)cc2)CCN(C(=O)OC(C)(C)C)C1
REMARK SMILES IDX 10 1 9 2 8 3 6 4 7 5 5 7 81 8 91 9 82 10 83 11 4 12 2 13
REMARK SMILES IDX 1 14 3 15 84 17 85 18 86 19 87 20 88 21 89 22 90 23 11 24
REMARK SMILES IDX 12 25 13 26 14 28 15 29 16 30 80 31 17 32 79 33 18 34 19 35
REMARK SMILES IDX 20 36 73 37 21 38 78 39 72 40 74 41 22 42 77 43 71 44 70 45
REMARK SMILES IDX 23 47 57 48 36 49 56 50 37 51 40 52 55 53 75 54 38 55 39 56
REMARK SMILES IDX 54 58 76 59 41 60 24 61 25 62 34 63 26 64 27 65 33 66 35 67
REMARK SMILES IDX 28 68 29 69 30 70 31 71 32 72 58 73 59 74 68 75 60 76 61 77
REMARK SMILES IDX 67 78 69 79 62 80 63 81 64 82 65 83 66 84 42 85 43 86 52 87
REMARK SMILES IDX 44 88 45 89 51 90 53 91 46 92 47 93 48 94 49 95 50 96
REMARK H PARENT 8 6 3 16 12 27 74 46 40 57
REMARK Flexibility Score: inf
ROOT
ATOM      1  C   UNL A   1      32.355  27.771  26.793  1.00  0.00     0.042 C 
ENDROOT
BRANCH   1   2
ATOM      2  C   UNL A   1      32.497  26.403  26.148  1.00  0.00     0.117 C 
BRANCH   2   3
ATOM      3  N   UNL A   1      31.564  25.475  26.757  1.00  0.00    -0.355 N 
ATOM      4  C   UNL A   1      31.284  24.176  26.477  1.00  0.00     0.228 C 
ATOM      5  O   UNL A   1      30.487  23.621  27.238  1.00  0.00    -0.274 OA
ATOM      6  H   UNL A   1      31.045  25.852  27.503  1.00  0.00     0.163 HD
BRANCH   4   7
ATOM      7  C   UNL A   1      32.071  23.399  25.415  1.00  0.00     0.071 C 
ATOM      8  C   UNL A   1      32.223  21.882  25.713  1.00  0.00     0.040 C 
ATOM      9  C   UNL A   1      33.564  23.848  25.456  1.00  0.00     0.140 C 
ATOM     10  C   UNL A   1      33.375  21.791  26.685  1.00  0.00     0.124 C 
ATOM     11  N   UNL A   1      34.270  22.807  26.201  1.00  0.00    -0.307 N 
BRANCH   7  12
ATOM     12  C   UNL A   1      31.410  23.596  24.014  1.00  0.00     0.050 C 
BRANCH  12  13
ATOM     13  C   UNL A   1      32.265  24.255  22.913  1.00  0.00     0.112 C 
ATOM     14  C   UNL A   1      31.589  25.515  22.383  1.00  0.00     0.038 C 
BRANCH  13  15
ATOM     15  O   UNL A   1      32.464  23.341  21.845  1.00  0.00    -0.393 OA
ATOM     16  H   UNL A   1      31.649  22.837  21.696  1.00  0.00     0.210 HD
ENDBRANCH  13  15
ENDBRANCH  12  13
ENDBRANCH   7  12
BRANCH  11  17
ATOM     17  C   UNL A   1      35.636  22.782  26.354  1.00  0.00     0.410 C 
ATOM     18  O   UNL A   1      36.291  23.741  26.725  1.00  0.00    -0.224 OA
BRANCH  17  19
ATOM     19  O   UNL A   1      36.148  21.575  25.988  1.00  0.00    -0.444 OA
BRANCH  19  20
ATOM     20  C   UNL A   1      37.225  21.466  25.025  1.00  0.00     0.106 C 
ATOM     21  C   UNL A   1      36.903  22.219  23.729  1.00  0.00     0.056 C 
ATOM     22  C   UNL A   1      38.550  21.914  25.645  1.00  0.00     0.056 C 
ATOM     23  C   UNL A   1      37.317  19.965  24.694  1.00  0.00     0.056 C 
ENDBRANCH  19  20
ENDBRANCH  17  19
ENDBRANCH  11  17
ENDBRANCH   4   7
ENDBRANCH   2   3
ENDBRANCH   1   2
BRANCH   1  24
ATOM     24  C   UNL A   1      33.715  28.373  27.105  1.00  0.00     0.118 C 
BRANCH  24  25
ATOM     25  N   UNL A   1      33.596  29.776  27.481  1.00  0.00    -0.352 N 
ATOM     26  C   UNL A   1      34.493  30.541  28.183  1.00  0.00     0.251 C 
ATOM     27  H   UNL A   1      32.771  30.232  27.195  1.00  0.00     0.163 HD
ATOM     28  O   UNL A   1      34.157  31.622  28.651  1.00  0.00    -0.269 OA
BRANCH  26  29
ATOM     29  C   UNL A   1      35.857  30.017  28.375  1.00  0.00     0.039 A 
ATOM     30  C   UNL A   1      36.766  30.071  27.318  1.00  0.00     0.014 A 
ATOM     31  C   UNL A   1      36.240  29.533  29.629  1.00  0.00     0.014 A 
ATOM     32  C   UNL A   1      38.087  29.685  27.539  1.00  0.00     0.010 A 
ATOM     33  C   UNL A   1      37.574  29.238  29.868  1.00  0.00     0.010 A 
ATOM     34  C   UNL A   1      38.507  29.299  28.823  1.00  0.00    -0.014 A 
BRANCH  34  35
ATOM     35  C   UNL A   1      39.916  28.935  29.102  1.00  0.00     0.031 A 
ATOM     36  C   UNL A   1      40.858  29.980  29.633  1.00  0.00     0.074 A 
ATOM     37  C   UNL A   1      40.360  27.699  28.798  1.00  0.00     0.049 A 
ATOM     38  N   UNL A   1      42.147  29.902  29.834  1.00  0.00    -0.248 NA
ATOM     39  C   UNL A   1      40.281  31.301  29.946  1.00  0.00     0.031 C 
ATOM     40  C   UNL A   1      39.546  26.622  28.226  1.00  0.00     0.029 A 
ATOM     41  N   UNL A   1      41.610  27.145  28.906  1.00  0.00    -0.354 N 
ATOM     42  C   UNL A   1      42.537  31.164  30.268  1.00  0.00     0.074 A 
ATOM     43  C   UNL A   1      41.361  32.002  30.258  1.00  0.00     0.031 C 
ATOM     44  C   UNL A   1      40.316  25.538  28.043  1.00  0.00     0.029 A 
ATOM     45  C   UNL A   1      41.685  25.853  28.439  1.00  0.00     0.049 A 
ATOM     46  H   UNL A   1      42.382  27.627  29.281  1.00  0.00     0.167 HD
ATOM     47  C   UNL A   1      43.765  31.576  30.659  1.00  0.00     0.037 A 
ATOM     48  C   UNL A   1      42.742  25.025  28.323  1.00  0.00     0.037 A 
ATOM     49  C   UNL A   1      44.918  30.718  30.704  1.00  0.00     0.049 A 
ATOM     50  C   UNL A   1      44.094  25.506  28.780  1.00  0.00     0.074 A 
ATOM     51  C   UNL A   1      46.188  31.012  31.167  1.00  0.00     0.029 A 
ATOM     52  N   UNL A   1      44.944  29.401  30.268  1.00  0.00    -0.354 N 
ATOM     53  N   UNL A   1      44.429  26.676  29.270  1.00  0.00    -0.248 NA
ATOM     54  C   UNL A   1      45.210  24.556  28.677  1.00  0.00     0.031 C 
ATOM     55  C   UNL A   1      46.997  29.893  30.956  1.00  0.00     0.029 A 
ATOM     56  C   UNL A   1      46.216  28.879  30.423  1.00  0.00     0.049 A 
ATOM     57  H   UNL A   1      44.172  28.912  29.902  1.00  0.00     0.167 HD
ATOM     58  C   UNL A   1      45.786  26.592  29.562  1.00  0.00     0.074 A 
ATOM     59  C   UNL A   1      46.207  25.253  29.205  1.00  0.00     0.031 C 
ATOM     60  C   UNL A   1      46.611  27.537  30.079  1.00  0.00     0.037 A 
BRANCH  47  61
ATOM     61  C   UNL A   1      43.933  33.012  31.071  1.00  0.00     0.058 A 
ATOM     62  C   UNL A   1      43.786  33.422  32.406  1.00  0.00     0.135 A 
ATOM     63  C   UNL A   1      44.321  33.978  30.128  1.00  0.00     0.135 A 
ATOM     64  F   UNL A   1      43.397  32.545  33.345  1.00  0.00    -0.206 F 
ATOM     65  C   UNL A   1      44.004  34.742  32.788  1.00  0.00     0.059 A 
ATOM     66  C   UNL A   1      44.574  35.296  30.494  1.00  0.00     0.059 A 
ATOM     67  F   UNL A   1      44.470  33.641  28.837  1.00  0.00    -0.206 F 
ATOM     68  C   UNL A   1      44.407  35.670  31.826  1.00  0.00     0.060 A 
BRANCH  68  69
ATOM     69  S   UNL A   1      44.731  37.366  32.351  1.00  0.00     0.124 S 
ATOM     70  O   UNL A   1      46.028  37.227  33.006  1.00  0.00    -0.237 OA
ATOM     71  O   UNL A   1      44.736  38.087  31.082  1.00  0.00    -0.237 OA
ATOM     72  O   UNL A   1      43.611  37.668  33.237  1.00  0.00    -0.744 OA
ENDBRANCH  68  69
ENDBRANCH  47  61
BRANCH  48  73
ATOM     73  C   UNL A   1      42.568  23.664  27.746  1.00  0.00     0.058 A 
ATOM     74  C   UNL A   1      42.388  22.542  28.569  1.00  0.00     0.135 A 
ATOM     75  C   UNL A   1      42.589  23.457  26.357  1.00  0.00     0.135 A 
ATOM     76  F   UNL A   1      42.363  22.686  29.903  1.00  0.00    -0.206 F 
ATOM     77  C   UNL A   1      42.266  21.261  28.039  1.00  0.00     0.059 A 
ATOM     78  C   UNL A   1      42.438  22.190  25.804  1.00  0.00     0.059 A 
ATOM     79  F   UNL A   1      42.737  24.498  25.523  1.00  0.00    -0.206 F 
ATOM     80  C   UNL A   1      42.294  21.095  26.654  1.00  0.00     0.060 A 
BRANCH  80  81
ATOM     81  S   UNL A   1      42.112  19.431  25.976  1.00  0.00     0.124 S 
ATOM     82  O   UNL A   1      42.614  18.611  27.072  1.00  0.00    -0.237 OA
ATOM     83  O   UNL A   1      40.675  19.359  25.727  1.00  0.00    -0.237 OA
ATOM     84  O   UNL A   1      42.946  19.465  24.778  1.00  0.00    -0.744 OA
ENDBRANCH  80  81
ENDBRANCH  48  73
BRANCH  60  85
ATOM     85  C   UNL A   1      48.040  27.150  30.337  1.00  0.00     0.058 A 
ATOM     86  C   UNL A   1      49.044  27.343  29.376  1.00  0.00     0.135 A 
ATOM     87  C   UNL A   1      48.420  26.655  31.596  1.00  0.00     0.135 A 
ATOM     88  F   UNL A   1      48.733  27.808  28.156  1.00  0.00    -0.206 F 
ATOM     89  C   UNL A   1      50.375  27.044  29.650  1.00  0.00     0.059 A 
ATOM     90  C   UNL A   1      49.748  26.379  31.901  1.00  0.00     0.059 A 
ATOM     91  F   UNL A   1      47.499  26.463  32.553  1.00  0.00    -0.206 F 
ATOM     92  C   UNL A   1      50.718  26.569  30.918  1.00  0.00     0.060 A 
BRANCH  92  93
ATOM     93  S   UNL A   1      52.455  26.235  31.274  1.00  0.00     0.124 S 
ATOM     94  O   UNL A   1      52.794  27.346  32.156  1.00  0.00    -0.237 OA
ATOM     95  O   UNL A   1      52.396  24.919  31.905  1.00  0.00    -0.237 OA
ATOM     96  O   UNL A   1      53.084  26.264  29.957  1.00  0.00    -0.744 OA
ENDBRANCH  92  93
ENDBRANCH  60  85
ENDBRANCH  34  35
ENDBRANCH  26  29
ENDBRANCH  24  25
ENDBRANCH   1  24
TORSDOF 19
ENDMDL
MODEL 3
REMARK VINA RESULT:     -10.6      2.779      3.420
REMARK SMILES C[C@H](O)C[C@@]1(C(=O)NCCCNC(=O)c2ccc(-c3c4nc(c(-c5c(F)cc(S(=O)(=O)[O-])cc5F)c5ccc([nH]5)c(-c5c(F)cc(S(=O)(=O)[O-])cc5F)c5nc(c(-c6c(F)cc(S(=O)(=O)[O-])cc6F)c6ccc3[nH]6)C=C5)C=C4)cc2)CCN(C(=O)OC(C)(C)C)C1
REMARK SMILES IDX 10 1 9 2 8 3 6 4 7 5 5 7 81 8 91 9 82 10 83 11 4 12 2 13
REMARK SMILES IDX 1 14 3 15 84 17 85 18 86 19 87 20 88 21 89 22 90 23 11 24
REMARK SMILES IDX 12 25 13 26 14 28 15 29 16 30 80 31 17 32 79 33 18 34 19 35
REMARK SMILES IDX 20 36 73 37 21 38 78 39 72 40 74 41 22 42 77 43 71 44 70 45
REMARK SMILES IDX 23 47 57 48 36 49 56 50 37 51 40 52 55 53 75 54 38 55 39 56
REMARK SMILES IDX 54 58 76 59 41 60 24 61 25 62 34 63 26 64 27 65 33 66 35 67
REMARK SMILES IDX 28 68 29 69 30 70 31 71 32 72 58 73 59 74 68 75 60 76 61 77
REMARK SMILES IDX 67 78 69 79 62 80 63 81 64 82 65 83 66 84 42 85 43 86 52 87
REMARK SMILES IDX 44 88 45 89 51 90 53 91 46 92 47 93 48 94 49 95 50 96
REMARK H PARENT 8 6 3 16 12 27 74 46 40 57
REMARK Flexibility Score: inf
ROOT
ATOM      1  C   UNL A   1      33.247  27.802  26.935  1.00  0.00     0.042 C 
ENDROOT
BRANCH   1   2
ATOM      2  C   UNL A   1      31.776  28.011  26.620  1.00  0.00     0.117 C 
BRANCH   2   3
ATOM      3  N   UNL A   1      31.050  26.774  26.827  1.00  0.00    -0.355 N 
ATOM      4  C   UNL A   1      30.647  25.815  25.952  1.00  0.00     0.228 C 
ATOM      5  O   UNL A   1      30.113  24.822  26.451  1.00  0.00    -0.274 OA
ATOM      6  H   UNL A   1      30.807  26.597  27.765  1.00  0.00     0.163 HD
BRANCH   4   7
ATOM      7  C   UNL A   1      31.029  25.877  24.468  1.00  0.00     0.071 C 
ATOM      8  C   UNL A   1      30.404  24.751  23.599  1.00  0.00     0.040 C 
ATOM      9  C   UNL A   1      32.546  25.544  24.318  1.00  0.00     0.140 C 
ATOM     10  C   UNL A   1      31.297  23.552  23.817  1.00  0.00     0.124 C 
ATOM     11  N   UNL A   1      32.604  24.147  23.888  1.00  0.00    -0.307 N 
BRANCH   7  12
ATOM     12  C   UNL A   1      30.646  27.270  23.878  1.00  0.00     0.050 C 
BRANCH  12  13
ATOM     13  C   UNL A   1      31.418  27.749  22.632  1.00  0.00     0.112 C 
ATOM     14  C   UNL A   1      32.358  28.897  22.985  1.00  0.00     0.038 C 
BRANCH  13  15
ATOM     15  O   UNL A   1      30.504  28.178  21.635  1.00  0.00    -0.393 OA
ATOM     16  H   UNL A   1      29.782  28.675  22.050  1.00  0.00     0.210 HD
ENDBRANCH  13  15
ENDBRANCH  12  13
ENDBRANCH   7  12
BRANCH  11  17
ATOM     17  C   UNL A   1      33.771  23.515  23.534  1.00  0.00     0.410 C 
ATOM     18  O   UNL A   1      34.405  23.780  22.528  1.00  0.00    -0.224 OA
BRANCH  17  19
ATOM     19  O   UNL A   1      34.084  22.532  24.423  1.00  0.00    -0.444 OA
BRANCH  19  20
ATOM     20  C   UNL A   1      34.780  22.820  25.662  1.00  0.00     0.106 C 
ATOM     21  C   UNL A   1      35.723  24.019  25.514  1.00  0.00     0.056 C 
ATOM     22  C   UNL A   1      33.785  23.000  26.809  1.00  0.00     0.056 C 
ATOM     23  C   UNL A   1      35.635  21.571  25.942  1.00  0.00     0.056 C 
ENDBRANCH  19  20
ENDBRANCH  17  19
ENDBRANCH  11  17
ENDBRANCH   4   7
ENDBRANCH   2   3
ENDBRANCH   1   2
BRANCH   1  24
ATOM     24  C   UNL A   1      34.124  28.689  26.067  1.00  0.00     0.118 C 
BRANCH  24  25
ATOM     25  N   UNL A   1      33.940  30.096  26.398  1.00  0.00    -0.352 N 
ATOM     26  C   UNL A   1      34.592  30.830  27.358  1.00  0.00     0.251 C 
ATOM     27  H   UNL A   1      33.267  30.582  25.868  1.00  0.00     0.163 HD
ATOM     28  O   UNL A   1      34.163  31.924  27.703  1.00  0.00    -0.269 OA
BRANCH  26  29
ATOM     29  C   UNL A   1      35.804  30.258  27.970  1.00  0.00     0.039 A 
ATOM     30  C   UNL A   1      37.028  30.380  27.313  1.00  0.00     0.014 A 
ATOM     31  C   UNL A   1      35.722  29.656  29.230  1.00  0.00     0.014 A 
ATOM     32  C   UNL A   1      38.187  29.944  27.950  1.00  0.00     0.010 A 
ATOM     33  C   UNL A   1      36.886  29.308  29.897  1.00  0.00     0.010 A 
ATOM     34  C   UNL A   1      38.129  29.436  29.259  1.00  0.00    -0.014 A 
BRANCH  34  35
ATOM     35  C   UNL A   1      39.350  29.014  29.984  1.00  0.00     0.031 A 
ATOM     36  C   UNL A   1      39.775  29.765  31.216  1.00  0.00     0.074 A 
ATOM     37  C   UNL A   1      40.113  28.020  29.486  1.00  0.00     0.049 A 
ATOM     38  N   UNL A   1      40.863  29.633  31.926  1.00  0.00    -0.248 NA
ATOM     39  C   UNL A   1      38.873  30.830  31.692  1.00  0.00     0.031 C 
ATOM     40  C   UNL A   1      39.826  27.260  28.266  1.00  0.00     0.029 A 
ATOM     41  N   UNL A   1      41.298  27.493  29.931  1.00  0.00    -0.354 N 
ATOM     42  C   UNL A   1      40.790  30.611  32.911  1.00  0.00     0.074 A 
ATOM     43  C   UNL A   1      39.577  31.360  32.682  1.00  0.00     0.031 C 
ATOM     44  C   UNL A   1      40.802  26.360  28.067  1.00  0.00     0.029 A 
ATOM     45  C   UNL A   1      41.807  26.509  29.116  1.00  0.00     0.049 A 
ATOM     46  H   UNL A   1      41.744  27.791  30.757  1.00  0.00     0.167 HD
ATOM     47  C   UNL A   1      41.652  30.848  33.927  1.00  0.00     0.037 A 
ATOM     48  C   UNL A   1      42.962  25.820  29.192  1.00  0.00     0.037 A 
ATOM     49  C   UNL A   1      42.836  30.067  34.168  1.00  0.00     0.049 A 
ATOM     50  C   UNL A   1      43.896  26.093  30.343  1.00  0.00     0.074 A 
ATOM     51  C   UNL A   1      43.729  30.167  35.219  1.00  0.00     0.029 A 
ATOM     52  N   UNL A   1      43.293  29.047  33.346  1.00  0.00    -0.354 N 
ATOM     53  N   UNL A   1      43.769  26.965  31.316  1.00  0.00    -0.248 NA
ATOM     54  C   UNL A   1      45.123  25.289  30.412  1.00  0.00     0.031 C 
ATOM     55  C   UNL A   1      44.759  29.248  35.003  1.00  0.00     0.029 A 
ATOM     56  C   UNL A   1      44.473  28.530  33.852  1.00  0.00     0.049 A 
ATOM     57  H   UNL A   1      42.845  28.738  32.526  1.00  0.00     0.167 HD
ATOM     58  C   UNL A   1      44.883  26.791  32.129  1.00  0.00     0.074 A 
ATOM     59  C   UNL A   1      45.667  25.725  31.540  1.00  0.00     0.031 C 
ATOM     60  C   UNL A   1      45.228  27.454  33.261  1.00  0.00     0.037 A 
BRANCH  47  61
ATOM     61  C   UNL A   1      41.354  31.990  34.859  1.00  0.00     0.058 A 
ATOM     62  C   UNL A   1      41.845  33.284  34.625  1.00  0.00     0.135 A 
ATOM     63  C   UNL A   1      40.503  31.801  35.960  1.00  0.00     0.135 A 
ATOM     64  F   UNL A   1      42.678  33.518  33.599  1.00  0.00    -0.206 F 
ATOM     65  C   UNL A   1      41.513  34.348  35.458  1.00  0.00     0.059 A 
ATOM     66  C   UNL A   1      40.135  32.856  36.789  1.00  0.00     0.059 A 
ATOM     67  F   UNL A   1      40.012  30.582  36.234  1.00  0.00    -0.206 F 
ATOM     68  C   UNL A   1      40.649  34.125  36.532  1.00  0.00     0.060 A 
BRANCH  68  69
ATOM     69  S   UNL A   1      40.194  35.527  37.574  1.00  0.00     0.124 S 
ATOM     70  O   UNL A   1      40.084  36.599  36.589  1.00  0.00    -0.237 OA
ATOM     71  O   UNL A   1      38.937  35.079  38.164  1.00  0.00    -0.237 OA
ATOM     72  O   UNL A   1      41.315  35.641  38.501  1.00  0.00    -0.744 OA
ENDBRANCH  68  69
ENDBRANCH  47  61
BRANCH  48  73
ATOM     73  C   UNL A   1      43.307  24.814  28.150  1.00  0.00     0.058 A 
ATOM     74  C   UNL A   1      44.115  25.150  27.053  1.00  0.00     0.135 A 
ATOM     75  C   UNL A   1      42.825  23.498  28.225  1.00  0.00     0.135 A 
ATOM     76  F   UNL A   1      44.599  26.396  26.934  1.00  0.00    -0.206 F 
ATOM     77  C   UNL A   1      44.408  24.228  26.054  1.00  0.00     0.059 A 
ATOM     78  C   UNL A   1      43.129  22.550  27.254  1.00  0.00     0.059 A 
ATOM     79  F   UNL A   1      42.065  23.116  29.264  1.00  0.00    -0.206 F 
ATOM     80  C   UNL A   1      43.909  22.929  26.162  1.00  0.00     0.060 A 
BRANCH  80  81
ATOM     81  S   UNL A   1      44.313  21.733  24.872  1.00  0.00     0.124 S 
ATOM     82  O   UNL A   1      43.375  20.657  25.165  1.00  0.00    -0.237 OA
ATOM     83  O   UNL A   1      44.053  22.497  23.655  1.00  0.00    -0.237 OA
ATOM     84  O   UNL A   1      45.720  21.432  25.123  1.00  0.00    -0.744 OA
ENDBRANCH  80  81
ENDBRANCH  48  73
BRANCH  60  85
ATOM     85  C   UNL A   1      46.481  27.021  33.969  1.00  0.00     0.058 A 
ATOM     86  C   UNL A   1      47.723  27.621  33.712  1.00  0.00     0.135 A 
ATOM     87  C   UNL A   1      46.418  26.045  34.979  1.00  0.00     0.135 A 
ATOM     88  F   UNL A   1      47.838  28.553  32.753  1.00  0.00    -0.206 F 
ATOM     89  C   UNL A   1      48.863  27.258  34.421  1.00  0.00     0.059 A 
ATOM     90  C   UNL A   1      47.539  25.690  35.721  1.00  0.00     0.059 A 
ATOM     91  F   UNL A   1      45.252  25.449  35.271  1.00  0.00    -0.206 F 
ATOM     92  C   UNL A   1      48.759  26.296  35.429  1.00  0.00     0.060 A 
BRANCH  92  93
ATOM     93  S   UNL A   1      50.237  25.874  36.375  1.00  0.00     0.124 S 
ATOM     94  O   UNL A   1      50.022  26.625  37.607  1.00  0.00    -0.237 OA
ATOM     95  O   UNL A   1      50.129  24.422  36.489  1.00  0.00    -0.237 OA
ATOM     96  O   UNL A   1      51.329  26.351  35.531  1.00  0.00    -0.744 OA
ENDBRANCH  92  93
ENDBRANCH  60  85
ENDBRANCH  34  35
ENDBRANCH  26  29
ENDBRANCH  24  25
ENDBRANCH   1  24
TORSDOF 19
ENDMDL
