MODEL 1
REMARK VINA RESULT:      -9.6      0.000      0.000
REMARK SMILES CC[NH+](CC)C[C@H](F)C(=O)NCCCNC(=O)c1ccc(-c2c3nc(c(-c4c(F)cc(S(=O)(=O)[O-])cc4F)c4ccc([nH]4)c(-c4c(F)cc(S(=O)(=O)[O-])cc4F)c4nc(c(-c5c(F)cc(S(=O)(=O)[O-])cc5F)c5ccc2[nH]5)C=C4)C=C3)cc1
REMARK SMILES IDX 13 1 12 2 11 3 9 4 10 5 7 7 8 8 6 9 3 10 2 12 1 13 4 14 5 15
REMARK SMILES IDX 14 16 15 17 16 18 17 20 18 21 19 22 83 23 20 24 82 25 21 26
REMARK SMILES IDX 22 27 23 28 76 29 24 30 81 31 75 32 77 33 25 34 80 35 74 36
REMARK SMILES IDX 73 37 26 39 60 40 39 41 59 42 40 43 43 44 58 45 78 46 41 47
REMARK SMILES IDX 42 48 57 50 79 51 44 52 27 53 28 54 37 55 29 56 30 57 36 58
REMARK SMILES IDX 38 59 31 60 32 61 33 62 34 63 35 64 61 65 62 66 71 67 63 68
REMARK SMILES IDX 64 69 70 70 72 71 65 72 66 73 67 74 68 75 69 76 45 77 46 78
REMARK SMILES IDX 55 79 47 80 48 81 54 82 56 83 49 84 50 85 51 86 52 87 53 88
REMARK H PARENT 11 6 3 11 15 19 77 38 43 49
REMARK Flexibility Score: inf
ROOT
ATOM      1  C   UNL A   1      41.192  20.063  26.130  1.00  0.00     0.042 C 
ENDROOT
BRANCH   1   2
ATOM      2  C   UNL A   1      42.705  20.151  26.109  1.00  0.00     0.117 C 
BRANCH   2   3
ATOM      3  N   UNL A   1      43.268  19.384  25.013  1.00  0.00    -0.353 N 
ATOM      4  C   UNL A   1      44.556  19.358  24.569  1.00  0.00     0.260 C 
ATOM      5  O   UNL A   1      44.809  18.693  23.561  1.00  0.00    -0.271 OA
ATOM      6  H   UNL A   1      42.636  18.806  24.526  1.00  0.00     0.163 HD
BRANCH   4   7
ATOM      7  C   UNL A   1      45.643  20.094  25.340  1.00  0.00     0.309 C 
ATOM      8  F   UNL A   1      46.710  19.264  25.587  1.00  0.00    -0.230 F 
BRANCH   7   9
ATOM      9  C   UNL A   1      46.184  21.345  24.612  1.00  0.00     0.310 C 
BRANCH   9  10
ATOM     10  N   UNL A   1      45.640  22.693  24.853  1.00  0.00    -0.333 N 
ATOM     11  H   UNL A   1      46.331  23.279  24.385  1.00  0.00     0.348 HD
BRANCH  10  12
ATOM     12  C   UNL A   1      44.398  23.031  24.155  1.00  0.00     0.258 C 
ATOM     13  C   UNL A   1      43.328  23.615  25.075  1.00  0.00     0.071 C 
ENDBRANCH  10  12
BRANCH  10  14
ATOM     14  C   UNL A   1      45.655  23.111  26.257  1.00  0.00     0.258 C 
ATOM     15  C   UNL A   1      46.698  24.142  26.662  1.00  0.00     0.071 C 
ENDBRANCH  10  14
ENDBRANCH   9  10
ENDBRANCH   7   9
ENDBRANCH   4   7
ENDBRANCH   2   3
ENDBRANCH   1   2
BRANCH   1  16
ATOM     16  C   UNL A   1      40.529  21.272  26.771  1.00  0.00     0.118 C 
BRANCH  16  17
ATOM     17  N   UNL A   1      39.239  21.585  26.172  1.00  0.00    -0.352 N 
ATOM     18  C   UNL A   1      38.529  22.760  26.190  1.00  0.00     0.251 C 
ATOM     19  H   UNL A   1      38.813  20.844  25.682  1.00  0.00     0.163 HD
ATOM     20  O   UNL A   1      37.363  22.771  25.809  1.00  0.00    -0.269 OA
BRANCH  18  21
ATOM     21  C   UNL A   1      39.171  23.997  26.679  1.00  0.00     0.039 A 
ATOM     22  C   UNL A   1      39.085  24.317  28.034  1.00  0.00     0.014 A 
ATOM     23  C   UNL A   1      39.849  24.844  25.798  1.00  0.00     0.014 A 
ATOM     24  C   UNL A   1      39.712  25.468  28.509  1.00  0.00     0.010 A 
ATOM     25  C   UNL A   1      40.569  25.924  26.291  1.00  0.00     0.010 A 
ATOM     26  C   UNL A   1      40.477  26.270  27.645  1.00  0.00    -0.014 A 
BRANCH  26  27
ATOM     27  C   UNL A   1      41.135  27.509  28.128  1.00  0.00     0.031 A 
ATOM     28  C   UNL A   1      42.633  27.646  28.028  1.00  0.00     0.074 A 
ATOM     29  C   UNL A   1      40.394  28.488  28.682  1.00  0.00     0.049 A 
ATOM     30  N   UNL A   1      43.399  28.635  28.408  1.00  0.00    -0.248 NA
ATOM     31  C   UNL A   1      43.372  26.508  27.455  1.00  0.00     0.031 C 
ATOM     32  C   UNL A   1      38.945  28.442  28.886  1.00  0.00     0.029 A 
ATOM     33  N   UNL A   1      40.760  29.714  29.176  1.00  0.00    -0.354 N 
ATOM     34  C   UNL A   1      44.701  28.233  28.133  1.00  0.00     0.074 A 
ATOM     35  C   UNL A   1      44.629  26.883  27.625  1.00  0.00     0.031 C 
ATOM     36  C   UNL A   1      38.540  29.603  29.427  1.00  0.00     0.029 A 
ATOM     37  C   UNL A   1      39.703  30.460  29.641  1.00  0.00     0.049 A 
ATOM     38  H   UNL A   1      41.692  30.031  29.195  1.00  0.00     0.167 HD
ATOM     39  C   UNL A   1      45.850  28.937  28.259  1.00  0.00     0.037 A 
ATOM     40  C   UNL A   1      39.675  31.696  30.175  1.00  0.00     0.037 A 
ATOM     41  C   UNL A   1      45.907  30.292  28.737  1.00  0.00     0.049 A 
ATOM     42  C   UNL A   1      40.964  32.466  30.292  1.00  0.00     0.074 A 
ATOM     43  C   UNL A   1      47.010  31.118  28.856  1.00  0.00     0.029 A 
ATOM     44  N   UNL A   1      44.811  31.023  29.174  1.00  0.00    -0.354 N 
ATOM     45  N   UNL A   1      42.180  32.095  29.965  1.00  0.00    -0.248 NA
ATOM     46  C   UNL A   1      40.875  33.828  30.834  1.00  0.00     0.031 C 
ATOM     47  C   UNL A   1      46.589  32.331  29.410  1.00  0.00     0.029 A 
ATOM     48  C   UNL A   1      45.214  32.285  29.577  1.00  0.00     0.049 A 
ATOM     49  H   UNL A   1      43.884  30.693  29.194  1.00  0.00     0.167 HD
ATOM     50  C   UNL A   1      42.995  33.191  30.227  1.00  0.00     0.074 A 
ATOM     51  C   UNL A   1      42.131  34.240  30.729  1.00  0.00     0.031 C 
ATOM     52  C   UNL A   1      44.335  33.321  30.062  1.00  0.00     0.037 A 
BRANCH  39  53
ATOM     53  C   UNL A   1      47.134  28.255  27.865  1.00  0.00     0.058 A 
ATOM     54  C   UNL A   1      47.630  28.315  26.552  1.00  0.00     0.135 A 
ATOM     55  C   UNL A   1      47.891  27.553  28.817  1.00  0.00     0.135 A 
ATOM     56  F   UNL A   1      46.939  28.956  25.596  1.00  0.00    -0.206 F 
ATOM     57  C   UNL A   1      48.811  27.676  26.189  1.00  0.00     0.059 A 
ATOM     58  C   UNL A   1      49.093  26.935  28.484  1.00  0.00     0.059 A 
ATOM     59  F   UNL A   1      47.464  27.461  30.086  1.00  0.00    -0.206 F 
ATOM     60  C   UNL A   1      49.536  26.989  27.163  1.00  0.00     0.060 A 
BRANCH  60  61
ATOM     61  S   UNL A   1      51.072  26.173  26.677  1.00  0.00     0.124 S 
ATOM     62  O   UNL A   1      51.038  26.332  25.226  1.00  0.00    -0.237 OA
ATOM     63  O   UNL A   1      52.078  26.963  27.378  1.00  0.00    -0.237 OA
ATOM     64  O   UNL A   1      50.900  24.808  27.163  1.00  0.00    -0.744 OA
ENDBRANCH  60  61
ENDBRANCH  39  53
BRANCH  40  65
ATOM     65  C   UNL A   1      38.382  32.295  30.602  1.00  0.00     0.058 A 
ATOM     66  C   UNL A   1      37.848  32.038  31.874  1.00  0.00     0.135 A 
ATOM     67  C   UNL A   1      37.658  33.145  29.751  1.00  0.00     0.135 A 
ATOM     68  F   UNL A   1      38.502  31.230  32.724  1.00  0.00    -0.206 F 
ATOM     69  C   UNL A   1      36.633  32.581  32.280  1.00  0.00     0.059 A 
ATOM     70  C   UNL A   1      36.454  33.722  30.145  1.00  0.00     0.059 A 
ATOM     71  F   UNL A   1      38.134  33.440  28.532  1.00  0.00    -0.206 F 
ATOM     72  C   UNL A   1      35.943  33.424  31.407  1.00  0.00     0.060 A 
BRANCH  72  73
ATOM     73  S   UNL A   1      34.386  34.153  31.958  1.00  0.00     0.124 S 
ATOM     74  O   UNL A   1      34.846  35.387  32.585  1.00  0.00    -0.237 OA
ATOM     75  O   UNL A   1      33.660  34.308  30.702  1.00  0.00    -0.237 OA
ATOM     76  O   UNL A   1      33.846  33.146  32.866  1.00  0.00    -0.744 OA
ENDBRANCH  72  73
ENDBRANCH  40  65
BRANCH  52  77
ATOM     77  C   UNL A   1      44.944  34.660  30.373  1.00  0.00     0.058 A 
ATOM     78  C   UNL A   1      45.054  35.671  29.405  1.00  0.00     0.135 A 
ATOM     79  C   UNL A   1      45.387  34.948  31.675  1.00  0.00     0.135 A 
ATOM     80  F   UNL A   1      44.648  35.448  28.146  1.00  0.00    -0.206 F 
ATOM     81  C   UNL A   1      45.616  36.907  29.708  1.00  0.00     0.059 A 
ATOM     82  C   UNL A   1      45.922  36.187  32.007  1.00  0.00     0.059 A 
ATOM     83  F   UNL A   1      45.292  34.022  32.642  1.00  0.00    -0.206 F 
ATOM     84  C   UNL A   1      46.050  37.155  31.013  1.00  0.00     0.060 A 
BRANCH  84  85
ATOM     85  S   UNL A   1      46.764  38.767  31.396  1.00  0.00     0.124 S 
ATOM     86  O   UNL A   1      46.418  38.912  32.806  1.00  0.00    -0.237 OA
ATOM     87  O   UNL A   1      48.180  38.558  31.109  1.00  0.00    -0.237 OA
ATOM     88  O   UNL A   1      46.072  39.671  30.484  1.00  0.00    -0.744 OA
ENDBRANCH  84  85
ENDBRANCH  52  77
ENDBRANCH  26  27
ENDBRANCH  18  21
ENDBRANCH  16  17
ENDBRANCH   1  16
TORSDOF 17
ENDMDL
MODEL 2
REMARK VINA RESULT:      -9.5      4.859     12.199
REMARK SMILES CC[NH+](CC)C[C@H](F)C(=O)NCCCNC(=O)c1ccc(-c2c3nc(c(-c4c(F)cc(S(=O)(=O)[O-])cc4F)c4ccc([nH]4)c(-c4c(F)cc(S(=O)(=O)[O-])cc4F)c4nc(c(-c5c(F)cc(S(=O)(=O)[O-])cc5F)c5ccc2[nH]5)C=C4)C=C3)cc1
REMARK SMILES IDX 13 1 12 2 11 3 9 4 10 5 7 7 8 8 6 9 3 10 2 12 1 13 4 14 5 15
REMARK SMILES IDX 14 16 15 17 16 18 17 20 18 21 19 22 83 23 20 24 82 25 21 26
REMARK SMILES IDX 22 27 23 28 76 29 24 30 81 31 75 32 77 33 25 34 80 35 74 36
REMARK SMILES IDX 73 37 26 39 60 40 39 41 59 42 40 43 43 44 58 45 78 46 41 47
REMARK SMILES IDX 42 48 57 50 79 51 44 52 27 53 28 54 37 55 29 56 30 57 36 58
REMARK SMILES IDX 38 59 31 60 32 61 33 62 34 63 35 64 61 65 62 66 71 67 63 68
REMARK SMILES IDX 64 69 70 70 72 71 65 72 66 73 67 74 68 75 69 76 45 77 46 78
REMARK SMILES IDX 55 79 47 80 48 81 54 82 56 83 49 84 50 85 51 86 52 87 53 88
REMARK H PARENT 11 6 3 11 15 19 77 38 43 49
REMARK Flexibility Score: inf
ROOT
ATOM      1  C   UNL A   1      33.304  33.897  28.270  1.00  0.00     0.042 C 
ENDROOT
BRANCH   1   2
ATOM      2  C   UNL A   1      33.612  34.729  29.500  1.00  0.00     0.117 C 
BRANCH   2   3
ATOM      3  N   UNL A   1      34.997  34.586  29.907  1.00  0.00    -0.353 N 
ATOM      4  C   UNL A   1      35.508  33.854  30.937  1.00  0.00     0.260 C 
ATOM      5  O   UNL A   1      36.718  33.936  31.162  1.00  0.00    -0.271 OA
ATOM      6  H   UNL A   1      35.655  35.083  29.367  1.00  0.00     0.163 HD
BRANCH   4   7
ATOM      7  C   UNL A   1      34.602  32.932  31.739  1.00  0.00     0.309 C 
ATOM      8  F   UNL A   1      35.138  31.669  31.813  1.00  0.00    -0.230 F 
BRANCH   7   9
ATOM      9  C   UNL A   1      34.344  33.415  33.184  1.00  0.00     0.310 C 
BRANCH   9  10
ATOM     10  N   UNL A   1      35.069  34.553  33.775  1.00  0.00    -0.333 N 
ATOM     11  H   UNL A   1      35.696  34.814  33.014  1.00  0.00     0.348 HD
BRANCH  10  12
ATOM     12  C   UNL A   1      34.294  35.777  33.995  1.00  0.00     0.258 C 
ATOM     13  C   UNL A   1      34.365  36.755  32.824  1.00  0.00     0.071 C 
ENDBRANCH  10  12
BRANCH  10  14
ATOM     14  C   UNL A   1      35.940  34.202  34.899  1.00  0.00     0.258 C 
ATOM     15  C   UNL A   1      36.908  33.047  34.690  1.00  0.00     0.071 C 
ENDBRANCH  10  14
ENDBRANCH   9  10
ENDBRANCH   7   9
ENDBRANCH   4   7
ENDBRANCH   2   3
ENDBRANCH   1   2
BRANCH   1  16
ATOM     16  C   UNL A   1      34.353  32.834  27.988  1.00  0.00     0.118 C 
BRANCH  16  17
ATOM     17  N   UNL A   1      33.783  31.630  27.396  1.00  0.00    -0.352 N 
ATOM     18  C   UNL A   1      34.340  30.385  27.242  1.00  0.00     0.251 C 
ATOM     19  H   UNL A   1      32.863  31.724  27.057  1.00  0.00     0.163 HD
ATOM     20  O   UNL A   1      33.783  29.556  26.530  1.00  0.00    -0.269 OA
BRANCH  18  21
ATOM     21  C   UNL A   1      35.609  30.060  27.923  1.00  0.00     0.039 A 
ATOM     22  C   UNL A   1      35.577  29.651  29.258  1.00  0.00     0.014 A 
ATOM     23  C   UNL A   1      36.828  30.168  27.249  1.00  0.00     0.014 A 
ATOM     24  C   UNL A   1      36.768  29.314  29.900  1.00  0.00     0.010 A 
ATOM     25  C   UNL A   1      37.996  29.722  27.853  1.00  0.00     0.010 A 
ATOM     26  C   UNL A   1      37.985  29.326  29.197  1.00  0.00    -0.014 A 
BRANCH  26  27
ATOM     27  C   UNL A   1      39.264  28.991  29.869  1.00  0.00     0.031 A 
ATOM     28  C   UNL A   1      39.679  29.750  31.104  1.00  0.00     0.074 A 
ATOM     29  C   UNL A   1      40.061  28.036  29.354  1.00  0.00     0.049 A 
ATOM     30  N   UNL A   1      40.763  29.625  31.825  1.00  0.00    -0.248 NA
ATOM     31  C   UNL A   1      38.773  30.814  31.572  1.00  0.00     0.031 C 
ATOM     32  C   UNL A   1      39.793  27.276  28.131  1.00  0.00     0.029 A 
ATOM     33  N   UNL A   1      41.262  27.540  29.796  1.00  0.00    -0.354 N 
ATOM     34  C   UNL A   1      40.672  30.596  32.817  1.00  0.00     0.074 A 
ATOM     35  C   UNL A   1      39.468  31.351  32.561  1.00  0.00     0.031 C 
ATOM     36  C   UNL A   1      40.780  26.385  27.941  1.00  0.00     0.029 A 
ATOM     37  C   UNL A   1      41.767  26.533  29.007  1.00  0.00     0.049 A 
ATOM     38  H   UNL A   1      41.719  27.873  30.601  1.00  0.00     0.167 HD
ATOM     39  C   UNL A   1      41.499  30.816  33.865  1.00  0.00     0.037 A 
ATOM     40  C   UNL A   1      42.896  25.811  29.132  1.00  0.00     0.037 A 
ATOM     41  C   UNL A   1      42.679  30.037  34.128  1.00  0.00     0.049 A 
ATOM     42  C   UNL A   1      43.793  26.063  30.315  1.00  0.00     0.074 A 
ATOM     43  C   UNL A   1      43.560  30.140  35.189  1.00  0.00     0.029 A 
ATOM     44  N   UNL A   1      43.143  29.008  33.320  1.00  0.00    -0.354 N 
ATOM     45  N   UNL A   1      43.658  26.942  31.280  1.00  0.00    -0.248 NA
ATOM     46  C   UNL A   1      44.986  25.215  30.435  1.00  0.00     0.031 C 
ATOM     47  C   UNL A   1      44.583  29.205  34.999  1.00  0.00     0.029 A 
ATOM     48  C   UNL A   1      44.306  28.477  33.852  1.00  0.00     0.049 A 
ATOM     49  H   UNL A   1      42.709  28.701  32.492  1.00  0.00     0.167 HD
ATOM     50  C   UNL A   1      44.728  26.727  32.143  1.00  0.00     0.074 A 
ATOM     51  C   UNL A   1      45.494  25.629  31.587  1.00  0.00     0.031 C 
ATOM     52  C   UNL A   1      45.047  27.375  33.291  1.00  0.00     0.037 A 
BRANCH  39  53
ATOM     53  C   UNL A   1      41.148  31.936  34.808  1.00  0.00     0.058 A 
ATOM     54  C   UNL A   1      41.647  33.237  34.628  1.00  0.00     0.135 A 
ATOM     55  C   UNL A   1      40.284  31.713  35.893  1.00  0.00     0.135 A 
ATOM     56  F   UNL A   1      42.492  33.505  33.621  1.00  0.00    -0.206 F 
ATOM     57  C   UNL A   1      41.329  34.268  35.507  1.00  0.00     0.059 A 
ATOM     58  C   UNL A   1      39.925  32.738  36.765  1.00  0.00     0.059 A 
ATOM     59  F   UNL A   1      39.779  30.490  36.115  1.00  0.00    -0.206 F 
ATOM     60  C   UNL A   1      40.466  34.008  36.572  1.00  0.00     0.060 A 
BRANCH  60  61
ATOM     61  S   UNL A   1      40.057  35.359  37.698  1.00  0.00     0.124 S 
ATOM     62  O   UNL A   1      41.295  35.486  38.461  1.00  0.00    -0.237 OA
ATOM     63  O   UNL A   1      39.765  36.453  36.777  1.00  0.00    -0.237 OA
ATOM     64  O   UNL A   1      38.911  34.847  38.442  1.00  0.00    -0.744 OA
ENDBRANCH  60  61
ENDBRANCH  39  53
BRANCH  40  65
ATOM     65  C   UNL A   1      43.221  24.755  28.134  1.00  0.00     0.058 A 
ATOM     66  C   UNL A   1      43.880  25.069  26.936  1.00  0.00     0.135 A 
ATOM     67  C   UNL A   1      42.888  23.411  28.363  1.00  0.00     0.135 A 
ATOM     68  F   UNL A   1      44.219  26.340  26.670  1.00  0.00    -0.206 F 
ATOM     69  C   UNL A   1      44.177  24.094  25.989  1.00  0.00     0.059 A 
ATOM     70  C   UNL A   1      43.199  22.414  27.443  1.00  0.00     0.059 A 
ATOM     71  F   UNL A   1      42.275  23.054  29.502  1.00  0.00    -0.206 F 
ATOM     72  C   UNL A   1      43.833  22.767  26.252  1.00  0.00     0.060 A 
BRANCH  72  73
ATOM     73  S   UNL A   1      44.257  21.504  25.034  1.00  0.00     0.124 S 
ATOM     74  O   UNL A   1      43.231  20.499  25.283  1.00  0.00    -0.237 OA
ATOM     75  O   UNL A   1      44.139  22.240  23.778  1.00  0.00    -0.237 OA
ATOM     76  O   UNL A   1      45.618  21.124  25.403  1.00  0.00    -0.744 OA
ENDBRANCH  72  73
ENDBRANCH  40  65
BRANCH  52  77
ATOM     77  C   UNL A   1      46.242  26.878  34.057  1.00  0.00     0.058 A 
ATOM     78  C   UNL A   1      47.531  27.393  33.844  1.00  0.00     0.135 A 
ATOM     79  C   UNL A   1      46.085  25.896  35.050  1.00  0.00     0.135 A 
ATOM     80  F   UNL A   1      47.737  28.331  32.906  1.00  0.00    -0.206 F 
ATOM     81  C   UNL A   1      48.626  26.927  34.562  1.00  0.00     0.059 A 
ATOM     82  C   UNL A   1      47.161  25.439  35.802  1.00  0.00     0.059 A 
ATOM     83  F   UNL A   1      44.872  25.380  35.305  1.00  0.00    -0.206 F 
ATOM     84  C   UNL A   1      48.431  25.947  35.539  1.00  0.00     0.060 A 
BRANCH  84  85
ATOM     85  S   UNL A   1      49.859  25.361  36.474  1.00  0.00     0.124 S 
ATOM     86  O   UNL A   1      49.775  26.179  37.680  1.00  0.00    -0.237 OA
ATOM     87  O   UNL A   1      49.559  23.943  36.647  1.00  0.00    -0.237 OA
ATOM     88  O   UNL A   1      50.986  25.655  35.594  1.00  0.00    -0.744 OA
ENDBRANCH  84  85
ENDBRANCH  52  77
ENDBRANCH  26  27
ENDBRANCH  18  21
ENDBRANCH  16  17
ENDBRANCH   1  16
TORSDOF 17
ENDMDL
MODEL 3
REMARK VINA RESULT:      -9.2      1.190      1.857
REMARK SMILES CC[NH+](CC)C[C@H](F)C(=O)NCCCNC(=O)c1ccc(-c2c3nc(c(-c4c(F)cc(S(=O)(=O)[O-])cc4F)c4ccc([nH]4)c(-c4c(F)cc(S(=O)(=O)[O-])cc4F)c4nc(c(-c5c(F)cc(S(=O)(=O)[O-])cc5F)c5ccc2[nH]5)C=C4)C=C3)cc1
REMARK SMILES IDX 13 1 12 2 11 3 9 4 10 5 7 7 8 8 6 9 3 10 2 12 1 13 4 14 5 15
REMARK SMILES IDX 14 16 15 17 16 18 17 20 18 21 19 22 83 23 20 24 82 25 21 26
REMARK SMILES IDX 22 27 23 28 76 29 24 30 81 31 75 32 77 33 25 34 80 35 74 36
REMARK SMILES IDX 73 37 26 39 60 40 39 41 59 42 40 43 43 44 58 45 78 46 41 47
REMARK SMILES IDX 42 48 57 50 79 51 44 52 27 53 28 54 37 55 29 56 30 57 36 58
REMARK SMILES IDX 38 59 31 60 32 61 33 62 34 63 35 64 61 65 62 66 71 67 63 68
REMARK SMILES IDX 64 69 70 70 72 71 65 72 66 73 67 74 68 75 69 76 45 77 46 78
REMARK SMILES IDX 55 79 47 80 48 81 54 82 56 83 49 84 50 85 51 86 52 87 53 88
REMARK H PARENT 11 6 3 11 15 19 77 38 43 49
REMARK Flexibility Score: inf
ROOT
ATOM      1  C   UNL A   1      41.295  20.426  26.684  1.00  0.00     0.042 C 
ENDROOT
BRANCH   1   2
ATOM      2  C   UNL A   1      42.532  20.858  25.920  1.00  0.00     0.117 C 
BRANCH   2   3
ATOM      3  N   UNL A   1      42.449  22.249  25.516  1.00  0.00    -0.353 N 
ATOM      4  C   UNL A   1      43.405  23.019  24.924  1.00  0.00     0.260 C 
ATOM      5  O   UNL A   1      43.155  24.212  24.735  1.00  0.00    -0.271 OA
ATOM      6  H   UNL A   1      41.589  22.695  25.691  1.00  0.00     0.163 HD
BRANCH   4   7
ATOM      7  C   UNL A   1      44.716  22.392  24.470  1.00  0.00     0.309 C 
ATOM      8  F   UNL A   1      44.903  22.578  23.122  1.00  0.00    -0.230 F 
BRANCH   7   9
ATOM      9  C   UNL A   1      45.959  22.954  25.196  1.00  0.00     0.310 C 
BRANCH   9  10
ATOM     10  N   UNL A   1      45.896  24.151  26.053  1.00  0.00    -0.333 N 
ATOM     11  H   UNL A   1      44.919  24.424  25.953  1.00  0.00     0.348 HD
BRANCH  10  12
ATOM     12  C   UNL A   1      46.027  23.930  27.495  1.00  0.00     0.258 C 
ATOM     13  C   UNL A   1      47.074  24.828  28.151  1.00  0.00     0.071 C 
ENDBRANCH  10  12
BRANCH  10  14
ATOM     14  C   UNL A   1      46.675  25.291  25.562  1.00  0.00     0.258 C 
ATOM     15  C   UNL A   1      47.528  25.064  24.323  1.00  0.00     0.071 C 
ENDBRANCH  10  14
ENDBRANCH   9  10
ENDBRANCH   7   9
ENDBRANCH   4   7
ENDBRANCH   2   3
ENDBRANCH   1   2
BRANCH   1  16
ATOM     16  C   UNL A   1      40.513  21.592  27.268  1.00  0.00     0.118 C 
BRANCH  16  17
ATOM     17  N   UNL A   1      39.278  21.855  26.542  1.00  0.00    -0.352 N 
ATOM     18  C   UNL A   1      38.573  23.025  26.414  1.00  0.00     0.251 C 
ATOM     19  H   UNL A   1      38.893  21.079  26.073  1.00  0.00     0.163 HD
ATOM     20  O   UNL A   1      37.443  23.004  25.937  1.00  0.00    -0.269 OA
BRANCH  18  21
ATOM     21  C   UNL A   1      39.175  24.297  26.862  1.00  0.00     0.039 A 
ATOM     22  C   UNL A   1      39.020  24.690  28.193  1.00  0.00     0.014 A 
ATOM     23  C   UNL A   1      39.882  25.105  25.968  1.00  0.00     0.014 A 
ATOM     24  C   UNL A   1      39.610  25.875  28.631  1.00  0.00     0.010 A 
ATOM     25  C   UNL A   1      40.564  26.222  26.433  1.00  0.00     0.010 A 
ATOM     26  C   UNL A   1      40.404  26.640  27.761  1.00  0.00    -0.014 A 
BRANCH  26  27
ATOM     27  C   UNL A   1      41.022  27.914  28.204  1.00  0.00     0.031 A 
ATOM     28  C   UNL A   1      42.512  28.103  28.078  1.00  0.00     0.074 A 
ATOM     29  C   UNL A   1      40.254  28.878  28.746  1.00  0.00     0.049 A 
ATOM     30  N   UNL A   1      43.246  29.130  28.423  1.00  0.00    -0.248 NA
ATOM     31  C   UNL A   1      43.285  26.980  27.521  1.00  0.00     0.031 C 
ATOM     32  C   UNL A   1      38.810  28.784  28.973  1.00  0.00     0.029 A 
ATOM     33  N   UNL A   1      40.581  30.129  29.204  1.00  0.00    -0.354 N 
ATOM     34  C   UNL A   1      44.558  28.769  28.138  1.00  0.00     0.074 A 
ATOM     35  C   UNL A   1      44.530  27.405  27.663  1.00  0.00     0.031 C 
ATOM     36  C   UNL A   1      38.370  29.942  29.492  1.00  0.00     0.029 A 
ATOM     37  C   UNL A   1      39.503  30.846  29.668  1.00  0.00     0.049 A 
ATOM     38  H   UNL A   1      41.500  30.480  29.202  1.00  0.00     0.167 HD
ATOM     39  C   UNL A   1      45.682  29.518  28.230  1.00  0.00     0.037 A 
ATOM     40  C   UNL A   1      39.437  32.093  30.173  1.00  0.00     0.037 A 
ATOM     41  C   UNL A   1      45.695  30.885  28.674  1.00  0.00     0.049 A 
ATOM     42  C   UNL A   1      40.697  32.913  30.252  1.00  0.00     0.074 A 
ATOM     43  C   UNL A   1      46.769  31.753  28.757  1.00  0.00     0.029 A 
ATOM     44  N   UNL A   1      44.579  31.586  29.110  1.00  0.00    -0.354 N 
ATOM     45  N   UNL A   1      41.922  32.579  29.916  1.00  0.00    -0.248 NA
ATOM     46  C   UNL A   1      40.566  34.284  30.762  1.00  0.00     0.031 C 
ATOM     47  C   UNL A   1      46.311  32.964  29.288  1.00  0.00     0.029 A 
ATOM     48  C   UNL A   1      44.941  32.871  29.477  1.00  0.00     0.049 A 
ATOM     49  H   UNL A   1      43.665  31.222  29.152  1.00  0.00     0.167 HD
ATOM     50  C   UNL A   1      42.700  33.710  30.138  1.00  0.00     0.074 A 
ATOM     51  C   UNL A   1      41.804  34.738  30.629  1.00  0.00     0.031 C 
ATOM     52  C   UNL A   1      44.031  33.885  29.951  1.00  0.00     0.037 A 
BRANCH  39  53
ATOM     53  C   UNL A   1      46.985  28.874  27.833  1.00  0.00     0.058 A 
ATOM     54  C   UNL A   1      47.400  28.811  26.492  1.00  0.00     0.135 A 
ATOM     55  C   UNL A   1      47.841  28.335  28.806  1.00  0.00     0.135 A 
ATOM     56  F   UNL A   1      46.613  29.293  25.516  1.00  0.00    -0.206 F 
ATOM     57  C   UNL A   1      48.599  28.208  26.127  1.00  0.00     0.059 A 
ATOM     58  C   UNL A   1      49.061  27.756  28.467  1.00  0.00     0.059 A 
ATOM     59  F   UNL A   1      47.495  28.365  30.102  1.00  0.00    -0.206 F 
ATOM     60  C   UNL A   1      49.423  27.684  27.123  1.00  0.00     0.060 A 
BRANCH  60  61
ATOM     61  S   UNL A   1      50.980  26.912  26.634  1.00  0.00     0.124 S 
ATOM     62  O   UNL A   1      50.519  25.623  26.126  1.00  0.00    -0.237 OA
ATOM     63  O   UNL A   1      51.487  27.843  25.631  1.00  0.00    -0.237 OA
ATOM     64  O   UNL A   1      51.740  26.860  27.878  1.00  0.00    -0.744 OA
ENDBRANCH  60  61
ENDBRANCH  39  53
BRANCH  40  65
ATOM     65  C   UNL A   1      38.128  32.655  30.605  1.00  0.00     0.058 A 
ATOM     66  C   UNL A   1      37.701  32.554  31.937  1.00  0.00     0.135 A 
ATOM     67  C   UNL A   1      37.283  33.312  29.697  1.00  0.00     0.135 A 
ATOM     68  F   UNL A   1      38.472  31.933  32.844  1.00  0.00    -0.206 F 
ATOM     69  C   UNL A   1      36.474  33.062  32.351  1.00  0.00     0.059 A 
ATOM     70  C   UNL A   1      36.064  33.853  30.093  1.00  0.00     0.059 A 
ATOM     71  F   UNL A   1      37.654  33.454  28.415  1.00  0.00    -0.206 F 
ATOM     72  C   UNL A   1      35.662  33.712  31.420  1.00  0.00     0.060 A 
BRANCH  72  73
ATOM     73  S   UNL A   1      34.088  34.402  31.976  1.00  0.00     0.124 S 
ATOM     74  O   UNL A   1      33.382  34.577  30.712  1.00  0.00    -0.237 OA
ATOM     75  O   UNL A   1      33.584  33.347  32.849  1.00  0.00    -0.237 OA
ATOM     76  O   UNL A   1      34.482  35.633  32.655  1.00  0.00    -0.744 OA
ENDBRANCH  72  73
ENDBRANCH  40  65
BRANCH  52  77
ATOM     77  C   UNL A   1      44.594  35.253  30.220  1.00  0.00     0.058 A 
ATOM     78  C   UNL A   1      45.101  35.616  31.478  1.00  0.00     0.135 A 
ATOM     79  C   UNL A   1      44.663  36.203  29.187  1.00  0.00     0.135 A 
ATOM     80  F   UNL A   1      45.058  34.747  32.500  1.00  0.00    -0.206 F 
ATOM     81  C   UNL A   1      45.622  36.884  31.712  1.00  0.00     0.059 A 
ATOM     82  C   UNL A   1      45.210  37.465  29.390  1.00  0.00     0.059 A 
ATOM     83  F   UNL A   1      44.206  35.904  27.961  1.00  0.00    -0.206 F 
ATOM     84  C   UNL A   1      45.670  37.803  30.661  1.00  0.00     0.060 A 
BRANCH  84  85
ATOM     85  S   UNL A   1      46.362  39.441  30.974  1.00  0.00     0.124 S 
ATOM     86  O   UNL A   1      47.760  39.242  30.608  1.00  0.00    -0.237 OA
ATOM     87  O   UNL A   1      45.585  40.286  30.072  1.00  0.00    -0.237 OA
ATOM     88  O   UNL A   1      46.109  39.651  32.396  1.00  0.00    -0.744 OA
ENDBRANCH  84  85
ENDBRANCH  52  77
ENDBRANCH  26  27
ENDBRANCH  18  21
ENDBRANCH  16  17
ENDBRANCH   1  16
TORSDOF 17
ENDMDL
