MODEL 1
REMARK VINA RESULT:     -11.5      0.000      0.000
REMARK SMILES C[C@@H](C(=O)NCCCNC(=O)c1ccc(-c2c3nc(c(-c4c(F)cc(S(=O)(=O)[O-])cc4F)c4ccc([nH]4)c(-c4c(F)cc(S(=O)(=O)[O-])cc4F)c4nc(c(-c5c(F)cc(S(=O)(=O)[O-])cc5F)c5ccc2[nH]5)C=C4)C=C3)cc1)c1ccc(-c2ccccc2)cc1
REMARK SMILES IDX 7 1 6 2 5 3 3 4 4 5 2 7 1 8 78 9 79 10 89 11 80 12 88 13
REMARK SMILES IDX 81 14 82 15 83 16 87 17 84 18 86 19 85 20 8 21 9 22 10 23
REMARK SMILES IDX 11 25 12 26 13 27 77 28 14 29 76 30 15 31 16 32 17 33 70 34
REMARK SMILES IDX 18 35 75 36 69 37 71 38 19 39 74 40 68 41 67 42 20 44 54 45
REMARK SMILES IDX 33 46 53 47 34 48 37 49 52 50 72 51 35 52 36 53 51 55 73 56
REMARK SMILES IDX 38 57 21 58 22 59 31 60 23 61 24 62 30 63 32 64 25 65 26 66
REMARK SMILES IDX 27 67 28 68 29 69 55 70 56 71 65 72 57 73 58 74 64 75 66 76
REMARK SMILES IDX 59 77 60 78 61 79 62 80 63 81 39 82 40 83 49 84 41 85 42 86
REMARK SMILES IDX 48 87 50 88 43 89 44 90 45 91 46 92 47 93
REMARK H PARENT 5 6 9 24 71 43 37 54
REMARK Flexibility Score: inf
ROOT
ATOM      1  C   UNL A   1      33.189  27.648  26.626  1.00  0.00     0.042 C 
ENDROOT
BRANCH   1   2
ATOM      2  C   UNL A   1      31.711  27.636  26.231  1.00  0.00     0.117 C 
BRANCH   2   3
ATOM      3  N   UNL A   1      31.043  26.431  26.692  1.00  0.00    -0.356 N 
ATOM      4  C   UNL A   1      30.875  25.219  26.086  1.00  0.00     0.227 C 
ATOM      5  O   UNL A   1      30.118  24.426  26.651  1.00  0.00    -0.274 OA
ATOM      6  H   UNL A   1      30.648  26.501  27.590  1.00  0.00     0.163 HD
BRANCH   4   7
ATOM      7  C   UNL A   1      31.638  24.885  24.788  1.00  0.00     0.105 C 
ATOM      8  C   UNL A   1      30.800  23.916  23.943  1.00  0.00     0.023 C 
BRANCH   7   9
ATOM      9  C   UNL A   1      33.065  24.377  25.044  1.00  0.00    -0.036 A 
ATOM     10  C   UNL A   1      33.444  23.783  26.257  1.00  0.00     0.005 A 
ATOM     11  C   UNL A   1      34.044  24.478  24.041  1.00  0.00     0.005 A 
ATOM     12  C   UNL A   1      34.757  23.357  26.477  1.00  0.00     0.009 A 
ATOM     13  C   UNL A   1      35.365  24.066  24.269  1.00  0.00     0.009 A 
ATOM     14  C   UNL A   1      35.742  23.507  25.496  1.00  0.00    -0.018 A 
BRANCH  14  15
ATOM     15  C   UNL A   1      37.128  23.117  25.783  1.00  0.00    -0.018 A 
ATOM     16  C   UNL A   1      37.613  21.854  25.408  1.00  0.00     0.009 A 
ATOM     17  C   UNL A   1      37.981  23.971  26.500  1.00  0.00     0.009 A 
ATOM     18  C   UNL A   1      38.905  21.449  25.751  1.00  0.00     0.001 A 
ATOM     19  C   UNL A   1      39.273  23.567  26.847  1.00  0.00     0.001 A 
ATOM     20  C   UNL A   1      39.732  22.305  26.475  1.00  0.00     0.000 A 
ENDBRANCH  14  15
ENDBRANCH   7   9
ENDBRANCH   4   7
ENDBRANCH   2   3
ENDBRANCH   1   2
BRANCH   1  21
ATOM     21  C   UNL A   1      34.031  28.691  25.899  1.00  0.00     0.118 C 
BRANCH  21  22
ATOM     22  N   UNL A   1      33.753  30.042  26.351  1.00  0.00    -0.352 N 
ATOM     23  C   UNL A   1      34.380  30.791  27.313  1.00  0.00     0.251 C 
ATOM     24  H   UNL A   1      33.000  30.487  25.899  1.00  0.00     0.163 HD
ATOM     25  O   UNL A   1      33.859  31.849  27.673  1.00  0.00    -0.269 OA
BRANCH  23  26
ATOM     26  C   UNL A   1      35.653  30.349  27.929  1.00  0.00     0.039 A 
ATOM     27  C   UNL A   1      35.603  29.704  29.170  1.00  0.00     0.014 A 
ATOM     28  C   UNL A   1      36.892  30.619  27.340  1.00  0.00     0.014 A 
ATOM     29  C   UNL A   1      36.786  29.311  29.802  1.00  0.00     0.010 A 
ATOM     30  C   UNL A   1      38.067  30.160  27.936  1.00  0.00     0.010 A 
ATOM     31  C   UNL A   1      38.029  29.525  29.186  1.00  0.00    -0.014 A 
BRANCH  31  32
ATOM     32  C   UNL A   1      39.293  29.142  29.868  1.00  0.00     0.031 A 
ATOM     33  C   UNL A   1      39.734  29.874  31.109  1.00  0.00     0.074 A 
ATOM     34  C   UNL A   1      40.059  28.159  29.359  1.00  0.00     0.049 A 
ATOM     35  N   UNL A   1      40.811  29.705  31.831  1.00  0.00    -0.248 NA
ATOM     36  C   UNL A   1      38.859  30.959  31.586  1.00  0.00     0.031 C 
ATOM     37  C   UNL A   1      39.771  27.409  28.134  1.00  0.00     0.029 A 
ATOM     38  N   UNL A   1      41.241  27.622  29.806  1.00  0.00    -0.354 N 
ATOM     39  C   UNL A   1      40.750  30.664  32.836  1.00  0.00     0.074 A 
ATOM     40  C   UNL A   1      39.561  31.451  32.595  1.00  0.00     0.031 C 
ATOM     41  C   UNL A   1      40.740  26.500  27.938  1.00  0.00     0.029 A 
ATOM     42  C   UNL A   1      41.726  26.614  29.008  1.00  0.00     0.049 A 
ATOM     43  H   UNL A   1      41.697  27.930  30.622  1.00  0.00     0.167 HD
ATOM     44  C   UNL A   1      41.591  30.857  33.881  1.00  0.00     0.037 A 
ATOM     45  C   UNL A   1      42.839  25.864  29.126  1.00  0.00     0.037 A 
ATOM     46  C   UNL A   1      42.761  30.056  34.133  1.00  0.00     0.049 A 
ATOM     47  C   UNL A   1      43.738  26.066  30.316  1.00  0.00     0.074 A 
ATOM     48  C   UNL A   1      43.659  30.146  35.182  1.00  0.00     0.029 A 
ATOM     49  N   UNL A   1      43.190  29.011  33.329  1.00  0.00    -0.354 N 
ATOM     50  N   UNL A   1      43.638  26.946  31.284  1.00  0.00    -0.248 NA
ATOM     51  C   UNL A   1      44.888  25.161  30.440  1.00  0.00     0.031 C 
ATOM     52  C   UNL A   1      44.647  29.170  34.998  1.00  0.00     0.029 A 
ATOM     53  C   UNL A   1      44.340  28.448  33.856  1.00  0.00     0.049 A 
ATOM     54  H   UNL A   1      42.743  28.712  32.503  1.00  0.00     0.167 HD
ATOM     55  C   UNL A   1      44.697  26.685  32.147  1.00  0.00     0.074 A 
ATOM     56  C   UNL A   1      45.417  25.555  31.591  1.00  0.00     0.031 C 
ATOM     57  C   UNL A   1      45.040  27.319  33.295  1.00  0.00     0.037 A 
BRANCH  44  58
ATOM     58  C   UNL A   1      41.261  31.973  34.834  1.00  0.00     0.058 A 
ATOM     59  C   UNL A   1      40.436  31.765  35.952  1.00  0.00     0.135 A 
ATOM     60  C   UNL A   1      41.776  33.265  34.635  1.00  0.00     0.135 A 
ATOM     61  F   UNL A   1      39.905  30.554  36.182  1.00  0.00    -0.206 F 
ATOM     62  C   UNL A   1      40.098  32.804  36.813  1.00  0.00     0.059 A 
ATOM     63  C   UNL A   1      41.473  34.313  35.499  1.00  0.00     0.059 A 
ATOM     64  F   UNL A   1      42.572  33.521  33.584  1.00  0.00    -0.206 F 
ATOM     65  C   UNL A   1      40.616  34.077  36.574  1.00  0.00     0.060 A 
BRANCH  65  66
ATOM     66  S   UNL A   1      40.155  35.421  37.688  1.00  0.00     0.124 S 
ATOM     67  O   UNL A   1      41.301  35.454  38.591  1.00  0.00    -0.237 OA
ATOM     68  O   UNL A   1      40.033  36.555  36.777  1.00  0.00    -0.237 OA
ATOM     69  O   UNL A   1      38.903  34.958  38.279  1.00  0.00    -0.744 OA
ENDBRANCH  65  66
ENDBRANCH  44  58
BRANCH  45  70
ATOM     70  C   UNL A   1      43.138  24.826  28.105  1.00  0.00     0.058 A 
ATOM     71  C   UNL A   1      43.771  25.159  26.898  1.00  0.00     0.135 A 
ATOM     72  C   UNL A   1      42.829  23.476  28.331  1.00  0.00     0.135 A 
ATOM     73  F   UNL A   1      44.082  26.438  26.636  1.00  0.00    -0.206 F 
ATOM     74  C   UNL A   1      44.077  24.193  25.946  1.00  0.00     0.059 A 
ATOM     75  C   UNL A   1      43.145  22.489  27.403  1.00  0.00     0.059 A 
ATOM     76  F   UNL A   1      42.240  23.104  29.479  1.00  0.00    -0.206 F 
ATOM     77  C   UNL A   1      43.763  22.859  26.209  1.00  0.00     0.060 A 
BRANCH  77  78
ATOM     78  S   UNL A   1      44.225  21.602  24.997  1.00  0.00     0.124 S 
ATOM     79  O   UNL A   1      43.224  20.573  25.246  1.00  0.00    -0.237 OA
ATOM     80  O   UNL A   1      44.096  22.328  23.736  1.00  0.00    -0.237 OA
ATOM     81  O   UNL A   1      45.592  21.260  25.374  1.00  0.00    -0.744 OA
ENDBRANCH  77  78
ENDBRANCH  45  70
BRANCH  57  82
ATOM     82  C   UNL A   1      46.226  26.784  34.049  1.00  0.00     0.058 A 
ATOM     83  C   UNL A   1      46.089  25.797  35.038  1.00  0.00     0.135 A 
ATOM     84  C   UNL A   1      47.519  27.244  33.755  1.00  0.00     0.135 A 
ATOM     85  F   UNL A   1      44.873  25.327  35.359  1.00  0.00    -0.206 F 
ATOM     86  C   UNL A   1      47.190  25.306  35.730  1.00  0.00     0.059 A 
ATOM     87  C   UNL A   1      48.638  26.749  34.417  1.00  0.00     0.059 A 
ATOM     88  F   UNL A   1      47.706  28.178  32.809  1.00  0.00    -0.206 F 
ATOM     89  C   UNL A   1      48.461  25.791  35.415  1.00  0.00     0.060 A 
BRANCH  89  90
ATOM     90  S   UNL A   1      49.887  25.138  36.309  1.00  0.00     0.124 S 
ATOM     91  O   UNL A   1      49.417  23.807  36.677  1.00  0.00    -0.237 OA
ATOM     92  O   UNL A   1      50.940  25.180  35.298  1.00  0.00    -0.237 OA
ATOM     93  O   UNL A   1      50.053  26.075  37.415  1.00  0.00    -0.744 OA
ENDBRANCH  89  90
ENDBRANCH  57  82
ENDBRANCH  31  32
ENDBRANCH  23  26
ENDBRANCH  21  22
ENDBRANCH   1  21
TORSDOF 15
ENDMDL
MODEL 2
REMARK VINA RESULT:     -11.2      3.777     10.142
REMARK SMILES C[C@@H](C(=O)NCCCNC(=O)c1ccc(-c2c3nc(c(-c4c(F)cc(S(=O)(=O)[O-])cc4F)c4ccc([nH]4)c(-c4c(F)cc(S(=O)(=O)[O-])cc4F)c4nc(c(-c5c(F)cc(S(=O)(=O)[O-])cc5F)c5ccc2[nH]5)C=C4)C=C3)cc1)c1ccc(-c2ccccc2)cc1
REMARK SMILES IDX 7 1 6 2 5 3 3 4 4 5 2 7 1 8 78 9 79 10 89 11 80 12 88 13
REMARK SMILES IDX 81 14 82 15 83 16 87 17 84 18 86 19 85 20 8 21 9 22 10 23
REMARK SMILES IDX 11 25 12 26 13 27 77 28 14 29 76 30 15 31 16 32 17 33 70 34
REMARK SMILES IDX 18 35 75 36 69 37 71 38 19 39 74 40 68 41 67 42 20 44 54 45
REMARK SMILES IDX 33 46 53 47 34 48 37 49 52 50 72 51 35 52 36 53 51 55 73 56
REMARK SMILES IDX 38 57 21 58 22 59 31 60 23 61 24 62 30 63 32 64 25 65 26 66
REMARK SMILES IDX 27 67 28 68 29 69 55 70 56 71 65 72 57 73 58 74 64 75 66 76
REMARK SMILES IDX 59 77 60 78 61 79 62 80 63 81 39 82 40 83 49 84 41 85 42 86
REMARK SMILES IDX 48 87 50 88 43 89 44 90 45 91 46 92 47 93
REMARK H PARENT 5 6 9 24 71 43 37 54
REMARK Flexibility Score: inf
ROOT
ATOM      1  C   UNL A   1      34.734  32.673  30.744  1.00  0.00     0.042 C 
ENDROOT
BRANCH   1   2
ATOM      2  C   UNL A   1      35.732  32.009  31.696  1.00  0.00     0.117 C 
BRANCH   2   3
ATOM      3  N   UNL A   1      37.040  32.635  31.622  1.00  0.00    -0.356 N 
ATOM      4  C   UNL A   1      38.140  32.494  32.418  1.00  0.00     0.227 C 
ATOM      5  O   UNL A   1      39.068  33.281  32.212  1.00  0.00    -0.274 OA
ATOM      6  H   UNL A   1      37.151  33.263  30.873  1.00  0.00     0.163 HD
BRANCH   4   7
ATOM      7  C   UNL A   1      38.196  31.377  33.480  1.00  0.00     0.105 C 
ATOM      8  C   UNL A   1      37.900  31.975  34.861  1.00  0.00     0.023 C 
BRANCH   7   9
ATOM      9  C   UNL A   1      39.508  30.577  33.440  1.00  0.00    -0.036 A 
ATOM     10  C   UNL A   1      40.705  31.070  33.981  1.00  0.00     0.005 A 
ATOM     11  C   UNL A   1      39.538  29.294  32.868  1.00  0.00     0.005 A 
ATOM     12  C   UNL A   1      41.891  30.337  33.906  1.00  0.00     0.009 A 
ATOM     13  C   UNL A   1      40.733  28.566  32.778  1.00  0.00     0.009 A 
ATOM     14  C   UNL A   1      41.930  29.082  33.288  1.00  0.00    -0.018 A 
BRANCH  14  15
ATOM     15  C   UNL A   1      43.206  28.368  33.159  1.00  0.00    -0.018 A 
ATOM     16  C   UNL A   1      43.293  27.177  32.420  1.00  0.00     0.009 A 
ATOM     17  C   UNL A   1      44.354  28.820  33.829  1.00  0.00     0.009 A 
ATOM     18  C   UNL A   1      44.485  26.452  32.362  1.00  0.00     0.001 A 
ATOM     19  C   UNL A   1      45.547  28.095  33.775  1.00  0.00     0.001 A 
ATOM     20  C   UNL A   1      45.611  26.909  33.045  1.00  0.00     0.000 A 
ENDBRANCH  14  15
ENDBRANCH   7   9
ENDBRANCH   4   7
ENDBRANCH   2   3
ENDBRANCH   1   2
BRANCH   1  21
ATOM     21  C   UNL A   1      35.039  32.470  29.264  1.00  0.00     0.118 C 
BRANCH  21  22
ATOM     22  N   UNL A   1      34.361  31.312  28.710  1.00  0.00    -0.352 N 
ATOM     23  C   UNL A   1      34.881  30.145  28.214  1.00  0.00     0.251 C 
ATOM     24  H   UNL A   1      33.379  31.375  28.687  1.00  0.00     0.163 HD
ATOM     25  O   UNL A   1      34.133  29.370  27.615  1.00  0.00    -0.269 OA
BRANCH  23  26
ATOM     26  C   UNL A   1      36.316  29.809  28.374  1.00  0.00     0.039 A 
ATOM     27  C   UNL A   1      36.751  29.322  29.612  1.00  0.00     0.014 A 
ATOM     28  C   UNL A   1      37.245  30.029  27.353  1.00  0.00     0.014 A 
ATOM     29  C   UNL A   1      38.104  29.035  29.814  1.00  0.00     0.010 A 
ATOM     30  C   UNL A   1      38.582  29.672  27.532  1.00  0.00     0.010 A 
ATOM     31  C   UNL A   1      39.030  29.197  28.773  1.00  0.00    -0.014 A 
BRANCH  31  32
ATOM     32  C   UNL A   1      40.476  28.928  28.991  1.00  0.00     0.031 A 
ATOM     33  C   UNL A   1      41.058  27.586  28.627  1.00  0.00     0.074 A 
ATOM     34  C   UNL A   1      41.261  29.874  29.539  1.00  0.00     0.049 A 
ATOM     35  N   UNL A   1      42.284  27.152  28.762  1.00  0.00    -0.248 NA
ATOM     36  C   UNL A   1      40.130  26.592  28.062  1.00  0.00     0.031 C 
ATOM     37  C   UNL A   1      40.809  31.195  29.984  1.00  0.00     0.029 A 
ATOM     38  N   UNL A   1      42.604  29.871  29.822  1.00  0.00    -0.354 N 
ATOM     39  C   UNL A   1      42.274  25.836  28.311  1.00  0.00     0.074 A 
ATOM     40  C   UNL A   1      40.907  25.524  27.956  1.00  0.00     0.031 C 
ATOM     41  C   UNL A   1      41.859  31.879  30.467  1.00  0.00     0.029 A 
ATOM     42  C   UNL A   1      43.052  31.042  30.386  1.00  0.00     0.049 A 
ATOM     43  H   UNL A   1      43.190  29.103  29.637  1.00  0.00     0.167 HD
ATOM     44  C   UNL A   1      43.310  24.974  28.177  1.00  0.00     0.037 A 
ATOM     45  C   UNL A   1      44.286  31.401  30.790  1.00  0.00     0.037 A 
ATOM     46  C   UNL A   1      44.675  25.295  28.508  1.00  0.00     0.049 A 
ATOM     47  C   UNL A   1      45.430  30.445  30.595  1.00  0.00     0.074 A 
ATOM     48  C   UNL A   1      45.803  24.505  28.379  1.00  0.00     0.029 A 
ATOM     49  N   UNL A   1      45.096  26.510  29.029  1.00  0.00    -0.354 N 
ATOM     50  N   UNL A   1      45.411  29.222  30.121  1.00  0.00    -0.248 NA
ATOM     51  C   UNL A   1      46.767  30.924  30.971  1.00  0.00     0.031 C 
ATOM     52  C   UNL A   1      46.905  25.234  28.844  1.00  0.00     0.029 A 
ATOM     53  C   UNL A   1      46.466  26.492  29.227  1.00  0.00     0.049 A 
ATOM     54  H   UNL A   1      44.506  27.273  29.229  1.00  0.00     0.167 HD
ATOM     55  C   UNL A   1      46.733  28.793  30.117  1.00  0.00     0.074 A 
ATOM     56  C   UNL A   1      47.528  29.894  30.625  1.00  0.00     0.031 C 
ATOM     57  C   UNL A   1      47.243  27.599  29.726  1.00  0.00     0.037 A 
BRANCH  44  58
ATOM     58  C   UNL A   1      43.002  23.604  27.638  1.00  0.00     0.058 A 
ATOM     59  C   UNL A   1      42.684  22.533  28.492  1.00  0.00     0.135 A 
ATOM     60  C   UNL A   1      43.018  23.353  26.257  1.00  0.00     0.135 A 
ATOM     61  F   UNL A   1      42.669  22.713  29.823  1.00  0.00    -0.206 F 
ATOM     62  C   UNL A   1      42.437  21.256  28.000  1.00  0.00     0.059 A 
ATOM     63  C   UNL A   1      42.746  22.089  25.740  1.00  0.00     0.059 A 
ATOM     64  F   UNL A   1      43.312  24.339  25.394  1.00  0.00    -0.206 F 
ATOM     65  C   UNL A   1      42.477  21.042  26.622  1.00  0.00     0.060 A 
BRANCH  65  66
ATOM     66  S   UNL A   1      42.173  19.376  25.997  1.00  0.00     0.124 S 
ATOM     67  O   UNL A   1      43.015  19.357  24.804  1.00  0.00    -0.237 OA
ATOM     68  O   UNL A   1      42.625  18.538  27.103  1.00  0.00    -0.237 OA
ATOM     69  O   UNL A   1      40.735  19.362  25.750  1.00  0.00    -0.744 OA
ENDBRANCH  65  66
ENDBRANCH  44  58
BRANCH  45  70
ATOM     70  C   UNL A   1      44.503  32.748  31.381  1.00  0.00     0.058 A 
ATOM     71  C   UNL A   1      44.652  33.881  30.566  1.00  0.00     0.135 A 
ATOM     72  C   UNL A   1      44.533  32.934  32.771  1.00  0.00     0.135 A 
ATOM     73  F   UNL A   1      44.635  33.752  29.231  1.00  0.00    -0.206 F 
ATOM     74  C   UNL A   1      44.833  35.148  31.108  1.00  0.00     0.059 A 
ATOM     75  C   UNL A   1      44.690  34.195  33.337  1.00  0.00     0.059 A 
ATOM     76  F   UNL A   1      44.375  31.884  33.593  1.00  0.00    -0.206 F 
ATOM     77  C   UNL A   1      44.846  35.296  32.496  1.00  0.00     0.060 A 
BRANCH  77  78
ATOM     78  S   UNL A   1      45.014  36.955  33.191  1.00  0.00     0.124 S 
ATOM     79  O   UNL A   1      43.624  37.392  33.244  1.00  0.00    -0.237 OA
ATOM     80  O   UNL A   1      45.649  36.687  34.478  1.00  0.00    -0.237 OA
ATOM     81  O   UNL A   1      45.855  37.642  32.217  1.00  0.00    -0.744 OA
ENDBRANCH  77  78
ENDBRANCH  45  70
BRANCH  57  82
ATOM     82  C   UNL A   1      48.736  27.432  29.796  1.00  0.00     0.058 A 
ATOM     83  C   UNL A   1      49.577  27.862  28.758  1.00  0.00     0.135 A 
ATOM     84  C   UNL A   1      49.332  26.861  30.932  1.00  0.00     0.135 A 
ATOM     85  F   UNL A   1      49.055  28.411  27.649  1.00  0.00    -0.206 F 
ATOM     86  C   UNL A   1      50.957  27.706  28.830  1.00  0.00     0.059 A 
ATOM     87  C   UNL A   1      50.712  26.718  31.036  1.00  0.00     0.059 A 
ATOM     88  F   UNL A   1      48.574  26.444  31.957  1.00  0.00    -0.206 F 
ATOM     89  C   UNL A   1      51.515  27.129  29.973  1.00  0.00     0.060 A 
BRANCH  89  90
ATOM     90  S   UNL A   1      53.309  26.942  30.065  1.00  0.00     0.124 S 
ATOM     91  O   UNL A   1      53.748  28.333  30.064  1.00  0.00    -0.237 OA
ATOM     92  O   UNL A   1      53.487  26.222  31.323  1.00  0.00    -0.237 OA
ATOM     93  O   UNL A   1      53.632  26.179  28.863  1.00  0.00    -0.744 OA
ENDBRANCH  89  90
ENDBRANCH  57  82
ENDBRANCH  31  32
ENDBRANCH  23  26
ENDBRANCH  21  22
ENDBRANCH   1  21
TORSDOF 15
ENDMDL
MODEL 3
REMARK VINA RESULT:     -11.2      2.710      5.637
REMARK SMILES C[C@@H](C(=O)NCCCNC(=O)c1ccc(-c2c3nc(c(-c4c(F)cc(S(=O)(=O)[O-])cc4F)c4ccc([nH]4)c(-c4c(F)cc(S(=O)(=O)[O-])cc4F)c4nc(c(-c5c(F)cc(S(=O)(=O)[O-])cc5F)c5ccc2[nH]5)C=C4)C=C3)cc1)c1ccc(-c2ccccc2)cc1
REMARK SMILES IDX 7 1 6 2 5 3 3 4 4 5 2 7 1 8 78 9 79 10 89 11 80 12 88 13
REMARK SMILES IDX 81 14 82 15 83 16 87 17 84 18 86 19 85 20 8 21 9 22 10 23
REMARK SMILES IDX 11 25 12 26 13 27 77 28 14 29 76 30 15 31 16 32 17 33 70 34
REMARK SMILES IDX 18 35 75 36 69 37 71 38 19 39 74 40 68 41 67 42 20 44 54 45
REMARK SMILES IDX 33 46 53 47 34 48 37 49 52 50 72 51 35 52 36 53 51 55 73 56
REMARK SMILES IDX 38 57 21 58 22 59 31 60 23 61 24 62 30 63 32 64 25 65 26 66
REMARK SMILES IDX 27 67 28 68 29 69 55 70 56 71 65 72 57 73 58 74 64 75 66 76
REMARK SMILES IDX 59 77 60 78 61 79 62 80 63 81 39 82 40 83 49 84 41 85 42 86
REMARK SMILES IDX 48 87 50 88 43 89 44 90 45 91 46 92 47 93
REMARK H PARENT 5 6 9 24 71 43 37 54
REMARK Flexibility Score: inf
ROOT
ATOM      1  C   UNL A   1      33.414  33.847  28.722  1.00  0.00     0.042 C 
ENDROOT
BRANCH   1   2
ATOM      2  C   UNL A   1      34.020  35.185  29.150  1.00  0.00     0.117 C 
BRANCH   2   3
ATOM      3  N   UNL A   1      33.969  35.359  30.591  1.00  0.00    -0.356 N 
ATOM      4  C   UNL A   1      34.380  34.538  31.602  1.00  0.00     0.227 C 
ATOM      5  O   UNL A   1      34.060  34.875  32.744  1.00  0.00    -0.274 OA
ATOM      6  H   UNL A   1      33.573  36.210  30.887  1.00  0.00     0.163 HD
BRANCH   4   7
ATOM      7  C   UNL A   1      35.228  33.287  31.293  1.00  0.00     0.105 C 
ATOM      8  C   UNL A   1      35.175  32.331  32.492  1.00  0.00     0.023 C 
BRANCH   7   9
ATOM      9  C   UNL A   1      36.663  33.627  30.860  1.00  0.00    -0.036 A 
ATOM     10  C   UNL A   1      37.158  33.308  29.587  1.00  0.00     0.005 A 
ATOM     11  C   UNL A   1      37.528  34.300  31.739  1.00  0.00     0.005 A 
ATOM     12  C   UNL A   1      38.476  33.601  29.226  1.00  0.00     0.009 A 
ATOM     13  C   UNL A   1      38.855  34.578  31.383  1.00  0.00     0.009 A 
ATOM     14  C   UNL A   1      39.352  34.223  30.123  1.00  0.00    -0.018 A 
BRANCH  14  15
ATOM     15  C   UNL A   1      40.751  34.451  29.742  1.00  0.00    -0.018 A 
ATOM     16  C   UNL A   1      41.797  33.820  30.434  1.00  0.00     0.009 A 
ATOM     17  C   UNL A   1      41.080  35.358  28.723  1.00  0.00     0.009 A 
ATOM     18  C   UNL A   1      43.131  34.097  30.128  1.00  0.00     0.001 A 
ATOM     19  C   UNL A   1      42.414  35.639  28.417  1.00  0.00     0.001 A 
ATOM     20  C   UNL A   1      43.438  35.011  29.122  1.00  0.00     0.000 A 
ENDBRANCH  14  15
ENDBRANCH   7   9
ENDBRANCH   4   7
ENDBRANCH   2   3
ENDBRANCH   1   2
BRANCH   1  21
ATOM     21  C   UNL A   1      34.374  32.925  27.978  1.00  0.00     0.118 C 
BRANCH  21  22
ATOM     22  N   UNL A   1      33.720  31.731  27.475  1.00  0.00    -0.352 N 
ATOM     23  C   UNL A   1      34.199  30.452  27.358  1.00  0.00     0.251 C 
ATOM     24  H   UNL A   1      32.792  31.859  27.172  1.00  0.00     0.163 HD
ATOM     25  O   UNL A   1      33.538  29.628  26.724  1.00  0.00    -0.269 OA
BRANCH  23  26
ATOM     26  C   UNL A   1      35.492  30.053  27.964  1.00  0.00     0.039 A 
ATOM     27  C   UNL A   1      35.505  29.669  29.310  1.00  0.00     0.014 A 
ATOM     28  C   UNL A   1      36.693  30.115  27.251  1.00  0.00     0.014 A 
ATOM     29  C   UNL A   1      36.711  29.328  29.928  1.00  0.00     0.010 A 
ATOM     30  C   UNL A   1      37.885  29.702  27.848  1.00  0.00     0.010 A 
ATOM     31  C   UNL A   1      37.911  29.330  29.200  1.00  0.00    -0.014 A 
BRANCH  31  32
ATOM     32  C   UNL A   1      39.202  29.002  29.859  1.00  0.00     0.031 A 
ATOM     33  C   UNL A   1      39.637  29.758  31.088  1.00  0.00     0.074 A 
ATOM     34  C   UNL A   1      39.998  28.047  29.341  1.00  0.00     0.049 A 
ATOM     35  N   UNL A   1      40.734  29.636  31.789  1.00  0.00    -0.248 NA
ATOM     36  C   UNL A   1      38.729  30.810  31.575  1.00  0.00     0.031 C 
ATOM     37  C   UNL A   1      39.717  27.279  28.125  1.00  0.00     0.029 A 
ATOM     38  N   UNL A   1      41.209  27.561  29.767  1.00  0.00    -0.354 N 
ATOM     39  C   UNL A   1      40.654  30.599  32.791  1.00  0.00     0.074 A 
ATOM     40  C   UNL A   1      39.430  31.336  32.568  1.00  0.00     0.031 C 
ATOM     41  C   UNL A   1      40.717  26.409  27.915  1.00  0.00     0.029 A 
ATOM     42  C   UNL A   1      41.718  26.568  28.964  1.00  0.00     0.049 A 
ATOM     43  H   UNL A   1      41.667  27.892  30.572  1.00  0.00     0.167 HD
ATOM     44  C   UNL A   1      41.506  30.831  33.818  1.00  0.00     0.037 A 
ATOM     45  C   UNL A   1      42.862  25.865  29.065  1.00  0.00     0.037 A 
ATOM     46  C   UNL A   1      42.712  30.079  34.052  1.00  0.00     0.049 A 
ATOM     47  C   UNL A   1      43.775  26.109  30.236  1.00  0.00     0.074 A 
ATOM     48  C   UNL A   1      43.626  30.211  35.082  1.00  0.00     0.029 A 
ATOM     49  N   UNL A   1      43.168  29.047  33.244  1.00  0.00    -0.354 N 
ATOM     50  N   UNL A   1      43.659  26.990  31.202  1.00  0.00    -0.248 NA
ATOM     51  C   UNL A   1      44.963  25.252  30.343  1.00  0.00     0.031 C 
ATOM     52  C   UNL A   1      44.649  29.275  34.884  1.00  0.00     0.029 A 
ATOM     53  C   UNL A   1      44.349  28.534  33.752  1.00  0.00     0.049 A 
ATOM     54  H   UNL A   1      42.717  28.726  32.429  1.00  0.00     0.167 HD
ATOM     55  C   UNL A   1      44.744  26.777  32.044  1.00  0.00     0.074 A 
ATOM     56  C   UNL A   1      45.497  25.674  31.480  1.00  0.00     0.031 C 
ATOM     57  C   UNL A   1      45.083  27.431  33.182  1.00  0.00     0.037 A 
BRANCH  44  58
ATOM     58  C   UNL A   1      41.150  31.939  34.771  1.00  0.00     0.058 A 
ATOM     59  C   UNL A   1      40.315  31.714  35.879  1.00  0.00     0.135 A 
ATOM     60  C   UNL A   1      41.650  33.238  34.584  1.00  0.00     0.135 A 
ATOM     61  F   UNL A   1      39.797  30.495  36.098  1.00  0.00    -0.206 F 
ATOM     62  C   UNL A   1      39.952  32.745  36.740  1.00  0.00     0.059 A 
ATOM     63  C   UNL A   1      41.323  34.278  35.449  1.00  0.00     0.059 A 
ATOM     64  F   UNL A   1      42.454  33.509  33.544  1.00  0.00    -0.206 F 
ATOM     65  C   UNL A   1      40.457  34.026  36.513  1.00  0.00     0.060 A 
BRANCH  65  66
ATOM     66  S   UNL A   1      39.964  35.359  37.626  1.00  0.00     0.124 S 
ATOM     67  O   UNL A   1      39.736  36.452  36.685  1.00  0.00    -0.237 OA
ATOM     68  O   UNL A   1      38.769  34.811  38.261  1.00  0.00    -0.237 OA
ATOM     69  O   UNL A   1      41.120  35.515  38.502  1.00  0.00    -0.744 OA
ENDBRANCH  65  66
ENDBRANCH  44  58
BRANCH  45  70
ATOM     70  C   UNL A   1      43.184  24.833  28.044  1.00  0.00     0.058 A 
ATOM     71  C   UNL A   1      43.838  25.176  26.850  1.00  0.00     0.135 A 
ATOM     72  C   UNL A   1      42.874  23.482  28.255  1.00  0.00     0.135 A 
ATOM     73  F   UNL A   1      44.150  26.457  26.601  1.00  0.00    -0.206 F 
ATOM     74  C   UNL A   1      44.164  24.216  25.898  1.00  0.00     0.059 A 
ATOM     75  C   UNL A   1      43.210  22.501  27.328  1.00  0.00     0.059 A 
ATOM     76  F   UNL A   1      42.266  23.101  29.390  1.00  0.00    -0.206 F 
ATOM     77  C   UNL A   1      43.849  22.880  26.148  1.00  0.00     0.060 A 
BRANCH  77  78
ATOM     78  S   UNL A   1      44.337  21.631  24.937  1.00  0.00     0.124 S 
ATOM     79  O   UNL A   1      44.153  22.352  23.683  1.00  0.00    -0.237 OA
ATOM     80  O   UNL A   1      45.719  21.356  25.318  1.00  0.00    -0.237 OA
ATOM     81  O   UNL A   1      43.399  20.541  25.183  1.00  0.00    -0.744 OA
ENDBRANCH  77  78
ENDBRANCH  45  70
BRANCH  57  82
ATOM     82  C   UNL A   1      46.304  26.948  33.916  1.00  0.00     0.058 A 
ATOM     83  C   UNL A   1      47.578  27.475  33.658  1.00  0.00     0.135 A 
ATOM     84  C   UNL A   1      46.188  25.967  34.914  1.00  0.00     0.135 A 
ATOM     85  F   UNL A   1      47.742  28.413  32.711  1.00  0.00    -0.206 F 
ATOM     86  C   UNL A   1      48.702  27.025  34.342  1.00  0.00     0.059 A 
ATOM     87  C   UNL A   1      47.295  25.520  35.629  1.00  0.00     0.059 A 
ATOM     88  F   UNL A   1      44.990  25.439  35.208  1.00  0.00    -0.206 F 
ATOM     89  C   UNL A   1      48.550  26.044  35.324  1.00  0.00     0.060 A 
BRANCH  89  90
ATOM     90  S   UNL A   1      50.013  25.475  36.218  1.00  0.00     0.124 S 
ATOM     91  O   UNL A   1      49.695  24.068  36.434  1.00  0.00    -0.237 OA
ATOM     92  O   UNL A   1      51.088  25.743  35.266  1.00  0.00    -0.237 OA
ATOM     93  O   UNL A   1      50.024  26.309  37.415  1.00  0.00    -0.744 OA
ENDBRANCH  89  90
ENDBRANCH  57  82
ENDBRANCH  31  32
ENDBRANCH  23  26
ENDBRANCH  21  22
ENDBRANCH   1  21
TORSDOF 15
ENDMDL
