MODEL 1
REMARK VINA RESULT:     -12.0      0.000      0.000
REMARK SMILES C[NH+]1CC[NH+](CC[C@H]2CCC[C@@]2([NH3+])C(=O)NCCCNC(=O)c2ccc(-c3c4nc(c(-c5c(F)cc(S(=O)(=O)[O-])cc5F)c5ccc([nH]5)c(-c5c(F)cc(S(=O)(=O)[O-])cc5F)c5nc(c(-c6c(F)cc(S(=O)(=O)[O-])cc6F)c6ccc3[nH]6)C=C5)C=C4)cc2)CC1
REMARK SMILES IDX 18 1 17 2 16 3 14 4 15 5 12 7 8 8 9 9 10 10 11 11 7 12 6 13
REMARK SMILES IDX 5 14 1 15 2 16 3 17 90 18 4 20 89 21 13 23 19 27 20 28 21 29
REMARK SMILES IDX 22 31 23 32 24 33 88 34 25 35 87 36 26 37 27 38 28 39 81 40
REMARK SMILES IDX 29 41 86 42 80 43 82 44 30 45 85 46 79 47 78 48 31 50 65 51
REMARK SMILES IDX 44 52 64 53 45 54 48 55 63 56 83 57 46 58 47 59 62 61 84 62
REMARK SMILES IDX 49 63 32 64 33 65 42 66 34 67 35 68 41 69 43 70 36 71 37 72
REMARK SMILES IDX 38 73 39 74 40 75 66 76 67 77 76 78 68 79 69 80 75 81 77 82
REMARK SMILES IDX 70 83 71 84 72 85 73 86 74 87 50 88 51 89 60 90 52 91 53 92
REMARK SMILES IDX 59 93 61 94 54 95 55 96 56 97 57 98 58 99
REMARK H PARENT 16 6 2 19 5 22 13 24 13 25 13 26 20 30 82 49 48 60
REMARK Flexibility Score: inf
ROOT
ATOM      1  C   UNL A   1      35.040  29.869  27.847  1.00  0.00     0.042 C 
ENDROOT
BRANCH   1   2
ATOM      2  C   UNL A   1      33.741  29.926  27.024  1.00  0.00     0.118 C 
BRANCH   2   3
ATOM      3  N   UNL A   1      32.599  29.243  27.614  1.00  0.00    -0.351 N 
ATOM      4  C   UNL A   1      31.926  28.090  27.357  1.00  0.00     0.281 C 
ATOM      5  O   UNL A   1      31.012  27.849  28.163  1.00  0.00    -0.268 OA
ATOM      6  H   UNL A   1      32.224  29.732  28.381  1.00  0.00     0.163 HD
BRANCH   4   7
ATOM      7  C   UNL A   1      32.187  27.116  26.150  1.00  0.00     0.177 C 
ATOM      8  C   UNL A   1      31.730  27.529  24.707  1.00  0.00     0.066 C 
ATOM      9  C   UNL A   1      32.899  27.090  23.785  1.00  0.00     0.011 C 
ATOM     10  C   UNL A   1      33.770  26.150  24.609  1.00  0.00     0.008 C 
ATOM     11  C   UNL A   1      33.663  26.715  26.017  1.00  0.00     0.079 C 
BRANCH   8  12
ATOM     12  C   UNL A   1      31.373  29.002  24.488  1.00  0.00     0.072 C 
BRANCH  12  13
ATOM     13  C   UNL A   1      30.596  29.375  23.217  1.00  0.00     0.263 C 
BRANCH  13  14
ATOM     14  N   UNL A   1      29.238  29.898  23.342  1.00  0.00    -0.326 N 
ATOM     15  C   UNL A   1      27.766  32.768  20.459  1.00  0.00     0.333 C 
ATOM     16  N   UNL A   1      27.818  31.875  21.617  1.00  0.00    -0.328 N 
ATOM     17  C   UNL A   1      28.906  32.274  22.525  1.00  0.00     0.324 C 
ATOM     18  C   UNL A   1      27.998  30.477  21.186  1.00  0.00     0.324 C 
ATOM     19  H   UNL A   1      26.933  31.948  22.119  1.00  0.00     0.348 HD
ATOM     20  C   UNL A   1      29.094  31.305  23.708  1.00  0.00     0.324 C 
ATOM     21  C   UNL A   1      28.235  29.484  22.353  1.00  0.00     0.324 C 
ATOM     22  H   UNL A   1      28.994  29.369  24.180  1.00  0.00     0.348 HD
ENDBRANCH  13  14
ENDBRANCH  12  13
ENDBRANCH   8  12
BRANCH   7  23
ATOM     23  N   UNL A   1      31.489  25.824  26.477  1.00  0.00    -0.345 N 
ATOM     24  H   UNL A   1      31.111  25.416  25.622  1.00  0.00     0.345 HD
ATOM     25  H   UNL A   1      30.729  26.006  27.132  1.00  0.00     0.345 HD
ATOM     26  H   UNL A   1      32.154  25.176  26.898  1.00  0.00     0.345 HD
ENDBRANCH   7  23
ENDBRANCH   4   7
ENDBRANCH   2   3
ENDBRANCH   1   2
BRANCH   1  27
ATOM     27  C   UNL A   1      35.469  31.150  28.551  1.00  0.00     0.118 C 
BRANCH  27  28
ATOM     28  N   UNL A   1      35.580  30.975  29.984  1.00  0.00    -0.352 N 
ATOM     29  C   UNL A   1      36.520  30.302  30.727  1.00  0.00     0.251 C 
ATOM     30  H   UNL A   1      34.870  31.407  30.510  1.00  0.00     0.163 HD
ATOM     31  O   UNL A   1      36.258  30.049  31.902  1.00  0.00    -0.269 OA
BRANCH  29  32
ATOM     32  C   UNL A   1      37.819  29.857  30.156  1.00  0.00     0.039 A 
ATOM     33  C   UNL A   1      38.777  29.331  31.032  1.00  0.00     0.014 A 
ATOM     34  C   UNL A   1      38.162  30.052  28.814  1.00  0.00     0.014 A 
ATOM     35  C   UNL A   1      40.051  28.986  30.565  1.00  0.00     0.010 A 
ATOM     36  C   UNL A   1      39.413  29.641  28.334  1.00  0.00     0.010 A 
ATOM     37  C   UNL A   1      40.381  29.124  29.207  1.00  0.00    -0.014 A 
BRANCH  37  38
ATOM     38  C   UNL A   1      41.742  28.755  28.719  1.00  0.00     0.031 A 
ATOM     39  C   UNL A   1      42.852  29.776  28.670  1.00  0.00     0.074 A 
ATOM     40  C   UNL A   1      41.986  27.493  28.310  1.00  0.00     0.049 A 
ATOM     41  N   UNL A   1      44.101  29.624  28.307  1.00  0.00    -0.248 NA
ATOM     42  C   UNL A   1      42.510  31.152  29.062  1.00  0.00     0.031 C 
ATOM     43  C   UNL A   1      40.995  26.417  28.257  1.00  0.00     0.029 A 
ATOM     44  N   UNL A   1      43.142  26.900  27.864  1.00  0.00    -0.354 N 
ATOM     45  C   UNL A   1      44.690  30.879  28.417  1.00  0.00     0.074 A 
ATOM     46  C   UNL A   1      43.648  31.793  28.833  1.00  0.00     0.031 C 
ATOM     47  C   UNL A   1      41.590  25.290  27.838  1.00  0.00     0.029 A 
ATOM     48  C   UNL A   1      42.998  25.565  27.565  1.00  0.00     0.049 A 
ATOM     49  H   UNL A   1      43.993  27.384  27.768  1.00  0.00     0.167 HD
ATOM     50  C   UNL A   1      45.983  31.236  28.216  1.00  0.00     0.037 A 
ATOM     51  C   UNL A   1      43.896  24.660  27.126  1.00  0.00     0.037 A 
ATOM     52  C   UNL A   1      47.027  30.324  27.827  1.00  0.00     0.049 A 
ATOM     53  C   UNL A   1      45.329  25.073  26.927  1.00  0.00     0.074 A 
ATOM     54  C   UNL A   1      48.377  30.581  27.654  1.00  0.00     0.029 A 
ATOM     55  N   UNL A   1      46.842  28.977  27.548  1.00  0.00    -0.354 N 
ATOM     56  N   UNL A   1      45.879  26.251  27.103  1.00  0.00    -0.248 NA
ATOM     57  C   UNL A   1      46.266  24.032  26.482  1.00  0.00     0.031 C 
ATOM     58  C   UNL A   1      49.000  29.401  27.233  1.00  0.00     0.029 A 
ATOM     59  C   UNL A   1      48.047  28.396  27.188  1.00  0.00     0.049 A 
ATOM     60  H   UNL A   1      45.981  28.504  27.598  1.00  0.00     0.167 HD
ATOM     61  C   UNL A   1      47.229  26.086  26.816  1.00  0.00     0.074 A 
ATOM     62  C   UNL A   1      47.415  24.693  26.465  1.00  0.00     0.031 C 
ATOM     63  C   UNL A   1      48.225  27.007  26.845  1.00  0.00     0.037 A 
BRANCH  50  64
ATOM     64  C   UNL A   1      46.345  32.684  28.420  1.00  0.00     0.058 A 
ATOM     65  C   UNL A   1      46.878  33.147  29.634  1.00  0.00     0.135 A 
ATOM     66  C   UNL A   1      46.187  33.615  27.380  1.00  0.00     0.135 A 
ATOM     67  F   UNL A   1      47.041  32.302  30.665  1.00  0.00    -0.206 F 
ATOM     68  C   UNL A   1      47.204  34.486  29.823  1.00  0.00     0.059 A 
ATOM     69  C   UNL A   1      46.534  34.955  27.538  1.00  0.00     0.059 A 
ATOM     70  F   UNL A   1      45.688  33.228  26.195  1.00  0.00    -0.206 F 
ATOM     71  C   UNL A   1      47.024  35.384  28.771  1.00  0.00     0.060 A 
BRANCH  71  72
ATOM     72  S   UNL A   1      47.443  37.121  29.032  1.00  0.00     0.124 S 
ATOM     73  O   UNL A   1      46.170  37.773  28.732  1.00  0.00    -0.237 OA
ATOM     74  O   UNL A   1      47.843  37.139  30.438  1.00  0.00    -0.237 OA
ATOM     75  O   UNL A   1      48.513  37.362  28.076  1.00  0.00    -0.744 OA
ENDBRANCH  71  72
ENDBRANCH  50  64
BRANCH  51  76
ATOM     76  C   UNL A   1      43.468  23.256  26.887  1.00  0.00     0.058 A 
ATOM     77  C   UNL A   1      43.359  22.746  25.585  1.00  0.00     0.135 A 
ATOM     78  C   UNL A   1      43.188  22.388  27.954  1.00  0.00     0.135 A 
ATOM     79  F   UNL A   1      43.608  23.540  24.532  1.00  0.00    -0.206 F 
ATOM     80  C   UNL A   1      42.980  21.429  25.347  1.00  0.00     0.059 A 
ATOM     81  C   UNL A   1      42.832  21.061  27.742  1.00  0.00     0.059 A 
ATOM     82  F   UNL A   1      43.295  22.824  29.220  1.00  0.00    -0.206 F 
ATOM     83  C   UNL A   1      42.725  20.592  26.433  1.00  0.00     0.060 A 
BRANCH  83  84
ATOM     84  S   UNL A   1      42.304  18.864  26.118  1.00  0.00     0.124 S 
ATOM     85  O   UNL A   1      42.590  18.252  27.411  1.00  0.00    -0.237 OA
ATOM     86  O   UNL A   1      40.895  18.953  25.751  1.00  0.00    -0.237 OA
ATOM     87  O   UNL A   1      43.205  18.493  25.030  1.00  0.00    -0.744 OA
ENDBRANCH  83  84
ENDBRANCH  51  76
BRANCH  63  88
ATOM     88  C   UNL A   1      49.614  26.535  26.517  1.00  0.00     0.058 A 
ATOM     89  C   UNL A   1      50.460  25.989  27.497  1.00  0.00     0.135 A 
ATOM     90  C   UNL A   1      50.091  26.589  25.197  1.00  0.00     0.135 A 
ATOM     91  F   UNL A   1      50.056  25.919  28.774  1.00  0.00    -0.206 F 
ATOM     92  C   UNL A   1      51.739  25.538  27.183  1.00  0.00     0.059 A 
ATOM     93  C   UNL A   1      51.356  26.120  24.857  1.00  0.00     0.059 A 
ATOM     94  F   UNL A   1      49.320  27.091  24.220  1.00  0.00    -0.206 F 
ATOM     95  C   UNL A   1      52.179  25.609  25.860  1.00  0.00     0.060 A 
BRANCH  95  96
ATOM     96  S   UNL A   1      53.830  24.998  25.461  1.00  0.00     0.124 S 
ATOM     97  O   UNL A   1      53.582  23.570  25.288  1.00  0.00    -0.237 OA
ATOM     98  O   UNL A   1      54.154  25.736  24.245  1.00  0.00    -0.237 OA
ATOM     99  O   UNL A   1      54.619  25.361  26.635  1.00  0.00    -0.744 OA
ENDBRANCH  95  96
ENDBRANCH  63  88
ENDBRANCH  37  38
ENDBRANCH  29  32
ENDBRANCH  27  28
ENDBRANCH   1  27
TORSDOF 17
ENDMDL
MODEL 2
REMARK VINA RESULT:     -11.8      6.729     12.249
REMARK SMILES C[NH+]1CC[NH+](CC[C@H]2CCC[C@@]2([NH3+])C(=O)NCCCNC(=O)c2ccc(-c3c4nc(c(-c5c(F)cc(S(=O)(=O)[O-])cc5F)c5ccc([nH]5)c(-c5c(F)cc(S(=O)(=O)[O-])cc5F)c5nc(c(-c6c(F)cc(S(=O)(=O)[O-])cc6F)c6ccc3[nH]6)C=C5)C=C4)cc2)CC1
REMARK SMILES IDX 18 1 17 2 16 3 14 4 15 5 12 7 8 8 9 9 10 10 11 11 7 12 6 13
REMARK SMILES IDX 5 14 1 15 2 16 3 17 90 18 4 20 89 21 13 23 19 27 20 28 21 29
REMARK SMILES IDX 22 31 23 32 24 33 88 34 25 35 87 36 26 37 27 38 28 39 81 40
REMARK SMILES IDX 29 41 86 42 80 43 82 44 30 45 85 46 79 47 78 48 31 50 65 51
REMARK SMILES IDX 44 52 64 53 45 54 48 55 63 56 83 57 46 58 47 59 62 61 84 62
REMARK SMILES IDX 49 63 32 64 33 65 42 66 34 67 35 68 41 69 43 70 36 71 37 72
REMARK SMILES IDX 38 73 39 74 40 75 66 76 67 77 76 78 68 79 69 80 75 81 77 82
REMARK SMILES IDX 70 83 71 84 72 85 73 86 74 87 50 88 51 89 60 90 52 91 53 92
REMARK SMILES IDX 59 93 61 94 54 95 55 96 56 97 57 98 58 99
REMARK H PARENT 16 6 2 19 5 22 13 24 13 25 13 26 20 30 82 49 48 60
REMARK Flexibility Score: inf
ROOT
ATOM      1  C   UNL A   1      39.249  22.506  26.430  1.00  0.00     0.042 C 
ENDROOT
BRANCH   1   2
ATOM      2  C   UNL A   1      38.094  23.464  26.087  1.00  0.00     0.118 C 
BRANCH   2   3
ATOM      3  N   UNL A   1      37.472  23.249  24.788  1.00  0.00    -0.351 N 
ATOM      4  C   UNL A   1      36.253  22.827  24.361  1.00  0.00     0.281 C 
ATOM      5  O   UNL A   1      36.119  22.838  23.125  1.00  0.00    -0.268 OA
ATOM      6  H   UNL A   1      38.078  23.459  24.042  1.00  0.00     0.163 HD
BRANCH   4   7
ATOM      7  C   UNL A   1      35.079  22.313  25.273  1.00  0.00     0.177 C 
ATOM      8  C   UNL A   1      34.150  23.348  25.999  1.00  0.00     0.066 C 
ATOM      9  C   UNL A   1      32.721  22.761  25.853  1.00  0.00     0.011 C 
ATOM     10  C   UNL A   1      32.891  21.311  25.418  1.00  0.00     0.008 C 
ATOM     11  C   UNL A   1      34.134  21.351  24.542  1.00  0.00     0.079 C 
BRANCH   8  12
ATOM     12  C   UNL A   1      34.210  24.797  25.506  1.00  0.00     0.072 C 
BRANCH  12  13
ATOM     13  C   UNL A   1      33.044  25.316  24.652  1.00  0.00     0.263 C 
BRANCH  13  14
ATOM     14  N   UNL A   1      33.331  26.150  23.488  1.00  0.00    -0.326 N 
ATOM     15  C   UNL A   1      30.535  29.231  22.306  1.00  0.00     0.333 C 
ATOM     16  N   UNL A   1      31.710  28.360  22.310  1.00  0.00    -0.328 N 
ATOM     17  C   UNL A   1      31.305  26.950  22.193  1.00  0.00     0.324 C 
ATOM     18  C   UNL A   1      32.503  28.564  23.537  1.00  0.00     0.324 C 
ATOM     19  H   UNL A   1      32.291  28.599  21.507  1.00  0.00     0.348 HD
ATOM     20  C   UNL A   1      32.487  25.968  22.310  1.00  0.00     0.324 C 
ATOM     21  C   UNL A   1      33.673  27.561  23.705  1.00  0.00     0.324 C 
ATOM     22  H   UNL A   1      34.224  25.711  23.258  1.00  0.00     0.348 HD
ENDBRANCH  13  14
ENDBRANCH  12  13
ENDBRANCH   8  12
BRANCH   7  23
ATOM     23  N   UNL A   1      35.705  21.461  26.344  1.00  0.00    -0.345 N 
ATOM     24  H   UNL A   1      36.625  21.833  26.580  1.00  0.00     0.345 HD
ATOM     25  H   UNL A   1      35.802  20.505  26.003  1.00  0.00     0.345 HD
ATOM     26  H   UNL A   1      35.112  21.468  27.173  1.00  0.00     0.345 HD
ENDBRANCH   7  23
ENDBRANCH   4   7
ENDBRANCH   2   3
ENDBRANCH   1   2
BRANCH   1  27
ATOM     27  C   UNL A   1      40.476  23.115  27.098  1.00  0.00     0.118 C 
BRANCH  27  28
ATOM     28  N   UNL A   1      41.280  23.880  26.168  1.00  0.00    -0.352 N 
ATOM     29  C   UNL A   1      41.518  25.232  26.103  1.00  0.00     0.251 C 
ATOM     30  H   UNL A   1      41.727  23.347  25.472  1.00  0.00     0.163 HD
ATOM     31  O   UNL A   1      42.000  25.687  25.067  1.00  0.00    -0.269 OA
BRANCH  29  32
ATOM     32  C   UNL A   1      41.197  26.153  27.225  1.00  0.00     0.039 A 
ATOM     33  C   UNL A   1      42.034  27.257  27.430  1.00  0.00     0.014 A 
ATOM     34  C   UNL A   1      40.174  25.899  28.145  1.00  0.00     0.014 A 
ATOM     35  C   UNL A   1      41.836  28.103  28.528  1.00  0.00     0.010 A 
ATOM     36  C   UNL A   1      39.933  26.785  29.203  1.00  0.00     0.010 A 
ATOM     37  C   UNL A   1      40.775  27.886  29.421  1.00  0.00    -0.014 A 
BRANCH  37  38
ATOM     38  C   UNL A   1      40.571  28.792  30.589  1.00  0.00     0.031 A 
ATOM     39  C   UNL A   1      41.432  28.672  31.822  1.00  0.00     0.074 A 
ATOM     40  C   UNL A   1      39.603  29.730  30.547  1.00  0.00     0.049 A 
ATOM     41  N   UNL A   1      41.418  29.395  32.915  1.00  0.00    -0.248 NA
ATOM     42  C   UNL A   1      42.425  27.586  31.841  1.00  0.00     0.031 C 
ATOM     43  C   UNL A   1      38.667  29.926  29.439  1.00  0.00     0.029 A 
ATOM     44  N   UNL A   1      39.246  30.696  31.456  1.00  0.00    -0.354 N 
ATOM     45  C   UNL A   1      42.388  28.850  33.750  1.00  0.00     0.074 A 
ATOM     46  C   UNL A   1      42.937  27.704  33.058  1.00  0.00     0.031 C 
ATOM     47  C   UNL A   1      37.867  30.967  29.718  1.00  0.00     0.029 A 
ATOM     48  C   UNL A   1      38.212  31.497  31.034  1.00  0.00     0.049 A 
ATOM     49  H   UNL A   1      39.691  30.805  32.328  1.00  0.00     0.167 HD
ATOM     50  C   UNL A   1      42.803  29.276  34.969  1.00  0.00     0.037 A 
ATOM     51  C   UNL A   1      37.609  32.545  31.632  1.00  0.00     0.037 A 
ATOM     52  C   UNL A   1      42.276  30.431  35.648  1.00  0.00     0.049 A 
ATOM     53  C   UNL A   1      38.097  33.013  32.976  1.00  0.00     0.074 A 
ATOM     54  C   UNL A   1      42.671  30.974  36.860  1.00  0.00     0.029 A 
ATOM     55  N   UNL A   1      41.238  31.224  35.180  1.00  0.00    -0.354 N 
ATOM     56  N   UNL A   1      39.063  32.524  33.718  1.00  0.00    -0.248 NA
ATOM     57  C   UNL A   1      37.424  34.181  33.559  1.00  0.00     0.031 C 
ATOM     58  C   UNL A   1      41.848  32.070  37.142  1.00  0.00     0.029 A 
ATOM     59  C   UNL A   1      40.968  32.239  36.084  1.00  0.00     0.049 A 
ATOM     60  H   UNL A   1      40.762  31.086  34.329  1.00  0.00     0.167 HD
ATOM     61  C   UNL A   1      39.129  33.341  34.841  1.00  0.00     0.074 A 
ATOM     62  C   UNL A   1      38.114  34.361  34.677  1.00  0.00     0.031 C 
ATOM     63  C   UNL A   1      39.959  33.253  35.911  1.00  0.00     0.037 A 
BRANCH  50  64
ATOM     64  C   UNL A   1      43.891  28.487  35.649  1.00  0.00     0.058 A 
ATOM     65  C   UNL A   1      45.250  28.759  35.422  1.00  0.00     0.135 A 
ATOM     66  C   UNL A   1      43.572  27.468  36.562  1.00  0.00     0.135 A 
ATOM     67  F   UNL A   1      45.611  29.716  34.553  1.00  0.00    -0.206 F 
ATOM     68  C   UNL A   1      46.254  28.024  36.045  1.00  0.00     0.059 A 
ATOM     69  C   UNL A   1      44.562  26.739  37.219  1.00  0.00     0.059 A 
ATOM     70  F   UNL A   1      42.290  27.169  36.823  1.00  0.00    -0.206 F 
ATOM     71  C   UNL A   1      45.900  27.012  36.939  1.00  0.00     0.060 A 
BRANCH  71  72
ATOM     72  S   UNL A   1      47.211  26.059  37.733  1.00  0.00     0.124 S 
ATOM     73  O   UNL A   1      46.679  25.906  39.086  1.00  0.00    -0.237 OA
ATOM     74  O   UNL A   1      47.245  24.839  36.929  1.00  0.00    -0.237 OA
ATOM     75  O   UNL A   1      48.379  26.919  37.612  1.00  0.00    -0.744 OA
ENDBRANCH  71  72
ENDBRANCH  50  64
BRANCH  51  76
ATOM     76  C   UNL A   1      36.501  33.251  30.937  1.00  0.00     0.058 A 
ATOM     77  C   UNL A   1      35.174  33.116  31.371  1.00  0.00     0.135 A 
ATOM     78  C   UNL A   1      36.748  34.097  29.844  1.00  0.00     0.135 A 
ATOM     79  F   UNL A   1      34.886  32.312  32.406  1.00  0.00    -0.206 F 
ATOM     80  C   UNL A   1      34.130  33.787  30.743  1.00  0.00     0.059 A 
ATOM     81  C   UNL A   1      35.724  34.797  29.216  1.00  0.00     0.059 A 
ATOM     82  F   UNL A   1      38.003  34.272  29.401  1.00  0.00    -0.206 F 
ATOM     83  C   UNL A   1      34.416  34.631  29.669  1.00  0.00     0.060 A 
BRANCH  83  84
ATOM     84  S   UNL A   1      33.064  35.555  28.906  1.00  0.00     0.124 S 
ATOM     85  O   UNL A   1      33.791  36.568  28.151  1.00  0.00    -0.237 OA
ATOM     86  O   UNL A   1      32.397  34.525  28.116  1.00  0.00    -0.237 OA
ATOM     87  O   UNL A   1      32.304  36.044  30.053  1.00  0.00    -0.744 OA
ENDBRANCH  83  84
ENDBRANCH  51  76
BRANCH  63  88
ATOM     88  C   UNL A   1      39.829  34.307  36.976  1.00  0.00     0.058 A 
ATOM     89  C   UNL A   1      39.053  34.101  38.128  1.00  0.00     0.135 A 
ATOM     90  C   UNL A   1      40.524  35.522  36.863  1.00  0.00     0.135 A 
ATOM     91  F   UNL A   1      38.364  32.960  38.283  1.00  0.00    -0.206 F 
ATOM     92  C   UNL A   1      38.950  35.074  39.118  1.00  0.00     0.059 A 
ATOM     93  C   UNL A   1      40.456  36.497  37.853  1.00  0.00     0.059 A 
ATOM     94  F   UNL A   1      41.289  35.765  35.787  1.00  0.00    -0.206 F 
ATOM     95  C   UNL A   1      39.655  36.270  38.971  1.00  0.00     0.060 A 
BRANCH  95  96
ATOM     96  S   UNL A   1      39.533  37.514  40.274  1.00  0.00     0.124 S 
ATOM     97  O   UNL A   1      39.600  36.689  41.475  1.00  0.00    -0.237 OA
ATOM     98  O   UNL A   1      40.699  38.354  40.016  1.00  0.00    -0.237 OA
ATOM     99  O   UNL A   1      38.243  38.149  40.018  1.00  0.00    -0.744 OA
ENDBRANCH  95  96
ENDBRANCH  63  88
ENDBRANCH  37  38
ENDBRANCH  29  32
ENDBRANCH  27  28
ENDBRANCH   1  27
TORSDOF 17
ENDMDL
MODEL 3
REMARK VINA RESULT:     -11.7      5.103      6.716
REMARK SMILES C[NH+]1CC[NH+](CC[C@H]2CCC[C@@]2([NH3+])C(=O)NCCCNC(=O)c2ccc(-c3c4nc(c(-c5c(F)cc(S(=O)(=O)[O-])cc5F)c5ccc([nH]5)c(-c5c(F)cc(S(=O)(=O)[O-])cc5F)c5nc(c(-c6c(F)cc(S(=O)(=O)[O-])cc6F)c6ccc3[nH]6)C=C5)C=C4)cc2)CC1
REMARK SMILES IDX 18 1 17 2 16 3 14 4 15 5 12 7 8 8 9 9 10 10 11 11 7 12 6 13
REMARK SMILES IDX 5 14 1 15 2 16 3 17 90 18 4 20 89 21 13 23 19 27 20 28 21 29
REMARK SMILES IDX 22 31 23 32 24 33 88 34 25 35 87 36 26 37 27 38 28 39 81 40
REMARK SMILES IDX 29 41 86 42 80 43 82 44 30 45 85 46 79 47 78 48 31 50 65 51
REMARK SMILES IDX 44 52 64 53 45 54 48 55 63 56 83 57 46 58 47 59 62 61 84 62
REMARK SMILES IDX 49 63 32 64 33 65 42 66 34 67 35 68 41 69 43 70 36 71 37 72
REMARK SMILES IDX 38 73 39 74 40 75 66 76 67 77 76 78 68 79 69 80 75 81 77 82
REMARK SMILES IDX 70 83 71 84 72 85 73 86 74 87 50 88 51 89 60 90 52 91 53 92
REMARK SMILES IDX 59 93 61 94 54 95 55 96 56 97 57 98 58 99
REMARK H PARENT 16 6 2 19 5 22 13 24 13 25 13 26 20 30 82 49 48 60
REMARK Flexibility Score: inf
ROOT
ATOM      1  C   UNL A   1      33.560  27.447  26.223  1.00  0.00     0.042 C 
ENDROOT
BRANCH   1   2
ATOM      2  C   UNL A   1      33.840  26.087  25.558  1.00  0.00     0.118 C 
BRANCH   2   3
ATOM      3  N   UNL A   1      33.320  24.927  26.268  1.00  0.00    -0.351 N 
ATOM      4  C   UNL A   1      33.715  23.636  26.426  1.00  0.00     0.281 C 
ATOM      5  O   UNL A   1      32.983  22.973  27.180  1.00  0.00    -0.268 OA
ATOM      6  H   UNL A   1      32.484  25.124  26.748  1.00  0.00     0.163 HD
BRANCH   4   7
ATOM      7  C   UNL A   1      34.944  22.952  25.722  1.00  0.00     0.177 C 
ATOM      8  C   UNL A   1      34.757  22.276  24.318  1.00  0.00     0.066 C 
ATOM      9  C   UNL A   1      36.024  22.679  23.518  1.00  0.00     0.011 C 
ATOM     10  C   UNL A   1      37.025  23.215  24.534  1.00  0.00     0.008 C 
ATOM     11  C   UNL A   1      36.144  23.896  25.570  1.00  0.00     0.079 C 
BRANCH   8  12
ATOM     12  C   UNL A   1      33.479  22.622  23.547  1.00  0.00     0.072 C 
BRANCH  12  13
ATOM     13  C   UNL A   1      33.471  23.906  22.705  1.00  0.00     0.263 C 
BRANCH  13  14
ATOM     14  N   UNL A   1      32.198  24.420  22.206  1.00  0.00    -0.326 N 
ATOM     15  C   UNL A   1      30.424  27.915  24.037  1.00  0.00     0.333 C 
ATOM     16  N   UNL A   1      30.615  26.764  23.153  1.00  0.00    -0.328 N 
ATOM     17  C   UNL A   1      30.714  25.523  23.938  1.00  0.00     0.324 C 
ATOM     18  C   UNL A   1      31.821  26.943  22.324  1.00  0.00     0.324 C 
ATOM     19  H   UNL A   1      29.806  26.695  22.535  1.00  0.00     0.348 HD
ATOM     20  C   UNL A   1      31.034  24.286  23.078  1.00  0.00     0.324 C 
ATOM     21  C   UNL A   1      32.196  25.696  21.480  1.00  0.00     0.324 C 
ATOM     22  H   UNL A   1      32.078  23.719  21.474  1.00  0.00     0.348 HD
ENDBRANCH  13  14
ENDBRANCH  12  13
ENDBRANCH   8  12
BRANCH   7  23
ATOM     23  N   UNL A   1      35.440  21.885  26.659  1.00  0.00    -0.345 N 
ATOM     24  H   UNL A   1      36.444  21.996  26.799  1.00  0.00     0.345 HD
ATOM     25  H   UNL A   1      35.252  20.967  26.257  1.00  0.00     0.345 HD
ATOM     26  H   UNL A   1      34.960  21.969  27.555  1.00  0.00     0.345 HD
ENDBRANCH   7  23
ENDBRANCH   4   7
ENDBRANCH   2   3
ENDBRANCH   1   2
BRANCH   1  27
ATOM     27  C   UNL A   1      34.081  28.687  25.506  1.00  0.00     0.118 C 
BRANCH  27  28
ATOM     28  N   UNL A   1      33.696  29.909  26.181  1.00  0.00    -0.352 N 
ATOM     29  C   UNL A   1      34.218  30.506  27.304  1.00  0.00     0.251 C 
ATOM     30  H   UNL A   1      32.942  30.388  25.771  1.00  0.00     0.163 HD
ATOM     31  O   UNL A   1      33.556  31.383  27.855  1.00  0.00    -0.269 OA
BRANCH  29  32
ATOM     32  C   UNL A   1      35.534  30.115  27.877  1.00  0.00     0.039 A 
ATOM     33  C   UNL A   1      35.548  29.518  29.143  1.00  0.00     0.014 A 
ATOM     34  C   UNL A   1      36.750  30.426  27.260  1.00  0.00     0.014 A 
ATOM     35  C   UNL A   1      36.763  29.217  29.771  1.00  0.00     0.010 A 
ATOM     36  C   UNL A   1      37.964  30.061  27.859  1.00  0.00     0.010 A 
ATOM     37  C   UNL A   1      37.986  29.473  29.132  1.00  0.00    -0.014 A 
BRANCH  37  38
ATOM     38  C   UNL A   1      39.276  29.150  29.809  1.00  0.00     0.031 A 
ATOM     39  C   UNL A   1      39.707  29.893  31.050  1.00  0.00     0.074 A 
ATOM     40  C   UNL A   1      40.073  28.185  29.306  1.00  0.00     0.049 A 
ATOM     41  N   UNL A   1      40.776  29.722  31.787  1.00  0.00    -0.248 NA
ATOM     42  C   UNL A   1      38.833  30.982  31.514  1.00  0.00     0.031 C 
ATOM     43  C   UNL A   1      39.804  27.422  28.086  1.00  0.00     0.029 A 
ATOM     44  N   UNL A   1      41.268  27.679  29.757  1.00  0.00    -0.354 N 
ATOM     45  C   UNL A   1      40.709  30.683  32.791  1.00  0.00     0.074 A 
ATOM     46  C   UNL A   1      39.519  31.466  32.539  1.00  0.00     0.031 C 
ATOM     47  C   UNL A   1      40.785  26.523  27.905  1.00  0.00     0.029 A 
ATOM     48  C   UNL A   1      41.767  26.663  28.977  1.00  0.00     0.049 A 
ATOM     49  H   UNL A   1      41.723  28.012  30.564  1.00  0.00     0.167 HD
ATOM     50  C   UNL A   1      41.545  30.881  33.840  1.00  0.00     0.037 A 
ATOM     51  C   UNL A   1      42.885  25.920  29.108  1.00  0.00     0.037 A 
ATOM     52  C   UNL A   1      42.717  30.087  34.107  1.00  0.00     0.049 A 
ATOM     53  C   UNL A   1      43.789  26.144  30.290  1.00  0.00     0.074 A 
ATOM     54  C   UNL A   1      43.593  30.175  35.176  1.00  0.00     0.029 A 
ATOM     55  N   UNL A   1      43.179  29.057  33.300  1.00  0.00    -0.354 N 
ATOM     56  N   UNL A   1      43.670  27.013  31.265  1.00  0.00    -0.248 NA
ATOM     57  C   UNL A   1      44.972  25.279  30.396  1.00  0.00     0.031 C 
ATOM     58  C   UNL A   1      44.606  29.226  34.995  1.00  0.00     0.029 A 
ATOM     59  C   UNL A   1      44.336  28.515  33.836  1.00  0.00     0.049 A 
ATOM     60  H   UNL A   1      42.749  28.756  32.468  1.00  0.00     0.167 HD
ATOM     61  C   UNL A   1      44.747  26.782  32.113  1.00  0.00     0.074 A 
ATOM     62  C   UNL A   1      45.501  25.685  31.542  1.00  0.00     0.031 C 
ATOM     63  C   UNL A   1      45.078  27.420  33.264  1.00  0.00     0.037 A 
BRANCH  50  64
ATOM     64  C   UNL A   1      41.218  32.005  34.788  1.00  0.00     0.058 A 
ATOM     65  C   UNL A   1      40.366  31.816  35.889  1.00  0.00     0.135 A 
ATOM     66  C   UNL A   1      41.787  33.277  34.614  1.00  0.00     0.135 A 
ATOM     67  F   UNL A   1      39.788  30.623  36.098  1.00  0.00    -0.206 F 
ATOM     68  C   UNL A   1      40.059  32.857  36.759  1.00  0.00     0.059 A 
ATOM     69  C   UNL A   1      41.515  34.326  35.490  1.00  0.00     0.059 A 
ATOM     70  F   UNL A   1      42.614  33.514  33.583  1.00  0.00    -0.206 F 
ATOM     71  C   UNL A   1      40.635  34.111  36.549  1.00  0.00     0.060 A 
BRANCH  71  72
ATOM     72  S   UNL A   1      40.221  35.456  37.679  1.00  0.00     0.124 S 
ATOM     73  O   UNL A   1      39.899  36.531  36.744  1.00  0.00    -0.237 OA
ATOM     74  O   UNL A   1      39.087  34.906  38.420  1.00  0.00    -0.237 OA
ATOM     75  O   UNL A   1      41.440  35.640  38.452  1.00  0.00    -0.744 OA
ENDBRANCH  71  72
ENDBRANCH  50  64
BRANCH  51  76
ATOM     76  C   UNL A   1      43.187  24.862  28.109  1.00  0.00     0.058 A 
ATOM     77  C   UNL A   1      43.877  25.162  26.925  1.00  0.00     0.135 A 
ATOM     78  C   UNL A   1      42.817  23.525  28.329  1.00  0.00     0.135 A 
ATOM     79  F   UNL A   1      44.243  26.426  26.665  1.00  0.00    -0.206 F 
ATOM     80  C   UNL A   1      44.184  24.178  25.991  1.00  0.00     0.059 A 
ATOM     81  C   UNL A   1      43.135  22.520  27.422  1.00  0.00     0.059 A 
ATOM     82  F   UNL A   1      42.170  23.185  29.455  1.00  0.00    -0.206 F 
ATOM     83  C   UNL A   1      43.814  22.858  26.252  1.00  0.00     0.060 A 
BRANCH  83  84
ATOM     84  S   UNL A   1      44.281  21.575  25.069  1.00  0.00     0.124 S 
ATOM     85  O   UNL A   1      44.162  22.288  23.801  1.00  0.00    -0.237 OA
ATOM     86  O   UNL A   1      45.639  21.247  25.493  1.00  0.00    -0.237 OA
ATOM     87  O   UNL A   1      43.291  20.529  25.302  1.00  0.00    -0.744 OA
ENDBRANCH  83  84
ENDBRANCH  51  76
BRANCH  63  88
ATOM     88  C   UNL A   1      46.293  26.930  34.002  1.00  0.00     0.058 A 
ATOM     89  C   UNL A   1      47.569  27.469  33.768  1.00  0.00     0.135 A 
ATOM     90  C   UNL A   1      46.173  25.937  34.988  1.00  0.00     0.135 A 
ATOM     91  F   UNL A   1      47.740  28.416  32.833  1.00  0.00    -0.206 F 
ATOM     92  C   UNL A   1      48.686  27.022  34.466  1.00  0.00     0.059 A 
ATOM     93  C   UNL A   1      47.273  25.494  35.716  1.00  0.00     0.059 A 
ATOM     94  F   UNL A   1      44.976  25.396  35.260  1.00  0.00    -0.206 F 
ATOM     95  C   UNL A   1      48.528  26.033  35.439  1.00  0.00     0.060 A 
BRANCH  95  96
ATOM     96  S   UNL A   1      49.981  25.479  36.357  1.00  0.00     0.124 S 
ATOM     97  O   UNL A   1      51.037  25.648  35.364  1.00  0.00    -0.237 OA
ATOM     98  O   UNL A   1      50.015  26.406  37.483  1.00  0.00    -0.237 OA
ATOM     99  O   UNL A   1      49.658  24.097  36.702  1.00  0.00    -0.744 OA
ENDBRANCH  95  96
ENDBRANCH  63  88
ENDBRANCH  37  38
ENDBRANCH  29  32
ENDBRANCH  27  28
ENDBRANCH   1  27
TORSDOF 17
ENDMDL
