MODEL 1
REMARK VINA RESULT:     -12.3      0.000      0.000
REMARK SMILES CCSc1cccc(-c2ccc([C@@H](C)C(=O)NCCCNC(=O)c3ccc(-c4c5nc(c(-c6c(F)cc(S(=O)(=O)[O-])cc6F)c6ccc([nH]6)c(-c6c(F)cc(S(=O)(=O)[O-])cc6F)c6nc(c(-c7c(F)cc(S(=O)(=O)[O-])cc7F)c7ccc4[nH]7)C=C6)C=C5)cc3)cc2)c1
REMARK SMILES IDX 18 1 17 2 15 3 16 4 13 6 14 7 12 8 9 9 10 10 91 11 11 12
REMARK SMILES IDX 90 13 8 14 4 15 5 16 92 17 6 18 7 19 3 20 2 21 1 22 19 23
REMARK SMILES IDX 20 24 21 25 22 26 23 28 24 29 25 30 89 31 26 32 88 33 27 34
REMARK SMILES IDX 28 35 29 36 82 37 30 38 87 39 81 40 83 41 31 42 86 43 80 44
REMARK SMILES IDX 79 45 32 47 66 48 45 49 65 50 46 51 49 52 64 53 84 54 47 55
REMARK SMILES IDX 48 56 63 58 85 59 50 60 33 61 34 62 43 63 35 64 36 65 42 66
REMARK SMILES IDX 44 67 37 68 38 69 39 70 40 71 41 72 67 73 68 74 77 75 69 76
REMARK SMILES IDX 70 77 76 78 78 79 71 80 72 81 73 82 74 83 75 84 51 85 52 86
REMARK SMILES IDX 61 87 53 88 54 89 60 90 62 91 55 92 56 93 57 94 58 95 59 96
REMARK H PARENT 17 5 21 27 83 46 49 57
REMARK Flexibility Score: inf
ROOT
ATOM      1  C   UNL A   1      33.025  29.954  26.456  1.00  0.00     0.117 C 
ENDROOT
BRANCH   1   2
ATOM      2  N   UNL A   1      32.000  29.275  25.689  1.00  0.00    -0.356 N 
ATOM      3  C   UNL A   1      32.063  28.488  24.580  1.00  0.00     0.227 C 
ATOM      4  O   UNL A   1      30.978  28.091  24.133  1.00  0.00    -0.274 OA
ATOM      5  H   UNL A   1      31.088  29.406  26.035  1.00  0.00     0.163 HD
BRANCH   3   6
ATOM      6  C   UNL A   1      33.371  28.062  23.895  1.00  0.00     0.105 C 
ATOM      7  C   UNL A   1      33.523  28.571  22.463  1.00  0.00     0.023 C 
BRANCH   6   8
ATOM      8  C   UNL A   1      33.730  26.601  24.117  1.00  0.00    -0.036 A 
ATOM      9  C   UNL A   1      34.586  23.886  24.426  1.00  0.00    -0.018 A 
ATOM     10  C   UNL A   1      34.549  24.779  25.508  1.00  0.00     0.009 A 
ATOM     11  C   UNL A   1      34.145  24.378  23.189  1.00  0.00     0.009 A 
ATOM     12  C   UNL A   1      34.089  26.093  25.366  1.00  0.00     0.005 A 
ATOM     13  C   UNL A   1      33.745  25.714  23.031  1.00  0.00     0.005 A 
BRANCH   9  14
ATOM     14  C   UNL A   1      35.067  22.494  24.601  1.00  0.00    -0.017 A 
ATOM     15  C   UNL A   1      34.638  20.079  24.789  1.00  0.00     0.008 A 
ATOM     16  C   UNL A   1      36.006  19.844  24.924  1.00  0.00     0.015 A 
ATOM     17  C   UNL A   1      34.182  21.399  24.631  1.00  0.00     0.023 A 
ATOM     18  C   UNL A   1      36.905  20.906  24.885  1.00  0.00     0.002 A 
ATOM     19  C   UNL A   1      36.439  22.213  24.733  1.00  0.00     0.009 A 
BRANCH  15  20
ATOM     20  S   UNL A   1      33.428  18.767  24.878  1.00  0.00    -0.126 SA
BRANCH  20  21
ATOM     21  C   UNL A   1      34.407  17.305  24.374  1.00  0.00     0.071 C 
ATOM     22  C   UNL A   1      34.031  16.822  22.985  1.00  0.00     0.016 C 
ENDBRANCH  20  21
ENDBRANCH  15  20
ENDBRANCH   9  14
ENDBRANCH   6   8
ENDBRANCH   3   6
ENDBRANCH   1   2
BRANCH   1  23
ATOM     23  C   UNL A   1      33.780  29.006  27.381  1.00  0.00     0.042 C 
BRANCH  23  24
ATOM     24  C   UNL A   1      35.201  29.454  27.687  1.00  0.00     0.118 C 
BRANCH  24  25
ATOM     25  N   UNL A   1      35.269  30.285  28.884  1.00  0.00    -0.352 N 
ATOM     26  C   UNL A   1      36.301  30.476  29.772  1.00  0.00     0.251 C 
ATOM     27  H   UNL A   1      34.447  30.785  29.089  1.00  0.00     0.163 HD
ATOM     28  O   UNL A   1      36.077  31.038  30.839  1.00  0.00    -0.269 OA
BRANCH  26  29
ATOM     29  C   UNL A   1      37.667  30.000  29.454  1.00  0.00     0.039 A 
ATOM     30  C   UNL A   1      38.091  29.991  28.122  1.00  0.00     0.014 A 
ATOM     31  C   UNL A   1      38.518  29.533  30.458  1.00  0.00     0.014 A 
ATOM     32  C   UNL A   1      39.387  29.571  27.808  1.00  0.00     0.010 A 
ATOM     33  C   UNL A   1      39.835  29.207  30.156  1.00  0.00     0.010 A 
ATOM     34  C   UNL A   1      40.281  29.206  28.827  1.00  0.00    -0.014 A 
BRANCH  34  35
ATOM     35  C   UNL A   1      41.676  28.785  28.535  1.00  0.00     0.031 A 
ATOM     36  C   UNL A   1      42.769  29.821  28.478  1.00  0.00     0.074 A 
ATOM     37  C   UNL A   1      41.946  27.496  28.247  1.00  0.00     0.049 A 
ATOM     38  N   UNL A   1      44.014  29.690  28.101  1.00  0.00    -0.248 NA
ATOM     39  C   UNL A   1      42.402  31.194  28.865  1.00  0.00     0.031 C 
ATOM     40  C   UNL A   1      40.965  26.409  28.228  1.00  0.00     0.029 A 
ATOM     41  N   UNL A   1      43.123  26.886  27.889  1.00  0.00    -0.354 N 
ATOM     42  C   UNL A   1      44.572  30.959  28.195  1.00  0.00     0.074 A 
ATOM     43  C   UNL A   1      43.516  31.859  28.601  1.00  0.00     0.031 C 
ATOM     44  C   UNL A   1      41.580  25.266  27.883  1.00  0.00     0.029 A 
ATOM     45  C   UNL A   1      42.988  25.545  27.610  1.00  0.00     0.049 A 
ATOM     46  H   UNL A   1      43.982  27.362  27.837  1.00  0.00     0.167 HD
ATOM     47  C   UNL A   1      45.857  31.338  27.991  1.00  0.00     0.037 A 
ATOM     48  C   UNL A   1      43.889  24.648  27.163  1.00  0.00     0.037 A 
ATOM     49  C   UNL A   1      46.908  30.432  27.610  1.00  0.00     0.049 A 
ATOM     50  C   UNL A   1      45.309  25.094  26.930  1.00  0.00     0.074 A 
ATOM     51  C   UNL A   1      48.248  30.706  27.404  1.00  0.00     0.029 A 
ATOM     52  N   UNL A   1      46.738  29.073  27.383  1.00  0.00    -0.354 N 
ATOM     53  N   UNL A   1      45.829  26.291  27.063  1.00  0.00    -0.248 NA
ATOM     54  C   UNL A   1      46.268  24.069  26.497  1.00  0.00     0.031 C 
ATOM     55  C   UNL A   1      48.882  29.523  27.015  1.00  0.00     0.029 A 
ATOM     56  C   UNL A   1      47.948  28.499  27.032  1.00  0.00     0.049 A 
ATOM     57  H   UNL A   1      45.884  28.590  27.459  1.00  0.00     0.167 HD
ATOM     58  C   UNL A   1      47.180  26.155  26.765  1.00  0.00     0.074 A 
ATOM     59  C   UNL A   1      47.399  24.758  26.452  1.00  0.00     0.031 C 
ATOM     60  C   UNL A   1      48.153  27.100  26.751  1.00  0.00     0.037 A 
BRANCH  47  61
ATOM     61  C   UNL A   1      46.202  32.787  28.198  1.00  0.00     0.058 A 
ATOM     62  C   UNL A   1      46.077  33.726  27.161  1.00  0.00     0.135 A 
ATOM     63  C   UNL A   1      46.614  33.256  29.456  1.00  0.00     0.135 A 
ATOM     64  F   UNL A   1      45.704  33.332  25.933  1.00  0.00    -0.206 F 
ATOM     65  C   UNL A   1      46.371  35.071  27.356  1.00  0.00     0.059 A 
ATOM     66  C   UNL A   1      46.883  34.603  29.683  1.00  0.00     0.059 A 
ATOM     67  F   UNL A   1      46.753  32.402  30.484  1.00  0.00    -0.206 F 
ATOM     68  C   UNL A   1      46.769  35.501  28.623  1.00  0.00     0.060 A 
BRANCH  68  69
ATOM     69  S   UNL A   1      47.121  37.255  28.862  1.00  0.00     0.124 S 
ATOM     70  O   UNL A   1      45.844  37.741  29.375  1.00  0.00    -0.237 OA
ATOM     71  O   UNL A   1      48.219  37.222  29.824  1.00  0.00    -0.237 OA
ATOM     72  O   UNL A   1      47.477  37.717  27.524  1.00  0.00    -0.744 OA
ENDBRANCH  68  69
ENDBRANCH  47  61
BRANCH  48  73
ATOM     73  C   UNL A   1      43.478  23.242  26.902  1.00  0.00     0.058 A 
ATOM     74  C   UNL A   1      43.176  22.364  27.954  1.00  0.00     0.135 A 
ATOM     75  C   UNL A   1      43.389  22.744  25.591  1.00  0.00     0.135 A 
ATOM     76  F   UNL A   1      43.251  22.789  29.223  1.00  0.00    -0.206 F 
ATOM     77  C   UNL A   1      42.833  21.036  27.720  1.00  0.00     0.059 A 
ATOM     78  C   UNL A   1      43.016  21.430  25.331  1.00  0.00     0.059 A 
ATOM     79  F   UNL A   1      43.648  23.545  24.546  1.00  0.00    -0.206 F 
ATOM     80  C   UNL A   1      42.757  20.577  26.403  1.00  0.00     0.060 A 
BRANCH  80  81
ATOM     81  S   UNL A   1      42.291  18.859  26.107  1.00  0.00     0.124 S 
ATOM     82  O   UNL A   1      42.492  18.269  27.425  1.00  0.00    -0.237 OA
ATOM     83  O   UNL A   1      40.906  18.988  25.667  1.00  0.00    -0.237 OA
ATOM     84  O   UNL A   1      43.231  18.433  25.073  1.00  0.00    -0.744 OA
ENDBRANCH  80  81
ENDBRANCH  48  73
BRANCH  60  85
ATOM     85  C   UNL A   1      49.556  26.655  26.446  1.00  0.00     0.058 A 
ATOM     86  C   UNL A   1      50.354  26.010  27.404  1.00  0.00     0.135 A 
ATOM     87  C   UNL A   1      50.079  26.808  25.152  1.00  0.00     0.135 A 
ATOM     88  F   UNL A   1      49.905  25.844  28.658  1.00  0.00    -0.206 F 
ATOM     89  C   UNL A   1      51.628  25.546  27.091  1.00  0.00     0.059 A 
ATOM     90  C   UNL A   1      51.337  26.325  24.809  1.00  0.00     0.059 A 
ATOM     91  F   UNL A   1      49.352  27.411  24.197  1.00  0.00    -0.206 F 
ATOM     92  C   UNL A   1      52.107  25.702  25.789  1.00  0.00     0.060 A 
BRANCH  92  93
ATOM     93  S   UNL A   1      53.739  25.044  25.385  1.00  0.00     0.124 S 
ATOM     94  O   UNL A   1      53.492  23.606  25.415  1.00  0.00    -0.237 OA
ATOM     95  O   UNL A   1      53.988  25.616  24.066  1.00  0.00    -0.237 OA
ATOM     96  O   UNL A   1      54.588  25.558  26.455  1.00  0.00    -0.744 OA
ENDBRANCH  92  93
ENDBRANCH  60  85
ENDBRANCH  34  35
ENDBRANCH  26  29
ENDBRANCH  24  25
ENDBRANCH  23  24
ENDBRANCH   1  23
TORSDOF 17
ENDMDL
MODEL 2
REMARK VINA RESULT:     -11.8      5.105      6.566
REMARK SMILES CCSc1cccc(-c2ccc([C@@H](C)C(=O)NCCCNC(=O)c3ccc(-c4c5nc(c(-c6c(F)cc(S(=O)(=O)[O-])cc6F)c6ccc([nH]6)c(-c6c(F)cc(S(=O)(=O)[O-])cc6F)c6nc(c(-c7c(F)cc(S(=O)(=O)[O-])cc7F)c7ccc4[nH]7)C=C6)C=C5)cc3)cc2)c1
REMARK SMILES IDX 18 1 17 2 15 3 16 4 13 6 14 7 12 8 9 9 10 10 91 11 11 12
REMARK SMILES IDX 90 13 8 14 4 15 5 16 92 17 6 18 7 19 3 20 2 21 1 22 19 23
REMARK SMILES IDX 20 24 21 25 22 26 23 28 24 29 25 30 89 31 26 32 88 33 27 34
REMARK SMILES IDX 28 35 29 36 82 37 30 38 87 39 81 40 83 41 31 42 86 43 80 44
REMARK SMILES IDX 79 45 32 47 66 48 45 49 65 50 46 51 49 52 64 53 84 54 47 55
REMARK SMILES IDX 48 56 63 58 85 59 50 60 33 61 34 62 43 63 35 64 36 65 42 66
REMARK SMILES IDX 44 67 37 68 38 69 39 70 40 71 41 72 67 73 68 74 77 75 69 76
REMARK SMILES IDX 70 77 76 78 78 79 71 80 72 81 73 82 74 83 75 84 51 85 52 86
REMARK SMILES IDX 61 87 53 88 54 89 60 90 62 91 55 92 56 93 57 94 58 95 59 96
REMARK H PARENT 17 5 21 27 83 46 49 57
REMARK Flexibility Score: inf
ROOT
ATOM      1  C   UNL A   1      31.978  27.593  26.025  1.00  0.00     0.117 C 
ENDROOT
BRANCH   1   2
ATOM      2  N   UNL A   1      31.230  26.462  26.534  1.00  0.00    -0.356 N 
ATOM      3  C   UNL A   1      31.076  25.190  26.075  1.00  0.00     0.227 C 
ATOM      4  O   UNL A   1      30.316  24.463  26.729  1.00  0.00    -0.274 OA
ATOM      5  H   UNL A   1      30.742  26.647  27.369  1.00  0.00     0.163 HD
BRANCH   3   6
ATOM      6  C   UNL A   1      31.797  24.623  24.841  1.00  0.00     0.105 C 
ATOM      7  C   UNL A   1      30.950  23.664  24.007  1.00  0.00     0.023 C 
BRANCH   6   8
ATOM      8  C   UNL A   1      33.223  24.172  25.118  1.00  0.00    -0.036 A 
ATOM      9  C   UNL A   1      35.953  23.526  25.690  1.00  0.00    -0.018 A 
ATOM     10  C   UNL A   1      34.902  23.101  26.517  1.00  0.00     0.009 A 
ATOM     11  C   UNL A   1      35.598  24.252  24.544  1.00  0.00     0.009 A 
ATOM     12  C   UNL A   1      33.565  23.379  26.214  1.00  0.00     0.005 A 
ATOM     13  C   UNL A   1      34.262  24.588  24.273  1.00  0.00     0.005 A 
BRANCH   9  14
ATOM     14  C   UNL A   1      37.363  23.210  26.024  1.00  0.00    -0.017 A 
ATOM     15  C   UNL A   1      39.254  21.639  26.099  1.00  0.00     0.008 A 
ATOM     16  C   UNL A   1      40.060  22.632  26.658  1.00  0.00     0.015 A 
ATOM     17  C   UNL A   1      37.916  21.936  25.791  1.00  0.00     0.023 A 
ATOM     18  C   UNL A   1      39.544  23.904  26.887  1.00  0.00     0.002 A 
ATOM     19  C   UNL A   1      38.211  24.185  26.580  1.00  0.00     0.009 A 
BRANCH  15  20
ATOM     20  S   UNL A   1      39.841  19.974  25.824  1.00  0.00    -0.126 SA
BRANCH  20  21
ATOM     21  C   UNL A   1      41.276  19.878  26.956  1.00  0.00     0.071 C 
ATOM     22  C   UNL A   1      42.307  18.870  26.481  1.00  0.00     0.016 C 
ENDBRANCH  20  21
ENDBRANCH  15  20
ENDBRANCH   9  14
ENDBRANCH   6   8
ENDBRANCH   3   6
ENDBRANCH   1   2
BRANCH   1  23
ATOM     23  C   UNL A   1      33.420  27.606  26.523  1.00  0.00     0.042 C 
BRANCH  23  24
ATOM     24  C   UNL A   1      34.270  28.705  25.905  1.00  0.00     0.118 C 
BRANCH  24  25
ATOM     25  N   UNL A   1      33.893  30.028  26.389  1.00  0.00    -0.352 N 
ATOM     26  C   UNL A   1      34.403  30.769  27.429  1.00  0.00     0.251 C 
ATOM     27  H   UNL A   1      33.157  30.457  25.895  1.00  0.00     0.163 HD
ATOM     28  O   UNL A   1      33.792  31.761  27.814  1.00  0.00    -0.269 OA
BRANCH  26  29
ATOM     29  C   UNL A   1      35.668  30.372  28.088  1.00  0.00     0.039 A 
ATOM     30  C   UNL A   1      36.865  30.966  27.678  1.00  0.00     0.014 A 
ATOM     31  C   UNL A   1      35.683  29.393  29.084  1.00  0.00     0.014 A 
ATOM     32  C   UNL A   1      38.064  30.622  28.309  1.00  0.00     0.010 A 
ATOM     33  C   UNL A   1      36.859  29.122  29.774  1.00  0.00     0.010 A 
ATOM     34  C   UNL A   1      38.066  29.721  29.386  1.00  0.00    -0.014 A 
BRANCH  34  35
ATOM     35  C   UNL A   1      39.315  29.355  30.102  1.00  0.00     0.031 A 
ATOM     36  C   UNL A   1      39.701  30.102  31.352  1.00  0.00     0.074 A 
ATOM     37  C   UNL A   1      40.136  28.415  29.592  1.00  0.00     0.049 A 
ATOM     38  N   UNL A   1      40.810  30.041  32.043  1.00  0.00    -0.248 NA
ATOM     39  C   UNL A   1      38.721  31.069  31.876  1.00  0.00     0.031 C 
ATOM     40  C   UNL A   1      39.892  27.653  28.365  1.00  0.00     0.029 A 
ATOM     41  N   UNL A   1      41.354  27.957  30.028  1.00  0.00    -0.354 N 
ATOM     42  C   UNL A   1      40.665  30.966  33.071  1.00  0.00     0.074 A 
ATOM     43  C   UNL A   1      39.390  31.621  32.877  1.00  0.00     0.031 C 
ATOM     44  C   UNL A   1      40.924  26.821  28.150  1.00  0.00     0.029 A 
ATOM     45  C   UNL A   1      41.924  27.021  29.196  1.00  0.00     0.049 A 
ATOM     46  H   UNL A   1      41.781  28.269  30.858  1.00  0.00     0.167 HD
ATOM     47  C   UNL A   1      41.504  31.226  34.102  1.00  0.00     0.037 A 
ATOM     48  C   UNL A   1      43.124  26.411  29.255  1.00  0.00     0.037 A 
ATOM     49  C   UNL A   1      42.760  30.553  34.301  1.00  0.00     0.049 A 
ATOM     50  C   UNL A   1      44.047  26.725  30.403  1.00  0.00     0.074 A 
ATOM     51  C   UNL A   1      43.673  30.721  35.328  1.00  0.00     0.029 A 
ATOM     52  N   UNL A   1      43.278  29.579  33.461  1.00  0.00    -0.354 N 
ATOM     53  N   UNL A   1      43.876  27.574  31.389  1.00  0.00    -0.248 NA
ATOM     54  C   UNL A   1      45.321  25.994  30.455  1.00  0.00     0.031 C 
ATOM     55  C   UNL A   1      44.760  29.877  35.088  1.00  0.00     0.029 A 
ATOM     56  C   UNL A   1      44.501  29.143  33.941  1.00  0.00     0.049 A 
ATOM     57  H   UNL A   1      42.841  29.247  32.644  1.00  0.00     0.167 HD
ATOM     58  C   UNL A   1      45.002  27.453  32.196  1.00  0.00     0.074 A 
ATOM     59  C   UNL A   1      45.844  26.444  31.587  1.00  0.00     0.031 C 
ATOM     60  C   UNL A   1      45.313  28.116  33.337  1.00  0.00     0.037 A 
BRANCH  47  61
ATOM     61  C   UNL A   1      41.081  32.265  35.105  1.00  0.00     0.058 A 
ATOM     62  C   UNL A   1      40.208  31.952  36.160  1.00  0.00     0.135 A 
ATOM     63  C   UNL A   1      41.589  33.572  35.045  1.00  0.00     0.135 A 
ATOM     64  F   UNL A   1      39.678  30.723  36.257  1.00  0.00    -0.206 F 
ATOM     65  C   UNL A   1      39.836  32.903  37.103  1.00  0.00     0.059 A 
ATOM     66  C   UNL A   1      41.255  34.532  35.996  1.00  0.00     0.059 A 
ATOM     67  F   UNL A   1      42.427  33.928  34.057  1.00  0.00    -0.206 F 
ATOM     68  C   UNL A   1      40.369  34.190  37.016  1.00  0.00     0.060 A 
BRANCH  68  69
ATOM     69  S   UNL A   1      39.892  35.402  38.265  1.00  0.00     0.124 S 
ATOM     70  O   UNL A   1      38.722  34.762  38.860  1.00  0.00    -0.237 OA
ATOM     71  O   UNL A   1      41.080  35.461  39.110  1.00  0.00    -0.237 OA
ATOM     72  O   UNL A   1      39.619  36.606  37.486  1.00  0.00    -0.744 OA
ENDBRANCH  68  69
ENDBRANCH  47  61
BRANCH  48  73
ATOM     73  C   UNL A   1      43.526  25.446  28.195  1.00  0.00     0.058 A 
ATOM     74  C   UNL A   1      43.132  24.101  28.248  1.00  0.00     0.135 A 
ATOM     75  C   UNL A   1      44.322  25.850  27.110  1.00  0.00     0.135 A 
ATOM     76  F   UNL A   1      42.375  23.664  29.265  1.00  0.00    -0.206 F 
ATOM     77  C   UNL A   1      43.539  23.183  27.285  1.00  0.00     0.059 A 
ATOM     78  C   UNL A   1      44.714  24.959  26.118  1.00  0.00     0.059 A 
ATOM     79  F   UNL A   1      44.712  27.130  26.999  1.00  0.00    -0.206 F 
ATOM     80  C   UNL A   1      44.332  23.622  26.222  1.00  0.00     0.060 A 
BRANCH  80  81
ATOM     81  S   UNL A   1      44.838  22.431  24.964  1.00  0.00     0.124 S 
ATOM     82  O   UNL A   1      46.049  21.875  25.558  1.00  0.00    -0.237 OA
ATOM     83  O   UNL A   1      43.686  21.539  24.905  1.00  0.00    -0.237 OA
ATOM     84  O   UNL A   1      45.039  23.263  23.781  1.00  0.00    -0.744 OA
ENDBRANCH  80  81
ENDBRANCH  48  73
BRANCH  60  85
ATOM     85  C   UNL A   1      46.584  27.736  34.043  1.00  0.00     0.058 A 
ATOM     86  C   UNL A   1      46.627  26.701  34.989  1.00  0.00     0.135 A 
ATOM     87  C   UNL A   1      47.792  28.368  33.707  1.00  0.00     0.135 A 
ATOM     88  F   UNL A   1      45.499  26.069  35.352  1.00  0.00    -0.206 F 
ATOM     89  C   UNL A   1      47.822  26.316  35.589  1.00  0.00     0.059 A 
ATOM     90  C   UNL A   1      49.003  27.980  34.271  1.00  0.00     0.059 A 
ATOM     91  F   UNL A   1      47.807  29.358  32.800  1.00  0.00    -0.206 F 
ATOM     92  C   UNL A   1      49.006  26.957  35.218  1.00  0.00     0.060 A 
BRANCH  92  93
ATOM     93  S   UNL A   1      50.556  26.408  35.963  1.00  0.00     0.124 S 
ATOM     94  O   UNL A   1      51.230  27.679  36.209  1.00  0.00    -0.237 OA
ATOM     95  O   UNL A   1      50.095  25.695  37.149  1.00  0.00    -0.237 OA
ATOM     96  O   UNL A   1      51.153  25.571  34.928  1.00  0.00    -0.744 OA
ENDBRANCH  92  93
ENDBRANCH  60  85
ENDBRANCH  34  35
ENDBRANCH  26  29
ENDBRANCH  24  25
ENDBRANCH  23  24
ENDBRANCH   1  23
TORSDOF 17
ENDMDL
MODEL 3
REMARK VINA RESULT:     -11.8      0.994      8.307
REMARK SMILES CCSc1cccc(-c2ccc([C@@H](C)C(=O)NCCCNC(=O)c3ccc(-c4c5nc(c(-c6c(F)cc(S(=O)(=O)[O-])cc6F)c6ccc([nH]6)c(-c6c(F)cc(S(=O)(=O)[O-])cc6F)c6nc(c(-c7c(F)cc(S(=O)(=O)[O-])cc7F)c7ccc4[nH]7)C=C6)C=C5)cc3)cc2)c1
REMARK SMILES IDX 18 1 17 2 15 3 16 4 13 6 14 7 12 8 9 9 10 10 91 11 11 12
REMARK SMILES IDX 90 13 8 14 4 15 5 16 92 17 6 18 7 19 3 20 2 21 1 22 19 23
REMARK SMILES IDX 20 24 21 25 22 26 23 28 24 29 25 30 89 31 26 32 88 33 27 34
REMARK SMILES IDX 28 35 29 36 82 37 30 38 87 39 81 40 83 41 31 42 86 43 80 44
REMARK SMILES IDX 79 45 32 47 66 48 45 49 65 50 46 51 49 52 64 53 84 54 47 55
REMARK SMILES IDX 48 56 63 58 85 59 50 60 33 61 34 62 43 63 35 64 36 65 42 66
REMARK SMILES IDX 44 67 37 68 38 69 39 70 40 71 41 72 67 73 68 74 77 75 69 76
REMARK SMILES IDX 70 77 76 78 78 79 71 80 72 81 73 82 74 83 75 84 51 85 52 86
REMARK SMILES IDX 61 87 53 88 54 89 60 90 62 91 55 92 56 93 57 94 58 95 59 96
REMARK H PARENT 17 5 21 27 83 46 49 57
REMARK Flexibility Score: inf
ROOT
ATOM      1  C   UNL A   1      34.457  29.641  27.264  1.00  0.00     0.117 C 
ENDROOT
BRANCH   1   2
ATOM      2  N   UNL A   1      33.255  29.021  27.782  1.00  0.00    -0.356 N 
ATOM      3  C   UNL A   1      32.285  28.274  27.185  1.00  0.00     0.227 C 
ATOM      4  O   UNL A   1      31.344  27.925  27.912  1.00  0.00    -0.274 OA
ATOM      5  H   UNL A   1      33.112  29.164  28.745  1.00  0.00     0.163 HD
BRANCH   3   6
ATOM      6  C   UNL A   1      32.314  27.837  25.712  1.00  0.00     0.105 C 
ATOM      7  C   UNL A   1      31.075  28.242  24.915  1.00  0.00     0.023 C 
BRANCH   6   8
ATOM      8  C   UNL A   1      32.793  26.408  25.507  1.00  0.00    -0.036 A 
ATOM      9  C   UNL A   1      33.872  23.771  25.225  1.00  0.00    -0.018 A 
ATOM     10  C   UNL A   1      32.776  24.038  26.060  1.00  0.00     0.009 A 
ATOM     11  C   UNL A   1      34.390  24.855  24.502  1.00  0.00     0.009 A 
ATOM     12  C   UNL A   1      32.221  25.319  26.164  1.00  0.00     0.005 A 
ATOM     13  C   UNL A   1      33.877  26.153  24.655  1.00  0.00     0.005 A 
BRANCH   9  14
ATOM     14  C   UNL A   1      34.437  22.404  25.122  1.00  0.00    -0.017 A 
ATOM     15  C   UNL A   1      34.151  19.966  24.971  1.00  0.00     0.008 A 
ATOM     16  C   UNL A   1      35.535  19.805  24.911  1.00  0.00     0.015 A 
ATOM     17  C   UNL A   1      33.616  21.261  25.078  1.00  0.00     0.023 A 
ATOM     18  C   UNL A   1      36.370  20.918  24.938  1.00  0.00     0.002 A 
ATOM     19  C   UNL A   1      35.827  22.199  25.049  1.00  0.00     0.009 A 
BRANCH  15  20
ATOM     20  S   UNL A   1      33.026  18.577  24.989  1.00  0.00    -0.126 SA
BRANCH  20  21
ATOM     21  C   UNL A   1      34.122  17.188  24.521  1.00  0.00     0.071 C 
ATOM     22  C   UNL A   1      34.106  16.932  23.024  1.00  0.00     0.016 C 
ENDBRANCH  20  21
ENDBRANCH  15  20
ENDBRANCH   9  14
ENDBRANCH   6   8
ENDBRANCH   3   6
ENDBRANCH   1   2
BRANCH   1  23
ATOM     23  C   UNL A   1      34.542  31.123  27.617  1.00  0.00     0.042 C 
BRANCH  23  24
ATOM     24  C   UNL A   1      35.766  31.483  28.445  1.00  0.00     0.118 C 
BRANCH  24  25
ATOM     25  N   UNL A   1      35.674  30.977  29.810  1.00  0.00    -0.352 N 
ATOM     26  C   UNL A   1      36.553  30.201  30.528  1.00  0.00     0.251 C 
ATOM     27  H   UNL A   1      34.854  31.229  30.292  1.00  0.00     0.163 HD
ATOM     28  O   UNL A   1      36.182  29.695  31.582  1.00  0.00    -0.269 OA
BRANCH  26  29
ATOM     29  C   UNL A   1      37.929  29.966  30.033  1.00  0.00     0.039 A 
ATOM     30  C   UNL A   1      38.967  29.811  30.956  1.00  0.00     0.014 A 
ATOM     31  C   UNL A   1      38.204  29.932  28.665  1.00  0.00     0.014 A 
ATOM     32  C   UNL A   1      40.266  29.561  30.506  1.00  0.00     0.010 A 
ATOM     33  C   UNL A   1      39.477  29.590  28.221  1.00  0.00     0.010 A 
ATOM     34  C   UNL A   1      40.526  29.415  29.134  1.00  0.00    -0.014 A 
BRANCH  34  35
ATOM     35  C   UNL A   1      41.888  29.118  28.619  1.00  0.00     0.031 A 
ATOM     36  C   UNL A   1      42.230  27.715  28.189  1.00  0.00     0.074 A 
ATOM     37  C   UNL A   1      42.832  30.080  28.612  1.00  0.00     0.049 A 
ATOM     38  N   UNL A   1      43.389  27.213  27.849  1.00  0.00    -0.248 NA
ATOM     39  C   UNL A   1      41.126  26.740  28.169  1.00  0.00     0.031 C 
ATOM     40  C   UNL A   1      42.634  31.465  29.044  1.00  0.00     0.029 A 
ATOM     41  N   UNL A   1      44.155  30.033  28.250  1.00  0.00    -0.354 N 
ATOM     42  C   UNL A   1      43.155  25.868  27.589  1.00  0.00     0.074 A 
ATOM     43  C   UNL A   1      41.760  25.616  27.872  1.00  0.00     0.031 C 
ATOM     44  C   UNL A   1      43.790  32.136  28.917  1.00  0.00     0.029 A 
ATOM     45  C   UNL A   1      44.823  31.221  28.440  1.00  0.00     0.049 A 
ATOM     46  H   UNL A   1      44.586  29.226  27.888  1.00  0.00     0.167 HD
ATOM     47  C   UNL A   1      44.018  24.932  27.126  1.00  0.00     0.037 A 
ATOM     48  C   UNL A   1      46.124  31.532  28.273  1.00  0.00     0.037 A 
ATOM     49  C   UNL A   1      45.400  25.196  26.824  1.00  0.00     0.049 A 
ATOM     50  C   UNL A   1      47.069  30.471  27.770  1.00  0.00     0.074 A 
ATOM     51  C   UNL A   1      46.353  24.327  26.324  1.00  0.00     0.029 A 
ATOM     52  N   UNL A   1      46.025  26.424  26.987  1.00  0.00    -0.354 N 
ATOM     53  N   UNL A   1      46.822  29.213  27.490  1.00  0.00    -0.248 NA
ATOM     54  C   UNL A   1      48.465  30.872  27.550  1.00  0.00     0.031 C 
ATOM     55  C   UNL A   1      47.564  25.017  26.221  1.00  0.00     0.029 A 
ATOM     56  C   UNL A   1      47.352  26.332  26.605  1.00  0.00     0.049 A 
ATOM     57  H   UNL A   1      45.589  27.240  27.325  1.00  0.00     0.167 HD
ATOM     58  C   UNL A   1      48.021  28.683  27.028  1.00  0.00     0.074 A 
ATOM     59  C   UNL A   1      48.992  29.758  27.059  1.00  0.00     0.031 C 
ATOM     60  C   UNL A   1      48.297  27.422  26.616  1.00  0.00     0.037 A 
BRANCH  47  61
ATOM     61  C   UNL A   1      43.489  23.543  26.896  1.00  0.00     0.058 A 
ATOM     62  C   UNL A   1      43.273  23.046  25.600  1.00  0.00     0.135 A 
ATOM     63  C   UNL A   1      43.240  22.679  27.975  1.00  0.00     0.135 A 
ATOM     64  F   UNL A   1      43.476  23.832  24.531  1.00  0.00    -0.206 F 
ATOM     65  C   UNL A   1      42.807  21.754  25.383  1.00  0.00     0.059 A 
ATOM     66  C   UNL A   1      42.804  21.371  27.781  1.00  0.00     0.059 A 
ATOM     67  F   UNL A   1      43.428  23.102  29.236  1.00  0.00    -0.206 F 
ATOM     68  C   UNL A   1      42.581  20.922  26.481  1.00  0.00     0.060 A 
BRANCH  68  69
ATOM     69  S   UNL A   1      42.001  19.240  26.177  1.00  0.00     0.124 S 
ATOM     70  O   UNL A   1      42.379  18.573  27.419  1.00  0.00    -0.237 OA
ATOM     71  O   UNL A   1      40.568  19.437  25.975  1.00  0.00    -0.237 OA
ATOM     72  O   UNL A   1      42.748  18.830  24.992  1.00  0.00    -0.744 OA
ENDBRANCH  68  69
ENDBRANCH  47  61
BRANCH  48  73
ATOM     73  C   UNL A   1      46.612  32.902  28.587  1.00  0.00     0.058 A 
ATOM     74  C   UNL A   1      46.649  33.904  27.606  1.00  0.00     0.135 A 
ATOM     75  C   UNL A   1      47.062  33.234  29.876  1.00  0.00     0.135 A 
ATOM     76  F   UNL A   1      46.235  33.636  26.359  1.00  0.00    -0.206 F 
ATOM     77  C   UNL A   1      47.145  35.175  27.880  1.00  0.00     0.059 A 
ATOM     78  C   UNL A   1      47.530  34.507  30.182  1.00  0.00     0.059 A 
ATOM     79  F   UNL A   1      47.031  32.320  30.858  1.00  0.00    -0.206 F 
ATOM     80  C   UNL A   1      47.585  35.467  29.173  1.00  0.00     0.060 A 
BRANCH  80  81
ATOM     81  S   UNL A   1      48.206  37.124  29.527  1.00  0.00     0.124 S 
ATOM     82  O   UNL A   1      47.519  37.434  30.775  1.00  0.00    -0.237 OA
ATOM     83  O   UNL A   1      49.644  36.899  29.625  1.00  0.00    -0.237 OA
ATOM     84  O   UNL A   1      47.778  37.895  28.362  1.00  0.00    -0.744 OA
ENDBRANCH  80  81
ENDBRANCH  48  73
BRANCH  60  85
ATOM     85  C   UNL A   1      49.682  27.138  26.105  1.00  0.00     0.058 A 
ATOM     86  C   UNL A   1      50.734  26.795  26.967  1.00  0.00     0.135 A 
ATOM     87  C   UNL A   1      49.937  27.135  24.724  1.00  0.00     0.135 A 
ATOM     88  F   UNL A   1      50.547  26.789  28.297  1.00  0.00    -0.206 F 
ATOM     89  C   UNL A   1      51.996  26.472  26.477  1.00  0.00     0.059 A 
ATOM     90  C   UNL A   1      51.182  26.786  24.211  1.00  0.00     0.059 A 
ATOM     91  F   UNL A   1      48.961  27.448  23.857  1.00  0.00    -0.206 F 
ATOM     92  C   UNL A   1      52.207  26.464  25.097  1.00  0.00     0.060 A 
BRANCH  92  93
ATOM     93  S   UNL A   1      53.834  25.988  24.475  1.00  0.00     0.124 S 
ATOM     94  O   UNL A   1      53.741  26.386  23.073  1.00  0.00    -0.237 OA
ATOM     95  O   UNL A   1      54.730  26.788  25.302  1.00  0.00    -0.237 OA
ATOM     96  O   UNL A   1      53.884  24.549  24.717  1.00  0.00    -0.744 OA
ENDBRANCH  92  93
ENDBRANCH  60  85
ENDBRANCH  34  35
ENDBRANCH  26  29
ENDBRANCH  24  25
ENDBRANCH  23  24
ENDBRANCH   1  23
TORSDOF 17
ENDMDL
