MODEL 1
REMARK VINA RESULT:     -12.5      0.000      0.000
REMARK SMILES C[C@H](CNC(=O)N1C[C@H]2CCCC[N@@H+]2C[C@@H]1C)C(=O)NCCCNC(=O)c1ccc(-c2c3nc(c(-c4c(F)cc(S(=O)(=O)[O-])cc4F)c4ccc([nH]4)c(-c4c(F)cc(S(=O)(=O)[O-])cc4F)c4nc(c(-c5c(F)cc(S(=O)(=O)[O-])cc5F)c5ccc2[nH]5)C=C4)C=C3)cc1
REMARK SMILES IDX 22 1 21 2 20 3 18 4 19 5 2 7 1 8 3 9 4 10 5 11 6 13 7 14
REMARK SMILES IDX 8 15 16 16 9 17 15 18 17 19 10 20 14 21 11 22 13 23 12 25
REMARK SMILES IDX 23 26 24 27 25 28 26 30 27 31 28 32 92 33 29 34 91 35 30 36
REMARK SMILES IDX 31 37 32 38 85 39 33 40 90 41 84 42 86 43 34 44 89 45 83 46
REMARK SMILES IDX 82 47 35 49 69 50 48 51 68 52 49 53 52 54 67 55 87 56 50 57
REMARK SMILES IDX 51 58 66 60 88 61 53 62 36 63 37 64 46 65 38 66 39 67 45 68
REMARK SMILES IDX 47 69 40 70 41 71 42 72 43 73 44 74 70 75 71 76 80 77 72 78
REMARK SMILES IDX 73 79 79 80 81 81 74 82 75 83 76 84 77 85 78 86 54 87 55 88
REMARK SMILES IDX 64 89 56 90 57 91 63 92 65 93 58 94 59 95 60 96 61 97 62 98
REMARK H PARENT 20 6 4 12 14 24 24 29 86 48 52 59
REMARK Flexibility Score: inf
ROOT
ATOM      1  C   UNL A   1      34.259  30.952  27.620  1.00  0.00     0.042 C 
ENDROOT
BRANCH   1   2
ATOM      2  C   UNL A   1      34.281  29.443  27.409  1.00  0.00     0.117 C 
BRANCH   2   3
ATOM      3  N   UNL A   1      33.065  28.802  27.888  1.00  0.00    -0.356 N 
ATOM      4  C   UNL A   1      31.982  28.302  27.246  1.00  0.00     0.224 C 
ATOM      5  O   UNL A   1      31.059  27.890  27.959  1.00  0.00    -0.275 OA
ATOM      6  H   UNL A   1      33.022  28.717  28.866  1.00  0.00     0.163 HD
BRANCH   4   7
ATOM      7  C   UNL A   1      31.843  28.228  25.732  1.00  0.00     0.094 C 
ATOM      8  C   UNL A   1      31.389  29.510  25.046  1.00  0.00     0.020 C 
BRANCH   7   9
ATOM      9  C   UNL A   1      31.198  26.935  25.223  1.00  0.00     0.130 C 
BRANCH   9  10
ATOM     10  N   UNL A   1      30.807  25.946  26.212  1.00  0.00    -0.337 N 
ATOM     11  C   UNL A   1      31.117  24.632  26.368  1.00  0.00     0.318 C 
ATOM     12  H   UNL A   1      30.198  26.295  26.903  1.00  0.00     0.165 HD
ATOM     13  O   UNL A   1      30.455  23.967  27.158  1.00  0.00    -0.249 OA
BRANCH  11  14
ATOM     14  N   UNL A   1      32.106  24.110  25.584  1.00  0.00    -0.311 N 
ATOM     15  C   UNL A   1      33.329  23.667  26.249  1.00  0.00     0.186 C 
ATOM     16  C   UNL A   1      31.796  23.301  24.385  1.00  0.00     0.139 C 
ATOM     17  C   UNL A   1      34.519  23.818  25.296  1.00  0.00     0.203 C 
ATOM     18  C   UNL A   1      33.052  23.206  23.454  1.00  0.00     0.287 C 
ATOM     19  C   UNL A   1      30.638  23.850  23.538  1.00  0.00     0.037 C 
ATOM     20  C   UNL A   1      35.829  23.519  26.028  1.00  0.00     0.067 C 
ATOM     21  N   UNL A   1      34.344  22.924  24.128  1.00  0.00    -0.329 N 
ATOM     22  C   UNL A   1      37.010  23.676  25.079  1.00  0.00     0.012 C 
ATOM     23  C   UNL A   1      35.456  23.070  23.178  1.00  0.00     0.262 C 
ATOM     24  H   UNL A   1      34.340  21.961  24.463  1.00  0.00     0.348 HD
ATOM     25  C   UNL A   1      36.810  22.808  23.841  1.00  0.00     0.062 C 
ENDBRANCH  11  14
ENDBRANCH   9  10
ENDBRANCH   7   9
ENDBRANCH   4   7
ENDBRANCH   2   3
ENDBRANCH   1   2
BRANCH   1  26
ATOM     26  C   UNL A   1      35.485  31.503  28.329  1.00  0.00     0.118 C 
BRANCH  26  27
ATOM     27  N   UNL A   1      35.443  31.290  29.765  1.00  0.00    -0.352 N 
ATOM     28  C   UNL A   1      36.317  30.633  30.599  1.00  0.00     0.251 C 
ATOM     29  H   UNL A   1      34.660  31.680  30.216  1.00  0.00     0.163 HD
ATOM     30  O   UNL A   1      35.959  30.392  31.751  1.00  0.00    -0.269 OA
BRANCH  28  31
ATOM     31  C   UNL A   1      37.662  30.200  30.143  1.00  0.00     0.039 A 
ATOM     32  C   UNL A   1      38.605  29.818  31.104  1.00  0.00     0.014 A 
ATOM     33  C   UNL A   1      38.037  30.235  28.799  1.00  0.00     0.014 A 
ATOM     34  C   UNL A   1      39.893  29.433  30.714  1.00  0.00     0.010 A 
ATOM     35  C   UNL A   1      39.286  29.756  28.402  1.00  0.00     0.010 A 
ATOM     36  C   UNL A   1      40.240  29.374  29.354  1.00  0.00    -0.014 A 
BRANCH  36  37
ATOM     37  C   UNL A   1      41.602  28.970  28.913  1.00  0.00     0.031 A 
ATOM     38  C   UNL A   1      42.714  29.990  28.870  1.00  0.00     0.074 A 
ATOM     39  C   UNL A   1      41.836  27.709  28.497  1.00  0.00     0.049 A 
ATOM     40  N   UNL A   1      43.940  29.862  28.428  1.00  0.00    -0.248 NA
ATOM     41  C   UNL A   1      42.396  31.341  29.360  1.00  0.00     0.031 C 
ATOM     42  C   UNL A   1      40.840  26.638  28.437  1.00  0.00     0.029 A 
ATOM     43  N   UNL A   1      42.986  27.118  28.034  1.00  0.00    -0.354 N 
ATOM     44  C   UNL A   1      44.522  31.119  28.550  1.00  0.00     0.074 A 
ATOM     45  C   UNL A   1      43.505  32.006  29.071  1.00  0.00     0.031 C 
ATOM     46  C   UNL A   1      41.427  25.514  27.992  1.00  0.00     0.029 A 
ATOM     47  C   UNL A   1      42.830  25.792  27.701  1.00  0.00     0.049 A 
ATOM     48  H   UNL A   1      43.841  27.597  27.949  1.00  0.00     0.167 HD
ATOM     49  C   UNL A   1      45.795  31.497  28.280  1.00  0.00     0.037 A 
ATOM     50  C   UNL A   1      43.716  24.902  27.213  1.00  0.00     0.037 A 
ATOM     51  C   UNL A   1      46.824  30.604  27.821  1.00  0.00     0.049 A 
ATOM     52  C   UNL A   1      45.137  25.332  26.969  1.00  0.00     0.074 A 
ATOM     53  C   UNL A   1      48.160  30.877  27.584  1.00  0.00     0.029 A 
ATOM     54  N   UNL A   1      46.636  29.258  27.543  1.00  0.00    -0.354 N 
ATOM     55  N   UNL A   1      45.679  26.515  27.133  1.00  0.00    -0.248 NA
ATOM     56  C   UNL A   1      46.068  24.306  26.480  1.00  0.00     0.031 C 
ATOM     57  C   UNL A   1      48.776  29.700  27.142  1.00  0.00     0.029 A 
ATOM     58  C   UNL A   1      47.830  28.688  27.133  1.00  0.00     0.049 A 
ATOM     59  H   UNL A   1      45.780  28.779  27.625  1.00  0.00     0.167 HD
ATOM     60  C   UNL A   1      47.018  26.370  26.787  1.00  0.00     0.074 A 
ATOM     61  C   UNL A   1      47.206  24.984  26.415  1.00  0.00     0.031 C 
ATOM     62  C   UNL A   1      48.001  27.303  26.777  1.00  0.00     0.037 A 
BRANCH  49  63
ATOM     63  C   UNL A   1      46.146  32.945  28.488  1.00  0.00     0.058 A 
ATOM     64  C   UNL A   1      46.618  33.417  29.724  1.00  0.00     0.135 A 
ATOM     65  C   UNL A   1      46.028  33.867  27.436  1.00  0.00     0.135 A 
ATOM     66  F   UNL A   1      46.734  32.580  30.767  1.00  0.00    -0.206 F 
ATOM     67  C   UNL A   1      46.928  34.759  29.919  1.00  0.00     0.059 A 
ATOM     68  C   UNL A   1      46.357  35.210  27.601  1.00  0.00     0.059 A 
ATOM     69  F   UNL A   1      45.584  33.469  26.234  1.00  0.00    -0.206 F 
ATOM     70  C   UNL A   1      46.789  35.650  28.853  1.00  0.00     0.060 A 
BRANCH  70  71
ATOM     71  S   UNL A   1      47.188  37.390  29.120  1.00  0.00     0.124 S 
ATOM     72  O   UNL A   1      46.856  37.965  27.820  1.00  0.00    -0.237 OA
ATOM     73  O   UNL A   1      46.296  37.753  30.218  1.00  0.00    -0.237 OA
ATOM     74  O   UNL A   1      48.607  37.365  29.453  1.00  0.00    -0.744 OA
ENDBRANCH  70  71
ENDBRANCH  49  63
BRANCH  50  75
ATOM     75  C   UNL A   1      43.292  23.502  26.955  1.00  0.00     0.058 A 
ATOM     76  C   UNL A   1      43.052  23.055  25.648  1.00  0.00     0.135 A 
ATOM     77  C   UNL A   1      43.133  22.582  28.003  1.00  0.00     0.135 A 
ATOM     78  F   UNL A   1      43.184  23.901  24.616  1.00  0.00    -0.206 F 
ATOM     79  C   UNL A   1      42.659  21.747  25.386  1.00  0.00     0.059 A 
ATOM     80  C   UNL A   1      42.760  21.263  27.764  1.00  0.00     0.059 A 
ATOM     81  F   UNL A   1      43.363  22.959  29.270  1.00  0.00    -0.206 F 
ATOM     82  C   UNL A   1      42.517  20.857  26.452  1.00  0.00     0.060 A 
BRANCH  82  83
ATOM     83  S   UNL A   1      42.056  19.145  26.098  1.00  0.00     0.124 S 
ATOM     84  O   UNL A   1      42.881  18.856  24.932  1.00  0.00    -0.237 OA
ATOM     85  O   UNL A   1      42.431  18.462  27.332  1.00  0.00    -0.237 OA
ATOM     86  O   UNL A   1      40.619  19.232  25.852  1.00  0.00    -0.744 OA
ENDBRANCH  82  83
ENDBRANCH  50  75
BRANCH  62  87
ATOM     87  C   UNL A   1      49.377  26.850  26.380  1.00  0.00     0.058 A 
ATOM     88  C   UNL A   1      50.238  26.232  27.299  1.00  0.00     0.135 A 
ATOM     89  C   UNL A   1      49.817  26.990  25.054  1.00  0.00     0.135 A 
ATOM     90  F   UNL A   1      49.865  26.080  28.579  1.00  0.00    -0.206 F 
ATOM     91  C   UNL A   1      51.501  25.785  26.921  1.00  0.00     0.059 A 
ATOM     92  C   UNL A   1      51.067  26.533  24.650  1.00  0.00     0.059 A 
ATOM     93  F   UNL A   1      49.025  27.566  24.136  1.00  0.00    -0.206 F 
ATOM     94  C   UNL A   1      51.907  25.942  25.593  1.00  0.00     0.060 A 
BRANCH  94  95
ATOM     95  S   UNL A   1      53.532  25.328  25.103  1.00  0.00     0.124 S 
ATOM     96  O   UNL A   1      53.394  23.897  25.354  1.00  0.00    -0.237 OA
ATOM     97  O   UNL A   1      53.610  25.720  23.699  1.00  0.00    -0.237 OA
ATOM     98  O   UNL A   1      54.445  26.036  25.996  1.00  0.00    -0.744 OA
ENDBRANCH  94  95
ENDBRANCH  62  87
ENDBRANCH  36  37
ENDBRANCH  28  31
ENDBRANCH  26  27
ENDBRANCH   1  26
TORSDOF 16
ENDMDL
MODEL 2
REMARK VINA RESULT:     -12.2      2.908      3.764
REMARK SMILES C[C@H](CNC(=O)N1C[C@H]2CCCC[N@@H+]2C[C@@H]1C)C(=O)NCCCNC(=O)c1ccc(-c2c3nc(c(-c4c(F)cc(S(=O)(=O)[O-])cc4F)c4ccc([nH]4)c(-c4c(F)cc(S(=O)(=O)[O-])cc4F)c4nc(c(-c5c(F)cc(S(=O)(=O)[O-])cc5F)c5ccc2[nH]5)C=C4)C=C3)cc1
REMARK SMILES IDX 22 1 21 2 20 3 18 4 19 5 2 7 1 8 3 9 4 10 5 11 6 13 7 14
REMARK SMILES IDX 8 15 16 16 9 17 15 18 17 19 10 20 14 21 11 22 13 23 12 25
REMARK SMILES IDX 23 26 24 27 25 28 26 30 27 31 28 32 92 33 29 34 91 35 30 36
REMARK SMILES IDX 31 37 32 38 85 39 33 40 90 41 84 42 86 43 34 44 89 45 83 46
REMARK SMILES IDX 82 47 35 49 69 50 48 51 68 52 49 53 52 54 67 55 87 56 50 57
REMARK SMILES IDX 51 58 66 60 88 61 53 62 36 63 37 64 46 65 38 66 39 67 45 68
REMARK SMILES IDX 47 69 40 70 41 71 42 72 43 73 44 74 70 75 71 76 80 77 72 78
REMARK SMILES IDX 73 79 79 80 81 81 74 82 75 83 76 84 77 85 78 86 54 87 55 88
REMARK SMILES IDX 64 89 56 90 57 91 63 92 65 93 58 94 59 95 60 96 61 97 62 98
REMARK H PARENT 20 6 4 12 14 24 24 29 86 48 52 59
REMARK Flexibility Score: inf
ROOT
ATOM      1  C   UNL A   1      33.866  28.226  24.811  1.00  0.00     0.042 C 
ENDROOT
BRANCH   1   2
ATOM      2  C   UNL A   1      32.629  27.577  24.201  1.00  0.00     0.117 C 
BRANCH   2   3
ATOM      3  N   UNL A   1      32.875  27.081  22.855  1.00  0.00    -0.356 N 
ATOM      4  C   UNL A   1      33.191  25.854  22.377  1.00  0.00     0.224 C 
ATOM      5  O   UNL A   1      33.422  25.776  21.164  1.00  0.00    -0.275 OA
ATOM      6  H   UNL A   1      32.798  27.771  22.158  1.00  0.00     0.163 HD
BRANCH   4   7
ATOM      7  C   UNL A   1      33.280  24.599  23.233  1.00  0.00     0.094 C 
ATOM      8  C   UNL A   1      34.303  23.563  22.785  1.00  0.00     0.020 C 
BRANCH   7   9
ATOM      9  C   UNL A   1      31.923  24.045  23.681  1.00  0.00     0.130 C 
BRANCH   9  10
ATOM     10  N   UNL A   1      31.577  24.175  25.086  1.00  0.00    -0.337 N 
ATOM     11  C   UNL A   1      32.102  23.627  26.213  1.00  0.00     0.318 C 
ATOM     12  H   UNL A   1      30.815  24.775  25.253  1.00  0.00     0.165 HD
ATOM     13  O   UNL A   1      31.463  23.718  27.257  1.00  0.00    -0.249 OA
BRANCH  11  14
ATOM     14  N   UNL A   1      33.280  22.944  26.106  1.00  0.00    -0.311 N 
ATOM     15  C   UNL A   1      34.460  23.537  26.730  1.00  0.00     0.186 C 
ATOM     16  C   UNL A   1      33.321  21.466  26.121  1.00  0.00     0.139 C 
ATOM     17  C   UNL A   1      35.716  23.122  25.956  1.00  0.00     0.203 C 
ATOM     18  C   UNL A   1      34.689  20.954  25.556  1.00  0.00     0.287 C 
ATOM     19  C   UNL A   1      32.207  20.797  25.302  1.00  0.00     0.037 C 
ATOM     20  C   UNL A   1      36.942  23.867  26.492  1.00  0.00     0.067 C 
ATOM     21  N   UNL A   1      35.902  21.656  26.047  1.00  0.00    -0.329 N 
ATOM     22  C   UNL A   1      38.187  23.457  25.716  1.00  0.00     0.012 C 
ATOM     23  C   UNL A   1      37.082  21.223  25.286  1.00  0.00     0.262 C 
ATOM     24  H   UNL A   1      36.051  21.414  27.026  1.00  0.00     0.348 HD
ATOM     25  C   UNL A   1      38.352  21.941  25.748  1.00  0.00     0.062 C 
ENDBRANCH  11  14
ENDBRANCH   9  10
ENDBRANCH   7   9
ENDBRANCH   4   7
ENDBRANCH   2   3
ENDBRANCH   1   2
BRANCH   1  26
ATOM     26  C   UNL A   1      33.882  28.238  26.331  1.00  0.00     0.118 C 
BRANCH  26  27
ATOM     27  N   UNL A   1      33.623  29.557  26.881  1.00  0.00    -0.352 N 
ATOM     28  C   UNL A   1      34.367  30.331  27.741  1.00  0.00     0.251 C 
ATOM     29  H   UNL A   1      32.776  29.964  26.590  1.00  0.00     0.163 HD
ATOM     30  O   UNL A   1      33.839  31.323  28.241  1.00  0.00    -0.269 OA
BRANCH  28  31
ATOM     31  C   UNL A   1      35.771  29.992  28.086  1.00  0.00     0.039 A 
ATOM     32  C   UNL A   1      36.755  30.130  27.102  1.00  0.00     0.014 A 
ATOM     33  C   UNL A   1      36.123  29.471  29.332  1.00  0.00     0.014 A 
ATOM     34  C   UNL A   1      38.085  29.792  27.381  1.00  0.00     0.010 A 
ATOM     35  C   UNL A   1      37.463  29.230  29.642  1.00  0.00     0.010 A 
ATOM     36  C   UNL A   1      38.457  29.361  28.664  1.00  0.00    -0.014 A 
BRANCH  36  37
ATOM     37  C   UNL A   1      39.862  28.993  28.987  1.00  0.00     0.031 A 
ATOM     38  C   UNL A   1      40.777  30.004  29.634  1.00  0.00     0.074 A 
ATOM     39  C   UNL A   1      40.339  27.778  28.653  1.00  0.00     0.049 A 
ATOM     40  N   UNL A   1      42.055  29.911  29.907  1.00  0.00    -0.248 NA
ATOM     41  C   UNL A   1      40.185  31.303  29.993  1.00  0.00     0.031 C 
ATOM     42  C   UNL A   1      39.579  26.724  27.977  1.00  0.00     0.029 A 
ATOM     43  N   UNL A   1      41.585  27.226  28.827  1.00  0.00    -0.354 N 
ATOM     44  C   UNL A   1      42.423  31.145  30.430  1.00  0.00     0.074 A 
ATOM     45  C   UNL A   1      41.245  31.984  30.401  1.00  0.00     0.031 C 
ATOM     46  C   UNL A   1      40.364  25.646  27.819  1.00  0.00     0.029 A 
ATOM     47  C   UNL A   1      41.693  25.940  28.349  1.00  0.00     0.049 A 
ATOM     48  H   UNL A   1      42.331  27.705  29.255  1.00  0.00     0.167 HD
ATOM     49  C   UNL A   1      43.625  31.539  30.917  1.00  0.00     0.037 A 
ATOM     50  C   UNL A   1      42.742  25.096  28.336  1.00  0.00     0.037 A 
ATOM     51  C   UNL A   1      44.780  30.687  31.004  1.00  0.00     0.049 A 
ATOM     52  C   UNL A   1      44.053  25.538  28.927  1.00  0.00     0.074 A 
ATOM     53  C   UNL A   1      46.024  30.973  31.543  1.00  0.00     0.029 A 
ATOM     54  N   UNL A   1      44.832  29.377  30.553  1.00  0.00    -0.354 N 
ATOM     55  N   UNL A   1      44.369  26.695  29.458  1.00  0.00    -0.248 NA
ATOM     56  C   UNL A   1      45.148  24.557  28.925  1.00  0.00     0.031 C 
ATOM     57  C   UNL A   1      46.834  29.840  31.398  1.00  0.00     0.029 A 
ATOM     58  C   UNL A   1      46.085  28.841  30.797  1.00  0.00     0.049 A 
ATOM     59  H   UNL A   1      44.087  28.899  30.122  1.00  0.00     0.167 HD
ATOM     60  C   UNL A   1      45.691  26.574  29.871  1.00  0.00     0.074 A 
ATOM     61  C   UNL A   1      46.112  25.230  29.538  1.00  0.00     0.031 C 
ATOM     62  C   UNL A   1      46.484  27.496  30.469  1.00  0.00     0.037 A 
BRANCH  49  63
ATOM     63  C   UNL A   1      43.744  32.957  31.405  1.00  0.00     0.058 A 
ATOM     64  C   UNL A   1      43.471  33.301  32.739  1.00  0.00     0.135 A 
ATOM     65  C   UNL A   1      44.154  33.980  30.536  1.00  0.00     0.135 A 
ATOM     66  F   UNL A   1      43.060  32.363  33.608  1.00  0.00    -0.206 F 
ATOM     67  C   UNL A   1      43.566  34.614  33.185  1.00  0.00     0.059 A 
ATOM     68  C   UNL A   1      44.281  35.298  30.967  1.00  0.00     0.059 A 
ATOM     69  F   UNL A   1      44.430  33.707  29.251  1.00  0.00    -0.206 F 
ATOM     70  C   UNL A   1      43.967  35.608  32.290  1.00  0.00     0.060 A 
BRANCH  70  71
ATOM     71  S   UNL A   1      44.082  37.310  32.879  1.00  0.00     0.124 S 
ATOM     72  O   UNL A   1      42.919  37.391  33.759  1.00  0.00    -0.237 OA
ATOM     73  O   UNL A   1      45.381  37.328  33.545  1.00  0.00    -0.237 OA
ATOM     74  O   UNL A   1      43.999  38.099  31.655  1.00  0.00    -0.744 OA
ENDBRANCH  70  71
ENDBRANCH  49  63
BRANCH  50  75
ATOM     75  C   UNL A   1      42.586  23.731  27.770  1.00  0.00     0.058 A 
ATOM     76  C   UNL A   1      42.653  23.516  26.386  1.00  0.00     0.135 A 
ATOM     77  C   UNL A   1      42.382  22.617  28.597  1.00  0.00     0.135 A 
ATOM     78  F   UNL A   1      42.839  24.553  25.556  1.00  0.00    -0.206 F 
ATOM     79  C   UNL A   1      42.514  22.246  25.838  1.00  0.00     0.059 A 
ATOM     80  C   UNL A   1      42.261  21.333  28.074  1.00  0.00     0.059 A 
ATOM     81  F   UNL A   1      42.323  22.769  29.929  1.00  0.00    -0.206 F 
ATOM     82  C   UNL A   1      42.319  21.159  26.692  1.00  0.00     0.060 A 
BRANCH  82  83
ATOM     83  S   UNL A   1      42.192  19.505  25.975  1.00  0.00     0.124 S 
ATOM     84  O   UNL A   1      43.053  19.625  24.805  1.00  0.00    -0.237 OA
ATOM     85  O   UNL A   1      42.693  18.659  27.054  1.00  0.00    -0.237 OA
ATOM     86  O   UNL A   1      40.764  19.371  25.699  1.00  0.00    -0.744 OA
ENDBRANCH  82  83
ENDBRANCH  50  75
BRANCH  62  87
ATOM     87  C   UNL A   1      47.879  27.074  30.831  1.00  0.00     0.058 A 
ATOM     88  C   UNL A   1      48.144  26.346  32.001  1.00  0.00     0.135 A 
ATOM     89  C   UNL A   1      48.954  27.358  29.974  1.00  0.00     0.135 A 
ATOM     90  F   UNL A   1      47.151  26.055  32.855  1.00  0.00    -0.206 F 
ATOM     91  C   UNL A   1      49.432  25.929  32.319  1.00  0.00     0.059 A 
ATOM     92  C   UNL A   1      50.247  26.934  30.262  1.00  0.00     0.059 A 
ATOM     93  F   UNL A   1      48.750  28.044  28.838  1.00  0.00    -0.206 F 
ATOM     94  C   UNL A   1      50.479  26.230  31.444  1.00  0.00     0.060 A 
BRANCH  94  95
ATOM     95  S   UNL A   1      52.142  25.655  31.847  1.00  0.00     0.124 S 
ATOM     96  O   UNL A   1      51.895  24.259  32.190  1.00  0.00    -0.237 OA
ATOM     97  O   UNL A   1      52.866  25.882  30.600  1.00  0.00    -0.237 OA
ATOM     98  O   UNL A   1      52.537  26.516  32.957  1.00  0.00    -0.744 OA
ENDBRANCH  94  95
ENDBRANCH  62  87
ENDBRANCH  36  37
ENDBRANCH  28  31
ENDBRANCH  26  27
ENDBRANCH   1  26
TORSDOF 16
ENDMDL
MODEL 3
REMARK VINA RESULT:     -12.2      6.572     12.091
REMARK SMILES C[C@H](CNC(=O)N1C[C@H]2CCCC[N@@H+]2C[C@@H]1C)C(=O)NCCCNC(=O)c1ccc(-c2c3nc(c(-c4c(F)cc(S(=O)(=O)[O-])cc4F)c4ccc([nH]4)c(-c4c(F)cc(S(=O)(=O)[O-])cc4F)c4nc(c(-c5c(F)cc(S(=O)(=O)[O-])cc5F)c5ccc2[nH]5)C=C4)C=C3)cc1
REMARK SMILES IDX 22 1 21 2 20 3 18 4 19 5 2 7 1 8 3 9 4 10 5 11 6 13 7 14
REMARK SMILES IDX 8 15 16 16 9 17 15 18 17 19 10 20 14 21 11 22 13 23 12 25
REMARK SMILES IDX 23 26 24 27 25 28 26 30 27 31 28 32 92 33 29 34 91 35 30 36
REMARK SMILES IDX 31 37 32 38 85 39 33 40 90 41 84 42 86 43 34 44 89 45 83 46
REMARK SMILES IDX 82 47 35 49 69 50 48 51 68 52 49 53 52 54 67 55 87 56 50 57
REMARK SMILES IDX 51 58 66 60 88 61 53 62 36 63 37 64 46 65 38 66 39 67 45 68
REMARK SMILES IDX 47 69 40 70 41 71 42 72 43 73 44 74 70 75 71 76 80 77 72 78
REMARK SMILES IDX 73 79 79 80 81 81 74 82 75 83 76 84 77 85 78 86 54 87 55 88
REMARK SMILES IDX 64 89 56 90 57 91 63 92 65 93 58 94 59 95 60 96 61 97 62 98
REMARK H PARENT 20 6 4 12 14 24 24 29 86 48 52 59
REMARK Flexibility Score: inf
ROOT
ATOM      1  C   UNL A   1      37.456  22.958  25.746  1.00  0.00     0.042 C 
ENDROOT
BRANCH   1   2
ATOM      2  C   UNL A   1      36.567  23.345  24.571  1.00  0.00     0.117 C 
BRANCH   2   3
ATOM      3  N   UNL A   1      35.467  22.413  24.382  1.00  0.00    -0.356 N 
ATOM      4  C   UNL A   1      34.167  22.445  24.760  1.00  0.00     0.224 C 
ATOM      5  O   UNL A   1      33.495  21.435  24.513  1.00  0.00    -0.275 OA
ATOM      6  H   UNL A   1      35.716  21.602  23.884  1.00  0.00     0.163 HD
BRANCH   4   7
ATOM      7  C   UNL A   1      33.508  23.624  25.460  1.00  0.00     0.094 C 
ATOM      8  C   UNL A   1      32.922  23.334  26.836  1.00  0.00     0.020 C 
BRANCH   7   9
ATOM      9  C   UNL A   1      32.651  24.502  24.542  1.00  0.00     0.130 C 
BRANCH   9  10
ATOM     10  N   UNL A   1      33.241  24.937  23.288  1.00  0.00    -0.337 N 
ATOM     11  C   UNL A   1      33.337  26.156  22.694  1.00  0.00     0.318 C 
ATOM     12  H   UNL A   1      33.651  24.208  22.768  1.00  0.00     0.165 HD
ATOM     13  O   UNL A   1      33.678  26.204  21.516  1.00  0.00    -0.249 OA
BRANCH  11  14
ATOM     14  N   UNL A   1      32.983  27.254  23.424  1.00  0.00    -0.311 N 
ATOM     15  C   UNL A   1      34.039  27.939  24.166  1.00  0.00     0.186 C 
ATOM     16  C   UNL A   1      31.931  28.184  22.959  1.00  0.00     0.139 C 
ATOM     17  C   UNL A   1      33.447  28.597  25.417  1.00  0.00     0.203 C 
ATOM     18  C   UNL A   1      31.428  29.073  24.147  1.00  0.00     0.287 C 
ATOM     19  C   UNL A   1      30.702  27.491  22.352  1.00  0.00     0.037 C 
ATOM     20  C   UNL A   1      34.561  29.174  26.293  1.00  0.00     0.067 C 
ATOM     21  N   UNL A   1      32.479  29.647  25.024  1.00  0.00    -0.329 N 
ATOM     22  C   UNL A   1      33.971  29.822  27.538  1.00  0.00     0.012 C 
ATOM     23  C   UNL A   1      31.870  30.275  26.204  1.00  0.00     0.262 C 
ATOM     24  H   UNL A   1      32.984  30.367  24.508  1.00  0.00     0.348 HD
ATOM     25  C   UNL A   1      32.924  30.860  27.146  1.00  0.00     0.062 C 
ENDBRANCH  11  14
ENDBRANCH   9  10
ENDBRANCH   7   9
ENDBRANCH   4   7
ENDBRANCH   2   3
ENDBRANCH   1   2
BRANCH   1  26
ATOM     26  C   UNL A   1      38.289  24.100  26.306  1.00  0.00     0.118 C 
BRANCH  26  27
ATOM     27  N   UNL A   1      39.714  23.897  26.112  1.00  0.00    -0.352 N 
ATOM     28  C   UNL A   1      40.792  24.604  26.592  1.00  0.00     0.251 C 
ATOM     29  H   UNL A   1      39.947  23.128  25.545  1.00  0.00     0.163 HD
ATOM     30  O   UNL A   1      41.903  24.375  26.114  1.00  0.00    -0.269 OA
BRANCH  28  31
ATOM     31  C   UNL A   1      40.647  25.634  27.651  1.00  0.00     0.039 A 
ATOM     32  C   UNL A   1      41.587  26.669  27.713  1.00  0.00     0.014 A 
ATOM     33  C   UNL A   1      39.652  25.561  28.627  1.00  0.00     0.014 A 
ATOM     34  C   UNL A   1      41.501  27.642  28.715  1.00  0.00     0.010 A 
ATOM     35  C   UNL A   1      39.507  26.584  29.565  1.00  0.00     0.010 A 
ATOM     36  C   UNL A   1      40.443  27.624  29.638  1.00  0.00    -0.014 A 
BRANCH  36  37
ATOM     37  C   UNL A   1      40.329  28.644  30.716  1.00  0.00     0.031 A 
ATOM     38  C   UNL A   1      41.208  28.550  31.940  1.00  0.00     0.074 A 
ATOM     39  C   UNL A   1      39.406  29.622  30.630  1.00  0.00     0.049 A 
ATOM     40  N   UNL A   1      41.196  29.280  33.026  1.00  0.00    -0.248 NA
ATOM     41  C   UNL A   1      42.210  27.471  31.958  1.00  0.00     0.031 C 
ATOM     42  C   UNL A   1      38.458  29.799  29.528  1.00  0.00     0.029 A 
ATOM     43  N   UNL A   1      39.105  30.647  31.493  1.00  0.00    -0.354 N 
ATOM     44  C   UNL A   1      42.157  28.728  33.866  1.00  0.00     0.074 A 
ATOM     45  C   UNL A   1      42.705  27.577  33.181  1.00  0.00     0.031 C 
ATOM     46  C   UNL A   1      37.701  30.882  29.767  1.00  0.00     0.029 A 
ATOM     47  C   UNL A   1      38.083  31.457  31.055  1.00  0.00     0.049 A 
ATOM     48  H   UNL A   1      39.576  30.789  32.345  1.00  0.00     0.167 HD
ATOM     49  C   UNL A   1      42.566  29.152  35.086  1.00  0.00     0.037 A 
ATOM     50  C   UNL A   1      37.516  32.538  31.625  1.00  0.00     0.037 A 
ATOM     51  C   UNL A   1      42.067  30.331  35.742  1.00  0.00     0.049 A 
ATOM     52  C   UNL A   1      38.022  33.021  32.956  1.00  0.00     0.074 A 
ATOM     53  C   UNL A   1      42.466  30.882  36.948  1.00  0.00     0.029 A 
ATOM     54  N   UNL A   1      41.067  31.150  35.240  1.00  0.00    -0.354 N 
ATOM     55  N   UNL A   1      38.962  32.511  33.715  1.00  0.00    -0.248 NA
ATOM     56  C   UNL A   1      37.395  34.231  33.507  1.00  0.00     0.031 C 
ATOM     57  C   UNL A   1      41.692  32.024  37.185  1.00  0.00     0.029 A 
ATOM     58  C   UNL A   1      40.833  32.200  36.113  1.00  0.00     0.049 A 
ATOM     59  H   UNL A   1      40.593  31.006  34.389  1.00  0.00     0.167 HD
ATOM     60  C   UNL A   1      39.054  33.347  34.821  1.00  0.00     0.074 A 
ATOM     61  C   UNL A   1      38.081  34.403  34.629  1.00  0.00     0.031 C 
ATOM     62  C   UNL A   1      39.868  33.248  35.900  1.00  0.00     0.037 A 
BRANCH  49  63
ATOM     63  C   UNL A   1      43.621  28.338  35.786  1.00  0.00     0.058 A 
ATOM     64  C   UNL A   1      44.989  28.584  35.591  1.00  0.00     0.135 A 
ATOM     65  C   UNL A   1      43.259  27.314  36.675  1.00  0.00     0.135 A 
ATOM     66  F   UNL A   1      45.389  29.542  34.739  1.00  0.00    -0.206 F 
ATOM     67  C   UNL A   1      45.963  27.820  36.226  1.00  0.00     0.059 A 
ATOM     68  C   UNL A   1      44.216  26.553  37.341  1.00  0.00     0.059 A 
ATOM     69  F   UNL A   1      41.965  27.037  36.899  1.00  0.00    -0.206 F 
ATOM     70  C   UNL A   1      45.567  26.803  37.096  1.00  0.00     0.060 A 
BRANCH  70  71
ATOM     71  S   UNL A   1      46.839  25.814  37.910  1.00  0.00     0.124 S 
ATOM     72  O   UNL A   1      47.016  24.726  36.953  1.00  0.00    -0.237 OA
ATOM     73  O   UNL A   1      47.952  26.754  38.013  1.00  0.00    -0.237 OA
ATOM     74  O   UNL A   1      46.220  25.442  39.177  1.00  0.00    -0.744 OA
ENDBRANCH  70  71
ENDBRANCH  49  63
BRANCH  50  75
ATOM     75  C   UNL A   1      36.425  33.258  30.920  1.00  0.00     0.058 A 
ATOM     76  C   UNL A   1      35.103  33.191  31.385  1.00  0.00     0.135 A 
ATOM     77  C   UNL A   1      36.680  34.038  29.782  1.00  0.00     0.135 A 
ATOM     78  F   UNL A   1      34.811  32.452  32.466  1.00  0.00    -0.206 F 
ATOM     79  C   UNL A   1      34.069  33.863  30.742  1.00  0.00     0.059 A 
ATOM     80  C   UNL A   1      35.665  34.736  29.133  1.00  0.00     0.059 A 
ATOM     81  F   UNL A   1      37.930  34.144  29.306  1.00  0.00    -0.206 F 
ATOM     82  C   UNL A   1      34.361  34.635  29.616  1.00  0.00     0.060 A 
BRANCH  82  83
ATOM     83  S   UNL A   1      33.020  35.546  28.817  1.00  0.00     0.124 S 
ATOM     84  O   UNL A   1      32.397  34.503  28.011  1.00  0.00    -0.237 OA
ATOM     85  O   UNL A   1      32.244  36.020  29.959  1.00  0.00    -0.237 OA
ATOM     86  O   UNL A   1      33.724  36.587  28.072  1.00  0.00    -0.744 OA
ENDBRANCH  82  83
ENDBRANCH  50  75
BRANCH  62  87
ATOM     87  C   UNL A   1      39.766  34.325  36.942  1.00  0.00     0.058 A 
ATOM     88  C   UNL A   1      38.986  34.158  38.095  1.00  0.00     0.135 A 
ATOM     89  C   UNL A   1      40.498  35.516  36.807  1.00  0.00     0.135 A 
ATOM     90  F   UNL A   1      38.264  33.040  38.267  1.00  0.00    -0.206 F 
ATOM     91  C   UNL A   1      38.917  35.145  39.073  1.00  0.00     0.059 A 
ATOM     92  C   UNL A   1      40.460  36.508  37.782  1.00  0.00     0.059 A 
ATOM     93  F   UNL A   1      41.266  35.719  35.725  1.00  0.00    -0.206 F 
ATOM     94  C   UNL A   1      39.658  36.318  38.907  1.00  0.00     0.060 A 
BRANCH  94  95
ATOM     95  S   UNL A   1      39.591  37.579  40.197  1.00  0.00     0.124 S 
ATOM     96  O   UNL A   1      38.732  38.584  39.581  1.00  0.00    -0.237 OA
ATOM     97  O   UNL A   1      39.010  36.852  41.321  1.00  0.00    -0.237 OA
ATOM     98  O   UNL A   1      40.989  37.965  40.365  1.00  0.00    -0.744 OA
ENDBRANCH  94  95
ENDBRANCH  62  87
ENDBRANCH  36  37
ENDBRANCH  28  31
ENDBRANCH  26  27
ENDBRANCH   1  26
TORSDOF 16
ENDMDL
