MODEL 1
REMARK VINA RESULT:     -12.3      0.000      0.000
REMARK SMILES CCc1cc(=O)oc2c3c(cc(OCC(=O)NCC(=O)NCCCNC(=O)c4ccc(-c5c6nc(c(-c7c(F)cc(S(=O)(=O)[O-])cc7F)c7ccc([nH]7)c(-c7c(F)cc(S(=O)(=O)[O-])cc7F)c7nc(c(-c8c(F)cc(S(=O)(=O)[O-])cc8F)c8ccc5[nH]8)C=C7)C=C6)cc4)c12)OC(C)(C)CC3
REMARK SMILES IDX 22 1 21 2 19 3 20 4 18 6 17 7 15 8 16 9 14 11 13 12 12 13
REMARK SMILES IDX 3 14 4 15 94 16 5 17 8 18 6 19 7 20 9 21 11 22 10 23 100 24
REMARK SMILES IDX 95 25 99 26 96 27 97 28 98 29 2 30 1 31 23 32 24 33 25 34
REMARK SMILES IDX 26 35 27 37 28 38 29 39 93 40 30 41 92 42 31 43 32 44 33 45
REMARK SMILES IDX 86 46 34 47 91 48 85 49 87 50 35 51 90 52 84 53 83 54 36 56
REMARK SMILES IDX 70 57 49 58 69 59 50 60 53 61 68 62 88 63 51 64 52 65 67 67
REMARK SMILES IDX 89 68 54 69 37 70 38 71 47 72 39 73 40 74 46 75 48 76 41 77
REMARK SMILES IDX 42 78 43 79 44 80 45 81 71 82 72 83 81 84 73 85 74 86 80 87
REMARK SMILES IDX 82 88 75 89 76 90 77 91 78 92 79 93 55 94 56 95 65 96 57 97
REMARK SMILES IDX 58 98 64 99 66 100 59 101 60 102 61 103 62 104 63 105
REMARK H PARENT 21 5 17 10 25 36 87 55 53 66
REMARK Flexibility Score: inf
ROOT
ATOM      1  C   UNL A   1      32.049  28.734  24.610  1.00  0.00     0.117 C 
ENDROOT
BRANCH   1   2
ATOM      2  N   UNL A   1      31.540  28.519  25.944  1.00  0.00    -0.355 N 
ATOM      3  C   UNL A   1      31.055  27.354  26.470  1.00  0.00     0.239 C 
ATOM      4  O   UNL A   1      30.948  27.272  27.696  1.00  0.00    -0.273 OA
ATOM      5  H   UNL A   1      31.543  29.300  26.543  1.00  0.00     0.163 HD
BRANCH   3   6
ATOM      6  C   UNL A   1      30.807  26.130  25.573  1.00  0.00     0.216 C 
BRANCH   6   7
ATOM      7  N   UNL A   1      29.970  25.102  26.169  1.00  0.00    -0.344 N 
ATOM      8  C   UNL A   1      30.346  23.933  26.762  1.00  0.00     0.258 C 
ATOM      9  O   UNL A   1      29.493  23.307  27.393  1.00  0.00    -0.271 OA
ATOM     10  H   UNL A   1      29.001  25.273  26.141  1.00  0.00     0.164 HD
BRANCH   8  11
ATOM     11  C   UNL A   1      31.798  23.428  26.659  1.00  0.00     0.329 C 
BRANCH  11  12
ATOM     12  O   UNL A   1      32.225  22.860  25.424  1.00  0.00    -0.483 OA
BRANCH  12  13
ATOM     13  C   UNL A   1      33.081  21.792  25.422  1.00  0.00     0.135 A 
ATOM     14  C   UNL A   1      35.173  23.364  25.247  1.00  0.00    -0.026 A 
ATOM     15  C   UNL A   1      36.520  23.347  25.178  1.00  0.00     0.098 A 
ATOM     16  C   UNL A   1      34.475  22.039  25.324  1.00  0.00     0.063 A 
ATOM     17  C   UNL A   1      37.365  22.154  25.170  1.00  0.00     0.336 A 
ATOM     18  C   UNL A   1      35.283  20.884  25.183  1.00  0.00     0.149 A 
ATOM     19  O   UNL A   1      38.586  22.251  25.199  1.00  0.00    -0.246 OA
ATOM     20  O   UNL A   1      36.695  20.961  25.102  1.00  0.00    -0.422 OA
ATOM     21  C   UNL A   1      34.774  19.575  25.062  1.00  0.00     0.038 A 
ATOM     22  C   UNL A   1      32.585  20.476  25.421  1.00  0.00     0.094 A 
ATOM     23  C   UNL A   1      33.409  19.391  25.161  1.00  0.00     0.130 A 
ATOM     24  C   UNL A   1      35.658  18.425  24.687  1.00  0.00     0.047 C 
ATOM     25  O   UNL A   1      32.773  18.199  24.966  1.00  0.00    -0.487 OA
ATOM     26  C   UNL A   1      34.942  17.089  24.805  1.00  0.00     0.053 C 
ATOM     27  C   UNL A   1      33.507  17.174  24.267  1.00  0.00     0.104 C 
ATOM     28  C   UNL A   1      32.768  15.864  24.568  1.00  0.00     0.056 C 
ATOM     29  C   UNL A   1      33.433  17.420  22.750  1.00  0.00     0.056 C 
BRANCH  14  30
ATOM     30  C   UNL A   1      34.562  24.750  25.070  1.00  0.00     0.033 C 
ATOM     31  C   UNL A   1      33.983  25.256  23.758  1.00  0.00     0.009 C 
ENDBRANCH  14  30
ENDBRANCH  12  13
ENDBRANCH  11  12
ENDBRANCH   8  11
ENDBRANCH   6   7
ENDBRANCH   3   6
ENDBRANCH   1   2
BRANCH   1  32
ATOM     32  C   UNL A   1      33.562  28.817  24.532  1.00  0.00     0.042 C 
BRANCH  32  33
ATOM     33  C   UNL A   1      34.272  28.764  25.879  1.00  0.00     0.118 C 
BRANCH  33  34
ATOM     34  N   UNL A   1      33.968  29.881  26.769  1.00  0.00    -0.352 N 
ATOM     35  C   UNL A   1      34.707  30.548  27.721  1.00  0.00     0.251 C 
ATOM     36  H   UNL A   1      33.050  30.225  26.670  1.00  0.00     0.163 HD
ATOM     37  O   UNL A   1      34.169  31.476  28.323  1.00  0.00    -0.269 OA
BRANCH  35  38
ATOM     38  C   UNL A   1      36.091  30.153  28.088  1.00  0.00     0.039 A 
ATOM     39  C   UNL A   1      36.321  29.633  29.373  1.00  0.00     0.014 A 
ATOM     40  C   UNL A   1      37.161  30.279  27.208  1.00  0.00     0.014 A 
ATOM     41  C   UNL A   1      37.583  29.142  29.731  1.00  0.00     0.010 A 
ATOM     42  C   UNL A   1      38.400  29.730  27.533  1.00  0.00     0.010 A 
ATOM     43  C   UNL A   1      38.625  29.170  28.801  1.00  0.00    -0.014 A 
BRANCH  43  44
ATOM     44  C   UNL A   1      40.011  28.777  29.155  1.00  0.00     0.031 A 
ATOM     45  C   UNL A   1      40.904  29.822  29.760  1.00  0.00     0.074 A 
ATOM     46  C   UNL A   1      40.492  27.554  28.865  1.00  0.00     0.049 A 
ATOM     47  N   UNL A   1      42.183  29.773  30.008  1.00  0.00    -0.248 NA
ATOM     48  C   UNL A   1      40.268  31.107  30.103  1.00  0.00     0.031 C 
ATOM     49  C   UNL A   1      39.717  26.460  28.287  1.00  0.00     0.029 A 
ATOM     50  N   UNL A   1      41.756  27.032  28.984  1.00  0.00    -0.354 N 
ATOM     51  C   UNL A   1      42.507  31.018  30.530  1.00  0.00     0.074 A 
ATOM     52  C   UNL A   1      41.308  31.824  30.496  1.00  0.00     0.031 C 
ATOM     53  C   UNL A   1      40.523  25.409  28.067  1.00  0.00     0.029 A 
ATOM     54  C   UNL A   1      41.879  25.759  28.473  1.00  0.00     0.049 A 
ATOM     55  H   UNL A   1      42.504  27.521  29.395  1.00  0.00     0.167 HD
ATOM     56  C   UNL A   1      43.693  31.440  31.025  1.00  0.00     0.037 A 
ATOM     57  C   UNL A   1      42.964  24.972  28.337  1.00  0.00     0.037 A 
ATOM     58  C   UNL A   1      44.875  30.624  31.065  1.00  0.00     0.049 A 
ATOM     59  C   UNL A   1      44.286  25.477  28.852  1.00  0.00     0.074 A 
ATOM     60  C   UNL A   1      46.120  30.933  31.579  1.00  0.00     0.029 A 
ATOM     61  N   UNL A   1      44.957  29.330  30.564  1.00  0.00    -0.354 N 
ATOM     62  N   UNL A   1      44.566  26.638  29.396  1.00  0.00    -0.248 NA
ATOM     63  C   UNL A   1      45.431  24.563  28.760  1.00  0.00     0.031 C 
ATOM     64  C   UNL A   1      46.967  29.843  31.352  1.00  0.00     0.029 A 
ATOM     65  C   UNL A   1      46.236  28.835  30.742  1.00  0.00     0.049 A 
ATOM     66  H   UNL A   1      44.214  28.839  30.146  1.00  0.00     0.167 HD
ATOM     67  C   UNL A   1      45.910  26.578  29.750  1.00  0.00     0.074 A 
ATOM     68  C   UNL A   1      46.382  25.265  29.360  1.00  0.00     0.031 C 
ATOM     69  C   UNL A   1      46.679  27.518  30.353  1.00  0.00     0.037 A 
BRANCH  56  70
ATOM     70  C   UNL A   1      43.753  32.845  31.554  1.00  0.00     0.058 A 
ATOM     71  C   UNL A   1      43.943  33.945  30.700  1.00  0.00     0.135 A 
ATOM     72  C   UNL A   1      43.631  33.096  32.928  1.00  0.00     0.135 A 
ATOM     73  F   UNL A   1      44.091  33.758  29.378  1.00  0.00    -0.206 F 
ATOM     74  C   UNL A   1      44.047  35.239  31.195  1.00  0.00     0.059 A 
ATOM     75  C   UNL A   1      43.702  34.388  33.442  1.00  0.00     0.059 A 
ATOM     76  F   UNL A   1      43.458  32.081  33.789  1.00  0.00    -0.206 F 
ATOM     77  C   UNL A   1      43.928  35.450  32.568  1.00  0.00     0.060 A 
BRANCH  77  78
ATOM     78  S   UNL A   1      44.072  37.136  33.195  1.00  0.00     0.124 S 
ATOM     79  O   UNL A   1      42.797  37.299  33.886  1.00  0.00    -0.237 OA
ATOM     80  O   UNL A   1      45.251  37.051  34.051  1.00  0.00    -0.237 OA
ATOM     81  O   UNL A   1      44.236  37.935  31.984  1.00  0.00    -0.744 OA
ENDBRANCH  77  78
ENDBRANCH  56  70
BRANCH  57  82
ATOM     82  C   UNL A   1      42.846  23.622  27.718  1.00  0.00     0.058 A 
ATOM     83  C   UNL A   1      43.026  23.441  26.339  1.00  0.00     0.135 A 
ATOM     84  C   UNL A   1      42.550  22.486  28.490  1.00  0.00     0.135 A 
ATOM     85  F   UNL A   1      43.305  24.494  25.557  1.00  0.00    -0.206 F 
ATOM     86  C   UNL A   1      42.898  22.190  25.742  1.00  0.00     0.059 A 
ATOM     87  C   UNL A   1      42.439  21.221  27.920  1.00  0.00     0.059 A 
ATOM     88  F   UNL A   1      42.384  22.600  29.817  1.00  0.00    -0.206 F 
ATOM     89  C   UNL A   1      42.604  21.084  26.542  1.00  0.00     0.060 A 
BRANCH  89  90
ATOM     90  S   UNL A   1      42.474  19.462  25.758  1.00  0.00     0.124 S 
ATOM     91  O   UNL A   1      42.843  18.574  26.855  1.00  0.00    -0.237 OA
ATOM     92  O   UNL A   1      41.071  19.429  25.355  1.00  0.00    -0.237 OA
ATOM     93  O   UNL A   1      43.433  19.542  24.661  1.00  0.00    -0.744 OA
ENDBRANCH  89  90
ENDBRANCH  57  82
BRANCH  69  94
ATOM     94  C   UNL A   1      48.098  27.144  30.672  1.00  0.00     0.058 A 
ATOM     95  C   UNL A   1      49.165  27.505  29.835  1.00  0.00     0.135 A 
ATOM     96  C   UNL A   1      48.396  26.458  31.862  1.00  0.00     0.135 A 
ATOM     97  F   UNL A   1      48.931  28.155  28.685  1.00  0.00    -0.206 F 
ATOM     98  C   UNL A   1      50.478  27.177  30.154  1.00  0.00     0.059 A 
ATOM     99  C   UNL A   1      49.704  26.146  32.214  1.00  0.00     0.059 A 
ATOM    100  F   UNL A   1      47.412  26.100  32.702  1.00  0.00    -0.206 F 
ATOM    101  C   UNL A   1      50.738  26.499  31.347  1.00  0.00     0.060 A 
BRANCH 101 102
ATOM    102  S   UNL A   1      52.448  26.107  31.765  1.00  0.00     0.124 S 
ATOM    103  O   UNL A   1      52.823  27.259  32.579  1.00  0.00    -0.237 OA
ATOM    104  O   UNL A   1      52.313  24.841  32.481  1.00  0.00    -0.237 OA
ATOM    105  O   UNL A   1      53.104  26.017  30.464  1.00  0.00    -0.744 OA
ENDBRANCH 101 102
ENDBRANCH  69  94
ENDBRANCH  43  44
ENDBRANCH  35  38
ENDBRANCH  33  34
ENDBRANCH  32  33
ENDBRANCH   1  32
TORSDOF 18
ENDMDL
MODEL 2
REMARK VINA RESULT:     -12.2      3.265      9.002
REMARK SMILES CCc1cc(=O)oc2c3c(cc(OCC(=O)NCC(=O)NCCCNC(=O)c4ccc(-c5c6nc(c(-c7c(F)cc(S(=O)(=O)[O-])cc7F)c7ccc([nH]7)c(-c7c(F)cc(S(=O)(=O)[O-])cc7F)c7nc(c(-c8c(F)cc(S(=O)(=O)[O-])cc8F)c8ccc5[nH]8)C=C7)C=C6)cc4)c12)OC(C)(C)CC3
REMARK SMILES IDX 22 1 21 2 19 3 20 4 18 6 17 7 15 8 16 9 14 11 13 12 12 13
REMARK SMILES IDX 3 14 4 15 94 16 5 17 8 18 6 19 7 20 9 21 11 22 10 23 100 24
REMARK SMILES IDX 95 25 99 26 96 27 97 28 98 29 2 30 1 31 23 32 24 33 25 34
REMARK SMILES IDX 26 35 27 37 28 38 29 39 93 40 30 41 92 42 31 43 32 44 33 45
REMARK SMILES IDX 86 46 34 47 91 48 85 49 87 50 35 51 90 52 84 53 83 54 36 56
REMARK SMILES IDX 70 57 49 58 69 59 50 60 53 61 68 62 88 63 51 64 52 65 67 67
REMARK SMILES IDX 89 68 54 69 37 70 38 71 47 72 39 73 40 74 46 75 48 76 41 77
REMARK SMILES IDX 42 78 43 79 44 80 45 81 71 82 72 83 81 84 73 85 74 86 80 87
REMARK SMILES IDX 82 88 75 89 76 90 77 91 78 92 79 93 55 94 56 95 65 96 57 97
REMARK SMILES IDX 58 98 64 99 66 100 59 101 60 102 61 103 62 104 63 105
REMARK H PARENT 21 5 17 10 25 36 87 55 53 66
REMARK Flexibility Score: inf
ROOT
ATOM      1  C   UNL A   1      35.345  32.143  28.187  1.00  0.00     0.117 C 
ENDROOT
BRANCH   1   2
ATOM      2  N   UNL A   1      34.111  32.813  27.848  1.00  0.00    -0.355 N 
ATOM      3  C   UNL A   1      32.986  32.255  27.306  1.00  0.00     0.239 C 
ATOM      4  O   UNL A   1      31.935  32.899  27.362  1.00  0.00    -0.273 OA
ATOM      5  H   UNL A   1      34.076  33.780  28.028  1.00  0.00     0.163 HD
BRANCH   3   6
ATOM      6  C   UNL A   1      32.997  30.807  26.789  1.00  0.00     0.216 C 
BRANCH   6   7
ATOM      7  N   UNL A   1      31.936  29.967  27.318  1.00  0.00    -0.344 N 
ATOM      8  C   UNL A   1      31.891  28.608  27.413  1.00  0.00     0.258 C 
ATOM      9  O   UNL A   1      30.991  28.107  28.090  1.00  0.00    -0.271 OA
ATOM     10  H   UNL A   1      31.143  30.444  27.654  1.00  0.00     0.164 HD
BRANCH   8  11
ATOM     11  C   UNL A   1      32.947  27.733  26.711  1.00  0.00     0.329 C 
BRANCH  11  12
ATOM     12  O   UNL A   1      32.514  26.527  26.088  1.00  0.00    -0.483 OA
BRANCH  12  13
ATOM     13  C   UNL A   1      33.355  25.851  25.247  1.00  0.00     0.135 A 
ATOM     14  C   UNL A   1      31.890  26.465  23.159  1.00  0.00    -0.026 A 
ATOM     15  C   UNL A   1      31.815  26.304  21.822  1.00  0.00     0.098 A 
ATOM     16  C   UNL A   1      33.045  25.815  23.862  1.00  0.00     0.063 A 
ATOM     17  C   UNL A   1      32.755  25.552  20.992  1.00  0.00     0.336 A 
ATOM     18  C   UNL A   1      33.879  24.979  23.079  1.00  0.00     0.149 A 
ATOM     19  O   UNL A   1      32.647  25.546  19.771  1.00  0.00    -0.246 OA
ATOM     20  O   UNL A   1      33.717  24.858  21.677  1.00  0.00    -0.422 OA
ATOM     21  C   UNL A   1      34.899  24.164  23.609  1.00  0.00     0.038 A 
ATOM     22  C   UNL A   1      34.450  25.128  25.754  1.00  0.00     0.094 A 
ATOM     23  C   UNL A   1      35.158  24.235  24.964  1.00  0.00     0.130 A 
ATOM     24  C   UNL A   1      35.593  23.135  22.770  1.00  0.00     0.047 C 
ATOM     25  O   UNL A   1      36.045  23.436  25.626  1.00  0.00    -0.487 OA
ATOM     26  C   UNL A   1      36.780  22.514  23.487  1.00  0.00     0.053 C 
ATOM     27  C   UNL A   1      36.455  22.225  24.959  1.00  0.00     0.104 C 
ATOM     28  C   UNL A   1      37.727  21.770  25.685  1.00  0.00     0.056 C 
ATOM     29  C   UNL A   1      35.386  21.135  25.151  1.00  0.00     0.056 C 
BRANCH  14  30
ATOM     30  C   UNL A   1      30.678  27.160  23.768  1.00  0.00     0.033 C 
ATOM     31  C   UNL A   1      30.565  28.667  23.937  1.00  0.00     0.009 C 
ENDBRANCH  14  30
ENDBRANCH  12  13
ENDBRANCH  11  12
ENDBRANCH   8  11
ENDBRANCH   6   7
ENDBRANCH   3   6
ENDBRANCH   1   2
BRANCH   1  32
ATOM     32  C   UNL A   1      36.426  33.070  28.713  1.00  0.00     0.042 C 
BRANCH  32  33
ATOM     33  C   UNL A   1      36.791  32.855  30.176  1.00  0.00     0.118 C 
BRANCH  33  34
ATOM     34  N   UNL A   1      36.327  31.589  30.737  1.00  0.00    -0.352 N 
ATOM     35  C   UNL A   1      36.912  30.348  30.856  1.00  0.00     0.251 C 
ATOM     36  H   UNL A   1      35.414  31.632  31.103  1.00  0.00     0.163 HD
ATOM     37  O   UNL A   1      36.260  29.453  31.392  1.00  0.00    -0.269 OA
BRANCH  35  38
ATOM     38  C   UNL A   1      38.257  30.036  30.309  1.00  0.00     0.039 A 
ATOM     39  C   UNL A   1      38.396  29.886  28.918  1.00  0.00     0.014 A 
ATOM     40  C   UNL A   1      39.377  29.889  31.120  1.00  0.00     0.014 A 
ATOM     41  C   UNL A   1      39.659  29.702  28.342  1.00  0.00     0.010 A 
ATOM     42  C   UNL A   1      40.642  29.776  30.550  1.00  0.00     0.010 A 
ATOM     43  C   UNL A   1      40.794  29.668  29.158  1.00  0.00    -0.014 A 
BRANCH  43  44
ATOM     44  C   UNL A   1      42.142  29.358  28.623  1.00  0.00     0.031 A 
ATOM     45  C   UNL A   1      42.433  27.938  28.231  1.00  0.00     0.074 A 
ATOM     46  C   UNL A   1      43.111  30.291  28.571  1.00  0.00     0.049 A 
ATOM     47  N   UNL A   1      43.566  27.389  27.891  1.00  0.00    -0.248 NA
ATOM     48  C   UNL A   1      41.291  27.006  28.256  1.00  0.00     0.031 C 
ATOM     49  C   UNL A   1      42.942  31.699  28.917  1.00  0.00     0.029 A 
ATOM     50  N   UNL A   1      44.440  30.193  28.241  1.00  0.00    -0.354 N 
ATOM     51  C   UNL A   1      43.277  26.050  27.667  1.00  0.00     0.074 A 
ATOM     52  C   UNL A   1      41.880  25.854  27.980  1.00  0.00     0.031 C 
ATOM     53  C   UNL A   1      44.123  32.329  28.817  1.00  0.00     0.029 A 
ATOM     54  C   UNL A   1      45.141  31.365  28.416  1.00  0.00     0.049 A 
ATOM     55  H   UNL A   1      44.852  29.363  27.911  1.00  0.00     0.167 HD
ATOM     56  C   UNL A   1      44.098  25.077  27.209  1.00  0.00     0.037 A 
ATOM     57  C   UNL A   1      46.455  31.626  28.280  1.00  0.00     0.037 A 
ATOM     58  C   UNL A   1      45.483  25.290  26.889  1.00  0.00     0.049 A 
ATOM     59  C   UNL A   1      47.363  30.518  27.814  1.00  0.00     0.074 A 
ATOM     60  C   UNL A   1      46.398  24.388  26.381  1.00  0.00     0.029 A 
ATOM     61  N   UNL A   1      46.154  26.495  27.052  1.00  0.00    -0.354 N 
ATOM     62  N   UNL A   1      47.064  29.268  27.552  1.00  0.00    -0.248 NA
ATOM     63  C   UNL A   1      48.775  30.858  27.601  1.00  0.00     0.031 C 
ATOM     64  C   UNL A   1      47.634  25.036  26.276  1.00  0.00     0.029 A 
ATOM     65  C   UNL A   1      47.476  26.355  26.670  1.00  0.00     0.049 A 
ATOM     66  H   UNL A   1      45.747  27.326  27.388  1.00  0.00     0.167 HD
ATOM     67  C   UNL A   1      48.242  28.682  27.101  1.00  0.00     0.074 A 
ATOM     68  C   UNL A   1      49.255  29.717  27.126  1.00  0.00     0.031 C 
ATOM     69  C   UNL A   1      48.463  27.407  26.694  1.00  0.00     0.037 A 
BRANCH  56  70
ATOM     70  C   UNL A   1      43.506  23.708  27.036  1.00  0.00     0.058 A 
ATOM     71  C   UNL A   1      43.337  22.836  28.126  1.00  0.00     0.135 A 
ATOM     72  C   UNL A   1      43.114  23.254  25.768  1.00  0.00     0.135 A 
ATOM     73  F   UNL A   1      43.719  23.211  29.358  1.00  0.00    -0.206 F 
ATOM     74  C   UNL A   1      42.835  21.551  27.958  1.00  0.00     0.059 A 
ATOM     75  C   UNL A   1      42.580  21.982  25.582  1.00  0.00     0.059 A 
ATOM     76  F   UNL A   1      43.262  24.041  24.692  1.00  0.00    -0.206 F 
ATOM     77  C   UNL A   1      42.462  21.133  26.681  1.00  0.00     0.060 A 
BRANCH  77  78
ATOM     78  S   UNL A   1      41.817  19.459  26.479  1.00  0.00     0.124 S 
ATOM     79  O   UNL A   1      40.413  19.722  26.182  1.00  0.00    -0.237 OA
ATOM     80  O   UNL A   1      42.616  18.949  25.369  1.00  0.00    -0.237 OA
ATOM     81  O   UNL A   1      42.079  18.837  27.774  1.00  0.00    -0.744 OA
ENDBRANCH  77  78
ENDBRANCH  56  70
BRANCH  57  82
ATOM     82  C   UNL A   1      46.988  32.990  28.557  1.00  0.00     0.058 A 
ATOM     83  C   UNL A   1      47.422  33.348  29.842  1.00  0.00     0.135 A 
ATOM     84  C   UNL A   1      47.073  33.962  27.547  1.00  0.00     0.135 A 
ATOM     85  F   UNL A   1      47.357  32.458  30.844  1.00  0.00    -0.206 F 
ATOM     86  C   UNL A   1      47.902  34.625  30.122  1.00  0.00     0.059 A 
ATOM     87  C   UNL A   1      47.570  35.238  27.797  1.00  0.00     0.059 A 
ATOM     88  F   UNL A   1      46.686  33.666  26.296  1.00  0.00    -0.206 F 
ATOM     89  C   UNL A   1      47.973  35.564  29.092  1.00  0.00     0.060 A 
BRANCH  89  90
ATOM     90  S   UNL A   1      48.629  37.206  29.463  1.00  0.00     0.124 S 
ATOM     91  O   UNL A   1      48.800  37.135  30.910  1.00  0.00    -0.237 OA
ATOM     92  O   UNL A   1      49.858  37.228  28.676  1.00  0.00    -0.237 OA
ATOM     93  O   UNL A   1      47.577  38.102  28.995  1.00  0.00    -0.744 OA
ENDBRANCH  89  90
ENDBRANCH  57  82
BRANCH  69  94
ATOM     94  C   UNL A   1      49.840  27.073  26.196  1.00  0.00     0.058 A 
ATOM     95  C   UNL A   1      50.870  26.687  27.067  1.00  0.00     0.135 A 
ATOM     96  C   UNL A   1      50.116  27.092  24.818  1.00  0.00     0.135 A 
ATOM     97  F   UNL A   1      50.659  26.659  28.393  1.00  0.00    -0.206 F 
ATOM     98  C   UNL A   1      52.133  26.354  26.592  1.00  0.00     0.059 A 
ATOM     99  C   UNL A   1      51.363  26.735  24.320  1.00  0.00     0.059 A 
ATOM    100  F   UNL A   1      49.161  27.444  23.942  1.00  0.00    -0.206 F 
ATOM    101  C   UNL A   1      52.370  26.379  25.216  1.00  0.00     0.060 A 
BRANCH 101 102
ATOM    102  S   UNL A   1      54.004  25.914  24.610  1.00  0.00     0.124 S 
ATOM    103  O   UNL A   1      54.875  26.657  25.516  1.00  0.00    -0.237 OA
ATOM    104  O   UNL A   1      54.000  24.464  24.780  1.00  0.00    -0.237 OA
ATOM    105  O   UNL A   1      53.998  26.378  23.226  1.00  0.00    -0.744 OA
ENDBRANCH 101 102
ENDBRANCH  69  94
ENDBRANCH  43  44
ENDBRANCH  35  38
ENDBRANCH  33  34
ENDBRANCH  32  33
ENDBRANCH   1  32
TORSDOF 18
ENDMDL
MODEL 3
REMARK VINA RESULT:     -12.2      3.182      9.801
REMARK SMILES CCc1cc(=O)oc2c3c(cc(OCC(=O)NCC(=O)NCCCNC(=O)c4ccc(-c5c6nc(c(-c7c(F)cc(S(=O)(=O)[O-])cc7F)c7ccc([nH]7)c(-c7c(F)cc(S(=O)(=O)[O-])cc7F)c7nc(c(-c8c(F)cc(S(=O)(=O)[O-])cc8F)c8ccc5[nH]8)C=C7)C=C6)cc4)c12)OC(C)(C)CC3
REMARK SMILES IDX 22 1 21 2 19 3 20 4 18 6 17 7 15 8 16 9 14 11 13 12 12 13
REMARK SMILES IDX 3 14 4 15 94 16 5 17 8 18 6 19 7 20 9 21 11 22 10 23 100 24
REMARK SMILES IDX 95 25 99 26 96 27 97 28 98 29 2 30 1 31 23 32 24 33 25 34
REMARK SMILES IDX 26 35 27 37 28 38 29 39 93 40 30 41 92 42 31 43 32 44 33 45
REMARK SMILES IDX 86 46 34 47 91 48 85 49 87 50 35 51 90 52 84 53 83 54 36 56
REMARK SMILES IDX 70 57 49 58 69 59 50 60 53 61 68 62 88 63 51 64 52 65 67 67
REMARK SMILES IDX 89 68 54 69 37 70 38 71 47 72 39 73 40 74 46 75 48 76 41 77
REMARK SMILES IDX 42 78 43 79 44 80 45 81 71 82 72 83 81 84 73 85 74 86 80 87
REMARK SMILES IDX 82 88 75 89 76 90 77 91 78 92 79 93 55 94 56 95 65 96 57 97
REMARK SMILES IDX 58 98 64 99 66 100 59 101 60 102 61 103 62 104 63 105
REMARK H PARENT 21 5 17 10 25 36 87 55 53 66
REMARK Flexibility Score: inf
ROOT
ATOM      1  C   UNL A   1      34.785  23.241  24.179  1.00  0.00     0.117 C 
ENDROOT
BRANCH   1   2
ATOM      2  N   UNL A   1      34.312  21.907  24.465  1.00  0.00    -0.355 N 
ATOM      3  C   UNL A   1      33.237  21.270  23.910  1.00  0.00     0.239 C 
ATOM      4  O   UNL A   1      33.157  20.046  24.042  1.00  0.00    -0.273 OA
ATOM      5  H   UNL A   1      34.823  21.398  25.136  1.00  0.00     0.163 HD
BRANCH   3   6
ATOM      6  C   UNL A   1      32.247  22.033  23.015  1.00  0.00     0.216 C 
BRANCH   6   7
ATOM      7  N   UNL A   1      31.332  22.905  23.730  1.00  0.00    -0.344 N 
ATOM      8  C   UNL A   1      31.049  24.220  23.502  1.00  0.00     0.258 C 
ATOM      9  O   UNL A   1      30.084  24.713  24.088  1.00  0.00    -0.271 OA
ATOM     10  H   UNL A   1      30.849  22.491  24.482  1.00  0.00     0.164 HD
BRANCH   8  11
ATOM     11  C   UNL A   1      31.902  25.050  22.523  1.00  0.00     0.329 C 
BRANCH  11  12
ATOM     12  O   UNL A   1      32.701  26.102  23.056  1.00  0.00    -0.483 OA
BRANCH  12  13
ATOM     13  C   UNL A   1      32.161  27.346  23.237  1.00  0.00     0.135 A 
ATOM     14  C   UNL A   1      33.295  27.584  25.591  1.00  0.00    -0.026 A 
ATOM     15  C   UNL A   1      33.423  28.428  26.635  1.00  0.00     0.098 A 
ATOM     16  C   UNL A   1      32.436  28.036  24.447  1.00  0.00     0.063 A 
ATOM     17  C   UNL A   1      32.800  29.745  26.757  1.00  0.00     0.336 A 
ATOM     18  C   UNL A   1      31.729  29.251  24.622  1.00  0.00     0.149 A 
ATOM     19  O   UNL A   1      33.056  30.474  27.708  1.00  0.00    -0.246 OA
ATOM     20  O   UNL A   1      31.915  30.070  25.763  1.00  0.00    -0.422 OA
ATOM     21  C   UNL A   1      30.754  29.732  23.725  1.00  0.00     0.038 A 
ATOM     22  C   UNL A   1      31.276  27.890  22.289  1.00  0.00     0.094 A 
ATOM     23  C   UNL A   1      30.522  29.021  22.565  1.00  0.00     0.130 A 
ATOM     24  C   UNL A   1      29.879  30.898  24.074  1.00  0.00     0.047 C 
ATOM     25  O   UNL A   1      29.545  29.315  21.658  1.00  0.00    -0.487 OA
ATOM     26  C   UNL A   1      29.044  31.362  22.892  1.00  0.00     0.053 C 
ATOM     27  C   UNL A   1      28.476  30.171  22.107  1.00  0.00     0.104 C 
ATOM     28  C   UNL A   1      27.795  30.678  20.830  1.00  0.00     0.056 C 
ATOM     29  C   UNL A   1      27.444  29.349  22.898  1.00  0.00     0.056 C 
BRANCH  14  30
ATOM     30  C   UNL A   1      33.927  26.216  25.820  1.00  0.00     0.033 C 
ATOM     31  C   UNL A   1      33.170  25.018  26.372  1.00  0.00     0.009 C 
ENDBRANCH  14  30
ENDBRANCH  12  13
ENDBRANCH  11  12
ENDBRANCH   8  11
ENDBRANCH   6   7
ENDBRANCH   3   6
ENDBRANCH   1   2
BRANCH   1  32
ATOM     32  C   UNL A   1      36.264  23.315  23.849  1.00  0.00     0.042 C 
BRANCH  32  33
ATOM     33  C   UNL A   1      37.161  23.674  25.027  1.00  0.00     0.118 C 
BRANCH  33  34
ATOM     34  N   UNL A   1      38.264  22.745  25.255  1.00  0.00    -0.352 N 
ATOM     35  C   UNL A   1      39.396  22.809  26.038  1.00  0.00     0.251 C 
ATOM     36  H   UNL A   1      38.182  21.904  24.748  1.00  0.00     0.163 HD
ATOM     37  O   UNL A   1      40.158  21.844  26.028  1.00  0.00    -0.269 OA
BRANCH  35  38
ATOM     38  C   UNL A   1      39.758  24.011  26.832  1.00  0.00     0.039 A 
ATOM     39  C   UNL A   1      40.717  24.895  26.309  1.00  0.00     0.014 A 
ATOM     40  C   UNL A   1      39.184  24.290  28.068  1.00  0.00     0.014 A 
ATOM     41  C   UNL A   1      41.013  26.097  26.963  1.00  0.00     0.010 A 
ATOM     42  C   UNL A   1      39.423  25.514  28.688  1.00  0.00     0.010 A 
ATOM     43  C   UNL A   1      40.348  26.422  28.148  1.00  0.00    -0.014 A 
BRANCH  43  44
ATOM     44  C   UNL A   1      40.701  27.619  28.950  1.00  0.00     0.031 A 
ATOM     45  C   UNL A   1      41.944  27.561  29.790  1.00  0.00     0.074 A 
ATOM     46  C   UNL A   1      39.894  28.696  29.000  1.00  0.00     0.049 A 
ATOM     47  N   UNL A   1      42.377  28.404  30.686  1.00  0.00    -0.248 NA
ATOM     48  C   UNL A   1      42.797  26.372  29.613  1.00  0.00     0.031 C 
ATOM     49  C   UNL A   1      38.670  28.867  28.224  1.00  0.00     0.029 A 
ATOM     50  N   UNL A   1      39.960  29.836  29.762  1.00  0.00    -0.354 N 
ATOM     51  C   UNL A   1      43.547  27.847  31.184  1.00  0.00     0.074 A 
ATOM     52  C   UNL A   1      43.718  26.562  30.544  1.00  0.00     0.031 C 
ATOM     53  C   UNL A   1      38.079  30.022  28.570  1.00  0.00     0.029 A 
ATOM     54  C   UNL A   1      38.874  30.668  29.607  1.00  0.00     0.049 A 
ATOM     55  H   UNL A   1      40.713  30.039  30.362  1.00  0.00     0.167 HD
ATOM     56  C   UNL A   1      44.419  28.376  32.072  1.00  0.00     0.037 A 
ATOM     57  C   UNL A   1      38.552  31.813  30.240  1.00  0.00     0.037 A 
ATOM     58  C   UNL A   1      44.244  29.661  32.691  1.00  0.00     0.049 A 
ATOM     59  C   UNL A   1      39.513  32.364  31.260  1.00  0.00     0.074 A 
ATOM     60  C   UNL A   1      45.082  30.315  33.574  1.00  0.00     0.029 A 
ATOM     61  N   UNL A   1      43.147  30.489  32.490  1.00  0.00    -0.354 N 
ATOM     62  N   UNL A   1      40.646  31.853  31.681  1.00  0.00    -0.248 NA
ATOM     63  C   UNL A   1      39.169  33.653  31.872  1.00  0.00     0.031 C 
ATOM     64  C   UNL A   1      44.472  31.519  33.941  1.00  0.00     0.029 A 
ATOM     65  C   UNL A   1      43.278  31.639  33.248  1.00  0.00     0.049 A 
ATOM     66  H   UNL A   1      42.388  30.287  31.897  1.00  0.00     0.167 HD
ATOM     67  C   UNL A   1      41.172  32.779  32.575  1.00  0.00     0.074 A 
ATOM     68  C   UNL A   1      40.233  33.880  32.631  1.00  0.00     0.031 C 
ATOM     69  C   UNL A   1      42.331  32.728  33.277  1.00  0.00     0.037 A 
BRANCH  56  70
ATOM     70  C   UNL A   1      45.629  27.555  32.415  1.00  0.00     0.058 A 
ATOM     71  C   UNL A   1      46.779  27.567  31.607  1.00  0.00     0.135 A 
ATOM     72  C   UNL A   1      45.638  26.738  33.555  1.00  0.00     0.135 A 
ATOM     73  F   UNL A   1      46.814  28.312  30.490  1.00  0.00    -0.206 F 
ATOM     74  C   UNL A   1      47.880  26.769  31.898  1.00  0.00     0.059 A 
ATOM     75  C   UNL A   1      46.741  25.954  33.882  1.00  0.00     0.059 A 
ATOM     76  F   UNL A   1      44.563  26.682  34.356  1.00  0.00    -0.206 F 
ATOM     77  C   UNL A   1      47.850  25.964  33.036  1.00  0.00     0.060 A 
BRANCH  77  78
ATOM     78  S   UNL A   1      49.285  24.930  33.396  1.00  0.00     0.124 S 
ATOM     79  O   UNL A   1      49.848  24.740  32.063  1.00  0.00    -0.237 OA
ATOM     80  O   UNL A   1      50.060  25.776  34.298  1.00  0.00    -0.237 OA
ATOM     81  O   UNL A   1      48.700  23.739  34.006  1.00  0.00    -0.744 OA
ENDBRANCH  77  78
ENDBRANCH  56  70
BRANCH  57  82
ATOM     82  C   UNL A   1      37.287  32.528  29.911  1.00  0.00     0.058 A 
ATOM     83  C   UNL A   1      36.058  32.098  30.431  1.00  0.00     0.135 A 
ATOM     84  C   UNL A   1      37.280  33.654  29.072  1.00  0.00     0.135 A 
ATOM     85  F   UNL A   1      36.009  31.025  31.234  1.00  0.00    -0.206 F 
ATOM     86  C   UNL A   1      34.864  32.743  30.116  1.00  0.00     0.059 A 
ATOM     87  C   UNL A   1      36.103  34.329  28.760  1.00  0.00     0.059 A 
ATOM     88  F   UNL A   1      38.431  34.118  28.560  1.00  0.00    -0.206 F 
ATOM     89  C   UNL A   1      34.897  33.859  29.279  1.00  0.00     0.060 A 
BRANCH  89  90
ATOM     90  S   UNL A   1      33.345  34.705  28.907  1.00  0.00     0.124 S 
ATOM     91  O   UNL A   1      33.821  35.945  28.307  1.00  0.00    -0.237 OA
ATOM     92  O   UNL A   1      32.695  33.765  28.000  1.00  0.00    -0.237 OA
ATOM     93  O   UNL A   1      32.714  34.839  30.216  1.00  0.00    -0.744 OA
ENDBRANCH  89  90
ENDBRANCH  57  82
BRANCH  69  94
ATOM     94  C   UNL A   1      42.673  33.917  34.128  1.00  0.00     0.058 A 
ATOM     95  C   UNL A   1      42.361  33.963  35.496  1.00  0.00     0.135 A 
ATOM     96  C   UNL A   1      43.368  35.005  33.574  1.00  0.00     0.135 A 
ATOM     97  F   UNL A   1      41.693  32.951  36.071  1.00  0.00    -0.206 F 
ATOM     98  C   UNL A   1      42.706  35.058  36.280  1.00  0.00     0.059 A 
ATOM     99  C   UNL A   1      43.748  36.097  34.346  1.00  0.00     0.059 A 
ATOM    100  F   UNL A   1      43.699  35.005  32.273  1.00  0.00    -0.206 F 
ATOM    101  C   UNL A   1      43.401  36.119  35.697  1.00  0.00     0.060 A 
BRANCH 101 102
ATOM    102  S   UNL A   1      43.870  37.520  36.733  1.00  0.00     0.124 S 
ATOM    103  O   UNL A   1      45.192  37.112  37.196  1.00  0.00    -0.237 OA
ATOM    104  O   UNL A   1      43.845  38.631  35.785  1.00  0.00    -0.237 OA
ATOM    105  O   UNL A   1      42.829  37.552  37.754  1.00  0.00    -0.744 OA
ENDBRANCH 101 102
ENDBRANCH  69  94
ENDBRANCH  43  44
ENDBRANCH  35  38
ENDBRANCH  33  34
ENDBRANCH  32  33
ENDBRANCH   1  32
TORSDOF 18
ENDMDL
