MODEL 1
REMARK VINA RESULT:     -13.9      0.000      0.000
REMARK SMILES NS(=O)(=O)c1ccc(-n2nc(C(=O)NCCCNC(=O)c3ccc(-c4c5nc(c(-c6c(F)cc(S(=O)(=O)[O-])cc6F)c6ccc([nH]6)c(-c6c(F)cc(S(=O)(=O)[O-])cc6F)c6nc(c(-c7c(F)cc(S(=O)(=O)[O-])cc7F)c7ccc4[nH]7)C=C6)C=C5)cc3)cc2-c2ccc(Cl)s2)cc1
REMARK SMILES IDX 16 1 15 2 14 3 12 4 13 5 11 7 9 8 10 9 88 10 87 11 8 12 5 13
REMARK SMILES IDX 6 14 96 15 7 16 95 17 2 18 3 19 4 20 1 21 89 24 90 25 94 26
REMARK SMILES IDX 91 27 92 28 93 29 17 30 18 31 19 32 20 34 21 35 22 36 86 37
REMARK SMILES IDX 23 38 85 39 24 40 25 41 26 42 79 43 27 44 84 45 78 46 80 47
REMARK SMILES IDX 28 48 83 49 77 50 76 51 29 53 63 54 42 55 62 56 43 57 46 58
REMARK SMILES IDX 61 59 81 60 44 61 45 62 60 64 82 65 47 66 30 67 31 68 40 69
REMARK SMILES IDX 32 70 33 71 39 72 41 73 34 74 35 75 36 76 37 77 38 78 64 79
REMARK SMILES IDX 65 80 74 81 66 82 67 83 73 84 75 85 68 86 69 87 70 88 71 89
REMARK SMILES IDX 72 90 48 91 49 92 58 93 50 94 51 95 57 96 59 97 52 98 53 99
REMARK SMILES IDX 54 100 55 101 56 102
REMARK H PARENT 14 6 1 22 1 23 18 33 80 52 46 63
REMARK Flexibility Score: inf
ROOT
ATOM      1  C   UNL A   1      37.020  22.465  24.104  1.00  0.00     0.042 C 
ENDROOT
BRANCH   1   2
ATOM      2  C   UNL A   1      35.724  23.102  23.590  1.00  0.00     0.118 C 
BRANCH   2   3
ATOM      3  N   UNL A   1      34.558  22.277  23.845  1.00  0.00    -0.351 N 
ATOM      4  C   UNL A   1      33.267  22.578  24.229  1.00  0.00     0.271 C 
ATOM      5  O   UNL A   1      32.483  21.627  24.263  1.00  0.00    -0.267 OA
ATOM      6  H   UNL A   1      34.719  21.313  23.719  1.00  0.00     0.163 HD
BRANCH   4   7
ATOM      7  C   UNL A   1      32.843  23.961  24.550  1.00  0.00     0.151 A 
ATOM      8  N   UNL A   1      31.793  25.829  24.287  1.00  0.00    -0.231 N 
ATOM      9  N   UNL A   1      31.854  24.553  23.845  1.00  0.00    -0.162 NA
ATOM     10  C   UNL A   1      32.633  26.040  25.363  1.00  0.00     0.085 A 
ATOM     11  C   UNL A   1      33.290  24.847  25.559  1.00  0.00     0.066 A 
BRANCH   8  12
ATOM     12  C   UNL A   1      30.926  26.763  23.669  1.00  0.00     0.065 A 
ATOM     13  C   UNL A   1      29.240  28.755  22.717  1.00  0.00     0.082 A 
ATOM     14  C   UNL A   1      30.608  28.818  22.432  1.00  0.00     0.024 A 
ATOM     15  C   UNL A   1      28.705  27.684  23.441  1.00  0.00     0.024 A 
ATOM     16  C   UNL A   1      31.455  27.823  22.917  1.00  0.00     0.030 A 
ATOM     17  C   UNL A   1      29.547  26.663  23.890  1.00  0.00     0.030 A 
BRANCH  13  18
ATOM     18  S   UNL A   1      28.201  30.099  22.225  1.00  0.00     0.238 S 
ATOM     19  O   UNL A   1      27.054  30.161  23.089  1.00  0.00    -0.207 OA
ATOM     20  O   UNL A   1      28.080  30.104  20.779  1.00  0.00    -0.207 OA
BRANCH  18  21
ATOM     21  N   UNL A   1      29.142  31.430  22.616  1.00  0.00    -0.225 NA
ATOM     22  H   UNL A   1      28.597  32.283  22.485  1.00  0.00     0.137 HD
ATOM     23  H   UNL A   1      29.963  31.455  22.010  1.00  0.00     0.137 HD
ENDBRANCH  18  21
ENDBRANCH  13  18
ENDBRANCH   8  12
BRANCH  10  24
ATOM     24  C   UNL A   1      32.725  27.210  26.183  1.00  0.00     0.054 A 
ATOM     25  C   UNL A   1      31.746  27.693  27.031  1.00  0.00     0.024 A 
ATOM     26  S   UNL A   1      34.079  28.260  26.118  1.00  0.00    -0.122 S 
ATOM     27  C   UNL A   1      32.125  28.924  27.644  1.00  0.00     0.033 A 
ATOM     28  C   UNL A   1      33.366  29.323  27.222  1.00  0.00     0.094 A 
ATOM     29  Cl  UNL A   1      34.198  30.750  27.691  1.00  0.00    -0.072 Cl
ENDBRANCH  10  24
ENDBRANCH   4   7
ENDBRANCH   2   3
ENDBRANCH   1   2
BRANCH   1  30
ATOM     30  C   UNL A   1      37.511  23.115  25.394  1.00  0.00     0.118 C 
BRANCH  30  31
ATOM     31  N   UNL A   1      38.302  22.182  26.195  1.00  0.00    -0.352 N 
ATOM     32  C   UNL A   1      39.452  22.405  26.922  1.00  0.00     0.251 C 
ATOM     33  H   UNL A   1      37.965  21.257  26.218  1.00  0.00     0.163 HD
ATOM     34  O   UNL A   1      40.146  21.455  27.269  1.00  0.00    -0.269 OA
BRANCH  32  35
ATOM     35  C   UNL A   1      39.852  23.784  27.248  1.00  0.00     0.039 A 
ATOM     36  C   UNL A   1      38.950  24.835  27.064  1.00  0.00     0.014 A 
ATOM     37  C   UNL A   1      41.119  24.021  27.775  1.00  0.00     0.014 A 
ATOM     38  C   UNL A   1      39.292  26.107  27.514  1.00  0.00     0.010 A 
ATOM     39  C   UNL A   1      41.409  25.251  28.325  1.00  0.00     0.010 A 
ATOM     40  C   UNL A   1      40.511  26.308  28.180  1.00  0.00    -0.014 A 
BRANCH  40  41
ATOM     41  C   UNL A   1      40.768  27.580  28.861  1.00  0.00     0.031 A 
ATOM     42  C   UNL A   1      41.916  28.355  28.308  1.00  0.00     0.074 A 
ATOM     43  C   UNL A   1      39.921  28.150  29.747  1.00  0.00     0.049 A 
ATOM     44  N   UNL A   1      43.041  28.634  28.880  1.00  0.00    -0.248 NA
ATOM     45  C   UNL A   1      41.859  28.763  26.893  1.00  0.00     0.031 C 
ATOM     46  C   UNL A   1      38.587  27.671  30.127  1.00  0.00     0.029 A 
ATOM     47  N   UNL A   1      40.016  29.342  30.408  1.00  0.00    -0.354 N 
ATOM     48  C   UNL A   1      43.724  29.462  27.991  1.00  0.00     0.074 A 
ATOM     49  C   UNL A   1      43.054  29.332  26.727  1.00  0.00     0.031 C 
ATOM     50  C   UNL A   1      37.911  28.662  30.745  1.00  0.00     0.029 A 
ATOM     51  C   UNL A   1      38.821  29.769  30.977  1.00  0.00     0.049 A 
ATOM     52  H   UNL A   1      40.855  29.852  30.478  1.00  0.00     0.167 HD
ATOM     53  C   UNL A   1      44.604  30.401  28.444  1.00  0.00     0.037 A 
ATOM     54  C   UNL A   1      38.570  30.940  31.608  1.00  0.00     0.037 A 
ATOM     55  C   UNL A   1      44.906  30.187  29.836  1.00  0.00     0.049 A 
ATOM     56  C   UNL A   1      39.862  31.483  32.085  1.00  0.00     0.074 A 
ATOM     57  C   UNL A   1      45.687  29.332  30.580  1.00  0.00     0.029 A 
ATOM     58  N   UNL A   1      44.017  30.781  30.692  1.00  0.00    -0.354 N 
ATOM     59  N   UNL A   1      40.594  30.901  32.994  1.00  0.00    -0.248 NA
ATOM     60  C   UNL A   1      40.531  32.533  31.325  1.00  0.00     0.031 C 
ATOM     61  C   UNL A   1      45.117  29.305  31.888  1.00  0.00     0.029 A 
ATOM     62  C   UNL A   1      44.021  30.164  31.915  1.00  0.00     0.049 A 
ATOM     63  H   UNL A   1      43.450  31.551  30.460  1.00  0.00     0.167 HD
ATOM     64  C   UNL A   1      41.890  31.198  32.630  1.00  0.00     0.074 A 
ATOM     65  C   UNL A   1      41.788  32.337  31.729  1.00  0.00     0.031 C 
ATOM     66  C   UNL A   1      42.894  30.294  32.814  1.00  0.00     0.037 A 
BRANCH  53  67
ATOM     67  C   UNL A   1      44.846  31.765  27.818  1.00  0.00     0.058 A 
ATOM     68  C   UNL A   1      46.054  31.993  27.120  1.00  0.00     0.135 A 
ATOM     69  C   UNL A   1      44.107  32.927  28.130  1.00  0.00     0.135 A 
ATOM     70  F   UNL A   1      46.843  30.967  26.762  1.00  0.00    -0.206 F 
ATOM     71  C   UNL A   1      46.529  33.276  26.830  1.00  0.00     0.059 A 
ATOM     72  C   UNL A   1      44.535  34.211  27.803  1.00  0.00     0.059 A 
ATOM     73  F   UNL A   1      42.982  32.889  28.851  1.00  0.00    -0.206 F 
ATOM     74  C   UNL A   1      45.767  34.380  27.194  1.00  0.00     0.060 A 
BRANCH  74  75
ATOM     75  S   UNL A   1      46.415  36.039  26.917  1.00  0.00     0.124 S 
ATOM     76  O   UNL A   1      47.247  35.834  25.738  1.00  0.00    -0.237 OA
ATOM     77  O   UNL A   1      45.195  36.814  26.714  1.00  0.00    -0.237 OA
ATOM     78  O   UNL A   1      47.133  36.328  28.155  1.00  0.00    -0.744 OA
ENDBRANCH  74  75
ENDBRANCH  53  67
BRANCH  54  79
ATOM     79  C   UNL A   1      37.302  31.701  31.698  1.00  0.00     0.058 A 
ATOM     80  C   UNL A   1      36.713  31.996  32.938  1.00  0.00     0.135 A 
ATOM     81  C   UNL A   1      36.789  32.388  30.579  1.00  0.00     0.135 A 
ATOM     82  F   UNL A   1      37.149  31.395  34.054  1.00  0.00    -0.206 F 
ATOM     83  C   UNL A   1      35.713  32.963  33.073  1.00  0.00     0.059 A 
ATOM     84  C   UNL A   1      35.787  33.351  30.687  1.00  0.00     0.059 A 
ATOM     85  F   UNL A   1      37.319  32.208  29.359  1.00  0.00    -0.206 F 
ATOM     86  C   UNL A   1      35.274  33.653  31.943  1.00  0.00     0.060 A 
BRANCH  86  87
ATOM     87  S   UNL A   1      34.127  35.036  32.148  1.00  0.00     0.124 S 
ATOM     88  O   UNL A   1      33.844  35.401  30.764  1.00  0.00    -0.237 OA
ATOM     89  O   UNL A   1      33.028  34.419  32.882  1.00  0.00    -0.237 OA
ATOM     90  O   UNL A   1      34.906  36.013  32.904  1.00  0.00    -0.744 OA
ENDBRANCH  86  87
ENDBRANCH  54  79
BRANCH  66  91
ATOM     91  C   UNL A   1      42.730  29.285  33.909  1.00  0.00     0.058 A 
ATOM     92  C   UNL A   1      42.985  29.519  35.270  1.00  0.00     0.135 A 
ATOM     93  C   UNL A   1      42.217  28.027  33.556  1.00  0.00     0.135 A 
ATOM     94  F   UNL A   1      43.404  30.719  35.696  1.00  0.00    -0.206 F 
ATOM     95  C   UNL A   1      42.772  28.532  36.233  1.00  0.00     0.059 A 
ATOM     96  C   UNL A   1      41.968  27.039  34.502  1.00  0.00     0.059 A 
ATOM     97  F   UNL A   1      41.913  27.759  32.275  1.00  0.00    -0.206 F 
ATOM     98  C   UNL A   1      42.261  27.295  35.839  1.00  0.00     0.060 A 
BRANCH  98  99
ATOM     99  S   UNL A   1      41.916  26.041  37.092  1.00  0.00     0.124 S 
ATOM    100  O   UNL A   1      42.901  26.356  38.121  1.00  0.00    -0.237 OA
ATOM    101  O   UNL A   1      40.524  26.315  37.440  1.00  0.00    -0.237 OA
ATOM    102  O   UNL A   1      42.134  24.782  36.384  1.00  0.00    -0.744 OA
ENDBRANCH  98  99
ENDBRANCH  66  91
ENDBRANCH  40  41
ENDBRANCH  32  35
ENDBRANCH  30  31
ENDBRANCH   1  30
TORSDOF 17
ENDMDL
MODEL 2
REMARK VINA RESULT:     -12.5      3.152      5.159
REMARK SMILES NS(=O)(=O)c1ccc(-n2nc(C(=O)NCCCNC(=O)c3ccc(-c4c5nc(c(-c6c(F)cc(S(=O)(=O)[O-])cc6F)c6ccc([nH]6)c(-c6c(F)cc(S(=O)(=O)[O-])cc6F)c6nc(c(-c7c(F)cc(S(=O)(=O)[O-])cc7F)c7ccc4[nH]7)C=C6)C=C5)cc3)cc2-c2ccc(Cl)s2)cc1
REMARK SMILES IDX 16 1 15 2 14 3 12 4 13 5 11 7 9 8 10 9 88 10 87 11 8 12 5 13
REMARK SMILES IDX 6 14 96 15 7 16 95 17 2 18 3 19 4 20 1 21 89 24 90 25 94 26
REMARK SMILES IDX 91 27 92 28 93 29 17 30 18 31 19 32 20 34 21 35 22 36 86 37
REMARK SMILES IDX 23 38 85 39 24 40 25 41 26 42 79 43 27 44 84 45 78 46 80 47
REMARK SMILES IDX 28 48 83 49 77 50 76 51 29 53 63 54 42 55 62 56 43 57 46 58
REMARK SMILES IDX 61 59 81 60 44 61 45 62 60 64 82 65 47 66 30 67 31 68 40 69
REMARK SMILES IDX 32 70 33 71 39 72 41 73 34 74 35 75 36 76 37 77 38 78 64 79
REMARK SMILES IDX 65 80 74 81 66 82 67 83 73 84 75 85 68 86 69 87 70 88 71 89
REMARK SMILES IDX 72 90 48 91 49 92 58 93 50 94 51 95 57 96 59 97 52 98 53 99
REMARK SMILES IDX 54 100 55 101 56 102
REMARK H PARENT 14 6 1 22 1 23 18 33 80 52 46 63
REMARK Flexibility Score: inf
ROOT
ATOM      1  C   UNL A   1      41.003  20.524  26.060  1.00  0.00     0.042 C 
ENDROOT
BRANCH   1   2
ATOM      2  C   UNL A   1      39.953  21.319  26.845  1.00  0.00     0.118 C 
BRANCH   2   3
ATOM      3  N   UNL A   1      40.013  22.742  26.571  1.00  0.00    -0.351 N 
ATOM      4  C   UNL A   1      39.052  23.665  26.209  1.00  0.00     0.271 C 
ATOM      5  O   UNL A   1      39.431  24.836  26.149  1.00  0.00    -0.267 OA
ATOM      6  H   UNL A   1      40.915  23.126  26.663  1.00  0.00     0.163 HD
BRANCH   4   7
ATOM      7  C   UNL A   1      37.648  23.275  25.939  1.00  0.00     0.151 A 
ATOM      8  N   UNL A   1      36.008  21.948  25.482  1.00  0.00    -0.231 N 
ATOM      9  N   UNL A   1      37.306  21.970  25.858  1.00  0.00    -0.162 NA
ATOM     10  C   UNL A   1      35.461  23.216  25.450  1.00  0.00     0.085 A 
ATOM     11  C   UNL A   1      36.492  24.071  25.766  1.00  0.00     0.066 A 
BRANCH   8  12
ATOM     12  C   UNL A   1      35.363  20.720  25.194  1.00  0.00     0.065 A 
ATOM     13  C   UNL A   1      34.106  18.397  24.335  1.00  0.00     0.082 A 
ATOM     14  C   UNL A   1      35.492  18.400  24.524  1.00  0.00     0.024 A 
ATOM     15  C   UNL A   1      33.341  19.536  24.610  1.00  0.00     0.024 A 
ATOM     16  C   UNL A   1      36.123  19.568  24.946  1.00  0.00     0.030 A 
ATOM     17  C   UNL A   1      33.967  20.694  25.076  1.00  0.00     0.030 A 
BRANCH  13  18
ATOM     18  S   UNL A   1      33.337  16.956  23.656  1.00  0.00     0.238 S 
ATOM     19  O   UNL A   1      34.205  15.823  23.826  1.00  0.00    -0.207 OA
ATOM     20  O   UNL A   1      32.745  17.291  22.374  1.00  0.00    -0.207 OA
BRANCH  18  21
ATOM     21  N   UNL A   1      32.055  16.714  24.709  1.00  0.00    -0.225 NA
ATOM     22  H   UNL A   1      32.205  17.260  25.559  1.00  0.00     0.137 HD
ATOM     23  H   UNL A   1      31.993  15.724  24.948  1.00  0.00     0.137 HD
ENDBRANCH  18  21
ENDBRANCH  13  18
ENDBRANCH   8  12
BRANCH  10  24
ATOM     24  C   UNL A   1      34.089  23.571  25.247  1.00  0.00     0.054 A 
ATOM     25  C   UNL A   1      33.134  23.741  26.232  1.00  0.00     0.024 A 
ATOM     26  S   UNL A   1      33.413  23.721  23.679  1.00  0.00    -0.122 S 
ATOM     27  C   UNL A   1      31.844  24.015  25.689  1.00  0.00     0.033 A 
ATOM     28  C   UNL A   1      31.878  24.027  24.319  1.00  0.00     0.094 A 
ATOM     29  Cl  UNL A   1      30.552  24.298  23.264  1.00  0.00    -0.072 Cl
ENDBRANCH  10  24
ENDBRANCH   4   7
ENDBRANCH   2   3
ENDBRANCH   1   2
BRANCH   1  30
ATOM     30  C   UNL A   1      42.231  20.201  26.905  1.00  0.00     0.118 C 
BRANCH  30  31
ATOM     31  N   UNL A   1      43.467  20.551  26.205  1.00  0.00    -0.352 N 
ATOM     32  C   UNL A   1      43.987  21.793  25.909  1.00  0.00     0.251 C 
ATOM     33  H   UNL A   1      44.008  19.787  25.900  1.00  0.00     0.163 HD
ATOM     34  O   UNL A   1      44.860  21.899  25.055  1.00  0.00    -0.269 OA
BRANCH  32  35
ATOM     35  C   UNL A   1      43.467  22.984  26.601  1.00  0.00     0.039 A 
ATOM     36  C   UNL A   1      43.565  23.083  27.992  1.00  0.00     0.014 A 
ATOM     37  C   UNL A   1      42.916  24.022  25.853  1.00  0.00     0.014 A 
ATOM     38  C   UNL A   1      43.203  24.275  28.613  1.00  0.00     0.010 A 
ATOM     39  C   UNL A   1      42.670  25.238  26.453  1.00  0.00     0.010 A 
ATOM     40  C   UNL A   1      42.789  25.369  27.836  1.00  0.00    -0.014 A 
BRANCH  40  41
ATOM     41  C   UNL A   1      42.638  26.688  28.458  1.00  0.00     0.031 A 
ATOM     42  C   UNL A   1      43.782  27.616  28.223  1.00  0.00     0.074 A 
ATOM     43  C   UNL A   1      41.484  27.146  28.992  1.00  0.00     0.049 A 
ATOM     44  N   UNL A   1      44.618  28.087  29.088  1.00  0.00    -0.248 NA
ATOM     45  C   UNL A   1      44.117  27.962  26.830  1.00  0.00     0.031 C 
ATOM     46  C   UNL A   1      40.179  26.476  28.982  1.00  0.00     0.029 A 
ATOM     47  N   UNL A   1      41.198  28.359  29.552  1.00  0.00    -0.354 N 
ATOM     48  C   UNL A   1      45.425  28.983  28.387  1.00  0.00     0.074 A 
ATOM     49  C   UNL A   1      45.212  28.707  26.993  1.00  0.00     0.031 C 
ATOM     50  C   UNL A   1      39.211  27.367  29.281  1.00  0.00     0.029 A 
ATOM     51  C   UNL A   1      39.837  28.612  29.690  1.00  0.00     0.049 A 
ATOM     52  H   UNL A   1      41.892  28.998  29.834  1.00  0.00     0.167 HD
ATOM     53  C   UNL A   1      45.977  30.063  29.010  1.00  0.00     0.037 A 
ATOM     54  C   UNL A   1      39.240  29.748  30.117  1.00  0.00     0.037 A 
ATOM     55  C   UNL A   1      45.851  29.946  30.440  1.00  0.00     0.049 A 
ATOM     56  C   UNL A   1      40.227  30.504  30.921  1.00  0.00     0.074 A 
ATOM     57  C   UNL A   1      46.469  29.250  31.454  1.00  0.00     0.029 A 
ATOM     58  N   UNL A   1      44.664  30.421  30.932  1.00  0.00    -0.354 N 
ATOM     59  N   UNL A   1      40.708  30.075  32.056  1.00  0.00    -0.248 NA
ATOM     60  C   UNL A   1      40.948  31.621  30.321  1.00  0.00     0.031 C 
ATOM     61  C   UNL A   1      45.525  29.178  32.522  1.00  0.00     0.029 A 
ATOM     62  C   UNL A   1      44.368  29.852  32.143  1.00  0.00     0.049 A 
ATOM     63  H   UNL A   1      44.097  31.083  30.475  1.00  0.00     0.167 HD
ATOM     64  C   UNL A   1      41.998  30.561  32.083  1.00  0.00     0.074 A 
ATOM     65  C   UNL A   1      42.027  31.639  31.106  1.00  0.00     0.031 C 
ATOM     66  C   UNL A   1      43.009  29.834  32.639  1.00  0.00     0.037 A 
BRANCH  53  67
ATOM     67  C   UNL A   1      46.211  31.427  28.380  1.00  0.00     0.058 A 
ATOM     68  C   UNL A   1      45.103  32.152  27.883  1.00  0.00     0.135 A 
ATOM     69  C   UNL A   1      47.474  31.907  27.968  1.00  0.00     0.135 A 
ATOM     70  F   UNL A   1      43.850  31.795  28.209  1.00  0.00    -0.206 F 
ATOM     71  C   UNL A   1      45.237  33.213  26.984  1.00  0.00     0.059 A 
ATOM     72  C   UNL A   1      47.632  32.996  27.115  1.00  0.00     0.059 A 
ATOM     73  F   UNL A   1      48.616  31.289  28.289  1.00  0.00    -0.206 F 
ATOM     74  C   UNL A   1      46.509  33.615  26.591  1.00  0.00     0.060 A 
BRANCH  74  75
ATOM     75  S   UNL A   1      46.690  34.914  25.355  1.00  0.00     0.124 S 
ATOM     76  O   UNL A   1      48.070  34.720  24.928  1.00  0.00    -0.237 OA
ATOM     77  O   UNL A   1      45.661  34.557  24.383  1.00  0.00    -0.237 OA
ATOM     78  O   UNL A   1      46.428  36.135  26.113  1.00  0.00    -0.744 OA
ENDBRANCH  74  75
ENDBRANCH  53  67
BRANCH  54  79
ATOM     79  C   UNL A   1      37.915  30.302  29.752  1.00  0.00     0.058 A 
ATOM     80  C   UNL A   1      37.095  30.925  30.706  1.00  0.00     0.135 A 
ATOM     81  C   UNL A   1      37.549  30.473  28.402  1.00  0.00     0.135 A 
ATOM     82  F   UNL A   1      37.379  30.822  32.013  1.00  0.00    -0.206 F 
ATOM     83  C   UNL A   1      36.007  31.724  30.342  1.00  0.00     0.059 A 
ATOM     84  C   UNL A   1      36.464  31.258  28.014  1.00  0.00     0.059 A 
ATOM     85  F   UNL A   1      38.298  29.954  27.416  1.00  0.00    -0.206 F 
ATOM     86  C   UNL A   1      35.715  31.904  28.991  1.00  0.00     0.060 A 
BRANCH  86  87
ATOM     87  S   UNL A   1      34.436  33.091  28.518  1.00  0.00     0.124 S 
ATOM     88  O   UNL A   1      35.178  34.010  27.660  1.00  0.00    -0.237 OA
ATOM     89  O   UNL A   1      33.459  32.241  27.846  1.00  0.00    -0.237 OA
ATOM     90  O   UNL A   1      33.999  33.646  29.796  1.00  0.00    -0.744 OA
ENDBRANCH  86  87
ENDBRANCH  54  79
BRANCH  66  91
ATOM     91  C   UNL A   1      42.650  28.847  33.709  1.00  0.00     0.058 A 
ATOM     92  C   UNL A   1      42.423  27.477  33.501  1.00  0.00     0.135 A 
ATOM     93  C   UNL A   1      42.603  29.316  35.030  1.00  0.00     0.135 A 
ATOM     94  F   UNL A   1      42.525  26.939  32.277  1.00  0.00    -0.206 F 
ATOM     95  C   UNL A   1      42.128  26.617  34.561  1.00  0.00     0.059 A 
ATOM     96  C   UNL A   1      42.341  28.473  36.104  1.00  0.00     0.059 A 
ATOM     97  F   UNL A   1      42.855  30.609  35.295  1.00  0.00    -0.206 F 
ATOM     98  C   UNL A   1      42.090  27.125  35.860  1.00  0.00     0.060 A 
BRANCH  98  99
ATOM     99  S   UNL A   1      41.780  26.003  37.239  1.00  0.00     0.124 S 
ATOM    100  O   UNL A   1      41.937  24.694  36.612  1.00  0.00    -0.237 OA
ATOM    101  O   UNL A   1      42.819  26.377  38.194  1.00  0.00    -0.237 OA
ATOM    102  O   UNL A   1      40.419  26.337  37.652  1.00  0.00    -0.744 OA
ENDBRANCH  98  99
ENDBRANCH  66  91
ENDBRANCH  40  41
ENDBRANCH  32  35
ENDBRANCH  30  31
ENDBRANCH   1  30
TORSDOF 17
ENDMDL
MODEL 3
REMARK VINA RESULT:     -12.5      3.375      4.949
REMARK SMILES NS(=O)(=O)c1ccc(-n2nc(C(=O)NCCCNC(=O)c3ccc(-c4c5nc(c(-c6c(F)cc(S(=O)(=O)[O-])cc6F)c6ccc([nH]6)c(-c6c(F)cc(S(=O)(=O)[O-])cc6F)c6nc(c(-c7c(F)cc(S(=O)(=O)[O-])cc7F)c7ccc4[nH]7)C=C6)C=C5)cc3)cc2-c2ccc(Cl)s2)cc1
REMARK SMILES IDX 16 1 15 2 14 3 12 4 13 5 11 7 9 8 10 9 88 10 87 11 8 12 5 13
REMARK SMILES IDX 6 14 96 15 7 16 95 17 2 18 3 19 4 20 1 21 89 24 90 25 94 26
REMARK SMILES IDX 91 27 92 28 93 29 17 30 18 31 19 32 20 34 21 35 22 36 86 37
REMARK SMILES IDX 23 38 85 39 24 40 25 41 26 42 79 43 27 44 84 45 78 46 80 47
REMARK SMILES IDX 28 48 83 49 77 50 76 51 29 53 63 54 42 55 62 56 43 57 46 58
REMARK SMILES IDX 61 59 81 60 44 61 45 62 60 64 82 65 47 66 30 67 31 68 40 69
REMARK SMILES IDX 32 70 33 71 39 72 41 73 34 74 35 75 36 76 37 77 38 78 64 79
REMARK SMILES IDX 65 80 74 81 66 82 67 83 73 84 75 85 68 86 69 87 70 88 71 89
REMARK SMILES IDX 72 90 48 91 49 92 58 93 50 94 51 95 57 96 59 97 52 98 53 99
REMARK SMILES IDX 54 100 55 101 56 102
REMARK H PARENT 14 6 1 22 1 23 18 33 80 52 46 63
REMARK Flexibility Score: inf
ROOT
ATOM      1  C   UNL A   1      41.272  18.920  26.206  1.00  0.00     0.042 C 
ENDROOT
BRANCH   1   2
ATOM      2  C   UNL A   1      40.012  19.747  25.925  1.00  0.00     0.118 C 
BRANCH   2   3
ATOM      3  N   UNL A   1      40.203  21.161  26.190  1.00  0.00    -0.351 N 
ATOM      4  C   UNL A   1      39.347  22.243  26.146  1.00  0.00     0.271 C 
ATOM      5  O   UNL A   1      39.819  23.314  26.531  1.00  0.00    -0.267 OA
ATOM      6  H   UNL A   1      41.123  21.394  26.453  1.00  0.00     0.163 HD
BRANCH   4   7
ATOM      7  C   UNL A   1      37.942  22.117  25.693  1.00  0.00     0.151 A 
ATOM      8  N   UNL A   1      36.038  22.776  24.916  1.00  0.00    -0.231 N 
ATOM      9  N   UNL A   1      37.324  23.155  25.088  1.00  0.00    -0.162 NA
ATOM     10  C   UNL A   1      35.841  21.457  25.275  1.00  0.00     0.085 A 
ATOM     11  C   UNL A   1      37.055  21.016  25.748  1.00  0.00     0.066 A 
BRANCH   8  12
ATOM     12  C   UNL A   1      35.082  23.687  24.404  1.00  0.00     0.065 A 
ATOM     13  C   UNL A   1      33.443  25.649  23.319  1.00  0.00     0.082 A 
ATOM     14  C   UNL A   1      33.797  24.541  22.542  1.00  0.00     0.024 A 
ATOM     15  C   UNL A   1      33.870  25.762  24.646  1.00  0.00     0.024 A 
ATOM     16  C   UNL A   1      34.627  23.562  23.084  1.00  0.00     0.030 A 
ATOM     17  C   UNL A   1      34.666  24.759  25.205  1.00  0.00     0.030 A 
BRANCH  13  18
ATOM     18  S   UNL A   1      32.515  26.956  22.573  1.00  0.00     0.238 S 
ATOM     19  O   UNL A   1      32.304  28.005  23.533  1.00  0.00    -0.207 OA
ATOM     20  O   UNL A   1      31.427  26.387  21.799  1.00  0.00    -0.207 OA
BRANCH  18  21
ATOM     21  N   UNL A   1      33.606  27.568  21.457  1.00  0.00    -0.225 NA
ATOM     22  H   UNL A   1      34.100  28.363  21.864  1.00  0.00     0.137 HD
ATOM     23  H   UNL A   1      33.105  27.871  20.622  1.00  0.00     0.137 HD
ENDBRANCH  18  21
ENDBRANCH  13  18
ENDBRANCH   8  12
BRANCH  10  24
ATOM     24  C   UNL A   1      34.659  20.670  25.091  1.00  0.00     0.054 A 
ATOM     25  C   UNL A   1      33.356  21.097  25.263  1.00  0.00     0.024 A 
ATOM     26  S   UNL A   1      34.732  18.995  24.730  1.00  0.00    -0.122 S 
ATOM     27  C   UNL A   1      32.414  20.042  25.078  1.00  0.00     0.033 A 
ATOM     28  C   UNL A   1      33.047  18.862  24.787  1.00  0.00     0.094 A 
ATOM     29  Cl  UNL A   1      32.302  17.342  24.506  1.00  0.00    -0.072 Cl
ENDBRANCH  10  24
ENDBRANCH   4   7
ENDBRANCH   2   3
ENDBRANCH   1   2
BRANCH   1  30
ATOM     30  C   UNL A   1      42.499  19.797  26.430  1.00  0.00     0.118 C 
BRANCH  30  31
ATOM     31  N   UNL A   1      43.502  19.588  25.386  1.00  0.00    -0.352 N 
ATOM     32  C   UNL A   1      44.226  20.514  24.665  1.00  0.00     0.251 C 
ATOM     33  H   UNL A   1      43.688  18.647  25.164  1.00  0.00     0.163 HD
ATOM     34  O   UNL A   1      44.783  20.175  23.626  1.00  0.00    -0.269 OA
BRANCH  32  35
ATOM     35  C   UNL A   1      44.297  21.908  25.133  1.00  0.00     0.039 A 
ATOM     36  C   UNL A   1      43.405  22.860  24.632  1.00  0.00     0.014 A 
ATOM     37  C   UNL A   1      45.232  22.254  26.106  1.00  0.00     0.014 A 
ATOM     38  C   UNL A   1      43.390  24.134  25.192  1.00  0.00     0.010 A 
ATOM     39  C   UNL A   1      45.137  23.475  26.738  1.00  0.00     0.010 A 
ATOM     40  C   UNL A   1      44.233  24.431  26.275  1.00  0.00    -0.014 A 
BRANCH  40  41
ATOM     41  C   UNL A   1      44.053  25.682  27.017  1.00  0.00     0.031 A 
ATOM     42  C   UNL A   1      45.106  26.708  26.762  1.00  0.00     0.074 A 
ATOM     43  C   UNL A   1      42.926  26.010  27.687  1.00  0.00     0.049 A 
ATOM     44  N   UNL A   1      45.985  27.171  27.588  1.00  0.00    -0.248 NA
ATOM     45  C   UNL A   1      45.286  27.186  25.380  1.00  0.00     0.031 C 
ATOM     46  C   UNL A   1      41.673  25.248  27.733  1.00  0.00     0.029 A 
ATOM     47  N   UNL A   1      42.612  27.151  28.370  1.00  0.00    -0.354 N 
ATOM     48  C   UNL A   1      46.661  28.177  26.898  1.00  0.00     0.074 A 
ATOM     49  C   UNL A   1      46.339  27.995  25.509  1.00  0.00     0.031 C 
ATOM     50  C   UNL A   1      40.679  26.038  28.190  1.00  0.00     0.029 A 
ATOM     51  C   UNL A   1      41.256  27.290  28.646  1.00  0.00     0.049 A 
ATOM     52  H   UNL A   1      43.285  27.815  28.643  1.00  0.00     0.167 HD
ATOM     53  C   UNL A   1      47.195  29.242  27.560  1.00  0.00     0.037 A 
ATOM     54  C   UNL A   1      40.627  28.342  29.219  1.00  0.00     0.037 A 
ATOM     55  C   UNL A   1      47.211  29.004  28.981  1.00  0.00     0.049 A 
ATOM     56  C   UNL A   1      41.631  29.104  29.995  1.00  0.00     0.074 A 
ATOM     57  C   UNL A   1      47.966  28.279  29.874  1.00  0.00     0.029 A 
ATOM     58  N   UNL A   1      46.045  29.350  29.612  1.00  0.00    -0.354 N 
ATOM     59  N   UNL A   1      42.243  28.624  31.043  1.00  0.00    -0.248 NA
ATOM     60  C   UNL A   1      42.216  30.315  29.431  1.00  0.00     0.031 C 
ATOM     61  C   UNL A   1      47.132  28.053  31.010  1.00  0.00     0.029 A 
ATOM     62  C   UNL A   1      45.901  28.668  30.791  1.00  0.00     0.049 A 
ATOM     63  H   UNL A   1      45.396  30.002  29.264  1.00  0.00     0.167 HD
ATOM     64  C   UNL A   1      43.495  29.201  30.999  1.00  0.00     0.074 A 
ATOM     65  C   UNL A   1      43.361  30.352  30.118  1.00  0.00     0.031 C 
ATOM     66  C   UNL A   1      44.599  28.509  31.401  1.00  0.00     0.037 A 
BRANCH  53  67
ATOM     67  C   UNL A   1      47.278  30.665  27.030  1.00  0.00     0.058 A 
ATOM     68  C   UNL A   1      48.500  31.368  27.145  1.00  0.00     0.135 A 
ATOM     69  C   UNL A   1      46.158  31.461  26.705  1.00  0.00     0.135 A 
ATOM     70  F   UNL A   1      49.637  30.721  27.444  1.00  0.00    -0.206 F 
ATOM     71  C   UNL A   1      48.584  32.759  27.030  1.00  0.00     0.059 A 
ATOM     72  C   UNL A   1      46.229  32.841  26.533  1.00  0.00     0.059 A 
ATOM     73  F   UNL A   1      44.920  30.961  26.634  1.00  0.00    -0.206 F 
ATOM     74  C   UNL A   1      47.436  33.488  26.742  1.00  0.00     0.060 A 
BRANCH  74  75
ATOM     75  S   UNL A   1      47.513  35.288  26.692  1.00  0.00     0.124 S 
ATOM     76  O   UNL A   1      48.221  35.584  27.931  1.00  0.00    -0.237 OA
ATOM     77  O   UNL A   1      48.252  35.528  25.457  1.00  0.00    -0.237 OA
ATOM     78  O   UNL A   1      46.107  35.681  26.658  1.00  0.00    -0.744 OA
ENDBRANCH  74  75
ENDBRANCH  53  67
BRANCH  54  79
ATOM     79  C   UNL A   1      39.239  28.823  29.019  1.00  0.00     0.058 A 
ATOM     80  C   UNL A   1      38.366  29.008  30.103  1.00  0.00     0.135 A 
ATOM     81  C   UNL A   1      38.834  29.371  27.785  1.00  0.00     0.135 A 
ATOM     82  F   UNL A   1      38.681  28.527  31.314  1.00  0.00    -0.206 F 
ATOM     83  C   UNL A   1      37.185  29.746  29.987  1.00  0.00     0.059 A 
ATOM     84  C   UNL A   1      37.657  30.105  27.643  1.00  0.00     0.059 A 
ATOM     85  F   UNL A   1      39.624  29.287  26.703  1.00  0.00    -0.206 F 
ATOM     86  C   UNL A   1      36.852  30.313  28.757  1.00  0.00     0.060 A 
BRANCH  86  87
ATOM     87  S   UNL A   1      35.433  31.429  28.657  1.00  0.00     0.124 S 
ATOM     88  O   UNL A   1      35.126  31.654  30.066  1.00  0.00    -0.237 OA
ATOM     89  O   UNL A   1      35.988  32.570  27.937  1.00  0.00    -0.237 OA
ATOM     90  O   UNL A   1      34.442  30.652  27.919  1.00  0.00    -0.744 OA
ENDBRANCH  86  87
ENDBRANCH  54  79
BRANCH  66  91
ATOM     91  C   UNL A   1      44.408  27.419  32.410  1.00  0.00     0.058 A 
ATOM     92  C   UNL A   1      44.194  27.618  33.784  1.00  0.00     0.135 A 
ATOM     93  C   UNL A   1      44.373  26.098  31.936  1.00  0.00     0.135 A 
ATOM     94  F   UNL A   1      44.137  28.853  34.302  1.00  0.00    -0.206 F 
ATOM     95  C   UNL A   1      43.989  26.544  34.653  1.00  0.00     0.059 A 
ATOM     96  C   UNL A   1      44.140  25.017  32.778  1.00  0.00     0.059 A 
ATOM     97  F   UNL A   1      44.528  25.850  30.625  1.00  0.00    -0.206 F 
ATOM     98  C   UNL A   1      43.962  25.247  34.140  1.00  0.00     0.060 A 
BRANCH  98  99
ATOM     99  S   UNL A   1      43.625  23.864  35.250  1.00  0.00     0.124 S 
ATOM    100  O   UNL A   1      44.100  22.724  34.474  1.00  0.00    -0.237 OA
ATOM    101  O   UNL A   1      44.417  24.203  36.430  1.00  0.00    -0.237 OA
ATOM    102  O   UNL A   1      42.179  23.927  35.445  1.00  0.00    -0.744 OA
ENDBRANCH  98  99
ENDBRANCH  66  91
ENDBRANCH  40  41
ENDBRANCH  32  35
ENDBRANCH  30  31
ENDBRANCH   1  30
TORSDOF 17
ENDMDL
