MODEL 1
REMARK VINA RESULT:     -11.9      0.000      0.000
REMARK SMILES CC(C)[C@@H]1C(=O)Nc2ccccc2N1C(=O)N[C@H](Cc1ccccc1)C(=O)NCCCNC(=O)c1ccc(-c2c3nc(c(-c4c(F)cc(S(=O)(=O)[O-])cc4F)c4ccc([nH]4)c(-c4c(F)cc(S(=O)(=O)[O-])cc4F)c4nc(c(-c5c(F)cc(S(=O)(=O)[O-])cc5F)c5ccc2[nH]5)C=C4)C=C3)cc1
REMARK SMILES IDX 30 1 29 2 28 3 26 4 27 5 18 7 17 8 15 9 16 10 14 12 4 13
REMARK SMILES IDX 5 14 6 15 7 16 13 17 8 18 12 20 9 21 11 22 10 23 2 24 1 25
REMARK SMILES IDX 3 26 19 27 20 28 21 29 25 30 22 31 24 32 23 33 31 34 32 35
REMARK SMILES IDX 33 36 34 38 35 39 36 40 100 41 37 42 99 43 38 44 39 45 40 46
REMARK SMILES IDX 93 47 41 48 98 49 92 50 94 51 42 52 97 53 91 54 90 55 43 57
REMARK SMILES IDX 77 58 56 59 76 60 57 61 60 62 75 63 95 64 58 65 59 66 74 68
REMARK SMILES IDX 96 69 61 70 44 71 45 72 54 73 46 74 47 75 53 76 55 77 48 78
REMARK SMILES IDX 49 79 50 80 51 81 52 82 78 83 79 84 88 85 80 86 81 87 87 88
REMARK SMILES IDX 89 89 82 90 83 91 84 92 85 93 86 94 62 95 63 96 72 97 64 98
REMARK SMILES IDX 65 99 71 100 73 101 66 102 67 103 68 104 69 105 70 106
REMARK H PARENT 28 6 17 11 7 19 32 37 94 56 60 67
REMARK Flexibility Score: inf
ROOT
ATOM      1  C   UNL A   1      33.824  30.264  27.618  1.00  0.00     0.042 C 
ENDROOT
BRANCH   1   2
ATOM      2  C   UNL A   1      33.006  29.945  26.320  1.00  0.00     0.117 C 
BRANCH   2   3
ATOM      3  N   UNL A   1      32.167  28.721  26.244  1.00  0.00    -0.354 N 
ATOM      4  C   UNL A   1      32.441  27.471  26.815  1.00  0.00     0.242 C 
ATOM      5  O   UNL A   1      31.952  27.300  27.945  1.00  0.00    -0.273 OA
ATOM      6  H   UNL A   1      31.326  28.796  25.738  1.00  0.00     0.163 HD
BRANCH   4   7
ATOM      7  C   UNL A   1      33.172  26.184  26.092  1.00  0.00     0.177 C 
BRANCH   7   8
ATOM      8  N   UNL A   1      32.290  25.141  26.485  1.00  0.00    -0.326 N 
ATOM      9  C   UNL A   1      31.296  24.707  25.701  1.00  0.00     0.323 C 
ATOM     10  O   UNL A   1      30.298  24.373  26.352  1.00  0.00    -0.248 OA
ATOM     11  H   UNL A   1      32.415  24.723  27.367  1.00  0.00     0.166 HD
BRANCH   9  12
ATOM     12  N   UNL A   1      31.432  24.534  24.336  1.00  0.00    -0.280 N 
ATOM     13  C   UNL A   1      31.890  23.406  23.245  1.00  0.00     0.184 C 
ATOM     14  C   UNL A   1      32.949  24.171  22.383  1.00  0.00     0.247 C 
ATOM     15  O   UNL A   1      34.012  23.686  21.998  1.00  0.00    -0.272 OA
ATOM     16  N   UNL A   1      32.553  25.378  21.874  1.00  0.00    -0.322 N 
ATOM     17  C   UNL A   1      30.994  25.771  23.662  1.00  0.00     0.070 A 
ATOM     18  C   UNL A   1      31.516  26.125  22.421  1.00  0.00     0.065 A 
ATOM     19  H   UNL A   1      33.024  25.734  21.085  1.00  0.00     0.170 HD
ATOM     20  C   UNL A   1      29.955  26.575  24.201  1.00  0.00     0.028 A 
ATOM     21  C   UNL A   1      31.034  27.248  21.744  1.00  0.00     0.028 A 
ATOM     22  C   UNL A   1      29.450  27.674  23.515  1.00  0.00     0.002 A 
ATOM     23  C   UNL A   1      29.988  28.006  22.281  1.00  0.00     0.002 A 
BRANCH  13  24
ATOM     24  C   UNL A   1      32.417  21.818  23.258  1.00  0.00     0.015 C 
ATOM     25  C   UNL A   1      32.251  20.687  24.310  1.00  0.00     0.010 C 
ATOM     26  C   UNL A   1      31.776  21.085  22.029  1.00  0.00     0.010 C 
ENDBRANCH  13  24
ENDBRANCH   9  12
ENDBRANCH   7   8
BRANCH   7  27
ATOM     27  C   UNL A   1      34.593  25.435  26.123  1.00  0.00     0.070 C 
BRANCH  27  28
ATOM     28  C   UNL A   1      35.040  24.052  25.690  1.00  0.00    -0.045 A 
ATOM     29  C   UNL A   1      35.966  23.940  24.623  1.00  0.00     0.004 A 
ATOM     30  C   UNL A   1      34.796  22.913  26.453  1.00  0.00     0.004 A 
ATOM     31  C   UNL A   1      36.550  22.726  24.267  1.00  0.00     0.000 A 
ATOM     32  C   UNL A   1      35.420  21.700  26.126  1.00  0.00     0.000 A 
ATOM     33  C   UNL A   1      36.278  21.600  25.027  1.00  0.00     0.000 A 
ENDBRANCH  27  28
ENDBRANCH   7  27
ENDBRANCH   4   7
ENDBRANCH   2   3
ENDBRANCH   1   2
BRANCH   1  34
ATOM     34  C   UNL A   1      35.221  29.713  27.962  1.00  0.00     0.118 C 
BRANCH  34  35
ATOM     35  N   UNL A   1      35.538  30.031  29.370  1.00  0.00    -0.352 N 
ATOM     36  C   UNL A   1      36.593  29.667  30.184  1.00  0.00     0.251 C 
ATOM     37  H   UNL A   1      34.873  30.608  29.810  1.00  0.00     0.163 HD
ATOM     38  O   UNL A   1      36.308  29.330  31.337  1.00  0.00    -0.269 OA
BRANCH  36  39
ATOM     39  C   UNL A   1      38.041  29.785  29.823  1.00  0.00     0.039 A 
ATOM     40  C   UNL A   1      38.371  29.930  28.458  1.00  0.00     0.014 A 
ATOM     41  C   UNL A   1      39.076  29.531  30.722  1.00  0.00     0.014 A 
ATOM     42  C   UNL A   1      39.693  29.784  27.997  1.00  0.00     0.010 A 
ATOM     43  C   UNL A   1      40.406  29.416  30.264  1.00  0.00     0.010 A 
ATOM     44  C   UNL A   1      40.726  29.497  28.895  1.00  0.00    -0.014 A 
BRANCH  44  45
ATOM     45  C   UNL A   1      42.107  29.160  28.417  1.00  0.00     0.031 A 
ATOM     46  C   UNL A   1      42.428  27.744  27.991  1.00  0.00     0.074 A 
ATOM     47  C   UNL A   1      43.084  30.089  28.382  1.00  0.00     0.049 A 
ATOM     48  N   UNL A   1      43.576  27.209  27.658  1.00  0.00    -0.248 NA
ATOM     49  C   UNL A   1      41.299  26.801  27.954  1.00  0.00     0.031 C 
ATOM     50  C   UNL A   1      42.923  31.496  28.746  1.00  0.00     0.029 A 
ATOM     51  N   UNL A   1      44.415  29.985  28.043  1.00  0.00    -0.354 N 
ATOM     52  C   UNL A   1      43.315  25.864  27.408  1.00  0.00     0.074 A 
ATOM     53  C   UNL A   1      41.904  25.661  27.659  1.00  0.00     0.031 C 
ATOM     54  C   UNL A   1      44.107  32.121  28.624  1.00  0.00     0.029 A 
ATOM     55  C   UNL A   1      45.122  31.155  28.207  1.00  0.00     0.049 A 
ATOM     56  H   UNL A   1      44.822  29.152  27.714  1.00  0.00     0.167 HD
ATOM     57  C   UNL A   1      44.164  24.888  26.995  1.00  0.00     0.037 A 
ATOM     58  C   UNL A   1      46.439  31.418  28.062  1.00  0.00     0.037 A 
ATOM     59  C   UNL A   1      45.563  25.099  26.718  1.00  0.00     0.049 A 
ATOM     60  C   UNL A   1      47.372  30.320  27.623  1.00  0.00     0.074 A 
ATOM     61  C   UNL A   1      46.496  24.189  26.248  1.00  0.00     0.029 A 
ATOM     62  N   UNL A   1      46.234  26.302  26.887  1.00  0.00    -0.354 N 
ATOM     63  N   UNL A   1      47.102  29.063  27.363  1.00  0.00    -0.248 NA
ATOM     64  C   UNL A   1      48.789  30.675  27.453  1.00  0.00     0.031 C 
ATOM     65  C   UNL A   1      47.740  24.828  26.182  1.00  0.00     0.029 A 
ATOM     66  C   UNL A   1      47.572  26.152  26.556  1.00  0.00     0.049 A 
ATOM     67  H   UNL A   1      45.820  27.140  27.198  1.00  0.00     0.167 HD
ATOM     68  C   UNL A   1      48.306  28.484  26.974  1.00  0.00     0.074 A 
ATOM     69  C   UNL A   1      49.306  29.531  27.023  1.00  0.00     0.031 C 
ATOM     70  C   UNL A   1      48.560  27.203  26.607  1.00  0.00     0.037 A 
BRANCH  57  71
ATOM     71  C   UNL A   1      43.607  23.495  26.837  1.00  0.00     0.058 A 
ATOM     72  C   UNL A   1      43.467  22.620  27.926  1.00  0.00     0.135 A 
ATOM     73  C   UNL A   1      43.193  23.032  25.576  1.00  0.00     0.135 A 
ATOM     74  F   UNL A   1      43.853  23.002  29.154  1.00  0.00    -0.206 F 
ATOM     75  C   UNL A   1      42.983  21.324  27.765  1.00  0.00     0.059 A 
ATOM     76  C   UNL A   1      42.674  21.751  25.397  1.00  0.00     0.059 A 
ATOM     77  F   UNL A   1      43.293  23.824  24.497  1.00  0.00    -0.206 F 
ATOM     78  C   UNL A   1      42.594  20.896  26.496  1.00  0.00     0.060 A 
BRANCH  78  79
ATOM     79  S   UNL A   1      41.994  19.204  26.299  1.00  0.00     0.124 S 
ATOM     80  O   UNL A   1      42.974  18.655  25.367  1.00  0.00    -0.237 OA
ATOM     81  O   UNL A   1      42.060  18.689  27.663  1.00  0.00    -0.237 OA
ATOM     82  O   UNL A   1      40.648  19.381  25.763  1.00  0.00    -0.744 OA
ENDBRANCH  78  79
ENDBRANCH  57  71
BRANCH  58  83
ATOM     83  C   UNL A   1      46.950  32.792  28.331  1.00  0.00     0.058 A 
ATOM     84  C   UNL A   1      47.409  33.158  29.604  1.00  0.00     0.135 A 
ATOM     85  C   UNL A   1      47.024  33.754  27.311  1.00  0.00     0.135 A 
ATOM     86  F   UNL A   1      47.344  32.281  30.619  1.00  0.00    -0.206 F 
ATOM     87  C   UNL A   1      47.928  34.424  29.858  1.00  0.00     0.059 A 
ATOM     88  C   UNL A   1      47.563  35.019  27.533  1.00  0.00     0.059 A 
ATOM     89  F   UNL A   1      46.604  33.454  26.072  1.00  0.00    -0.206 F 
ATOM     90  C   UNL A   1      48.011  35.345  28.813  1.00  0.00     0.060 A 
BRANCH  90  91
ATOM     91  S   UNL A   1      48.769  36.955  29.129  1.00  0.00     0.124 S 
ATOM     92  O   UNL A   1      48.611  37.074  30.579  1.00  0.00    -0.237 OA
ATOM     93  O   UNL A   1      50.138  36.742  28.658  1.00  0.00    -0.237 OA
ATOM     94  O   UNL A   1      47.974  37.868  28.330  1.00  0.00    -0.744 OA
ENDBRANCH  90  91
ENDBRANCH  58  83
BRANCH  70  95
ATOM     95  C   UNL A   1      49.967  26.859  26.199  1.00  0.00     0.058 A 
ATOM     96  C   UNL A   1      50.899  26.344  27.113  1.00  0.00     0.135 A 
ATOM     97  C   UNL A   1      50.372  26.998  24.861  1.00  0.00     0.135 A 
ATOM     98  F   UNL A   1      50.568  26.196  28.405  1.00  0.00    -0.206 F 
ATOM     99  C   UNL A   1      52.190  26.001  26.720  1.00  0.00     0.059 A 
ATOM    100  C   UNL A   1      51.648  26.633  24.439  1.00  0.00     0.059 A 
ATOM    101  F   UNL A   1      49.518  27.475  23.941  1.00  0.00    -0.206 F 
ATOM    102  C   UNL A   1      52.554  26.146  25.380  1.00  0.00     0.060 A 
BRANCH 102 103
ATOM    103  S   UNL A   1      54.220  25.666  24.878  1.00  0.00     0.124 S 
ATOM    104  O   UNL A   1      55.028  26.238  25.950  1.00  0.00    -0.237 OA
ATOM    105  O   UNL A   1      54.133  24.208  24.858  1.00  0.00    -0.237 OA
ATOM    106  O   UNL A   1      54.377  26.296  23.570  1.00  0.00    -0.744 OA
ENDBRANCH 102 103
ENDBRANCH  70  95
ENDBRANCH  44  45
ENDBRANCH  36  39
ENDBRANCH  34  35
ENDBRANCH   1  34
TORSDOF 18
ENDMDL
MODEL 2
REMARK VINA RESULT:     -11.9      1.113      2.056
REMARK SMILES CC(C)[C@@H]1C(=O)Nc2ccccc2N1C(=O)N[C@H](Cc1ccccc1)C(=O)NCCCNC(=O)c1ccc(-c2c3nc(c(-c4c(F)cc(S(=O)(=O)[O-])cc4F)c4ccc([nH]4)c(-c4c(F)cc(S(=O)(=O)[O-])cc4F)c4nc(c(-c5c(F)cc(S(=O)(=O)[O-])cc5F)c5ccc2[nH]5)C=C4)C=C3)cc1
REMARK SMILES IDX 30 1 29 2 28 3 26 4 27 5 18 7 17 8 15 9 16 10 14 12 4 13
REMARK SMILES IDX 5 14 6 15 7 16 13 17 8 18 12 20 9 21 11 22 10 23 2 24 1 25
REMARK SMILES IDX 3 26 19 27 20 28 21 29 25 30 22 31 24 32 23 33 31 34 32 35
REMARK SMILES IDX 33 36 34 38 35 39 36 40 100 41 37 42 99 43 38 44 39 45 40 46
REMARK SMILES IDX 93 47 41 48 98 49 92 50 94 51 42 52 97 53 91 54 90 55 43 57
REMARK SMILES IDX 77 58 56 59 76 60 57 61 60 62 75 63 95 64 58 65 59 66 74 68
REMARK SMILES IDX 96 69 61 70 44 71 45 72 54 73 46 74 47 75 53 76 55 77 48 78
REMARK SMILES IDX 49 79 50 80 51 81 52 82 78 83 79 84 88 85 80 86 81 87 87 88
REMARK SMILES IDX 89 89 82 90 83 91 84 92 85 93 86 94 62 95 63 96 72 97 64 98
REMARK SMILES IDX 65 99 71 100 73 101 66 102 67 103 68 104 69 105 70 106
REMARK H PARENT 28 6 17 11 7 19 32 37 94 56 60 67
REMARK Flexibility Score: inf
ROOT
ATOM      1  C   UNL A   1      33.726  29.743  27.204  1.00  0.00     0.042 C 
ENDROOT
BRANCH   1   2
ATOM      2  C   UNL A   1      33.068  29.525  25.797  1.00  0.00     0.117 C 
BRANCH   2   3
ATOM      3  N   UNL A   1      31.874  28.652  25.656  1.00  0.00    -0.354 N 
ATOM      4  C   UNL A   1      31.650  27.417  26.280  1.00  0.00     0.242 C 
ATOM      5  O   UNL A   1      31.026  27.485  27.352  1.00  0.00    -0.273 OA
ATOM      6  H   UNL A   1      31.162  28.976  25.058  1.00  0.00     0.163 HD
BRANCH   4   7
ATOM      7  C   UNL A   1      31.967  25.920  25.669  1.00  0.00     0.177 C 
BRANCH   7   8
ATOM      8  N   UNL A   1      30.659  25.529  25.274  1.00  0.00    -0.326 N 
ATOM      9  C   UNL A   1      29.916  26.253  24.429  1.00  0.00     0.323 C 
ATOM     10  O   UNL A   1      28.710  26.207  24.708  1.00  0.00    -0.248 OA
ATOM     11  H   UNL A   1      30.285  24.694  25.636  1.00  0.00     0.166 HD
BRANCH   9  12
ATOM     12  N   UNL A   1      30.434  26.868  23.305  1.00  0.00    -0.280 N 
ATOM     13  C   UNL A   1      31.596  26.660  22.173  1.00  0.00     0.184 C 
ATOM     14  C   UNL A   1      32.366  28.022  22.217  1.00  0.00     0.247 C 
ATOM     15  O   UNL A   1      33.591  28.128  22.169  1.00  0.00    -0.272 OA
ATOM     16  N   UNL A   1      31.601  29.150  22.097  1.00  0.00    -0.322 N 
ATOM     17  C   UNL A   1      29.659  28.096  23.043  1.00  0.00     0.070 A 
ATOM     18  C   UNL A   1      30.243  29.177  22.389  1.00  0.00     0.065 A 
ATOM     19  H   UNL A   1      32.033  29.981  21.791  1.00  0.00     0.170 HD
ATOM     20  C   UNL A   1      28.275  28.171  23.350  1.00  0.00     0.028 A 
ATOM     21  C   UNL A   1      29.481  30.302  22.063  1.00  0.00     0.028 A 
ATOM     22  C   UNL A   1      27.507  29.276  22.997  1.00  0.00     0.002 A 
ATOM     23  C   UNL A   1      28.112  30.340  22.346  1.00  0.00     0.002 A 
BRANCH  13  24
ATOM     24  C   UNL A   1      32.763  25.522  21.797  1.00  0.00     0.015 C 
ATOM     25  C   UNL A   1      32.899  24.022  22.180  1.00  0.00     0.010 C 
ATOM     26  C   UNL A   1      32.801  25.366  20.237  1.00  0.00     0.010 C 
ENDBRANCH  13  24
ENDBRANCH   9  12
ENDBRANCH   7   8
BRANCH   7  27
ATOM     27  C   UNL A   1      32.586  24.524  26.166  1.00  0.00     0.070 C 
BRANCH  27  28
ATOM     28  C   UNL A   1      32.860  23.208  25.466  1.00  0.00    -0.045 A 
ATOM     29  C   UNL A   1      34.205  22.834  25.224  1.00  0.00     0.004 A 
ATOM     30  C   UNL A   1      31.879  22.235  25.289  1.00  0.00     0.004 A 
ATOM     31  C   UNL A   1      34.552  21.577  24.733  1.00  0.00     0.000 A 
ATOM     32  C   UNL A   1      32.231  20.954  24.840  1.00  0.00     0.000 A 
ATOM     33  C   UNL A   1      33.559  20.630  24.544  1.00  0.00     0.000 A 
ENDBRANCH  27  28
ENDBRANCH   7  27
ENDBRANCH   4   7
ENDBRANCH   2   3
ENDBRANCH   1   2
BRANCH   1  34
ATOM     34  C   UNL A   1      35.181  29.406  27.580  1.00  0.00     0.118 C 
BRANCH  34  35
ATOM     35  N   UNL A   1      35.448  29.869  28.958  1.00  0.00    -0.352 N 
ATOM     36  C   UNL A   1      36.490  29.621  29.830  1.00  0.00     0.251 C 
ATOM     37  H   UNL A   1      34.753  30.464  29.322  1.00  0.00     0.163 HD
ATOM     38  O   UNL A   1      36.182  29.388  31.003  1.00  0.00    -0.269 OA
BRANCH  36  39
ATOM     39  C   UNL A   1      37.944  29.750  29.496  1.00  0.00     0.039 A 
ATOM     40  C   UNL A   1      38.311  29.741  28.133  1.00  0.00     0.014 A 
ATOM     41  C   UNL A   1      38.958  29.648  30.447  1.00  0.00     0.014 A 
ATOM     42  C   UNL A   1      39.650  29.592  27.730  1.00  0.00     0.010 A 
ATOM     43  C   UNL A   1      40.304  29.530  30.043  1.00  0.00     0.010 A 
ATOM     44  C   UNL A   1      40.665  29.457  28.683  1.00  0.00    -0.014 A 
BRANCH  44  45
ATOM     45  C   UNL A   1      42.071  29.118  28.287  1.00  0.00     0.031 A 
ATOM     46  C   UNL A   1      42.417  27.699  27.890  1.00  0.00     0.074 A 
ATOM     47  C   UNL A   1      43.048  30.048  28.302  1.00  0.00     0.049 A 
ATOM     48  N   UNL A   1      43.583  27.164  27.628  1.00  0.00    -0.248 NA
ATOM     49  C   UNL A   1      41.292  26.755  27.795  1.00  0.00     0.031 C 
ATOM     50  C   UNL A   1      42.865  31.457  28.646  1.00  0.00     0.029 A 
ATOM     51  N   UNL A   1      44.396  29.944  28.041  1.00  0.00    -0.354 N 
ATOM     52  C   UNL A   1      43.338  25.816  27.372  1.00  0.00     0.074 A 
ATOM     53  C   UNL A   1      41.915  25.613  27.543  1.00  0.00     0.031 C 
ATOM     54  C   UNL A   1      44.054  32.082  28.588  1.00  0.00     0.029 A 
ATOM     55  C   UNL A   1      45.091  31.115  28.238  1.00  0.00     0.049 A 
ATOM     56  H   UNL A   1      44.822  29.109  27.741  1.00  0.00     0.167 HD
ATOM     57  C   UNL A   1      44.210  24.839  27.015  1.00  0.00     0.037 A 
ATOM     58  C   UNL A   1      46.414  31.379  28.166  1.00  0.00     0.037 A 
ATOM     59  C   UNL A   1      45.622  25.050  26.817  1.00  0.00     0.049 A 
ATOM     60  C   UNL A   1      47.372  30.279  27.789  1.00  0.00     0.074 A 
ATOM     61  C   UNL A   1      46.581  24.138  26.408  1.00  0.00     0.029 A 
ATOM     62  N   UNL A   1      46.281  26.255  27.017  1.00  0.00    -0.354 N 
ATOM     63  N   UNL A   1      47.118  29.020  27.522  1.00  0.00    -0.248 NA
ATOM     64  C   UNL A   1      48.796  30.635  27.698  1.00  0.00     0.031 C 
ATOM     65  C   UNL A   1      47.826  24.778  26.409  1.00  0.00     0.029 A 
ATOM     66  C   UNL A   1      47.636  26.104  26.763  1.00  0.00     0.049 A 
ATOM     67  H   UNL A   1      45.850  27.094  27.297  1.00  0.00     0.167 HD
ATOM     68  C   UNL A   1      48.343  28.440  27.207  1.00  0.00     0.074 A 
ATOM     69  C   UNL A   1      49.338  29.489  27.306  1.00  0.00     0.031 C 
ATOM     70  C   UNL A   1      48.618  27.157  26.864  1.00  0.00     0.037 A 
BRANCH  57  71
ATOM     71  C   UNL A   1      43.664  23.444  26.835  1.00  0.00     0.058 A 
ATOM     72  C   UNL A   1      43.303  22.638  27.926  1.00  0.00     0.135 A 
ATOM     73  C   UNL A   1      43.485  22.910  25.546  1.00  0.00     0.135 A 
ATOM     74  F   UNL A   1      43.458  23.090  29.181  1.00  0.00    -0.206 F 
ATOM     75  C   UNL A   1      42.831  21.339  27.751  1.00  0.00     0.059 A 
ATOM     76  C   UNL A   1      42.984  21.625  25.347  1.00  0.00     0.059 A 
ATOM     77  F   UNL A   1      43.804  23.635  24.463  1.00  0.00    -0.206 F 
ATOM     78  C   UNL A   1      42.681  20.839  26.458  1.00  0.00     0.060 A 
BRANCH  78  79
ATOM     79  S   UNL A   1      42.093  19.144  26.249  1.00  0.00     0.124 S 
ATOM     80  O   UNL A   1      43.023  18.637  25.244  1.00  0.00    -0.237 OA
ATOM     81  O   UNL A   1      42.248  18.592  27.591  1.00  0.00    -0.237 OA
ATOM     82  O   UNL A   1      40.715  19.315  25.799  1.00  0.00    -0.744 OA
ENDBRANCH  78  79
ENDBRANCH  57  71
BRANCH  58  83
ATOM     83  C   UNL A   1      46.908  32.755  28.455  1.00  0.00     0.058 A 
ATOM     84  C   UNL A   1      46.954  33.734  27.451  1.00  0.00     0.135 A 
ATOM     85  C   UNL A   1      47.309  33.130  29.747  1.00  0.00     0.135 A 
ATOM     86  F   UNL A   1      46.598  33.423  26.195  1.00  0.00    -0.206 F 
ATOM     87  C   UNL A   1      47.373  35.034  27.716  1.00  0.00     0.059 A 
ATOM     88  C   UNL A   1      47.709  34.431  30.044  1.00  0.00     0.059 A 
ATOM     89  F   UNL A   1      47.279  32.234  30.747  1.00  0.00    -0.206 F 
ATOM     90  C   UNL A   1      47.738  35.376  29.019  1.00  0.00     0.060 A 
BRANCH  90  91
ATOM     91  S   UNL A   1      48.195  37.088  29.374  1.00  0.00     0.124 S 
ATOM     92  O   UNL A   1      47.817  37.206  30.783  1.00  0.00    -0.237 OA
ATOM     93  O   UNL A   1      49.633  37.079  29.104  1.00  0.00    -0.237 OA
ATOM     94  O   UNL A   1      47.394  37.855  28.439  1.00  0.00    -0.744 OA
ENDBRANCH  90  91
ENDBRANCH  58  83
BRANCH  70  95
ATOM     95  C   UNL A   1      50.047  26.812  26.540  1.00  0.00     0.058 A 
ATOM     96  C   UNL A   1      50.559  26.921  25.237  1.00  0.00     0.135 A 
ATOM     97  C   UNL A   1      50.932  26.419  27.558  1.00  0.00     0.135 A 
ATOM     98  F   UNL A   1      49.757  27.286  24.225  1.00  0.00    -0.206 F 
ATOM     99  C   UNL A   1      51.890  26.630  24.951  1.00  0.00     0.059 A 
ATOM    100  C   UNL A   1      52.274  26.152  27.301  1.00  0.00     0.059 A 
ATOM    101  F   UNL A   1      50.500  26.310  28.825  1.00  0.00    -0.206 F 
ATOM    102  C   UNL A   1      52.740  26.248  25.990  1.00  0.00     0.060 A 
BRANCH 102 103
ATOM    103  S   UNL A   1      54.472  25.906  25.612  1.00  0.00     0.124 S 
ATOM    104  O   UNL A   1      54.414  25.652  24.176  1.00  0.00    -0.237 OA
ATOM    105  O   UNL A   1      55.130  27.147  26.010  1.00  0.00    -0.237 OA
ATOM    106  O   UNL A   1      54.780  24.745  26.442  1.00  0.00    -0.744 OA
ENDBRANCH 102 103
ENDBRANCH  70  95
ENDBRANCH  44  45
ENDBRANCH  36  39
ENDBRANCH  34  35
ENDBRANCH   1  34
TORSDOF 18
ENDMDL
MODEL 3
REMARK VINA RESULT:     -11.8      1.180      8.252
REMARK SMILES CC(C)[C@@H]1C(=O)Nc2ccccc2N1C(=O)N[C@H](Cc1ccccc1)C(=O)NCCCNC(=O)c1ccc(-c2c3nc(c(-c4c(F)cc(S(=O)(=O)[O-])cc4F)c4ccc([nH]4)c(-c4c(F)cc(S(=O)(=O)[O-])cc4F)c4nc(c(-c5c(F)cc(S(=O)(=O)[O-])cc5F)c5ccc2[nH]5)C=C4)C=C3)cc1
REMARK SMILES IDX 30 1 29 2 28 3 26 4 27 5 18 7 17 8 15 9 16 10 14 12 4 13
REMARK SMILES IDX 5 14 6 15 7 16 13 17 8 18 12 20 9 21 11 22 10 23 2 24 1 25
REMARK SMILES IDX 3 26 19 27 20 28 21 29 25 30 22 31 24 32 23 33 31 34 32 35
REMARK SMILES IDX 33 36 34 38 35 39 36 40 100 41 37 42 99 43 38 44 39 45 40 46
REMARK SMILES IDX 93 47 41 48 98 49 92 50 94 51 42 52 97 53 91 54 90 55 43 57
REMARK SMILES IDX 77 58 56 59 76 60 57 61 60 62 75 63 95 64 58 65 59 66 74 68
REMARK SMILES IDX 96 69 61 70 44 71 45 72 54 73 46 74 47 75 53 76 55 77 48 78
REMARK SMILES IDX 49 79 50 80 51 81 52 82 78 83 79 84 88 85 80 86 81 87 87 88
REMARK SMILES IDX 89 89 82 90 83 91 84 92 85 93 86 94 62 95 63 96 72 97 64 98
REMARK SMILES IDX 65 99 71 100 73 101 66 102 67 103 68 104 69 105 70 106
REMARK H PARENT 28 6 17 11 7 19 32 37 94 56 60 67
REMARK Flexibility Score: inf
ROOT
ATOM      1  C   UNL A   1      33.307  30.386  26.826  1.00  0.00     0.042 C 
ENDROOT
BRANCH   1   2
ATOM      2  C   UNL A   1      33.256  29.714  25.411  1.00  0.00     0.117 C 
BRANCH   2   3
ATOM      3  N   UNL A   1      32.741  28.328  25.257  1.00  0.00    -0.354 N 
ATOM      4  C   UNL A   1      33.236  27.168  25.868  1.00  0.00     0.242 C 
ATOM      5  O   UNL A   1      32.682  26.871  26.939  1.00  0.00    -0.273 OA
ATOM      6  H   UNL A   1      31.966  28.213  24.661  1.00  0.00     0.163 HD
BRANCH   4   7
ATOM      7  C   UNL A   1      34.323  26.100  25.243  1.00  0.00     0.177 C 
BRANCH   7   8
ATOM      8  N   UNL A   1      34.048  26.246  23.856  1.00  0.00    -0.326 N 
ATOM      9  C   UNL A   1      33.212  25.433  23.199  1.00  0.00     0.323 C 
ATOM     10  O   UNL A   1      33.577  25.227  22.034  1.00  0.00    -0.248 OA
ATOM     11  H   UNL A   1      34.488  26.972  23.360  1.00  0.00     0.166 HD
BRANCH   9  12
ATOM     12  N   UNL A   1      32.017  24.988  23.732  1.00  0.00    -0.280 N 
ATOM     13  C   UNL A   1      30.526  25.535  24.121  1.00  0.00     0.184 C 
ATOM     14  C   UNL A   1      30.367  25.074  25.608  1.00  0.00     0.247 C 
ATOM     15  O   UNL A   1      29.878  25.765  26.501  1.00  0.00    -0.272 OA
ATOM     16  N   UNL A   1      30.609  23.750  25.857  1.00  0.00    -0.322 N 
ATOM     17  C   UNL A   1      32.137  23.545  24.013  1.00  0.00     0.070 A 
ATOM     18  C   UNL A   1      31.383  22.953  25.022  1.00  0.00     0.065 A 
ATOM     19  H   UNL A   1      30.218  23.344  26.665  1.00  0.00     0.170 HD
ATOM     20  C   UNL A   1      32.937  22.701  23.198  1.00  0.00     0.028 A 
ATOM     21  C   UNL A   1      31.432  21.572  25.225  1.00  0.00     0.028 A 
ATOM     22  C   UNL A   1      32.962  21.322  23.376  1.00  0.00     0.002 A 
ATOM     23  C   UNL A   1      32.202  20.758  24.389  1.00  0.00     0.002 A 
BRANCH  13  24
ATOM     24  C   UNL A   1      29.675  26.973  24.028  1.00  0.00     0.015 C 
ATOM     25  C   UNL A   1      29.758  28.154  23.021  1.00  0.00     0.010 C 
ATOM     26  C   UNL A   1      28.156  26.625  23.851  1.00  0.00     0.010 C 
ENDBRANCH  13  24
ENDBRANCH   9  12
ENDBRANCH   7   8
BRANCH   7  27
ATOM     27  C   UNL A   1      34.663  24.533  25.342  1.00  0.00     0.070 C 
BRANCH  27  28
ATOM     28  C   UNL A   1      35.965  23.757  25.323  1.00  0.00    -0.045 A 
ATOM     29  C   UNL A   1      37.050  24.230  26.104  1.00  0.00     0.004 A 
ATOM     30  C   UNL A   1      36.064  22.472  24.795  1.00  0.00     0.004 A 
ATOM     31  C   UNL A   1      38.223  23.497  26.271  1.00  0.00     0.000 A 
ATOM     32  C   UNL A   1      37.225  21.713  25.002  1.00  0.00     0.000 A 
ATOM     33  C   UNL A   1      38.309  22.228  25.720  1.00  0.00     0.000 A 
ENDBRANCH  27  28
ENDBRANCH   7  27
ENDBRANCH   4   7
ENDBRANCH   2   3
ENDBRANCH   1   2
BRANCH   1  34
ATOM     34  C   UNL A   1      34.100  29.869  28.042  1.00  0.00     0.118 C 
BRANCH  34  35
ATOM     35  N   UNL A   1      34.951  30.957  28.567  1.00  0.00    -0.352 N 
ATOM     36  C   UNL A   1      36.086  30.943  29.355  1.00  0.00     0.251 C 
ATOM     37  H   UNL A   1      34.653  31.859  28.308  1.00  0.00     0.163 HD
ATOM     38  O   UNL A   1      36.134  31.777  30.264  1.00  0.00    -0.269 OA
BRANCH  36  39
ATOM     39  C   UNL A   1      37.300  30.103  29.105  1.00  0.00     0.039 A 
ATOM     40  C   UNL A   1      38.111  29.770  30.211  1.00  0.00     0.014 A 
ATOM     41  C   UNL A   1      37.790  29.830  27.828  1.00  0.00     0.014 A 
ATOM     42  C   UNL A   1      39.395  29.218  30.046  1.00  0.00     0.010 A 
ATOM     43  C   UNL A   1      39.064  29.248  27.664  1.00  0.00     0.010 A 
ATOM     44  C   UNL A   1      39.900  28.974  28.765  1.00  0.00    -0.014 A 
BRANCH  44  45
ATOM     45  C   UNL A   1      41.325  28.557  28.552  1.00  0.00     0.031 A 
ATOM     46  C   UNL A   1      42.425  29.595  28.605  1.00  0.00     0.074 A 
ATOM     47  C   UNL A   1      41.649  27.275  28.286  1.00  0.00     0.049 A 
ATOM     48  N   UNL A   1      43.702  29.476  28.335  1.00  0.00    -0.248 NA
ATOM     49  C   UNL A   1      42.023  30.954  28.998  1.00  0.00     0.031 C 
ATOM     50  C   UNL A   1      40.702  26.163  28.218  1.00  0.00     0.029 A 
ATOM     51  N   UNL A   1      42.864  26.693  28.001  1.00  0.00    -0.354 N 
ATOM     52  C   UNL A   1      44.247  30.748  28.492  1.00  0.00     0.074 A 
ATOM     53  C   UNL A   1      43.153  31.628  28.848  1.00  0.00     0.031 C 
ATOM     54  C   UNL A   1      41.366  25.038  27.900  1.00  0.00     0.029 A 
ATOM     55  C   UNL A   1      42.780  25.351  27.706  1.00  0.00     0.049 A 
ATOM     56  H   UNL A   1      43.713  27.190  28.008  1.00  0.00     0.167 HD
ATOM     57  C   UNL A   1      45.537  31.150  28.364  1.00  0.00     0.037 A 
ATOM     58  C   UNL A   1      43.726  24.475  27.303  1.00  0.00     0.037 A 
ATOM     59  C   UNL A   1      46.629  30.267  28.037  1.00  0.00     0.049 A 
ATOM     60  C   UNL A   1      45.151  24.940  27.147  1.00  0.00     0.074 A 
ATOM     61  C   UNL A   1      47.977  30.565  27.933  1.00  0.00     0.029 A 
ATOM     62  N   UNL A   1      46.500  28.914  27.757  1.00  0.00    -0.354 N 
ATOM     63  N   UNL A   1      45.652  26.139  27.328  1.00  0.00    -0.248 NA
ATOM     64  C   UNL A   1      46.141  23.934  26.736  1.00  0.00     0.031 C 
ATOM     65  C   UNL A   1      48.656  29.404  27.541  1.00  0.00     0.029 A 
ATOM     66  C   UNL A   1      47.739  28.369  27.457  1.00  0.00     0.049 A 
ATOM     67  H   UNL A   1      45.652  28.413  27.770  1.00  0.00     0.167 HD
ATOM     68  C   UNL A   1      47.016  26.026  27.079  1.00  0.00     0.074 A 
ATOM     69  C   UNL A   1      47.265  24.639  26.744  1.00  0.00     0.031 C 
ATOM     70  C   UNL A   1      47.976  26.985  27.126  1.00  0.00     0.037 A 
BRANCH  57  71
ATOM     71  C   UNL A   1      45.838  32.615  28.559  1.00  0.00     0.058 A 
ATOM     72  C   UNL A   1      46.224  33.138  29.804  1.00  0.00     0.135 A 
ATOM     73  C   UNL A   1      45.753  33.510  27.478  1.00  0.00     0.135 A 
ATOM     74  F   UNL A   1      46.314  32.335  30.876  1.00  0.00    -0.206 F 
ATOM     75  C   UNL A   1      46.467  34.498  29.982  1.00  0.00     0.059 A 
ATOM     76  C   UNL A   1      46.025  34.869  27.626  1.00  0.00     0.059 A 
ATOM     77  F   UNL A   1      45.398  33.070  26.261  1.00  0.00    -0.206 F 
ATOM     78  C   UNL A   1      46.359  35.357  28.888  1.00  0.00     0.060 A 
BRANCH  78  79
ATOM     79  S   UNL A   1      46.652  37.121  29.141  1.00  0.00     0.124 S 
ATOM     80  O   UNL A   1      45.866  37.375  30.345  1.00  0.00    -0.237 OA
ATOM     81  O   UNL A   1      48.101  37.176  29.308  1.00  0.00    -0.237 OA
ATOM     82  O   UNL A   1      46.141  37.730  27.918  1.00  0.00    -0.744 OA
ENDBRANCH  78  79
ENDBRANCH  57  71
BRANCH  58  83
ATOM     83  C   UNL A   1      43.351  23.060  27.027  1.00  0.00     0.058 A 
ATOM     84  C   UNL A   1      43.149  22.606  25.715  1.00  0.00     0.135 A 
ATOM     85  C   UNL A   1      43.223  22.123  28.065  1.00  0.00     0.135 A 
ATOM     86  F   UNL A   1      43.243  23.465  24.687  1.00  0.00    -0.206 F 
ATOM     87  C   UNL A   1      42.840  21.278  25.440  1.00  0.00     0.059 A 
ATOM     88  C   UNL A   1      42.939  20.783  27.814  1.00  0.00     0.059 A 
ATOM     89  F   UNL A   1      43.412  22.502  29.339  1.00  0.00    -0.206 F 
ATOM     90  C   UNL A   1      42.748  20.371  26.496  1.00  0.00     0.060 A 
BRANCH  90  91
ATOM     91  S   UNL A   1      42.435  18.630  26.124  1.00  0.00     0.124 S 
ATOM     92  O   UNL A   1      41.024  18.662  25.737  1.00  0.00    -0.237 OA
ATOM     93  O   UNL A   1      43.383  18.379  25.038  1.00  0.00    -0.237 OA
ATOM     94  O   UNL A   1      42.732  17.956  27.374  1.00  0.00    -0.744 OA
ENDBRANCH  90  91
ENDBRANCH  58  83
BRANCH  70  95
ATOM     95  C   UNL A   1      49.393  26.567  26.838  1.00  0.00     0.058 A 
ATOM     96  C   UNL A   1      50.243  26.086  27.845  1.00  0.00     0.135 A 
ATOM     97  C   UNL A   1      49.890  26.599  25.524  1.00  0.00     0.135 A 
ATOM     98  F   UNL A   1      49.823  26.039  29.119  1.00  0.00    -0.206 F 
ATOM     99  C   UNL A   1      51.543  25.673  27.565  1.00  0.00     0.059 A 
ATOM    100  C   UNL A   1      51.175  26.163  25.215  1.00  0.00     0.059 A 
ATOM    101  F   UNL A   1      49.116  27.039  24.518  1.00  0.00    -0.206 F 
ATOM    102  C   UNL A   1      51.999  25.714  26.246  1.00  0.00     0.060 A 
BRANCH 102 103
ATOM    103  S   UNL A   1      53.675  25.144  25.891  1.00  0.00     0.124 S 
ATOM    104  O   UNL A   1      54.172  26.211  25.028  1.00  0.00    -0.237 OA
ATOM    105  O   UNL A   1      54.271  25.077  27.223  1.00  0.00    -0.237 OA
ATOM    106  O   UNL A   1      53.467  23.855  25.239  1.00  0.00    -0.744 OA
ENDBRANCH 102 103
ENDBRANCH  70  95
ENDBRANCH  44  45
ENDBRANCH  36  39
ENDBRANCH  34  35
ENDBRANCH   1  34
TORSDOF 18
ENDMDL
