MODEL 1
REMARK VINA RESULT:     -12.7      0.000      0.000
REMARK SMILES CC(C)(C)OC(=O)N1CCN(c2nc3ccccc3s2)[C@H](C(=O)NCCCNC(=O)c2ccc(-c3c4nc(c(-c5c(F)cc(S(=O)(=O)[O-])cc5F)c5ccc([nH]5)c(-c5c(F)cc(S(=O)(=O)[O-])cc5F)c5nc(c(-c6c(F)cc(S(=O)(=O)[O-])cc6F)c6ccc3[nH]6)C=C5)C=C4)cc2)C1
REMARK SMILES IDX 26 1 25 2 24 3 22 4 23 5 21 7 8 8 9 9 97 10 10 11 11 12 6 13
REMARK SMILES IDX 7 14 5 15 2 16 1 17 3 18 4 19 12 20 13 21 20 22 14 23 19 24
REMARK SMILES IDX 15 25 18 26 16 27 17 28 27 29 28 30 29 31 30 33 31 34 32 35
REMARK SMILES IDX 96 36 33 37 95 38 34 39 35 40 36 41 89 42 37 43 94 44 88 45
REMARK SMILES IDX 90 46 38 47 93 48 87 49 86 50 39 52 73 53 52 54 72 55 53 56
REMARK SMILES IDX 56 57 71 58 91 59 54 60 55 61 70 63 92 64 57 65 40 66 41 67
REMARK SMILES IDX 50 68 42 69 43 70 49 71 51 72 44 73 45 74 46 75 47 76 48 77
REMARK SMILES IDX 74 78 75 79 84 80 76 81 77 82 83 83 85 84 78 85 79 86 80 87
REMARK SMILES IDX 81 88 82 89 58 90 59 91 68 92 60 93 61 94 67 95 69 96 62 97
REMARK SMILES IDX 63 98 64 99 65 100 66 101
REMARK H PARENT 24 6 28 32 90 51 56 62
REMARK Flexibility Score: inf
ROOT
ATOM      1  C   UNL A   1      37.099  23.454  25.808  1.00  0.00     0.042 C 
ENDROOT
BRANCH   1   2
ATOM      2  C   UNL A   1      35.786  24.050  25.301  1.00  0.00     0.117 C 
BRANCH   2   3
ATOM      3  N   UNL A   1      35.499  23.821  23.891  1.00  0.00    -0.354 N 
ATOM      4  C   UNL A   1      34.319  23.643  23.223  1.00  0.00     0.244 C 
ATOM      5  O   UNL A   1      34.380  23.546  21.993  1.00  0.00    -0.273 OA
ATOM      6  H   UNL A   1      36.297  23.788  23.315  1.00  0.00     0.163 HD
BRANCH   4   7
ATOM      7  C   UNL A   1      32.960  23.613  23.942  1.00  0.00     0.193 C 
ATOM      8  N   UNL A   1      31.836  25.196  25.656  1.00  0.00    -0.304 N 
ATOM      9  C   UNL A   1      31.671  24.042  26.540  1.00  0.00     0.144 C 
ATOM     10  C   UNL A   1      32.652  25.047  24.446  1.00  0.00     0.158 C 
ATOM     11  C   UNL A   1      31.613  22.708  25.792  1.00  0.00     0.141 C 
ATOM     12  N   UNL A   1      32.830  22.552  24.982  1.00  0.00    -0.332 N 
BRANCH   8  13
ATOM     13  C   UNL A   1      31.550  26.457  26.162  1.00  0.00     0.410 C 
ATOM     14  O   UNL A   1      31.033  26.649  27.253  1.00  0.00    -0.224 OA
BRANCH  13  15
ATOM     15  O   UNL A   1      31.932  27.441  25.306  1.00  0.00    -0.444 OA
BRANCH  15  16
ATOM     16  C   UNL A   1      32.704  28.588  25.750  1.00  0.00     0.106 C 
ATOM     17  C   UNL A   1      33.075  29.327  24.455  1.00  0.00     0.056 C 
ATOM     18  C   UNL A   1      33.990  28.124  26.443  1.00  0.00     0.056 C 
ATOM     19  C   UNL A   1      31.895  29.543  26.636  1.00  0.00     0.056 C 
ENDBRANCH  15  16
ENDBRANCH  13  15
ENDBRANCH   8  13
BRANCH  12  20
ATOM     20  C   UNL A   1      33.163  21.263  24.648  1.00  0.00     0.187 A 
ATOM     21  N   UNL A   1      32.427  20.453  23.916  1.00  0.00    -0.220 NA
ATOM     22  S   UNL A   1      34.575  20.523  25.294  1.00  0.00    -0.097 S 
ATOM     23  C   UNL A   1      33.012  19.185  23.846  1.00  0.00     0.084 A 
ATOM     24  C   UNL A   1      34.190  19.036  24.572  1.00  0.00     0.056 A 
ATOM     25  C   UNL A   1      32.529  18.063  23.140  1.00  0.00     0.030 A 
ATOM     26  C   UNL A   1      34.895  17.824  24.649  1.00  0.00     0.021 A 
ATOM     27  C   UNL A   1      33.228  16.846  23.197  1.00  0.00     0.002 A 
ATOM     28  C   UNL A   1      34.391  16.729  23.949  1.00  0.00     0.002 A 
ENDBRANCH  12  20
ENDBRANCH   4   7
ENDBRANCH   2   3
ENDBRANCH   1   2
BRANCH   1  29
ATOM     29  C   UNL A   1      38.091  24.440  26.410  1.00  0.00     0.118 C 
BRANCH  29  30
ATOM     30  N   UNL A   1      39.467  24.057  26.150  1.00  0.00    -0.352 N 
ATOM     31  C   UNL A   1      40.619  24.656  26.599  1.00  0.00     0.251 C 
ATOM     32  H   UNL A   1      39.590  23.265  25.577  1.00  0.00     0.163 HD
ATOM     33  O   UNL A   1      41.697  24.361  26.091  1.00  0.00    -0.269 OA
BRANCH  31  34
ATOM     34  C   UNL A   1      40.557  25.665  27.681  1.00  0.00     0.039 A 
ATOM     35  C   UNL A   1      41.473  26.719  27.684  1.00  0.00     0.014 A 
ATOM     36  C   UNL A   1      39.608  25.560  28.704  1.00  0.00     0.014 A 
ATOM     37  C   UNL A   1      41.411  27.692  28.686  1.00  0.00     0.010 A 
ATOM     38  C   UNL A   1      39.502  26.569  29.660  1.00  0.00     0.010 A 
ATOM     39  C   UNL A   1      40.412  27.638  29.673  1.00  0.00    -0.014 A 
BRANCH  39  40
ATOM     40  C   UNL A   1      40.327  28.659  30.750  1.00  0.00     0.031 A 
ATOM     41  C   UNL A   1      41.203  28.535  31.970  1.00  0.00     0.074 A 
ATOM     42  C   UNL A   1      39.428  29.660  30.666  1.00  0.00     0.049 A 
ATOM     43  N   UNL A   1      41.212  29.259  33.060  1.00  0.00    -0.248 NA
ATOM     44  C   UNL A   1      42.176  27.430  31.977  1.00  0.00     0.031 C 
ATOM     45  C   UNL A   1      38.495  29.870  29.558  1.00  0.00     0.029 A 
ATOM     46  N   UNL A   1      39.143  30.682  31.538  1.00  0.00    -0.354 N 
ATOM     47  C   UNL A   1      42.170  28.685  33.889  1.00  0.00     0.074 A 
ATOM     48  C   UNL A   1      42.686  27.524  33.196  1.00  0.00     0.031 C 
ATOM     49  C   UNL A   1      37.753  30.962  29.809  1.00  0.00     0.029 A 
ATOM     50  C   UNL A   1      38.132  31.509  31.109  1.00  0.00     0.049 A 
ATOM     51  H   UNL A   1      39.618  30.811  32.390  1.00  0.00     0.167 HD
ATOM     52  C   UNL A   1      42.600  29.099  35.106  1.00  0.00     0.037 A 
ATOM     53  C   UNL A   1      37.566  32.581  31.699  1.00  0.00     0.037 A 
ATOM     54  C   UNL A   1      42.115  30.278  35.773  1.00  0.00     0.049 A 
ATOM     55  C   UNL A   1      38.069  33.032  33.045  1.00  0.00     0.074 A 
ATOM     56  C   UNL A   1      42.529  30.815  36.980  1.00  0.00     0.029 A 
ATOM     57  N   UNL A   1      41.114  31.107  35.290  1.00  0.00    -0.354 N 
ATOM     58  N   UNL A   1      39.010  32.504  33.791  1.00  0.00    -0.248 NA
ATOM     59  C   UNL A   1      37.440  34.227  33.625  1.00  0.00     0.031 C 
ATOM     60  C   UNL A   1      41.754  31.950  37.242  1.00  0.00     0.029 A 
ATOM     61  C   UNL A   1      40.887  32.144  36.179  1.00  0.00     0.049 A 
ATOM     62  H   UNL A   1      40.635  30.978  34.439  1.00  0.00     0.167 HD
ATOM     63  C   UNL A   1      39.103  33.318  34.916  1.00  0.00     0.074 A 
ATOM     64  C   UNL A   1      38.130  34.377  34.748  1.00  0.00     0.031 C 
ATOM     65  C   UNL A   1      39.921  33.198  35.991  1.00  0.00     0.037 A 
BRANCH  52  66
ATOM     66  C   UNL A   1      43.653  28.271  35.789  1.00  0.00     0.058 A 
ATOM     67  C   UNL A   1      43.316  27.231  36.670  1.00  0.00     0.135 A 
ATOM     68  C   UNL A   1      45.016  28.504  35.543  1.00  0.00     0.135 A 
ATOM     69  F   UNL A   1      42.028  26.976  36.953  1.00  0.00    -0.206 F 
ATOM     70  C   UNL A   1      44.291  26.473  37.309  1.00  0.00     0.059 A 
ATOM     71  C   UNL A   1      46.009  27.739  36.149  1.00  0.00     0.059 A 
ATOM     72  F   UNL A   1      45.395  29.485  34.709  1.00  0.00    -0.206 F 
ATOM     73  C   UNL A   1      45.637  26.737  37.044  1.00  0.00     0.060 A 
BRANCH  73  74
ATOM     74  S   UNL A   1      46.892  25.746  37.882  1.00  0.00     0.124 S 
ATOM     75  O   UNL A   1      46.616  26.056  39.282  1.00  0.00    -0.237 OA
ATOM     76  O   UNL A   1      46.559  24.392  37.456  1.00  0.00    -0.237 OA
ATOM     77  O   UNL A   1      48.147  26.275  37.358  1.00  0.00    -0.744 OA
ENDBRANCH  73  74
ENDBRANCH  52  66
BRANCH  53  78
ATOM     78  C   UNL A   1      36.473  33.317  31.012  1.00  0.00     0.058 A 
ATOM     79  C   UNL A   1      36.741  34.130  29.899  1.00  0.00     0.135 A 
ATOM     80  C   UNL A   1      35.140  33.216  31.440  1.00  0.00     0.135 A 
ATOM     81  F   UNL A   1      38.000  34.265  29.456  1.00  0.00    -0.206 F 
ATOM     82  C   UNL A   1      35.731  34.827  29.245  1.00  0.00     0.059 A 
ATOM     83  C   UNL A   1      34.109  33.885  30.788  1.00  0.00     0.059 A 
ATOM     84  F   UNL A   1      34.830  32.440  32.490  1.00  0.00    -0.206 F 
ATOM     85  C   UNL A   1      34.416  34.696  29.696  1.00  0.00     0.060 A 
BRANCH  85  86
ATOM     86  S   UNL A   1      33.105  35.564  28.808  1.00  0.00     0.124 S 
ATOM     87  O   UNL A   1      33.865  36.561  28.063  1.00  0.00    -0.237 OA
ATOM     88  O   UNL A   1      32.509  34.493  28.016  1.00  0.00    -0.237 OA
ATOM     89  O   UNL A   1      32.261  36.083  29.881  1.00  0.00    -0.744 OA
ENDBRANCH  85  86
ENDBRANCH  53  78
BRANCH  65  90
ATOM     90  C   UNL A   1      39.829  34.257  37.054  1.00  0.00     0.058 A 
ATOM     91  C   UNL A   1      40.433  35.513  36.898  1.00  0.00     0.135 A 
ATOM     92  C   UNL A   1      39.076  34.029  38.217  1.00  0.00     0.135 A 
ATOM     93  F   UNL A   1      41.169  35.778  35.807  1.00  0.00    -0.206 F 
ATOM     94  C   UNL A   1      40.312  36.502  37.869  1.00  0.00     0.059 A 
ATOM     95  C   UNL A   1      38.921  35.012  39.189  1.00  0.00     0.059 A 
ATOM     96  F   UNL A   1      38.468  32.847  38.410  1.00  0.00    -0.206 F 
ATOM     97  C   UNL A   1      39.551  36.242  39.012  1.00  0.00     0.060 A 
BRANCH  97  98
ATOM     98  S   UNL A   1      39.369  37.547  40.247  1.00  0.00     0.124 S 
ATOM     99  O   UNL A   1      40.731  38.062  40.332  1.00  0.00    -0.237 OA
ATOM    100  O   UNL A   1      38.392  38.434  39.624  1.00  0.00    -0.237 OA
ATOM    101  O   UNL A   1      38.892  36.831  41.427  1.00  0.00    -0.744 OA
ENDBRANCH  97  98
ENDBRANCH  65  90
ENDBRANCH  39  40
ENDBRANCH  31  34
ENDBRANCH  29  30
ENDBRANCH   1  29
TORSDOF 17
ENDMDL
MODEL 2
REMARK VINA RESULT:     -12.7      6.585     12.391
REMARK SMILES CC(C)(C)OC(=O)N1CCN(c2nc3ccccc3s2)[C@H](C(=O)NCCCNC(=O)c2ccc(-c3c4nc(c(-c5c(F)cc(S(=O)(=O)[O-])cc5F)c5ccc([nH]5)c(-c5c(F)cc(S(=O)(=O)[O-])cc5F)c5nc(c(-c6c(F)cc(S(=O)(=O)[O-])cc6F)c6ccc3[nH]6)C=C5)C=C4)cc2)C1
REMARK SMILES IDX 26 1 25 2 24 3 22 4 23 5 21 7 8 8 9 9 97 10 10 11 11 12 6 13
REMARK SMILES IDX 7 14 5 15 2 16 1 17 3 18 4 19 12 20 13 21 20 22 14 23 19 24
REMARK SMILES IDX 15 25 18 26 16 27 17 28 27 29 28 30 29 31 30 33 31 34 32 35
REMARK SMILES IDX 96 36 33 37 95 38 34 39 35 40 36 41 89 42 37 43 94 44 88 45
REMARK SMILES IDX 90 46 38 47 93 48 87 49 86 50 39 52 73 53 52 54 72 55 53 56
REMARK SMILES IDX 56 57 71 58 91 59 54 60 55 61 70 63 92 64 57 65 40 66 41 67
REMARK SMILES IDX 50 68 42 69 43 70 49 71 51 72 44 73 45 74 46 75 47 76 48 77
REMARK SMILES IDX 74 78 75 79 84 80 76 81 77 82 83 83 85 84 78 85 79 86 80 87
REMARK SMILES IDX 81 88 82 89 58 90 59 91 68 92 60 93 61 94 67 95 69 96 62 97
REMARK SMILES IDX 63 98 64 99 65 100 66 101
REMARK H PARENT 24 6 28 32 90 51 56 62
REMARK Flexibility Score: inf
ROOT
ATOM      1  C   UNL A   1      33.938  28.845  27.255  1.00  0.00     0.042 C 
ENDROOT
BRANCH   1   2
ATOM      2  C   UNL A   1      33.161  29.589  26.170  1.00  0.00     0.117 C 
BRANCH   2   3
ATOM      3  N   UNL A   1      33.749  29.543  24.838  1.00  0.00    -0.354 N 
ATOM      4  C   UNL A   1      33.637  28.627  23.829  1.00  0.00     0.244 C 
ATOM      5  O   UNL A   1      34.198  28.896  22.761  1.00  0.00    -0.273 OA
ATOM      6  H   UNL A   1      34.330  30.308  24.625  1.00  0.00     0.163 HD
BRANCH   4   7
ATOM      7  C   UNL A   1      32.814  27.336  23.972  1.00  0.00     0.193 C 
ATOM      8  N   UNL A   1      33.318  24.853  23.432  1.00  0.00    -0.304 N 
ATOM      9  C   UNL A   1      32.112  24.838  22.606  1.00  0.00     0.144 C 
ATOM     10  C   UNL A   1      33.797  26.135  23.960  1.00  0.00     0.158 C 
ATOM     11  C   UNL A   1      31.070  25.875  23.034  1.00  0.00     0.141 C 
ATOM     12  N   UNL A   1      31.679  27.213  23.013  1.00  0.00    -0.332 N 
BRANCH   8  13
ATOM     13  C   UNL A   1      34.165  23.754  23.378  1.00  0.00     0.410 C 
ATOM     14  O   UNL A   1      34.578  23.266  22.337  1.00  0.00    -0.224 OA
BRANCH  13  15
ATOM     15  O   UNL A   1      34.488  23.306  24.620  1.00  0.00    -0.444 OA
BRANCH  15  16
ATOM     16  C   UNL A   1      34.093  21.991  25.089  1.00  0.00     0.106 C 
ATOM     17  C   UNL A   1      33.819  22.183  26.589  1.00  0.00     0.056 C 
ATOM     18  C   UNL A   1      35.248  20.999  24.919  1.00  0.00     0.056 C 
ATOM     19  C   UNL A   1      32.806  21.483  24.426  1.00  0.00     0.056 C 
ENDBRANCH  15  16
ENDBRANCH  13  15
ENDBRANCH   8  13
BRANCH  12  20
ATOM     20  C   UNL A   1      30.804  28.264  22.896  1.00  0.00     0.187 A 
ATOM     21  N   UNL A   1      30.478  28.860  21.768  1.00  0.00    -0.220 NA
ATOM     22  S   UNL A   1      30.129  29.008  24.293  1.00  0.00    -0.097 S 
ATOM     23  C   UNL A   1      29.640  29.951  22.012  1.00  0.00     0.084 A 
ATOM     24  C   UNL A   1      29.364  30.198  23.354  1.00  0.00     0.056 A 
ATOM     25  C   UNL A   1      29.069  30.816  21.055  1.00  0.00     0.030 A 
ATOM     26  C   UNL A   1      28.574  31.273  23.790  1.00  0.00     0.021 A 
ATOM     27  C   UNL A   1      28.266  31.891  21.473  1.00  0.00     0.002 A 
ATOM     28  C   UNL A   1      28.029  32.117  22.824  1.00  0.00     0.002 A 
ENDBRANCH  12  20
ENDBRANCH   4   7
ENDBRANCH   2   3
ENDBRANCH   1   2
BRANCH   1  29
ATOM     29  C   UNL A   1      35.296  29.430  27.623  1.00  0.00     0.118 C 
BRANCH  29  30
ATOM     30  N   UNL A   1      35.253  30.162  28.876  1.00  0.00    -0.352 N 
ATOM     31  C   UNL A   1      36.248  30.310  29.813  1.00  0.00     0.251 C 
ATOM     32  H   UNL A   1      34.401  30.611  29.081  1.00  0.00     0.163 HD
ATOM     33  O   UNL A   1      35.976  30.749  30.926  1.00  0.00    -0.269 OA
BRANCH  31  34
ATOM     34  C   UNL A   1      37.640  29.924  29.483  1.00  0.00     0.039 A 
ATOM     35  C   UNL A   1      38.491  29.503  30.506  1.00  0.00     0.014 A 
ATOM     36  C   UNL A   1      38.111  30.000  28.168  1.00  0.00     0.014 A 
ATOM     37  C   UNL A   1      39.800  29.115  30.207  1.00  0.00     0.010 A 
ATOM     38  C   UNL A   1      39.392  29.544  27.861  1.00  0.00     0.010 A 
ATOM     39  C   UNL A   1      40.257  29.112  28.878  1.00  0.00    -0.014 A 
BRANCH  39  40
ATOM     40  C   UNL A   1      41.646  28.705  28.534  1.00  0.00     0.031 A 
ATOM     41  C   UNL A   1      42.741  29.739  28.499  1.00  0.00     0.074 A 
ATOM     42  C   UNL A   1      41.914  27.429  28.196  1.00  0.00     0.049 A 
ATOM     43  N   UNL A   1      43.990  29.610  28.130  1.00  0.00    -0.248 NA
ATOM     44  C   UNL A   1      42.375  31.106  28.905  1.00  0.00     0.031 C 
ATOM     45  C   UNL A   1      40.937  26.340  28.151  1.00  0.00     0.029 A 
ATOM     46  N   UNL A   1      43.091  26.834  27.811  1.00  0.00    -0.354 N 
ATOM     47  C   UNL A   1      44.549  30.879  28.234  1.00  0.00     0.074 A 
ATOM     48  C   UNL A   1      43.492  31.773  28.655  1.00  0.00     0.031 C 
ATOM     49  C   UNL A   1      41.556  25.208  27.777  1.00  0.00     0.029 A 
ATOM     50  C   UNL A   1      42.965  25.495  27.522  1.00  0.00     0.049 A 
ATOM     51  H   UNL A   1      43.945  27.319  27.748  1.00  0.00     0.167 HD
ATOM     52  C   UNL A   1      45.832  31.263  28.023  1.00  0.00     0.037 A 
ATOM     53  C   UNL A   1      43.878  24.602  27.092  1.00  0.00     0.037 A 
ATOM     54  C   UNL A   1      46.890  30.364  27.646  1.00  0.00     0.049 A 
ATOM     55  C   UNL A   1      45.300  25.047  26.878  1.00  0.00     0.074 A 
ATOM     56  C   UNL A   1      48.234  30.645  27.466  1.00  0.00     0.029 A 
ATOM     57  N   UNL A   1      46.728  29.010  27.395  1.00  0.00    -0.354 N 
ATOM     58  N   UNL A   1      45.821  26.241  27.029  1.00  0.00    -0.248 NA
ATOM     59  C   UNL A   1      46.260  24.023  26.441  1.00  0.00     0.031 C 
ATOM     60  C   UNL A   1      48.877  29.465  27.074  1.00  0.00     0.029 A 
ATOM     61  C   UNL A   1      47.943  28.443  27.050  1.00  0.00     0.049 A 
ATOM     62  H   UNL A   1      45.874  28.523  27.454  1.00  0.00     0.167 HD
ATOM     63  C   UNL A   1      47.173  26.106  26.732  1.00  0.00     0.074 A 
ATOM     64  C   UNL A   1      47.392  24.714  26.402  1.00  0.00     0.031 C 
ATOM     65  C   UNL A   1      48.146  27.051  26.735  1.00  0.00     0.037 A 
BRANCH  52  66
ATOM     66  C   UNL A   1      46.160  32.720  28.203  1.00  0.00     0.058 A 
ATOM     67  C   UNL A   1      46.054  33.636  27.144  1.00  0.00     0.135 A 
ATOM     68  C   UNL A   1      46.562  33.213  29.455  1.00  0.00     0.135 A 
ATOM     69  F   UNL A   1      45.689  33.216  25.922  1.00  0.00    -0.206 F 
ATOM     70  C   UNL A   1      46.367  34.980  27.310  1.00  0.00     0.059 A 
ATOM     71  C   UNL A   1      46.853  34.559  29.652  1.00  0.00     0.059 A 
ATOM     72  F   UNL A   1      46.678  32.381  30.503  1.00  0.00    -0.206 F 
ATOM     73  C   UNL A   1      46.769  35.433  28.568  1.00  0.00     0.060 A 
BRANCH  73  74
ATOM     74  S   UNL A   1      47.175  37.181  28.768  1.00  0.00     0.124 S 
ATOM     75  O   UNL A   1      46.070  37.640  29.606  1.00  0.00    -0.237 OA
ATOM     76  O   UNL A   1      48.481  37.127  29.416  1.00  0.00    -0.237 OA
ATOM     77  O   UNL A   1      47.177  37.687  27.399  1.00  0.00    -0.744 OA
ENDBRANCH  73  74
ENDBRANCH  52  66
BRANCH  53  78
ATOM     78  C   UNL A   1      43.480  23.189  26.854  1.00  0.00     0.058 A 
ATOM     79  C   UNL A   1      43.397  22.674  25.551  1.00  0.00     0.135 A 
ATOM     80  C   UNL A   1      43.189  22.322  27.918  1.00  0.00     0.135 A 
ATOM     81  F   UNL A   1      43.657  23.467  24.500  1.00  0.00    -0.206 F 
ATOM     82  C   UNL A   1      43.024  21.357  25.310  1.00  0.00     0.059 A 
ATOM     83  C   UNL A   1      42.838  20.993  27.704  1.00  0.00     0.059 A 
ATOM     84  F   UNL A   1      43.270  22.762  29.184  1.00  0.00    -0.206 F 
ATOM     85  C   UNL A   1      42.748  20.522  26.395  1.00  0.00     0.060 A 
BRANCH  85  86
ATOM     86  S   UNL A   1      42.317  18.797  26.073  1.00  0.00     0.124 S 
ATOM     87  O   UNL A   1      43.244  18.459  24.999  1.00  0.00    -0.237 OA
ATOM     88  O   UNL A   1      42.578  18.169  27.364  1.00  0.00    -0.237 OA
ATOM     89  O   UNL A   1      40.909  18.871  25.694  1.00  0.00    -0.744 OA
ENDBRANCH  85  86
ENDBRANCH  53  78
BRANCH  65  90
ATOM     90  C   UNL A   1      49.544  26.607  26.404  1.00  0.00     0.058 A 
ATOM     91  C   UNL A   1      50.356  25.965  27.350  1.00  0.00     0.135 A 
ATOM     92  C   UNL A   1      50.053  26.777  25.107  1.00  0.00     0.135 A 
ATOM     93  F   UNL A   1      49.918  25.784  28.606  1.00  0.00    -0.206 F 
ATOM     94  C   UNL A   1      51.635  25.523  27.027  1.00  0.00     0.059 A 
ATOM     95  C   UNL A   1      51.319  26.320  24.755  1.00  0.00     0.059 A 
ATOM     96  F   UNL A   1      49.312  27.376  24.161  1.00  0.00    -0.206 F 
ATOM     97  C   UNL A   1      52.108  25.704  25.725  1.00  0.00     0.060 A 
BRANCH  97  98
ATOM     98  S   UNL A   1      53.754  25.091  25.307  1.00  0.00     0.124 S 
ATOM     99  O   UNL A   1      53.562  23.648  25.400  1.00  0.00    -0.237 OA
ATOM    100  O   UNL A   1      53.953  25.620  23.962  1.00  0.00    -0.237 OA
ATOM    101  O   UNL A   1      54.606  25.680  26.336  1.00  0.00    -0.744 OA
ENDBRANCH  97  98
ENDBRANCH  65  90
ENDBRANCH  39  40
ENDBRANCH  31  34
ENDBRANCH  29  30
ENDBRANCH   1  29
TORSDOF 17
ENDMDL
MODEL 3
REMARK VINA RESULT:     -12.4      6.774     11.886
REMARK SMILES CC(C)(C)OC(=O)N1CCN(c2nc3ccccc3s2)[C@H](C(=O)NCCCNC(=O)c2ccc(-c3c4nc(c(-c5c(F)cc(S(=O)(=O)[O-])cc5F)c5ccc([nH]5)c(-c5c(F)cc(S(=O)(=O)[O-])cc5F)c5nc(c(-c6c(F)cc(S(=O)(=O)[O-])cc6F)c6ccc3[nH]6)C=C5)C=C4)cc2)C1
REMARK SMILES IDX 26 1 25 2 24 3 22 4 23 5 21 7 8 8 9 9 97 10 10 11 11 12 6 13
REMARK SMILES IDX 7 14 5 15 2 16 1 17 3 18 4 19 12 20 13 21 20 22 14 23 19 24
REMARK SMILES IDX 15 25 18 26 16 27 17 28 27 29 28 30 29 31 30 33 31 34 32 35
REMARK SMILES IDX 96 36 33 37 95 38 34 39 35 40 36 41 89 42 37 43 94 44 88 45
REMARK SMILES IDX 90 46 38 47 93 48 87 49 86 50 39 52 73 53 52 54 72 55 53 56
REMARK SMILES IDX 56 57 71 58 91 59 54 60 55 61 70 63 92 64 57 65 40 66 41 67
REMARK SMILES IDX 50 68 42 69 43 70 49 71 51 72 44 73 45 74 46 75 47 76 48 77
REMARK SMILES IDX 74 78 75 79 84 80 76 81 77 82 83 83 85 84 78 85 79 86 80 87
REMARK SMILES IDX 81 88 82 89 58 90 59 91 68 92 60 93 61 94 67 95 69 96 62 97
REMARK SMILES IDX 63 98 64 99 65 100 66 101
REMARK H PARENT 24 6 28 32 90 51 56 62
REMARK Flexibility Score: inf
ROOT
ATOM      1  C   UNL A   1      33.847  28.598  27.066  1.00  0.00     0.042 C 
ENDROOT
BRANCH   1   2
ATOM      2  C   UNL A   1      33.149  28.949  25.753  1.00  0.00     0.117 C 
BRANCH   2   3
ATOM      3  N   UNL A   1      34.006  28.965  24.575  1.00  0.00    -0.354 N 
ATOM      4  C   UNL A   1      33.839  28.435  23.326  1.00  0.00     0.244 C 
ATOM      5  O   UNL A   1      34.716  28.679  22.490  1.00  0.00    -0.273 OA
ATOM      6  H   UNL A   1      34.857  29.443  24.700  1.00  0.00     0.163 HD
BRANCH   4   7
ATOM      7  C   UNL A   1      32.600  27.612  22.936  1.00  0.00     0.193 C 
ATOM      8  N   UNL A   1      30.058  28.099  23.033  1.00  0.00    -0.304 N 
ATOM      9  C   UNL A   1      29.902  26.874  23.818  1.00  0.00     0.144 C 
ATOM     10  C   UNL A   1      31.410  28.592  22.753  1.00  0.00     0.158 C 
ATOM     11  C   UNL A   1      31.005  25.844  23.561  1.00  0.00     0.141 C 
ATOM     12  N   UNL A   1      32.314  26.456  23.834  1.00  0.00    -0.332 N 
BRANCH   8  13
ATOM     13  C   UNL A   1      28.961  28.941  22.906  1.00  0.00     0.410 C 
ATOM     14  O   UNL A   1      27.807  28.587  23.102  1.00  0.00    -0.224 OA
BRANCH  13  15
ATOM     15  O   UNL A   1      29.332  30.202  22.559  1.00  0.00    -0.444 OA
BRANCH  15  16
ATOM     16  C   UNL A   1      28.789  31.372  23.224  1.00  0.00     0.106 C 
ATOM     17  C   UNL A   1      29.692  31.571  24.452  1.00  0.00     0.056 C 
ATOM     18  C   UNL A   1      27.359  31.095  23.699  1.00  0.00     0.056 C 
ATOM     19  C   UNL A   1      28.865  32.637  22.360  1.00  0.00     0.056 C 
ENDBRANCH  15  16
ENDBRANCH  13  15
ENDBRANCH   8  13
BRANCH  12  20
ATOM     20  C   UNL A   1      33.333  25.582  24.120  1.00  0.00     0.187 A 
ATOM     21  N   UNL A   1      34.020  24.898  23.229  1.00  0.00    -0.220 NA
ATOM     22  S   UNL A   1      33.727  25.192  25.748  1.00  0.00    -0.097 S 
ATOM     23  C   UNL A   1      34.918  24.032  23.860  1.00  0.00     0.084 A 
ATOM     24  C   UNL A   1      34.873  24.042  25.251  1.00  0.00     0.056 A 
ATOM     25  C   UNL A   1      35.835  23.157  23.239  1.00  0.00     0.030 A 
ATOM     26  C   UNL A   1      35.673  23.210  26.050  1.00  0.00     0.021 A 
ATOM     27  C   UNL A   1      36.652  22.327  24.024  1.00  0.00     0.002 A 
ATOM     28  C   UNL A   1      36.564  22.350  25.411  1.00  0.00     0.002 A 
ENDBRANCH  12  20
ENDBRANCH   4   7
ENDBRANCH   2   3
ENDBRANCH   1   2
BRANCH   1  29
ATOM     29  C   UNL A   1      35.157  29.325  27.340  1.00  0.00     0.118 C 
BRANCH  29  30
ATOM     30  N   UNL A   1      35.119  30.065  28.589  1.00  0.00    -0.352 N 
ATOM     31  C   UNL A   1      36.109  30.196  29.534  1.00  0.00     0.251 C 
ATOM     32  H   UNL A   1      34.275  30.534  28.784  1.00  0.00     0.163 HD
ATOM     33  O   UNL A   1      35.836  30.648  30.643  1.00  0.00    -0.269 OA
BRANCH  31  34
ATOM     34  C   UNL A   1      37.495  29.779  29.219  1.00  0.00     0.039 A 
ATOM     35  C   UNL A   1      37.927  29.799  27.891  1.00  0.00     0.014 A 
ATOM     36  C   UNL A   1      38.360  29.347  30.230  1.00  0.00     0.014 A 
ATOM     37  C   UNL A   1      39.239  29.430  27.582  1.00  0.00     0.010 A 
ATOM     38  C   UNL A   1      39.688  29.049  29.929  1.00  0.00     0.010 A 
ATOM     39  C   UNL A   1      40.139  29.070  28.600  1.00  0.00    -0.014 A 
BRANCH  39  40
ATOM     40  C   UNL A   1      41.539  28.671  28.295  1.00  0.00     0.031 A 
ATOM     41  C   UNL A   1      42.624  29.716  28.265  1.00  0.00     0.074 A 
ATOM     42  C   UNL A   1      41.828  27.391  27.988  1.00  0.00     0.049 A 
ATOM     43  N   UNL A   1      43.882  29.593  27.926  1.00  0.00    -0.248 NA
ATOM     44  C   UNL A   1      42.235  31.086  28.636  1.00  0.00     0.031 C 
ATOM     45  C   UNL A   1      40.863  26.292  27.943  1.00  0.00     0.029 A 
ATOM     46  N   UNL A   1      43.019  26.801  27.643  1.00  0.00    -0.354 N 
ATOM     47  C   UNL A   1      44.426  30.869  28.019  1.00  0.00     0.074 A 
ATOM     48  C   UNL A   1      43.351  31.760  28.398  1.00  0.00     0.031 C 
ATOM     49  C   UNL A   1      41.502  25.158  27.606  1.00  0.00     0.029 A 
ATOM     50  C   UNL A   1      42.913  25.456  27.377  1.00  0.00     0.049 A 
ATOM     51  H   UNL A   1      43.869  27.294  27.589  1.00  0.00     0.167 HD
ATOM     52  C   UNL A   1      45.709  31.263  27.829  1.00  0.00     0.037 A 
ATOM     53  C   UNL A   1      43.845  24.564  26.985  1.00  0.00     0.037 A 
ATOM     54  C   UNL A   1      46.785  30.368  27.494  1.00  0.00     0.049 A 
ATOM     55  C   UNL A   1      45.267  25.020  26.794  1.00  0.00     0.074 A 
ATOM     56  C   UNL A   1      48.130  30.659  27.339  1.00  0.00     0.029 A 
ATOM     57  N   UNL A   1      46.642  29.008  27.266  1.00  0.00    -0.354 N 
ATOM     58  N   UNL A   1      45.772  26.223  26.934  1.00  0.00    -0.248 NA
ATOM     59  C   UNL A   1      46.246  23.998  26.400  1.00  0.00     0.031 C 
ATOM     60  C   UNL A   1      48.794  29.479  26.985  1.00  0.00     0.029 A 
ATOM     61  C   UNL A   1      47.871  28.447  26.960  1.00  0.00     0.049 A 
ATOM     62  H   UNL A   1      45.792  28.513  27.315  1.00  0.00     0.167 HD
ATOM     63  C   UNL A   1      47.132  26.096  26.671  1.00  0.00     0.074 A 
ATOM     64  C   UNL A   1      47.372  24.700  26.373  1.00  0.00     0.031 C 
ATOM     65  C   UNL A   1      48.095  27.051  26.677  1.00  0.00     0.037 A 
BRANCH  52  66
ATOM     66  C   UNL A   1      46.018  32.726  27.988  1.00  0.00     0.058 A 
ATOM     67  C   UNL A   1      45.784  33.645  26.953  1.00  0.00     0.135 A 
ATOM     68  C   UNL A   1      46.532  33.221  29.198  1.00  0.00     0.135 A 
ATOM     69  F   UNL A   1      45.308  33.224  25.770  1.00  0.00    -0.206 F 
ATOM     70  C   UNL A   1      46.079  34.996  27.098  1.00  0.00     0.059 A 
ATOM     71  C   UNL A   1      46.809  34.573  29.376  1.00  0.00     0.059 A 
ATOM     72  F   UNL A   1      46.774  32.386  30.221  1.00  0.00    -0.206 F 
ATOM     73  C   UNL A   1      46.594  35.451  28.314  1.00  0.00     0.060 A 
BRANCH  73  74
ATOM     74  S   UNL A   1      46.976  37.207  28.487  1.00  0.00     0.124 S 
ATOM     75  O   UNL A   1      45.645  37.801  28.403  1.00  0.00    -0.237 OA
ATOM     76  O   UNL A   1      47.612  37.262  29.799  1.00  0.00    -0.237 OA
ATOM     77  O   UNL A   1      47.857  37.476  27.354  1.00  0.00    -0.744 OA
ENDBRANCH  73  74
ENDBRANCH  52  66
BRANCH  53  78
ATOM     78  C   UNL A   1      43.467  23.143  26.766  1.00  0.00     0.058 A 
ATOM     79  C   UNL A   1      43.167  22.303  27.850  1.00  0.00     0.135 A 
ATOM     80  C   UNL A   1      43.385  22.598  25.476  1.00  0.00     0.135 A 
ATOM     81  F   UNL A   1      43.240  22.775  29.104  1.00  0.00    -0.206 F 
ATOM     82  C   UNL A   1      42.814  20.971  27.664  1.00  0.00     0.059 A 
ATOM     83  C   UNL A   1      43.011  21.275  25.262  1.00  0.00     0.059 A 
ATOM     84  F   UNL A   1      43.647  23.364  24.406  1.00  0.00    -0.206 F 
ATOM     85  C   UNL A   1      42.737  20.466  26.364  1.00  0.00     0.060 A 
BRANCH  85  86
ATOM     86  S   UNL A   1      42.226  18.749  26.131  1.00  0.00     0.124 S 
ATOM     87  O   UNL A   1      43.133  18.314  25.074  1.00  0.00    -0.237 OA
ATOM     88  O   UNL A   1      42.463  18.175  27.452  1.00  0.00    -0.237 OA
ATOM     89  O   UNL A   1      40.822  18.867  25.751  1.00  0.00    -0.744 OA
ENDBRANCH  85  86
ENDBRANCH  53  78
BRANCH  65  90
ATOM     90  C   UNL A   1      49.505  26.616  26.387  1.00  0.00     0.058 A 
ATOM     91  C   UNL A   1      50.300  25.998  27.363  1.00  0.00     0.135 A 
ATOM     92  C   UNL A   1      50.042  26.767  25.099  1.00  0.00     0.135 A 
ATOM     93  F   UNL A   1      49.835  25.835  28.611  1.00  0.00    -0.206 F 
ATOM     94  C   UNL A   1      51.591  25.563  27.077  1.00  0.00     0.059 A 
ATOM     95  C   UNL A   1      51.321  26.318  24.785  1.00  0.00     0.059 A 
ATOM     96  F   UNL A   1      49.317  27.342  24.126  1.00  0.00    -0.206 F 
ATOM     97  C   UNL A   1      52.092  25.726  25.784  1.00  0.00     0.060 A 
BRANCH  97  98
ATOM     98  S   UNL A   1      53.754  25.123  25.415  1.00  0.00     0.124 S 
ATOM     99  O   UNL A   1      54.527  25.711  26.504  1.00  0.00    -0.237 OA
ATOM    100  O   UNL A   1      53.581  23.675  25.469  1.00  0.00    -0.237 OA
ATOM    101  O   UNL A   1      54.025  25.666  24.087  1.00  0.00    -0.744 OA
ENDBRANCH  97  98
ENDBRANCH  65  90
ENDBRANCH  39  40
ENDBRANCH  31  34
ENDBRANCH  29  30
ENDBRANCH   1  29
TORSDOF 17
ENDMDL
