MODEL 1
REMARK VINA RESULT:     -13.2      0.000      0.000
REMARK SMILES C[NH+]1CCC(C(=O)N2C[C@@H](C(=O)NCCCNC(=O)c3ccc(-c4c5nc(c(-c6c(F)cc(S(=O)(=O)[O-])cc6F)c6ccc([nH]6)c(-c6c(F)cc(S(=O)(=O)[O-])cc6F)c6nc(c(-c7c(F)cc(S(=O)(=O)[O-])cc7F)c7ccc4[nH]7)C=C6)C=C5)cc3)[C@H](c3ccc4c(c3)OCO4)C2)CC1
REMARK SMILES IDX 15 1 14 2 13 3 11 4 12 5 10 7 8 8 9 9 96 10 86 11 6 12 7 13
REMARK SMILES IDX 5 14 1 15 2 16 3 17 98 18 4 20 97 21 87 22 88 23 92 24 89 25
REMARK SMILES IDX 91 26 90 27 93 28 95 29 94 30 16 31 17 32 18 33 19 35 20 36
REMARK SMILES IDX 21 37 85 38 22 39 84 40 23 41 24 42 25 43 78 44 26 45 83 46
REMARK SMILES IDX 77 47 79 48 27 49 82 50 76 51 75 52 28 54 62 55 41 56 61 57
REMARK SMILES IDX 42 58 45 59 60 60 80 61 43 62 44 63 59 65 81 66 46 67 29 68
REMARK SMILES IDX 30 69 39 70 31 71 32 72 38 73 40 74 33 75 34 76 35 77 36 78
REMARK SMILES IDX 37 79 63 80 64 81 73 82 65 83 66 84 72 85 74 86 67 87 68 88
REMARK SMILES IDX 69 89 70 90 71 91 47 92 48 93 57 94 49 95 50 96 56 97 58 98
REMARK SMILES IDX 51 99 52 100 53 101 54 102 55 103
REMARK H PARENT 13 6 2 19 17 34 79 53 45 64
REMARK Flexibility Score: inf
ROOT
ATOM      1  C   UNL A   1      32.190  28.813  26.762  1.00  0.00     0.042 C 
ENDROOT
BRANCH   1   2
ATOM      2  C   UNL A   1      31.911  29.609  25.502  1.00  0.00     0.117 C 
BRANCH   2   3
ATOM      3  N   UNL A   1      33.007  29.605  24.547  1.00  0.00    -0.356 N 
ATOM      4  C   UNL A   1      33.311  28.679  23.595  1.00  0.00     0.225 C 
ATOM      5  O   UNL A   1      34.160  28.963  22.750  1.00  0.00    -0.275 OA
ATOM      6  H   UNL A   1      33.613  30.380  24.595  1.00  0.00     0.163 HD
BRANCH   4   7
ATOM      7  C   UNL A   1      32.611  27.342  23.609  1.00  0.00     0.107 C 
ATOM      8  N   UNL A   1      32.808  25.082  23.223  1.00  0.00    -0.341 N 
ATOM      9  C   UNL A   1      33.629  26.225  23.542  1.00  0.00     0.133 C 
ATOM     10  C   UNL A   1      31.765  25.496  22.285  1.00  0.00     0.128 C 
ATOM     11  C   UNL A   1      31.736  27.047  22.365  1.00  0.00     0.053 C 
BRANCH   8  12
ATOM     12  C   UNL A   1      32.893  23.782  23.653  1.00  0.00     0.226 C 
ATOM     13  O   UNL A   1      31.855  23.150  23.890  1.00  0.00    -0.275 OA
BRANCH  12  14
ATOM     14  C   UNL A   1      34.229  23.190  24.128  1.00  0.00     0.090 C 
ATOM     15  C   UNL A   1      38.131  22.778  25.891  1.00  0.00     0.332 C 
ATOM     16  N   UNL A   1      36.913  23.273  25.252  1.00  0.00    -0.337 N 
ATOM     17  C   UNL A   1      35.759  23.117  26.146  1.00  0.00     0.262 C 
ATOM     18  C   UNL A   1      36.677  22.604  23.965  1.00  0.00     0.262 C 
ATOM     19  H   UNL A   1      37.036  24.268  25.064  1.00  0.00     0.347 HD
ATOM     20  C   UNL A   1      34.518  23.755  25.527  1.00  0.00     0.075 C 
ATOM     21  C   UNL A   1      35.485  23.260  23.260  1.00  0.00     0.075 C 
ENDBRANCH  12  14
ENDBRANCH   8  12
BRANCH  11  22
ATOM     22  C   UNL A   1      30.393  27.749  22.481  1.00  0.00    -0.038 A 
ATOM     23  C   UNL A   1      29.313  27.218  23.224  1.00  0.00     0.008 A 
ATOM     24  C   UNL A   1      30.297  29.070  21.994  1.00  0.00     0.054 A 
ATOM     25  C   UNL A   1      28.190  28.000  23.535  1.00  0.00     0.051 A 
ATOM     26  C   UNL A   1      29.208  29.832  22.366  1.00  0.00     0.166 A 
ATOM     27  C   UNL A   1      28.190  29.315  23.127  1.00  0.00     0.165 A 
ATOM     28  O   UNL A   1      29.079  31.174  22.171  1.00  0.00    -0.454 OA
ATOM     29  O   UNL A   1      27.280  30.263  23.482  1.00  0.00    -0.454 OA
ATOM     30  C   UNL A   1      27.969  31.458  23.053  1.00  0.00     0.468 C 
ENDBRANCH  11  22
ENDBRANCH   4   7
ENDBRANCH   2   3
ENDBRANCH   1   2
BRANCH   1  31
ATOM     31  C   UNL A   1      33.547  29.115  27.383  1.00  0.00     0.118 C 
BRANCH  31  32
ATOM     32  N   UNL A   1      33.628  30.450  27.973  1.00  0.00    -0.352 N 
ATOM     33  C   UNL A   1      34.651  31.047  28.674  1.00  0.00     0.251 C 
ATOM     34  H   UNL A   1      32.828  31.010  27.849  1.00  0.00     0.163 HD
ATOM     35  O   UNL A   1      34.457  32.112  29.255  1.00  0.00    -0.269 OA
BRANCH  33  36
ATOM     36  C   UNL A   1      35.967  30.379  28.754  1.00  0.00     0.039 A 
ATOM     37  C   UNL A   1      36.758  30.273  27.606  1.00  0.00     0.014 A 
ATOM     38  C   UNL A   1      36.436  29.900  29.976  1.00  0.00     0.014 A 
ATOM     39  C   UNL A   1      38.066  29.792  27.712  1.00  0.00     0.010 A 
ATOM     40  C   UNL A   1      37.764  29.520  30.097  1.00  0.00     0.010 A 
ATOM     41  C   UNL A   1      38.599  29.470  28.969  1.00  0.00    -0.014 A 
BRANCH  41  42
ATOM     42  C   UNL A   1      40.017  29.075  29.168  1.00  0.00     0.031 A 
ATOM     43  C   UNL A   1      41.019  30.124  29.567  1.00  0.00     0.074 A 
ATOM     44  C   UNL A   1      40.427  27.832  28.848  1.00  0.00     0.049 A 
ATOM     45  N   UNL A   1      42.324  30.081  29.528  1.00  0.00    -0.248 NA
ATOM     46  C   UNL A   1      40.472  31.413  30.025  1.00  0.00     0.031 C 
ATOM     47  C   UNL A   1      39.560  26.734  28.416  1.00  0.00     0.029 A 
ATOM     48  N   UNL A   1      41.688  27.291  28.803  1.00  0.00    -0.354 N 
ATOM     49  C   UNL A   1      42.753  31.350  29.904  1.00  0.00     0.074 A 
ATOM     50  C   UNL A   1      41.569  32.147  30.135  1.00  0.00     0.031 C 
ATOM     51  C   UNL A   1      40.313  25.652  28.156  1.00  0.00     0.029 A 
ATOM     52  C   UNL A   1      41.718  25.993  28.348  1.00  0.00     0.049 A 
ATOM     53  H   UNL A   1      42.496  27.786  29.073  1.00  0.00     0.167 HD
ATOM     54  C   UNL A   1      44.020  31.801  30.055  1.00  0.00     0.037 A 
ATOM     55  C   UNL A   1      42.761  25.179  28.087  1.00  0.00     0.037 A 
ATOM     56  C   UNL A   1      45.189  30.981  29.880  1.00  0.00     0.049 A 
ATOM     57  C   UNL A   1      44.160  25.692  28.294  1.00  0.00     0.074 A 
ATOM     58  C   UNL A   1      46.515  31.323  30.068  1.00  0.00     0.029 A 
ATOM     59  N   UNL A   1      45.167  29.650  29.491  1.00  0.00    -0.354 N 
ATOM     60  N   UNL A   1      44.550  26.886  28.674  1.00  0.00    -0.248 NA
ATOM     61  C   UNL A   1      45.262  24.752  28.040  1.00  0.00     0.031 C 
ATOM     62  C   UNL A   1      47.300  30.204  29.770  1.00  0.00     0.029 A 
ATOM     63  C   UNL A   1      46.459  29.156  29.433  1.00  0.00     0.049 A 
ATOM     64  H   UNL A   1      44.355  29.133  29.287  1.00  0.00     0.167 HD
ATOM     65  C   UNL A   1      45.938  26.830  28.737  1.00  0.00     0.074 A 
ATOM     66  C   UNL A   1      46.321  25.488  28.354  1.00  0.00     0.031 C 
ATOM     67  C   UNL A   1      46.814  27.803  29.084  1.00  0.00     0.037 A 
BRANCH  54  68
ATOM     68  C   UNL A   1      44.205  33.243  30.435  1.00  0.00     0.058 A 
ATOM     69  C   UNL A   1      44.256  33.652  31.777  1.00  0.00     0.135 A 
ATOM     70  C   UNL A   1      44.353  34.227  29.444  1.00  0.00     0.135 A 
ATOM     71  F   UNL A   1      44.103  32.755  32.763  1.00  0.00    -0.206 F 
ATOM     72  C   UNL A   1      44.412  34.990  32.123  1.00  0.00     0.059 A 
ATOM     73  C   UNL A   1      44.538  35.568  29.768  1.00  0.00     0.059 A 
ATOM     74  F   UNL A   1      44.311  33.891  28.145  1.00  0.00    -0.206 F 
ATOM     75  C   UNL A   1      44.548  35.941  31.111  1.00  0.00     0.060 A 
BRANCH  75  76
ATOM     76  S   UNL A   1      44.744  37.674  31.576  1.00  0.00     0.124 S 
ATOM     77  O   UNL A   1      43.910  37.749  32.772  1.00  0.00    -0.237 OA
ATOM     78  O   UNL A   1      46.183  37.778  31.802  1.00  0.00    -0.237 OA
ATOM     79  O   UNL A   1      44.241  38.397  30.412  1.00  0.00    -0.744 OA
ENDBRANCH  75  76
ENDBRANCH  54  68
BRANCH  55  80
ATOM     80  C   UNL A   1      42.520  23.791  27.613  1.00  0.00     0.058 A 
ATOM     81  C   UNL A   1      42.437  23.507  26.242  1.00  0.00     0.135 A 
ATOM     82  C   UNL A   1      42.388  22.720  28.511  1.00  0.00     0.135 A 
ATOM     83  F   UNL A   1      42.551  24.500  25.345  1.00  0.00    -0.206 F 
ATOM     84  C   UNL A   1      42.220  22.216  25.776  1.00  0.00     0.059 A 
ATOM     85  C   UNL A   1      42.193  21.415  28.069  1.00  0.00     0.059 A 
ATOM     86  F   UNL A   1      42.478  22.936  29.833  1.00  0.00    -0.206 F 
ATOM     87  C   UNL A   1      42.101  21.174  26.698  1.00  0.00     0.060 A 
BRANCH  87  88
ATOM     88  S   UNL A   1      41.873  19.492  26.081  1.00  0.00     0.124 S 
ATOM     89  O   UNL A   1      40.446  19.484  25.774  1.00  0.00    -0.237 OA
ATOM     90  O   UNL A   1      42.774  19.460  24.934  1.00  0.00    -0.237 OA
ATOM     91  O   UNL A   1      42.281  18.663  27.212  1.00  0.00    -0.744 OA
ENDBRANCH  87  88
ENDBRANCH  55  80
BRANCH  67  92
ATOM     92  C   UNL A   1      48.272  27.449  29.133  1.00  0.00     0.058 A 
ATOM     93  C   UNL A   1      49.115  27.645  28.030  1.00  0.00     0.135 A 
ATOM     94  C   UNL A   1      48.849  27.014  30.337  1.00  0.00     0.135 A 
ATOM     95  F   UNL A   1      48.609  28.053  26.856  1.00  0.00    -0.206 F 
ATOM     96  C   UNL A   1      50.486  27.426  28.121  1.00  0.00     0.059 A 
ATOM     97  C   UNL A   1      50.219  26.808  30.456  1.00  0.00     0.059 A 
ATOM     98  F   UNL A   1      48.082  26.819  31.422  1.00  0.00    -0.206 F 
ATOM     99  C   UNL A   1      51.030  27.017  29.341  1.00  0.00     0.060 A 
BRANCH  99 100
ATOM    100  S   UNL A   1      52.820  26.819  29.470  1.00  0.00     0.124 S 
ATOM    101  O   UNL A   1      53.137  26.179  28.198  1.00  0.00    -0.237 OA
ATOM    102  O   UNL A   1      53.276  28.198  29.618  1.00  0.00    -0.237 OA
ATOM    103  O   UNL A   1      52.984  25.982  30.654  1.00  0.00    -0.744 OA
ENDBRANCH  99 100
ENDBRANCH  67  92
ENDBRANCH  41  42
ENDBRANCH  33  36
ENDBRANCH  31  32
ENDBRANCH   1  31
TORSDOF 16
ENDMDL
MODEL 2
REMARK VINA RESULT:     -12.9      2.098      2.801
REMARK SMILES C[NH+]1CCC(C(=O)N2C[C@@H](C(=O)NCCCNC(=O)c3ccc(-c4c5nc(c(-c6c(F)cc(S(=O)(=O)[O-])cc6F)c6ccc([nH]6)c(-c6c(F)cc(S(=O)(=O)[O-])cc6F)c6nc(c(-c7c(F)cc(S(=O)(=O)[O-])cc7F)c7ccc4[nH]7)C=C6)C=C5)cc3)[C@H](c3ccc4c(c3)OCO4)C2)CC1
REMARK SMILES IDX 15 1 14 2 13 3 11 4 12 5 10 7 8 8 9 9 96 10 86 11 6 12 7 13
REMARK SMILES IDX 5 14 1 15 2 16 3 17 98 18 4 20 97 21 87 22 88 23 92 24 89 25
REMARK SMILES IDX 91 26 90 27 93 28 95 29 94 30 16 31 17 32 18 33 19 35 20 36
REMARK SMILES IDX 21 37 85 38 22 39 84 40 23 41 24 42 25 43 78 44 26 45 83 46
REMARK SMILES IDX 77 47 79 48 27 49 82 50 76 51 75 52 28 54 62 55 41 56 61 57
REMARK SMILES IDX 42 58 45 59 60 60 80 61 43 62 44 63 59 65 81 66 46 67 29 68
REMARK SMILES IDX 30 69 39 70 31 71 32 72 38 73 40 74 33 75 34 76 35 77 36 78
REMARK SMILES IDX 37 79 63 80 64 81 73 82 65 83 66 84 72 85 74 86 67 87 68 88
REMARK SMILES IDX 69 89 70 90 71 91 47 92 48 93 57 94 49 95 50 96 56 97 58 98
REMARK SMILES IDX 51 99 52 100 53 101 54 102 55 103
REMARK H PARENT 13 6 2 19 17 34 79 53 45 64
REMARK Flexibility Score: inf
ROOT
ATOM      1  C   UNL A   1      33.814  31.293  27.274  1.00  0.00     0.042 C 
ENDROOT
BRANCH   1   2
ATOM      2  C   UNL A   1      33.012  30.202  26.593  1.00  0.00     0.117 C 
BRANCH   2   3
ATOM      3  N   UNL A   1      33.446  29.909  25.237  1.00  0.00    -0.356 N 
ATOM      4  C   UNL A   1      32.808  29.195  24.268  1.00  0.00     0.225 C 
ATOM      5  O   UNL A   1      33.251  29.237  23.120  1.00  0.00    -0.275 OA
ATOM      6  H   UNL A   1      34.323  30.278  24.984  1.00  0.00     0.163 HD
BRANCH   4   7
ATOM      7  C   UNL A   1      31.593  28.375  24.627  1.00  0.00     0.107 C 
ATOM      8  N   UNL A   1      30.741  26.257  24.923  1.00  0.00    -0.341 N 
ATOM      9  C   UNL A   1      32.005  26.954  24.943  1.00  0.00     0.133 C 
ATOM     10  C   UNL A   1      29.915  26.808  23.848  1.00  0.00     0.128 C 
ATOM     11  C   UNL A   1      30.581  28.162  23.475  1.00  0.00     0.053 C 
BRANCH   8  12
ATOM     12  C   UNL A   1      30.278  25.237  25.713  1.00  0.00     0.226 C 
ATOM     13  O   UNL A   1      29.502  25.491  26.644  1.00  0.00    -0.275 OA
BRANCH  12  14
ATOM     14  C   UNL A   1      30.919  23.842  25.662  1.00  0.00     0.090 C 
ATOM     15  C   UNL A   1      33.810  20.657  25.726  1.00  0.00     0.332 C 
ATOM     16  N   UNL A   1      33.121  21.939  25.589  1.00  0.00    -0.337 N 
ATOM     17  C   UNL A   1      32.593  22.383  26.884  1.00  0.00     0.262 C 
ATOM     18  C   UNL A   1      32.054  21.865  24.581  1.00  0.00     0.262 C 
ATOM     19  H   UNL A   1      33.799  22.630  25.269  1.00  0.00     0.347 HD
ATOM     20  C   UNL A   1      31.991  23.781  26.761  1.00  0.00     0.075 C 
ATOM     21  C   UNL A   1      31.465  23.263  24.359  1.00  0.00     0.075 C 
ENDBRANCH  12  14
ENDBRANCH   8  12
BRANCH  11  22
ATOM     22  C   UNL A   1      29.700  29.389  23.308  1.00  0.00    -0.038 A 
ATOM     23  C   UNL A   1      29.735  30.485  24.201  1.00  0.00     0.008 A 
ATOM     24  C   UNL A   1      28.973  29.517  22.105  1.00  0.00     0.054 A 
ATOM     25  C   UNL A   1      29.118  31.703  23.882  1.00  0.00     0.051 A 
ATOM     26  C   UNL A   1      28.428  30.746  21.793  1.00  0.00     0.166 A 
ATOM     27  C   UNL A   1      28.510  31.813  22.651  1.00  0.00     0.165 A 
ATOM     28  O   UNL A   1      27.899  31.093  20.586  1.00  0.00    -0.454 OA
ATOM     29  O   UNL A   1      28.018  32.956  22.101  1.00  0.00    -0.454 OA
ATOM     30  C   UNL A   1      27.838  32.529  20.732  1.00  0.00     0.468 C 
ENDBRANCH  11  22
ENDBRANCH   4   7
ENDBRANCH   2   3
ENDBRANCH   1   2
BRANCH   1  31
ATOM     31  C   UNL A   1      35.027  30.771  28.032  1.00  0.00     0.118 C 
BRANCH  31  32
ATOM     32  N   UNL A   1      35.107  31.262  29.406  1.00  0.00    -0.352 N 
ATOM     33  C   UNL A   1      36.070  31.052  30.367  1.00  0.00     0.251 C 
ATOM     34  H   UNL A   1      34.356  31.832  29.689  1.00  0.00     0.163 HD
ATOM     35  O   UNL A   1      35.864  31.395  31.528  1.00  0.00    -0.269 OA
BRANCH  33  36
ATOM     36  C   UNL A   1      37.332  30.377  29.999  1.00  0.00     0.039 A 
ATOM     37  C   UNL A   1      37.787  30.438  28.678  1.00  0.00     0.014 A 
ATOM     38  C   UNL A   1      38.087  29.724  30.972  1.00  0.00     0.014 A 
ATOM     39  C   UNL A   1      39.056  29.944  28.363  1.00  0.00     0.010 A 
ATOM     40  C   UNL A   1      39.383  29.328  30.679  1.00  0.00     0.010 A 
ATOM     41  C   UNL A   1      39.888  29.441  29.374  1.00  0.00    -0.014 A 
BRANCH  41  42
ATOM     42  C   UNL A   1      41.291  29.019  29.130  1.00  0.00     0.031 A 
ATOM     43  C   UNL A   1      42.379  30.058  29.134  1.00  0.00     0.074 A 
ATOM     44  C   UNL A   1      41.564  27.752  28.760  1.00  0.00     0.049 A 
ATOM     45  N   UNL A   1      43.602  29.979  28.683  1.00  0.00    -0.248 NA
ATOM     46  C   UNL A   1      42.020  31.380  29.676  1.00  0.00     0.031 C 
ATOM     47  C   UNL A   1      40.593  26.658  28.684  1.00  0.00     0.029 A 
ATOM     48  N   UNL A   1      42.739  27.177  28.343  1.00  0.00    -0.354 N 
ATOM     49  C   UNL A   1      44.142  31.252  28.837  1.00  0.00     0.074 A 
ATOM     50  C   UNL A   1      43.102  32.090  29.392  1.00  0.00     0.031 C 
ATOM     51  C   UNL A   1      41.213  25.546  28.253  1.00  0.00     0.029 A 
ATOM     52  C   UNL A   1      42.609  25.859  27.969  1.00  0.00     0.049 A 
ATOM     53  H   UNL A   1      43.596  27.662  28.315  1.00  0.00     0.167 HD
ATOM     54  C   UNL A   1      45.396  31.676  28.552  1.00  0.00     0.037 A 
ATOM     55  C   UNL A   1      43.505  25.008  27.431  1.00  0.00     0.037 A 
ATOM     56  C   UNL A   1      46.438  30.819  28.056  1.00  0.00     0.049 A 
ATOM     57  C   UNL A   1      44.902  25.493  27.155  1.00  0.00     0.074 A 
ATOM     58  C   UNL A   1      47.759  31.134  27.793  1.00  0.00     0.029 A 
ATOM     59  N   UNL A   1      46.280  29.473  27.763  1.00  0.00    -0.354 N 
ATOM     60  N   UNL A   1      45.405  26.692  27.328  1.00  0.00    -0.248 NA
ATOM     61  C   UNL A   1      45.855  24.513  26.611  1.00  0.00     0.031 C 
ATOM     62  C   UNL A   1      48.395  29.984  27.318  1.00  0.00     0.029 A 
ATOM     63  C   UNL A   1      47.479  28.943  27.321  1.00  0.00     0.049 A 
ATOM     64  H   UNL A   1      45.439  28.969  27.855  1.00  0.00     0.167 HD
ATOM     65  C   UNL A   1      46.739  26.603  26.948  1.00  0.00     0.074 A 
ATOM     66  C   UNL A   1      46.966  25.235  26.532  1.00  0.00     0.031 C 
ATOM     67  C   UNL A   1      47.691  27.568  26.946  1.00  0.00     0.037 A 
BRANCH  54  68
ATOM     68  C   UNL A   1      45.707  33.129  28.778  1.00  0.00     0.058 A 
ATOM     69  C   UNL A   1      45.521  34.088  27.770  1.00  0.00     0.135 A 
ATOM     70  C   UNL A   1      46.178  33.572  30.025  1.00  0.00     0.135 A 
ATOM     71  F   UNL A   1      45.089  33.717  26.555  1.00  0.00    -0.206 F 
ATOM     72  C   UNL A   1      45.824  35.430  27.979  1.00  0.00     0.059 A 
ATOM     73  C   UNL A   1      46.460  34.913  30.264  1.00  0.00     0.059 A 
ATOM     74  F   UNL A   1      46.374  32.696  31.024  1.00  0.00    -0.206 F 
ATOM     75  C   UNL A   1      46.298  35.832  29.229  1.00  0.00     0.060 A 
BRANCH  75  76
ATOM     76  S   UNL A   1      46.692  37.574  29.483  1.00  0.00     0.124 S 
ATOM     77  O   UNL A   1      47.556  37.507  30.657  1.00  0.00    -0.237 OA
ATOM     78  O   UNL A   1      47.353  37.933  28.232  1.00  0.00    -0.237 OA
ATOM     79  O   UNL A   1      45.386  38.189  29.698  1.00  0.00    -0.744 OA
ENDBRANCH  75  76
ENDBRANCH  54  68
BRANCH  55  80
ATOM     80  C   UNL A   1      43.110  23.606  27.131  1.00  0.00     0.058 A 
ATOM     81  C   UNL A   1      42.889  23.193  25.809  1.00  0.00     0.135 A 
ATOM     82  C   UNL A   1      42.967  22.649  28.148  1.00  0.00     0.135 A 
ATOM     83  F   UNL A   1      43.009  24.074  24.803  1.00  0.00    -0.206 F 
ATOM     84  C   UNL A   1      42.527  21.885  25.504  1.00  0.00     0.059 A 
ATOM     85  C   UNL A   1      42.628  21.329  27.866  1.00  0.00     0.059 A 
ATOM     86  F   UNL A   1      43.186  22.989  29.427  1.00  0.00    -0.206 F 
ATOM     87  C   UNL A   1      42.400  20.959  26.541  1.00  0.00     0.060 A 
BRANCH  87  88
ATOM     88  S   UNL A   1      41.983  19.250  26.130  1.00  0.00     0.124 S 
ATOM     89  O   UNL A   1      42.902  18.981  25.029  1.00  0.00    -0.237 OA
ATOM     90  O   UNL A   1      42.265  18.555  27.381  1.00  0.00    -0.237 OA
ATOM     91  O   UNL A   1      40.570  19.328  25.770  1.00  0.00    -0.744 OA
ENDBRANCH  87  88
ENDBRANCH  55  80
BRANCH  67  92
ATOM     92  C   UNL A   1      49.084  27.178  26.546  1.00  0.00     0.058 A 
ATOM     93  C   UNL A   1      49.997  26.655  27.472  1.00  0.00     0.135 A 
ATOM     94  C   UNL A   1      49.465  27.225  25.194  1.00  0.00     0.135 A 
ATOM     95  F   UNL A   1      49.681  26.596  28.774  1.00  0.00    -0.206 F 
ATOM     96  C   UNL A   1      51.244  26.186  27.070  1.00  0.00     0.059 A 
ATOM     97  C   UNL A   1      50.698  26.744  24.768  1.00  0.00     0.059 A 
ATOM     98  F   UNL A   1      48.621  27.711  24.271  1.00  0.00    -0.206 F 
ATOM     99  C   UNL A   1      51.581  26.226  25.714  1.00  0.00     0.060 A 
BRANCH  99 100
ATOM    100  S   UNL A   1      53.166  25.535  25.195  1.00  0.00     0.124 S 
ATOM    101  O   UNL A   1      53.166  25.838  23.768  1.00  0.00    -0.237 OA
ATOM    102  O   UNL A   1      54.117  26.292  26.004  1.00  0.00    -0.237 OA
ATOM    103  O   UNL A   1      53.049  24.121  25.538  1.00  0.00    -0.744 OA
ENDBRANCH  99 100
ENDBRANCH  67  92
ENDBRANCH  41  42
ENDBRANCH  33  36
ENDBRANCH  31  32
ENDBRANCH   1  31
TORSDOF 16
ENDMDL
MODEL 3
REMARK VINA RESULT:     -12.8      1.326      2.083
REMARK SMILES C[NH+]1CCC(C(=O)N2C[C@@H](C(=O)NCCCNC(=O)c3ccc(-c4c5nc(c(-c6c(F)cc(S(=O)(=O)[O-])cc6F)c6ccc([nH]6)c(-c6c(F)cc(S(=O)(=O)[O-])cc6F)c6nc(c(-c7c(F)cc(S(=O)(=O)[O-])cc7F)c7ccc4[nH]7)C=C6)C=C5)cc3)[C@H](c3ccc4c(c3)OCO4)C2)CC1
REMARK SMILES IDX 15 1 14 2 13 3 11 4 12 5 10 7 8 8 9 9 96 10 86 11 6 12 7 13
REMARK SMILES IDX 5 14 1 15 2 16 3 17 98 18 4 20 97 21 87 22 88 23 92 24 89 25
REMARK SMILES IDX 91 26 90 27 93 28 95 29 94 30 16 31 17 32 18 33 19 35 20 36
REMARK SMILES IDX 21 37 85 38 22 39 84 40 23 41 24 42 25 43 78 44 26 45 83 46
REMARK SMILES IDX 77 47 79 48 27 49 82 50 76 51 75 52 28 54 62 55 41 56 61 57
REMARK SMILES IDX 42 58 45 59 60 60 80 61 43 62 44 63 59 65 81 66 46 67 29 68
REMARK SMILES IDX 30 69 39 70 31 71 32 72 38 73 40 74 33 75 34 76 35 77 36 78
REMARK SMILES IDX 37 79 63 80 64 81 73 82 65 83 66 84 72 85 74 86 67 87 68 88
REMARK SMILES IDX 69 89 70 90 71 91 47 92 48 93 57 94 49 95 50 96 56 97 58 98
REMARK SMILES IDX 51 99 52 100 53 101 54 102 55 103
REMARK H PARENT 13 6 2 19 17 34 79 53 45 64
REMARK Flexibility Score: inf
ROOT
ATOM      1  C   UNL A   1      33.105  28.989  27.215  1.00  0.00     0.042 C 
ENDROOT
BRANCH   1   2
ATOM      2  C   UNL A   1      32.437  29.675  26.039  1.00  0.00     0.117 C 
BRANCH   2   3
ATOM      3  N   UNL A   1      33.259  29.728  24.842  1.00  0.00    -0.356 N 
ATOM      4  C   UNL A   1      33.277  28.880  23.775  1.00  0.00     0.225 C 
ATOM      5  O   UNL A   1      33.900  29.216  22.769  1.00  0.00    -0.275 OA
ATOM      6  H   UNL A   1      33.891  30.482  24.795  1.00  0.00     0.163 HD
BRANCH   4   7
ATOM      7  C   UNL A   1      32.545  27.563  23.862  1.00  0.00     0.107 C 
ATOM      8  N   UNL A   1      32.709  25.275  23.679  1.00  0.00    -0.341 N 
ATOM      9  C   UNL A   1      33.539  26.425  23.946  1.00  0.00     0.133 C 
ATOM     10  C   UNL A   1      31.728  25.627  22.652  1.00  0.00     0.128 C 
ATOM     11  C   UNL A   1      31.732  27.180  22.601  1.00  0.00     0.053 C 
BRANCH   8  12
ATOM     12  C   UNL A   1      32.739  24.015  24.220  1.00  0.00     0.226 C 
ATOM     13  O   UNL A   1      31.681  23.473  24.564  1.00  0.00    -0.275 OA
BRANCH  12  14
ATOM     14  C   UNL A   1      34.062  23.382  24.680  1.00  0.00     0.090 C 
ATOM     15  C   UNL A   1      37.572  20.902  24.859  1.00  0.00     0.332 C 
ATOM     16  N   UNL A   1      36.242  21.454  24.609  1.00  0.00    -0.337 N 
ATOM     17  C   UNL A   1      36.333  22.678  23.805  1.00  0.00     0.262 C 
ATOM     18  C   UNL A   1      35.522  21.701  25.866  1.00  0.00     0.262 C 
ATOM     19  H   UNL A   1      35.709  20.765  24.078  1.00  0.00     0.347 HD
ATOM     20  C   UNL A   1      34.938  23.177  23.435  1.00  0.00     0.075 C 
ATOM     21  C   UNL A   1      34.084  22.129  25.554  1.00  0.00     0.075 C 
ENDBRANCH  12  14
ENDBRANCH   8  12
BRANCH  11  22
ATOM     22  C   UNL A   1      30.402  27.915  22.582  1.00  0.00    -0.038 A 
ATOM     23  C   UNL A   1      29.235  27.402  23.196  1.00  0.00     0.008 A 
ATOM     24  C   UNL A   1      30.392  29.244  22.109  1.00  0.00     0.054 A 
ATOM     25  C   UNL A   1      28.105  28.208  23.396  1.00  0.00     0.051 A 
ATOM     26  C   UNL A   1      29.288  30.029  22.374  1.00  0.00     0.166 A 
ATOM     27  C   UNL A   1      28.181  29.529  23.012  1.00  0.00     0.165 A 
ATOM     28  O   UNL A   1      29.212  31.376  22.189  1.00  0.00    -0.454 OA
ATOM     29  O   UNL A   1      27.261  30.494  23.282  1.00  0.00    -0.454 OA
ATOM     30  C   UNL A   1      28.021  31.678  22.950  1.00  0.00     0.468 C 
ENDBRANCH  11  22
ENDBRANCH   4   7
ENDBRANCH   2   3
ENDBRANCH   1   2
BRANCH   1  31
ATOM     31  C   UNL A   1      34.534  29.456  27.459  1.00  0.00     0.118 C 
BRANCH  31  32
ATOM     32  N   UNL A   1      34.632  30.518  28.458  1.00  0.00    -0.352 N 
ATOM     33  C   UNL A   1      35.669  30.845  29.302  1.00  0.00     0.251 C 
ATOM     34  H   UNL A   1      33.834  31.088  28.541  1.00  0.00     0.163 HD
ATOM     35  O   UNL A   1      35.490  31.655  30.209  1.00  0.00    -0.269 OA
BRANCH  33  36
ATOM     36  C   UNL A   1      36.981  30.187  29.135  1.00  0.00     0.039 A 
ATOM     37  C   UNL A   1      37.572  30.139  27.868  1.00  0.00     0.014 A 
ATOM     38  C   UNL A   1      37.647  29.659  30.240  1.00  0.00     0.014 A 
ATOM     39  C   UNL A   1      38.881  29.666  27.736  1.00  0.00     0.010 A 
ATOM     40  C   UNL A   1      38.978  29.287  30.123  1.00  0.00     0.010 A 
ATOM     41  C   UNL A   1      39.615  29.294  28.872  1.00  0.00    -0.014 A 
BRANCH  41  42
ATOM     42  C   UNL A   1      41.047  28.905  28.816  1.00  0.00     0.031 A 
ATOM     43  C   UNL A   1      42.101  29.969  28.961  1.00  0.00     0.074 A 
ATOM     44  C   UNL A   1      41.396  27.644  28.490  1.00  0.00     0.049 A 
ATOM     45  N   UNL A   1      43.374  29.919  28.676  1.00  0.00    -0.248 NA
ATOM     46  C   UNL A   1      41.643  31.282  29.447  1.00  0.00     0.031 C 
ATOM     47  C   UNL A   1      40.469  26.529  28.289  1.00  0.00     0.029 A 
ATOM     48  N   UNL A   1      42.629  27.097  28.233  1.00  0.00    -0.354 N 
ATOM     49  C   UNL A   1      43.859  31.203  28.896  1.00  0.00     0.074 A 
ATOM     50  C   UNL A   1      42.736  32.017  29.307  1.00  0.00     0.031 C 
ATOM     51  C   UNL A   1      41.165  25.432  27.947  1.00  0.00     0.029 A 
ATOM     52  C   UNL A   1      42.579  25.777  27.849  1.00  0.00     0.049 A 
ATOM     53  H   UNL A   1      43.470  27.602  28.317  1.00  0.00     0.167 HD
ATOM     54  C   UNL A   1      45.130  31.656  28.779  1.00  0.00     0.037 A 
ATOM     55  C   UNL A   1      43.557  24.946  27.436  1.00  0.00     0.037 A 
ATOM     56  C   UNL A   1      46.248  30.824  28.427  1.00  0.00     0.049 A 
ATOM     57  C   UNL A   1      44.968  25.464  27.346  1.00  0.00     0.074 A 
ATOM     58  C   UNL A   1      47.584  31.170  28.340  1.00  0.00     0.029 A 
ATOM     59  N   UNL A   1      46.161  29.475  28.119  1.00  0.00    -0.354 N 
ATOM     60  N   UNL A   1      45.415  26.674  27.581  1.00  0.00    -0.248 NA
ATOM     61  C   UNL A   1      46.006  24.507  26.935  1.00  0.00     0.031 C 
ATOM     62  C   UNL A   1      48.304  30.034  27.956  1.00  0.00     0.029 A 
ATOM     63  C   UNL A   1      47.420  28.973  27.842  1.00  0.00     0.049 A 
ATOM     64  H   UNL A   1      45.327  28.951  28.101  1.00  0.00     0.167 HD
ATOM     65  C   UNL A   1      46.790  26.616  27.380  1.00  0.00     0.074 A 
ATOM     66  C   UNL A   1      47.101  25.254  27.002  1.00  0.00     0.031 C 
ATOM     67  C   UNL A   1      47.711  27.602  27.502  1.00  0.00     0.037 A 
BRANCH  54  68
ATOM     68  C   UNL A   1      45.375  33.116  29.040  1.00  0.00     0.058 A 
ATOM     69  C   UNL A   1      45.616  33.604  30.334  1.00  0.00     0.135 A 
ATOM     70  C   UNL A   1      45.389  34.037  27.980  1.00  0.00     0.135 A 
ATOM     71  F   UNL A   1      45.597  32.769  31.385  1.00  0.00    -0.206 F 
ATOM     72  C   UNL A   1      45.827  34.958  30.573  1.00  0.00     0.059 A 
ATOM     73  C   UNL A   1      45.626  35.392  28.193  1.00  0.00     0.059 A 
ATOM     74  F   UNL A   1      45.164  33.625  26.722  1.00  0.00    -0.206 F 
ATOM     75  C   UNL A   1      45.826  35.845  29.496  1.00  0.00     0.060 A 
BRANCH  75  76
ATOM     76  S   UNL A   1      46.097  37.599  29.822  1.00  0.00     0.124 S 
ATOM     77  O   UNL A   1      44.776  38.014  30.285  1.00  0.00    -0.237 OA
ATOM     78  O   UNL A   1      47.143  37.572  30.839  1.00  0.00    -0.237 OA
ATOM     79  O   UNL A   1      46.502  38.127  28.523  1.00  0.00    -0.744 OA
ENDBRANCH  75  76
ENDBRANCH  54  68
BRANCH  55  80
ATOM     80  C   UNL A   1      43.238  23.536  27.091  1.00  0.00     0.058 A 
ATOM     81  C   UNL A   1      43.021  22.584  28.098  1.00  0.00     0.135 A 
ATOM     82  C   UNL A   1      43.123  23.114  25.757  1.00  0.00     0.135 A 
ATOM     83  F   UNL A   1      43.127  22.939  29.388  1.00  0.00    -0.206 F 
ATOM     84  C   UNL A   1      42.715  21.262  27.798  1.00  0.00     0.059 A 
ATOM     85  C   UNL A   1      42.794  21.801  25.432  1.00  0.00     0.059 A 
ATOM     86  F   UNL A   1      43.302  23.991  24.756  1.00  0.00    -0.206 F 
ATOM     87  C   UNL A   1      42.601  20.880  26.460  1.00  0.00     0.060 A 
BRANCH  87  88
ATOM     88  S   UNL A   1      42.149  19.172  26.082  1.00  0.00     0.124 S 
ATOM     89  O   UNL A   1      42.410  18.511  27.356  1.00  0.00    -0.237 OA
ATOM     90  O   UNL A   1      40.745  19.302  25.706  1.00  0.00    -0.237 OA
ATOM     91  O   UNL A   1      43.051  18.821  24.989  1.00  0.00    -0.744 OA
ENDBRANCH  87  88
ENDBRANCH  55  80
BRANCH  67  92
ATOM     92  C   UNL A   1      49.153  27.245  27.290  1.00  0.00     0.058 A 
ATOM     93  C   UNL A   1      49.947  26.739  28.329  1.00  0.00     0.135 A 
ATOM     94  C   UNL A   1      49.710  27.306  26.001  1.00  0.00     0.135 A 
ATOM     95  F   UNL A   1      49.461  26.669  29.577  1.00  0.00    -0.206 F 
ATOM     96  C   UNL A   1      51.247  26.299  28.096  1.00  0.00     0.059 A 
ATOM     97  C   UNL A   1      50.999  26.854  25.743  1.00  0.00     0.059 A 
ATOM     98  F   UNL A   1      48.985  27.776  24.974  1.00  0.00    -0.206 F 
ATOM     99  C   UNL A   1      51.760  26.352  26.798  1.00  0.00     0.060 A 
BRANCH  99 100
ATOM    100  S   UNL A   1      53.415  25.698  26.493  1.00  0.00     0.124 S 
ATOM    101  O   UNL A   1      53.969  25.661  27.843  1.00  0.00    -0.237 OA
ATOM    102  O   UNL A   1      53.132  24.400  25.888  1.00  0.00    -0.237 OA
ATOM    103  O   UNL A   1      54.009  26.684  25.596  1.00  0.00    -0.744 OA
ENDBRANCH  99 100
ENDBRANCH  67  92
ENDBRANCH  41  42
ENDBRANCH  33  36
ENDBRANCH  31  32
ENDBRANCH   1  31
TORSDOF 16
ENDMDL
