MODEL 1
REMARK VINA RESULT:      -9.0      0.000      0.000
REMARK SMILES CC[C@@H]1CC(=O)N(Cc2ccc(/C=C/C(=O)NCCCNC(=O)c3ccc(-c4c5nc(c(-c6c(F)cc(S(=O)(=O)[O-])cc6F)c6ccc([nH]6)c(-c6c(F)cc(S(=O)(=O)[O-])cc6F)c6nc(c(-c7c(F)cc(S(=O)(=O)[O-])cc7F)c7ccc4[nH]7)C=C6)C=C5)cc3)cc2)C1
REMARK SMILES IDX 18 1 17 2 15 3 16 4 14 6 13 7 12 8 9 9 10 10 91 11 11 12
REMARK SMILES IDX 90 13 8 14 7 15 3 16 4 17 92 18 5 19 6 20 2 21 1 22 19 23
REMARK SMILES IDX 20 24 21 25 22 26 23 28 24 29 25 30 89 31 26 32 88 33 27 34
REMARK SMILES IDX 28 35 29 36 82 37 30 38 87 39 81 40 83 41 31 42 86 43 80 44
REMARK SMILES IDX 79 45 32 47 66 48 45 49 65 50 46 51 49 52 64 53 84 54 47 55
REMARK SMILES IDX 48 56 63 58 85 59 50 60 33 61 34 62 43 63 35 64 36 65 42 66
REMARK SMILES IDX 44 67 37 68 38 69 39 70 40 71 41 72 67 73 68 74 77 75 69 76
REMARK SMILES IDX 70 77 76 78 78 79 71 80 72 81 73 82 74 83 75 84 51 85 52 86
REMARK SMILES IDX 61 87 53 88 54 89 60 90 62 91 55 92 56 93 57 94 58 95 59 96
REMARK H PARENT 17 5 21 27 83 46 49 57
REMARK Flexibility Score: inf
ROOT
ATOM      1  C   UNL A   1      36.370  33.307  30.604  1.00  0.00     0.118 C 
ENDROOT
BRANCH   1   2
ATOM      2  N   UNL A   1      36.429  33.960  31.902  1.00  0.00    -0.352 N 
ATOM      3  C   UNL A   1      37.271  33.778  32.954  1.00  0.00     0.244 C 
ATOM      4  O   UNL A   1      37.196  34.521  33.930  1.00  0.00    -0.270 OA
ATOM      5  H   UNL A   1      35.742  34.651  32.043  1.00  0.00     0.163 HD
BRANCH   3   6
ATOM      6  C   UNL A   1      38.354  32.774  32.891  1.00  0.00     0.072 C 
ATOM      7  C   UNL A   1      38.333  31.596  33.529  1.00  0.00     0.014 C 
BRANCH   7   8
ATOM      8  C   UNL A   1      39.373  30.564  33.410  1.00  0.00    -0.025 A 
ATOM      9  C   UNL A   1      41.291  28.507  33.082  1.00  0.00    -0.029 A 
ATOM     10  C   UNL A   1      41.653  29.741  33.636  1.00  0.00     0.006 A 
ATOM     11  C   UNL A   1      39.948  28.300  32.741  1.00  0.00     0.006 A 
ATOM     12  C   UNL A   1      40.700  30.751  33.814  1.00  0.00     0.008 A 
ATOM     13  C   UNL A   1      39.006  29.322  32.881  1.00  0.00     0.008 A 
BRANCH   9  14
ATOM     14  C   UNL A   1      42.317  27.418  32.885  1.00  0.00     0.155 C 
BRANCH  14  15
ATOM     15  N   UNL A   1      42.987  26.971  34.097  1.00  0.00    -0.338 N 
ATOM     16  C   UNL A   1      44.681  25.829  35.227  1.00  0.00     0.017 C 
ATOM     17  C   UNL A   1      43.409  25.821  36.091  1.00  0.00     0.105 C 
ATOM     18  C   UNL A   1      44.414  27.015  34.308  1.00  0.00     0.124 C 
ATOM     19  C   UNL A   1      42.344  26.284  35.119  1.00  0.00     0.223 C 
ATOM     20  O   UNL A   1      41.149  26.096  35.241  1.00  0.00    -0.275 OA
BRANCH  16  21
ATOM     21  C   UNL A   1      44.895  24.460  34.527  1.00  0.00     0.002 C 
ATOM     22  C   UNL A   1      44.811  24.430  33.006  1.00  0.00     0.004 C 
ENDBRANCH  16  21
ENDBRANCH  14  15
ENDBRANCH   9  14
ENDBRANCH   7   8
ENDBRANCH   3   6
ENDBRANCH   1   2
BRANCH   1  23
ATOM     23  C   UNL A   1      34.956  33.342  30.027  1.00  0.00     0.042 C 
BRANCH  23  24
ATOM     24  C   UNL A   1      34.905  33.039  28.531  1.00  0.00     0.118 C 
BRANCH  24  25
ATOM     25  N   UNL A   1      34.101  31.858  28.241  1.00  0.00    -0.352 N 
ATOM     26  C   UNL A   1      34.487  30.567  27.985  1.00  0.00     0.251 C 
ATOM     27  H   UNL A   1      33.129  32.013  28.226  1.00  0.00     0.163 HD
ATOM     28  O   UNL A   1      33.671  29.778  27.517  1.00  0.00    -0.269 OA
BRANCH  26  29
ATOM     29  C   UNL A   1      35.871  30.126  28.262  1.00  0.00     0.039 A 
ATOM     30  C   UNL A   1      36.804  30.136  27.220  1.00  0.00     0.014 A 
ATOM     31  C   UNL A   1      36.243  29.666  29.527  1.00  0.00     0.014 A 
ATOM     32  C   UNL A   1      38.122  29.742  27.466  1.00  0.00     0.010 A 
ATOM     33  C   UNL A   1      37.573  29.346  29.789  1.00  0.00     0.010 A 
ATOM     34  C   UNL A   1      38.525  29.378  28.761  1.00  0.00    -0.014 A 
BRANCH  34  35
ATOM     35  C   UNL A   1      39.941  29.038  29.060  1.00  0.00     0.031 A 
ATOM     36  C   UNL A   1      40.861  30.073  29.650  1.00  0.00     0.074 A 
ATOM     37  C   UNL A   1      40.410  27.816  28.737  1.00  0.00     0.049 A 
ATOM     38  N   UNL A   1      42.139  29.985  29.913  1.00  0.00    -0.248 NA
ATOM     39  C   UNL A   1      40.272  31.385  29.964  1.00  0.00     0.031 C 
ATOM     40  C   UNL A   1      39.624  26.746  28.119  1.00  0.00     0.029 A 
ATOM     41  N   UNL A   1      41.662  27.271  28.872  1.00  0.00    -0.354 N 
ATOM     42  C   UNL A   1      42.511  31.230  30.410  1.00  0.00     0.074 A 
ATOM     43  C   UNL A   1      41.335  32.071  30.362  1.00  0.00     0.031 C 
ATOM     44  C   UNL A   1      40.405  25.668  27.948  1.00  0.00     0.029 A 
ATOM     45  C   UNL A   1      41.757  25.982  28.401  1.00  0.00     0.049 A 
ATOM     46  H   UNL A   1      42.421  27.756  29.268  1.00  0.00     0.167 HD
ATOM     47  C   UNL A   1      43.717  31.626  30.882  1.00  0.00     0.037 A 
ATOM     48  C   UNL A   1      42.815  25.153  28.327  1.00  0.00     0.037 A 
ATOM     49  C   UNL A   1      44.878  30.776  30.939  1.00  0.00     0.049 A 
ATOM     50  C   UNL A   1      44.148  25.621  28.843  1.00  0.00     0.074 A 
ATOM     51  C   UNL A   1      46.131  31.063  31.451  1.00  0.00     0.029 A 
ATOM     52  N   UNL A   1      44.931  29.472  30.463  1.00  0.00    -0.354 N 
ATOM     53  N   UNL A   1      44.465  26.780  29.372  1.00  0.00    -0.248 NA
ATOM     54  C   UNL A   1      45.265  24.673  28.759  1.00  0.00     0.031 C 
ATOM     55  C   UNL A   1      46.957  29.955  31.234  1.00  0.00     0.029 A 
ATOM     56  C   UNL A   1      46.203  28.954  30.643  1.00  0.00     0.049 A 
ATOM     57  H   UNL A   1      44.176  28.988  30.057  1.00  0.00     0.167 HD
ATOM     58  C   UNL A   1      45.812  26.688  29.707  1.00  0.00     0.074 A 
ATOM     59  C   UNL A   1      46.243  25.356  29.336  1.00  0.00     0.031 C 
ATOM     60  C   UNL A   1      46.617  27.622  30.272  1.00  0.00     0.037 A 
BRANCH  47  61
ATOM     61  C   UNL A   1      43.845  33.044  31.375  1.00  0.00     0.058 A 
ATOM     62  C   UNL A   1      44.062  34.117  30.496  1.00  0.00     0.135 A 
ATOM     63  C   UNL A   1      43.707  33.340  32.742  1.00  0.00     0.135 A 
ATOM     64  F   UNL A   1      44.216  33.893  29.180  1.00  0.00    -0.206 F 
ATOM     65  C   UNL A   1      44.168  35.425  30.954  1.00  0.00     0.059 A 
ATOM     66  C   UNL A   1      43.778  34.646  33.220  1.00  0.00     0.059 A 
ATOM     67  F   UNL A   1      43.498  32.355  33.629  1.00  0.00    -0.206 F 
ATOM     68  C   UNL A   1      44.023  35.681  32.319  1.00  0.00     0.060 A 
BRANCH  68  69
ATOM     69  S   UNL A   1      44.156  37.387  32.894  1.00  0.00     0.124 S 
ATOM     70  O   UNL A   1      44.101  38.123  31.635  1.00  0.00    -0.237 OA
ATOM     71  O   UNL A   1      42.985  37.516  33.755  1.00  0.00    -0.237 OA
ATOM     72  O   UNL A   1      45.444  37.416  33.581  1.00  0.00    -0.744 OA
ENDBRANCH  68  69
ENDBRANCH  47  61
BRANCH  48  73
ATOM     73  C   UNL A   1      42.651  23.788  27.755  1.00  0.00     0.058 A 
ATOM     74  C   UNL A   1      42.749  23.565  26.375  1.00  0.00     0.135 A 
ATOM     75  C   UNL A   1      42.408  22.677  28.580  1.00  0.00     0.135 A 
ATOM     76  F   UNL A   1      42.975  24.594  25.544  1.00  0.00    -0.206 F 
ATOM     77  C   UNL A   1      42.596  22.295  25.827  1.00  0.00     0.059 A 
ATOM     78  C   UNL A   1      42.279  21.393  28.059  1.00  0.00     0.059 A 
ATOM     79  F   UNL A   1      42.323  22.832  29.911  1.00  0.00    -0.206 F 
ATOM     80  C   UNL A   1      42.365  21.214  26.679  1.00  0.00     0.060 A 
BRANCH  80  81
ATOM     81  S   UNL A   1      42.217  19.564  25.963  1.00  0.00     0.124 S 
ATOM     82  O   UNL A   1      43.075  19.674  24.788  1.00  0.00    -0.237 OA
ATOM     83  O   UNL A   1      42.714  18.717  27.042  1.00  0.00    -0.237 OA
ATOM     84  O   UNL A   1      40.787  19.443  25.690  1.00  0.00    -0.744 OA
ENDBRANCH  80  81
ENDBRANCH  48  73
BRANCH  60  85
ATOM     85  C   UNL A   1      48.042  27.228  30.556  1.00  0.00     0.058 A 
ATOM     86  C   UNL A   1      49.072  27.453  29.630  1.00  0.00     0.135 A 
ATOM     87  C   UNL A   1      48.387  26.661  31.795  1.00  0.00     0.135 A 
ATOM     88  F   UNL A   1      48.795  27.985  28.428  1.00  0.00    -0.206 F 
ATOM     89  C   UNL A   1      50.389  27.108  29.910  1.00  0.00     0.059 A 
ATOM     90  C   UNL A   1      49.703  26.338  32.109  1.00  0.00     0.059 A 
ATOM     91  F   UNL A   1      47.442  26.433  32.722  1.00  0.00    -0.206 F 
ATOM     92  C   UNL A   1      50.696  26.553  31.155  1.00  0.00     0.060 A 
BRANCH  92  93
ATOM     93  S   UNL A   1      52.416  26.141  31.517  1.00  0.00     0.124 S 
ATOM     94  O   UNL A   1      52.285  24.798  32.073  1.00  0.00    -0.237 OA
ATOM     95  O   UNL A   1      53.040  26.227  30.202  1.00  0.00    -0.237 OA
ATOM     96  O   UNL A   1      52.820  27.175  32.466  1.00  0.00    -0.744 OA
ENDBRANCH  92  93
ENDBRANCH  60  85
ENDBRANCH  34  35
ENDBRANCH  26  29
ENDBRANCH  24  25
ENDBRANCH  23  24
ENDBRANCH   1  23
TORSDOF 17
ENDMDL
MODEL 2
REMARK VINA RESULT:      -8.8      5.051     12.166
REMARK SMILES CC[C@@H]1CC(=O)N(Cc2ccc(/C=C/C(=O)NCCCNC(=O)c3ccc(-c4c5nc(c(-c6c(F)cc(S(=O)(=O)[O-])cc6F)c6ccc([nH]6)c(-c6c(F)cc(S(=O)(=O)[O-])cc6F)c6nc(c(-c7c(F)cc(S(=O)(=O)[O-])cc7F)c7ccc4[nH]7)C=C6)C=C5)cc3)cc2)C1
REMARK SMILES IDX 18 1 17 2 15 3 16 4 14 6 13 7 12 8 9 9 10 10 91 11 11 12
REMARK SMILES IDX 90 13 8 14 7 15 3 16 4 17 92 18 5 19 6 20 2 21 1 22 19 23
REMARK SMILES IDX 20 24 21 25 22 26 23 28 24 29 25 30 89 31 26 32 88 33 27 34
REMARK SMILES IDX 28 35 29 36 82 37 30 38 87 39 81 40 83 41 31 42 86 43 80 44
REMARK SMILES IDX 79 45 32 47 66 48 45 49 65 50 46 51 49 52 64 53 84 54 47 55
REMARK SMILES IDX 48 56 63 58 85 59 50 60 33 61 34 62 43 63 35 64 36 65 42 66
REMARK SMILES IDX 44 67 37 68 38 69 39 70 40 71 41 72 67 73 68 74 77 75 69 76
REMARK SMILES IDX 70 77 76 78 78 79 71 80 72 81 73 82 74 83 75 84 51 85 52 86
REMARK SMILES IDX 61 87 53 88 54 89 60 90 62 91 55 92 56 93 57 94 58 95 59 96
REMARK H PARENT 17 5 21 27 83 46 49 57
REMARK Flexibility Score: inf
ROOT
ATOM      1  C   UNL A   1      43.792  22.250  25.610  1.00  0.00     0.118 C 
ENDROOT
BRANCH   1   2
ATOM      2  N   UNL A   1      43.321  21.131  26.410  1.00  0.00    -0.352 N 
ATOM      3  C   UNL A   1      42.070  20.630  26.593  1.00  0.00     0.244 C 
ATOM      4  O   UNL A   1      41.916  19.601  27.246  1.00  0.00    -0.270 OA
ATOM      5  H   UNL A   1      44.028  20.654  26.902  1.00  0.00     0.163 HD
BRANCH   3   6
ATOM      6  C   UNL A   1      40.905  21.242  25.919  1.00  0.00     0.072 C 
ATOM      7  C   UNL A   1      39.656  21.227  26.403  1.00  0.00     0.014 C 
BRANCH   7   8
ATOM      8  C   UNL A   1      38.509  21.896  25.773  1.00  0.00    -0.025 A 
ATOM      9  C   UNL A   1      36.361  23.316  24.596  1.00  0.00    -0.029 A 
ATOM     10  C   UNL A   1      36.601  21.977  24.263  1.00  0.00     0.006 A 
ATOM     11  C   UNL A   1      37.179  23.918  25.560  1.00  0.00     0.006 A 
ATOM     12  C   UNL A   1      37.652  21.270  24.860  1.00  0.00     0.008 A 
ATOM     13  C   UNL A   1      38.253  23.226  26.125  1.00  0.00     0.008 A 
BRANCH   9  14
ATOM     14  C   UNL A   1      35.230  24.081  23.951  1.00  0.00     0.155 C 
BRANCH  14  15
ATOM     15  N   UNL A   1      33.933  23.424  23.996  1.00  0.00    -0.338 N 
ATOM     16  C   UNL A   1      32.455  21.812  24.811  1.00  0.00     0.017 C 
ATOM     17  C   UNL A   1      32.086  22.137  23.355  1.00  0.00     0.105 C 
ATOM     18  C   UNL A   1      33.243  23.054  25.208  1.00  0.00     0.124 C 
ATOM     19  C   UNL A   1      33.292  22.916  22.873  1.00  0.00     0.223 C 
ATOM     20  O   UNL A   1      33.612  23.071  21.710  1.00  0.00    -0.275 OA
BRANCH  16  21
ATOM     21  C   UNL A   1      33.214  20.462  24.912  1.00  0.00     0.002 C 
ATOM     22  C   UNL A   1      32.898  19.402  23.865  1.00  0.00     0.004 C 
ENDBRANCH  16  21
ENDBRANCH  14  15
ENDBRANCH   9  14
ENDBRANCH   7   8
ENDBRANCH   3   6
ENDBRANCH   1   2
BRANCH   1  23
ATOM     23  C   UNL A   1      44.766  23.125  26.397  1.00  0.00     0.042 C 
BRANCH  23  24
ATOM     24  C   UNL A   1      44.300  24.571  26.542  1.00  0.00     0.118 C 
BRANCH  24  25
ATOM     25  N   UNL A   1      43.214  24.890  25.624  1.00  0.00    -0.352 N 
ATOM     26  C   UNL A   1      42.053  25.589  25.836  1.00  0.00     0.251 C 
ATOM     27  H   UNL A   1      43.332  24.550  24.708  1.00  0.00     0.163 HD
ATOM     28  O   UNL A   1      41.155  25.530  25.001  1.00  0.00    -0.269 OA
BRANCH  26  29
ATOM     29  C   UNL A   1      41.877  26.402  27.060  1.00  0.00     0.039 A 
ATOM     30  C   UNL A   1      42.588  27.600  27.182  1.00  0.00     0.014 A 
ATOM     31  C   UNL A   1      41.050  25.971  28.100  1.00  0.00     0.014 A 
ATOM     32  C   UNL A   1      42.421  28.392  28.321  1.00  0.00     0.010 A 
ATOM     33  C   UNL A   1      40.827  26.797  29.199  1.00  0.00     0.010 A 
ATOM     34  C   UNL A   1      41.512  28.014  29.322  1.00  0.00    -0.014 A 
BRANCH  34  35
ATOM     35  C   UNL A   1      41.257  28.885  30.499  1.00  0.00     0.031 A 
ATOM     36  C   UNL A   1      42.076  28.727  31.752  1.00  0.00     0.074 A 
ATOM     37  C   UNL A   1      40.243  29.772  30.457  1.00  0.00     0.049 A 
ATOM     38  N   UNL A   1      41.955  29.344  32.899  1.00  0.00    -0.248 NA
ATOM     39  C   UNL A   1      43.158  27.730  31.718  1.00  0.00     0.031 C 
ATOM     40  C   UNL A   1      39.351  29.983  29.315  1.00  0.00     0.029 A 
ATOM     41  N   UNL A   1      39.782  30.653  31.403  1.00  0.00    -0.354 N 
ATOM     42  C   UNL A   1      42.933  28.802  33.727  1.00  0.00     0.074 A 
ATOM     43  C   UNL A   1      43.603  27.770  32.967  1.00  0.00     0.031 C 
ATOM     44  C   UNL A   1      38.466  30.945  29.617  1.00  0.00     0.029 A 
ATOM     45  C   UNL A   1      38.696  31.389  30.989  1.00  0.00     0.049 A 
ATOM     46  H   UNL A   1      40.189  30.751  32.294  1.00  0.00     0.167 HD
ATOM     47  C   UNL A   1      43.254  29.149  34.996  1.00  0.00     0.037 A 
ATOM     48  C   UNL A   1      37.958  32.306  31.644  1.00  0.00     0.037 A 
ATOM     49  C   UNL A   1      42.589  30.189  35.738  1.00  0.00     0.049 A 
ATOM     50  C   UNL A   1      38.325  32.663  33.058  1.00  0.00     0.074 A 
ATOM     51  C   UNL A   1      42.875  30.656  37.009  1.00  0.00     0.029 A 
ATOM     52  N   UNL A   1      41.501  30.920  35.281  1.00  0.00    -0.354 N 
ATOM     53  N   UNL A   1      39.296  32.188  33.802  1.00  0.00    -0.248 NA
ATOM     54  C   UNL A   1      37.503  33.683  33.721  1.00  0.00     0.031 C 
ATOM     55  C   UNL A   1      41.926  31.629  37.342  1.00  0.00     0.029 A 
ATOM     56  C   UNL A   1      41.087  31.813  36.255  1.00  0.00     0.049 A 
ATOM     57  H   UNL A   1      41.085  30.818  34.394  1.00  0.00     0.167 HD
ATOM     58  C   UNL A   1      39.216  32.871  35.012  1.00  0.00     0.074 A 
ATOM     59  C   UNL A   1      38.113  33.801  34.892  1.00  0.00     0.031 C 
ATOM     60  C   UNL A   1      39.988  32.739  36.120  1.00  0.00     0.037 A 
BRANCH  47  61
ATOM     61  C   UNL A   1      44.375  28.398  35.666  1.00  0.00     0.058 A 
ATOM     62  C   UNL A   1      45.703  28.852  35.617  1.00  0.00     0.135 A 
ATOM     63  C   UNL A   1      44.113  27.230  36.401  1.00  0.00     0.135 A 
ATOM     64  F   UNL A   1      46.016  29.955  34.916  1.00  0.00    -0.206 F 
ATOM     65  C   UNL A   1      46.733  28.162  36.246  1.00  0.00     0.059 A 
ATOM     66  C   UNL A   1      45.124  26.540  37.065  1.00  0.00     0.059 A 
ATOM     67  F   UNL A   1      42.863  26.750  36.483  1.00  0.00    -0.206 F 
ATOM     68  C   UNL A   1      46.434  27.007  36.970  1.00  0.00     0.060 A 
BRANCH  68  69
ATOM     69  S   UNL A   1      47.783  26.128  37.786  1.00  0.00     0.124 S 
ATOM     70  O   UNL A   1      47.695  26.656  39.143  1.00  0.00    -0.237 OA
ATOM     71  O   UNL A   1      47.389  24.733  37.621  1.00  0.00    -0.237 OA
ATOM     72  O   UNL A   1      48.963  26.538  37.030  1.00  0.00    -0.744 OA
ENDBRANCH  68  69
ENDBRANCH  47  61
BRANCH  48  73
ATOM     73  C   UNL A   1      36.808  32.961  30.961  1.00  0.00     0.058 A 
ATOM     74  C   UNL A   1      35.488  32.687  31.345  1.00  0.00     0.135 A 
ATOM     75  C   UNL A   1      37.008  33.884  29.922  1.00  0.00     0.135 A 
ATOM     76  F   UNL A   1      35.244  31.808  32.329  1.00  0.00    -0.206 F 
ATOM     77  C   UNL A   1      34.405  33.290  30.714  1.00  0.00     0.059 A 
ATOM     78  C   UNL A   1      35.942  34.521  29.294  1.00  0.00     0.059 A 
ATOM     79  F   UNL A   1      38.253  34.195  29.528  1.00  0.00    -0.206 F 
ATOM     80  C   UNL A   1      34.643  34.209  29.691  1.00  0.00     0.060 A 
BRANCH  80  81
ATOM     81  S   UNL A   1      33.231  35.024  28.913  1.00  0.00     0.124 S 
ATOM     82  O   UNL A   1      32.336  35.212  30.050  1.00  0.00    -0.237 OA
ATOM     83  O   UNL A   1      33.839  36.233  28.368  1.00  0.00    -0.237 OA
ATOM     84  O   UNL A   1      32.790  34.050  27.917  1.00  0.00    -0.744 OA
ENDBRANCH  80  81
ENDBRANCH  48  73
BRANCH  60  85
ATOM     85  C   UNL A   1      39.689  33.645  37.283  1.00  0.00     0.058 A 
ATOM     86  C   UNL A   1      38.818  33.264  38.316  1.00  0.00     0.135 A 
ATOM     87  C   UNL A   1      40.323  34.894  37.390  1.00  0.00     0.135 A 
ATOM     88  F   UNL A   1      38.179  32.084  38.259  1.00  0.00    -0.206 F 
ATOM     89  C   UNL A   1      38.567  34.097  39.399  1.00  0.00     0.059 A 
ATOM     90  C   UNL A   1      40.112  35.730  38.481  1.00  0.00     0.059 A 
ATOM     91  F   UNL A   1      41.175  35.305  36.435  1.00  0.00    -0.206 F 
ATOM     92  C   UNL A   1      39.221  35.329  39.475  1.00  0.00     0.060 A 
BRANCH  92  93
ATOM     93  S   UNL A   1      38.911  36.386  40.905  1.00  0.00     0.124 S 
ATOM     94  O   UNL A   1      40.210  36.370  41.570  1.00  0.00    -0.237 OA
ATOM     95  O   UNL A   1      38.532  37.650  40.282  1.00  0.00    -0.237 OA
ATOM     96  O   UNL A   1      37.836  35.696  41.612  1.00  0.00    -0.744 OA
ENDBRANCH  92  93
ENDBRANCH  60  85
ENDBRANCH  34  35
ENDBRANCH  26  29
ENDBRANCH  24  25
ENDBRANCH  23  24
ENDBRANCH   1  23
TORSDOF 17
ENDMDL
MODEL 3
REMARK VINA RESULT:      -8.8      3.894      6.567
REMARK SMILES CC[C@@H]1CC(=O)N(Cc2ccc(/C=C/C(=O)NCCCNC(=O)c3ccc(-c4c5nc(c(-c6c(F)cc(S(=O)(=O)[O-])cc6F)c6ccc([nH]6)c(-c6c(F)cc(S(=O)(=O)[O-])cc6F)c6nc(c(-c7c(F)cc(S(=O)(=O)[O-])cc7F)c7ccc4[nH]7)C=C6)C=C5)cc3)cc2)C1
REMARK SMILES IDX 18 1 17 2 15 3 16 4 14 6 13 7 12 8 9 9 10 10 91 11 11 12
REMARK SMILES IDX 90 13 8 14 7 15 3 16 4 17 92 18 5 19 6 20 2 21 1 22 19 23
REMARK SMILES IDX 20 24 21 25 22 26 23 28 24 29 25 30 89 31 26 32 88 33 27 34
REMARK SMILES IDX 28 35 29 36 82 37 30 38 87 39 81 40 83 41 31 42 86 43 80 44
REMARK SMILES IDX 79 45 32 47 66 48 45 49 65 50 46 51 49 52 64 53 84 54 47 55
REMARK SMILES IDX 48 56 63 58 85 59 50 60 33 61 34 62 43 63 35 64 36 65 42 66
REMARK SMILES IDX 44 67 37 68 38 69 39 70 40 71 41 72 67 73 68 74 77 75 69 76
REMARK SMILES IDX 70 77 76 78 78 79 71 80 72 81 73 82 74 83 75 84 51 85 52 86
REMARK SMILES IDX 61 87 53 88 54 89 60 90 62 91 55 92 56 93 57 94 58 95 59 96
REMARK H PARENT 17 5 21 27 83 46 49 57
REMARK Flexibility Score: inf
ROOT
ATOM      1  C   UNL A   1      35.005  31.362  27.784  1.00  0.00     0.118 C 
ENDROOT
BRANCH   1   2
ATOM      2  N   UNL A   1      33.571  31.399  27.548  1.00  0.00    -0.352 N 
ATOM      3  C   UNL A   1      32.748  30.517  26.921  1.00  0.00     0.244 C 
ATOM      4  O   UNL A   1      31.534  30.708  26.925  1.00  0.00    -0.270 OA
ATOM      5  H   UNL A   1      33.119  32.198  27.903  1.00  0.00     0.163 HD
BRANCH   3   6
ATOM      6  C   UNL A   1      33.282  29.269  26.336  1.00  0.00     0.072 C 
ATOM      7  C   UNL A   1      32.526  28.267  25.868  1.00  0.00     0.014 C 
BRANCH   7   8
ATOM      8  C   UNL A   1      33.052  27.057  25.219  1.00  0.00    -0.025 A 
ATOM      9  C   UNL A   1      34.008  24.776  23.842  1.00  0.00    -0.029 A 
ATOM     10  C   UNL A   1      34.543  25.138  25.084  1.00  0.00     0.006 A 
ATOM     11  C   UNL A   1      32.956  25.542  23.323  1.00  0.00     0.006 A 
ATOM     12  C   UNL A   1      34.057  26.256  25.773  1.00  0.00     0.008 A 
ATOM     13  C   UNL A   1      32.499  26.680  23.990  1.00  0.00     0.008 A 
BRANCH   9  14
ATOM     14  C   UNL A   1      34.533  23.573  23.095  1.00  0.00     0.155 C 
BRANCH  14  15
ATOM     15  N   UNL A   1      34.779  22.395  23.914  1.00  0.00    -0.338 N 
ATOM     16  C   UNL A   1      34.401  21.063  25.793  1.00  0.00     0.017 C 
ATOM     17  C   UNL A   1      35.856  20.876  25.331  1.00  0.00     0.105 C 
ATOM     18  C   UNL A   1      33.747  21.591  24.522  1.00  0.00     0.124 C 
ATOM     19  C   UNL A   1      36.041  22.015  24.350  1.00  0.00     0.223 C 
ATOM     20  O   UNL A   1      37.111  22.481  24.006  1.00  0.00    -0.275 OA
BRANCH  16  21
ATOM     21  C   UNL A   1      34.319  21.989  27.037  1.00  0.00     0.002 C 
ATOM     22  C   UNL A   1      32.976  22.644  27.334  1.00  0.00     0.004 C 
ENDBRANCH  16  21
ENDBRANCH  14  15
ENDBRANCH   9  14
ENDBRANCH   7   8
ENDBRANCH   3   6
ENDBRANCH   1   2
BRANCH   1  23
ATOM     23  C   UNL A   1      35.567  32.763  28.018  1.00  0.00     0.042 C 
BRANCH  23  24
ATOM     24  C   UNL A   1      36.584  32.826  29.156  1.00  0.00     0.118 C 
BRANCH  24  25
ATOM     25  N   UNL A   1      36.148  32.067  30.320  1.00  0.00    -0.352 N 
ATOM     26  C   UNL A   1      36.644  30.905  30.855  1.00  0.00     0.251 C 
ATOM     27  H   UNL A   1      35.376  32.448  30.798  1.00  0.00     0.163 HD
ATOM     28  O   UNL A   1      35.980  30.295  31.688  1.00  0.00    -0.269 OA
BRANCH  26  29
ATOM     29  C   UNL A   1      37.962  30.385  30.431  1.00  0.00     0.039 A 
ATOM     30  C   UNL A   1      38.199  30.175  29.068  1.00  0.00     0.014 A 
ATOM     31  C   UNL A   1      38.947  30.064  31.368  1.00  0.00     0.014 A 
ATOM     32  C   UNL A   1      39.444  29.702  28.646  1.00  0.00     0.010 A 
ATOM     33  C   UNL A   1      40.212  29.667  30.940  1.00  0.00     0.010 A 
ATOM     34  C   UNL A   1      40.472  29.478  29.576  1.00  0.00    -0.014 A 
BRANCH  34  35
ATOM     35  C   UNL A   1      41.829  29.058  29.138  1.00  0.00     0.031 A 
ATOM     36  C   UNL A   1      42.952  30.058  29.082  1.00  0.00     0.074 A 
ATOM     37  C   UNL A   1      42.028  27.789  28.729  1.00  0.00     0.049 A 
ATOM     38  N   UNL A   1      44.180  29.896  28.661  1.00  0.00    -0.248 NA
ATOM     39  C   UNL A   1      42.649  31.425  29.536  1.00  0.00     0.031 C 
ATOM     40  C   UNL A   1      41.004  26.741  28.696  1.00  0.00     0.029 A 
ATOM     41  N   UNL A   1      43.154  27.165  28.252  1.00  0.00    -0.354 N 
ATOM     42  C   UNL A   1      44.791  31.139  28.787  1.00  0.00     0.074 A 
ATOM     43  C   UNL A   1      43.785  32.057  29.273  1.00  0.00     0.031 C 
ATOM     44  C   UNL A   1      41.553  25.603  28.245  1.00  0.00     0.029 A 
ATOM     45  C   UNL A   1      42.953  25.847  27.914  1.00  0.00     0.049 A 
ATOM     46  H   UNL A   1      44.023  27.618  28.161  1.00  0.00     0.167 HD
ATOM     47  C   UNL A   1      46.080  31.477  28.539  1.00  0.00     0.037 A 
ATOM     48  C   UNL A   1      43.797  24.942  27.383  1.00  0.00     0.037 A 
ATOM     49  C   UNL A   1      47.078  30.551  28.070  1.00  0.00     0.049 A 
ATOM     50  C   UNL A   1      45.219  25.345  27.102  1.00  0.00     0.074 A 
ATOM     51  C   UNL A   1      48.423  30.779  27.842  1.00  0.00     0.029 A 
ATOM     52  N   UNL A   1      46.839  29.221  27.749  1.00  0.00    -0.354 N 
ATOM     53  N   UNL A   1      45.797  26.508  27.290  1.00  0.00    -0.248 NA
ATOM     54  C   UNL A   1      46.104  24.317  26.542  1.00  0.00     0.031 C 
ATOM     55  C   UNL A   1      48.987  29.605  27.331  1.00  0.00     0.029 A 
ATOM     56  C   UNL A   1      48.006  28.626  27.299  1.00  0.00     0.049 A 
ATOM     57  H   UNL A   1      45.969  28.768  27.830  1.00  0.00     0.167 HD
ATOM     58  C   UNL A   1      47.122  26.342  26.897  1.00  0.00     0.074 A 
ATOM     59  C   UNL A   1      47.260  24.963  26.476  1.00  0.00     0.031 C 
ATOM     60  C   UNL A   1      48.130  27.249  26.886  1.00  0.00     0.037 A 
BRANCH  47  61
ATOM     61  C   UNL A   1      46.486  32.909  28.771  1.00  0.00     0.058 A 
ATOM     62  C   UNL A   1      46.969  33.349  30.014  1.00  0.00     0.135 A 
ATOM     63  C   UNL A   1      46.430  33.845  27.725  1.00  0.00     0.135 A 
ATOM     64  F   UNL A   1      47.031  32.502  31.054  1.00  0.00    -0.206 F 
ATOM     65  C   UNL A   1      47.353  34.669  30.220  1.00  0.00     0.059 A 
ATOM     66  C   UNL A   1      46.839  35.165  27.901  1.00  0.00     0.059 A 
ATOM     67  F   UNL A   1      45.976  33.482  26.516  1.00  0.00    -0.206 F 
ATOM     68  C   UNL A   1      47.286  35.571  29.157  1.00  0.00     0.060 A 
BRANCH  68  69
ATOM     69  S   UNL A   1      47.797  37.279  29.442  1.00  0.00     0.124 S 
ATOM     70  O   UNL A   1      48.129  37.249  30.863  1.00  0.00    -0.237 OA
ATOM     71  O   UNL A   1      48.926  37.421  28.530  1.00  0.00    -0.237 OA
ATOM     72  O   UNL A   1      46.609  38.052  29.093  1.00  0.00    -0.744 OA
ENDBRANCH  68  69
ENDBRANCH  47  61
BRANCH  48  73
ATOM     73  C   UNL A   1      43.322  23.561  27.097  1.00  0.00     0.058 A 
ATOM     74  C   UNL A   1      42.994  23.163  25.793  1.00  0.00     0.135 A 
ATOM     75  C   UNL A   1      43.200  22.606  28.120  1.00  0.00     0.135 A 
ATOM     76  F   UNL A   1      43.087  24.040  24.782  1.00  0.00    -0.206 F 
ATOM     77  C   UNL A   1      42.545  21.877  25.513  1.00  0.00     0.059 A 
ATOM     78  C   UNL A   1      42.782  21.304  27.860  1.00  0.00     0.059 A 
ATOM     79  F   UNL A   1      43.520  22.929  29.384  1.00  0.00    -0.206 F 
ATOM     80  C   UNL A   1      42.447  20.952  26.554  1.00  0.00     0.060 A 
BRANCH  80  81
ATOM     81  S   UNL A   1      41.912  19.271  26.171  1.00  0.00     0.124 S 
ATOM     82  O   UNL A   1      42.759  18.946  25.028  1.00  0.00    -0.237 OA
ATOM     83  O   UNL A   1      42.213  18.565  27.412  1.00  0.00    -0.237 OA
ATOM     84  O   UNL A   1      40.490  19.429  25.878  1.00  0.00    -0.744 OA
ENDBRANCH  80  81
ENDBRANCH  48  73
BRANCH  60  85
ATOM     85  C   UNL A   1      49.485  26.773  26.436  1.00  0.00     0.058 A 
ATOM     86  C   UNL A   1      50.356  26.091  27.300  1.00  0.00     0.135 A 
ATOM     87  C   UNL A   1      49.896  26.960  25.106  1.00  0.00     0.135 A 
ATOM     88  F   UNL A   1      50.016  25.893  28.585  1.00  0.00    -0.206 F 
ATOM     89  C   UNL A   1      51.596  25.633  26.870  1.00  0.00     0.059 A 
ATOM     90  C   UNL A   1      51.118  26.481  24.645  1.00  0.00     0.059 A 
ATOM     91  F   UNL A   1      49.097  27.596  24.234  1.00  0.00    -0.206 F 
ATOM     92  C   UNL A   1      51.968  25.830  25.538  1.00  0.00     0.060 A 
BRANCH  92  93
ATOM     93  S   UNL A   1      53.566  25.200  24.984  1.00  0.00     0.124 S 
ATOM     94  O   UNL A   1      53.449  23.781  25.303  1.00  0.00    -0.237 OA
ATOM     95  O   UNL A   1      53.558  25.536  23.564  1.00  0.00    -0.237 OA
ATOM     96  O   UNL A   1      54.525  25.947  25.793  1.00  0.00    -0.744 OA
ENDBRANCH  92  93
ENDBRANCH  60  85
ENDBRANCH  34  35
ENDBRANCH  26  29
ENDBRANCH  24  25
ENDBRANCH  23  24
ENDBRANCH   1  23
TORSDOF 17
ENDMDL
