MODEL 1
REMARK VINA RESULT:     -12.2      0.000      0.000
REMARK SMILES Cc1ccc2cc(C[N@H+]3CC[NH2+][C@H](C(=O)NCCCNC(=O)c4ccc(-c5c6nc(c(-c7c(F)cc(S(=O)(=O)[O-])cc7F)c7ccc([nH]7)c(-c7c(F)cc(S(=O)(=O)[O-])cc7F)c7nc(c(-c8c(F)cc(S(=O)(=O)[O-])cc8F)c8ccc5[nH]8)C=C7)C=C6)cc4)C3)c(N3CCOCC3)nc2c1
REMARK SMILES IDX 18 1 17 2 16 3 14 4 15 5 13 7 9 8 10 9 89 10 11 12 12 13
REMARK SMILES IDX 8 16 7 17 1 18 2 19 3 20 99 21 4 22 98 23 5 24 97 25 6 26
REMARK SMILES IDX 90 27 91 28 92 29 96 30 93 31 95 32 94 33 19 34 20 35 21 36
REMARK SMILES IDX 22 38 23 39 24 40 88 41 25 42 87 43 26 44 27 45 28 46 81 47
REMARK SMILES IDX 29 48 86 49 80 50 82 51 30 52 85 53 79 54 78 55 31 57 65 58
REMARK SMILES IDX 44 59 64 60 45 61 48 62 63 63 83 64 46 65 47 66 62 68 84 69
REMARK SMILES IDX 49 70 32 71 33 72 42 73 34 74 35 75 41 76 43 77 36 78 37 79
REMARK SMILES IDX 38 80 39 81 40 82 66 83 67 84 76 85 68 86 69 87 75 88 77 89
REMARK SMILES IDX 70 90 71 91 72 92 73 93 74 94 50 95 51 96 60 97 52 98 53 99
REMARK SMILES IDX 59 100 61 101 54 102 55 103 56 104 57 105 58 106
REMARK H PARENT 16 6 9 11 12 14 12 15 20 37 82 56 48 67
REMARK Flexibility Score: inf
ROOT
ATOM      1  C   UNL A   1      31.981  27.436  27.136  1.00  0.00     0.042 C 
ENDROOT
BRANCH   1   2
ATOM      2  C   UNL A   1      31.875  26.164  26.310  1.00  0.00     0.118 C 
BRANCH   2   3
ATOM      3  N   UNL A   1      30.835  25.269  26.775  1.00  0.00    -0.351 N 
ATOM      4  C   UNL A   1      30.901  23.918  26.984  1.00  0.00     0.284 C 
ATOM      5  O   UNL A   1      29.910  23.357  27.461  1.00  0.00    -0.268 OA
ATOM      6  H   UNL A   1      29.964  25.689  26.965  1.00  0.00     0.163 HD
BRANCH   4   7
ATOM      7  C   UNL A   1      32.160  23.135  26.559  1.00  0.00     0.328 C 
ATOM      8  N   UNL A   1      32.714  21.153  25.024  1.00  0.00    -0.321 N 
ATOM      9  C   UNL A   1      33.428  20.584  26.174  1.00  0.00     0.324 C 
ATOM     10  C   UNL A   1      31.737  22.176  25.417  1.00  0.00     0.339 C 
ATOM     11  H   UNL A   1      32.147  20.388  24.659  1.00  0.00     0.348 HD
ATOM     12  C   UNL A   1      33.840  21.585  27.278  1.00  0.00     0.323 C 
ATOM     13  N   UNL A   1      32.731  22.431  27.739  1.00  0.00    -0.327 N 
ATOM     14  H   UNL A   1      33.075  23.115  28.414  1.00  0.00     0.347 HD
ATOM     15  H   UNL A   1      32.015  21.860  28.188  1.00  0.00     0.347 HD
BRANCH   8  16
ATOM     16  C   UNL A   1      33.528  21.443  23.835  1.00  0.00     0.303 C 
BRANCH  16  17
ATOM     17  C   UNL A   1      33.711  22.896  23.453  1.00  0.00     0.049 A 
ATOM     18  C   UNL A   1      32.344  29.176  22.690  1.00  0.00     0.044 C 
ATOM     19  C   UNL A   1      32.502  27.688  22.601  1.00  0.00    -0.049 A 
ATOM     20  C   UNL A   1      31.581  26.941  21.869  1.00  0.00     0.004 A 
ATOM     21  C   UNL A   1      33.573  27.025  23.231  1.00  0.00     0.032 A 
ATOM     22  C   UNL A   1      31.698  25.556  21.823  1.00  0.00     0.010 A 
ATOM     23  C   UNL A   1      33.701  25.638  23.218  1.00  0.00     0.073 A 
ATOM     24  C   UNL A   1      32.717  24.905  22.537  1.00  0.00     0.001 A 
ATOM     25  N   UNL A   1      34.723  25.036  23.863  1.00  0.00    -0.230 NA
ATOM     26  C   UNL A   1      32.745  23.515  22.655  1.00  0.00     0.023 A 
ATOM     27  C   UNL A   1      34.762  23.684  23.940  1.00  0.00     0.138 A 
BRANCH  27  28
ATOM     28  N   UNL A   1      35.860  23.087  24.539  1.00  0.00    -0.352 N 
ATOM     29  C   UNL A   1      36.679  22.206  23.687  1.00  0.00     0.146 C 
ATOM     30  C   UNL A   1      36.667  23.871  25.475  1.00  0.00     0.146 C 
ATOM     31  C   UNL A   1      37.483  21.268  24.602  1.00  0.00     0.181 C 
ATOM     32  C   UNL A   1      37.493  22.890  26.329  1.00  0.00     0.181 C 
ATOM     33  O   UNL A   1      38.303  22.013  25.522  1.00  0.00    -0.378 OA
ENDBRANCH  27  28
ENDBRANCH  16  17
ENDBRANCH   8  16
ENDBRANCH   4   7
ENDBRANCH   2   3
ENDBRANCH   1   2
BRANCH   1  34
ATOM     34  C   UNL A   1      33.314  28.156  26.996  1.00  0.00     0.118 C 
BRANCH  34  35
ATOM     35  N   UNL A   1      33.267  29.550  27.426  1.00  0.00    -0.352 N 
ATOM     36  C   UNL A   1      34.237  30.340  28.003  1.00  0.00     0.251 C 
ATOM     37  H   UNL A   1      32.403  29.998  27.281  1.00  0.00     0.163 HD
ATOM     38  O   UNL A   1      33.940  31.469  28.386  1.00  0.00    -0.269 OA
BRANCH  36  39
ATOM     39  C   UNL A   1      35.610  29.823  28.207  1.00  0.00     0.039 A 
ATOM     40  C   UNL A   1      36.020  29.340  29.449  1.00  0.00     0.014 A 
ATOM     41  C   UNL A   1      36.516  29.848  27.143  1.00  0.00     0.014 A 
ATOM     42  C   UNL A   1      37.368  29.103  29.686  1.00  0.00     0.010 A 
ATOM     43  C   UNL A   1      37.854  29.496  27.354  1.00  0.00     0.010 A 
ATOM     44  C   UNL A   1      38.308  29.186  28.645  1.00  0.00    -0.014 A 
BRANCH  44  45
ATOM     45  C   UNL A   1      39.748  28.967  28.951  1.00  0.00     0.031 A 
ATOM     46  C   UNL A   1      40.422  27.664  28.600  1.00  0.00     0.074 A 
ATOM     47  C   UNL A   1      40.474  29.980  29.464  1.00  0.00     0.049 A 
ATOM     48  N   UNL A   1      41.678  27.321  28.749  1.00  0.00    -0.248 NA
ATOM     49  C   UNL A   1      39.585  26.607  28.010  1.00  0.00     0.031 C 
ATOM     50  C   UNL A   1      39.941  31.293  29.837  1.00  0.00     0.029 A 
ATOM     51  N   UNL A   1      41.818  30.086  29.721  1.00  0.00    -0.354 N 
ATOM     52  C   UNL A   1      41.775  26.011  28.295  1.00  0.00     0.074 A 
ATOM     53  C   UNL A   1      40.447  25.607  27.890  1.00  0.00     0.031 C 
ATOM     54  C   UNL A   1      40.954  32.095  30.196  1.00  0.00     0.029 A 
ATOM     55  C   UNL A   1      42.199  31.335  30.151  1.00  0.00     0.049 A 
ATOM     56  H   UNL A   1      42.448  29.339  29.607  1.00  0.00     0.167 HD
ATOM     57  C   UNL A   1      42.872  25.221  28.208  1.00  0.00     0.037 A 
ATOM     58  C   UNL A   1      43.411  31.819  30.482  1.00  0.00     0.037 A 
ATOM     59  C   UNL A   1      44.201  25.636  28.579  1.00  0.00     0.049 A 
ATOM     60  C   UNL A   1      44.607  30.915  30.404  1.00  0.00     0.074 A 
ATOM     61  C   UNL A   1      45.378  24.910  28.513  1.00  0.00     0.029 A 
ATOM     62  N   UNL A   1      44.531  26.887  29.076  1.00  0.00    -0.354 N 
ATOM     63  N   UNL A   1      44.672  29.673  29.987  1.00  0.00    -0.248 NA
ATOM     64  C   UNL A   1      45.888  31.468  30.860  1.00  0.00     0.031 C 
ATOM     65  C   UNL A   1      46.415  25.712  29.001  1.00  0.00     0.029 A 
ATOM     66  C   UNL A   1      45.890  26.949  29.336  1.00  0.00     0.049 A 
ATOM     67  H   UNL A   1      43.893  27.623  29.224  1.00  0.00     0.167 HD
ATOM     68  C   UNL A   1      46.002  29.297  30.129  1.00  0.00     0.074 A 
ATOM     69  C   UNL A   1      46.710  30.449  30.648  1.00  0.00     0.031 C 
ATOM     70  C   UNL A   1      46.580  28.101  29.861  1.00  0.00     0.037 A 
BRANCH  57  71
ATOM     71  C   UNL A   1      42.689  23.819  27.694  1.00  0.00     0.058 A 
ATOM     72  C   UNL A   1      42.544  22.729  28.564  1.00  0.00     0.135 A 
ATOM     73  C   UNL A   1      42.603  23.572  26.313  1.00  0.00     0.135 A 
ATOM     74  F   UNL A   1      42.636  22.907  29.892  1.00  0.00    -0.206 F 
ATOM     75  C   UNL A   1      42.338  21.439  28.085  1.00  0.00     0.059 A 
ATOM     76  C   UNL A   1      42.375  22.294  25.813  1.00  0.00     0.059 A 
ATOM     77  F   UNL A   1      42.735  24.581  25.437  1.00  0.00    -0.206 F 
ATOM     78  C   UNL A   1      42.255  21.231  26.707  1.00  0.00     0.060 A 
BRANCH  78  79
ATOM     79  S   UNL A   1      41.978  19.551  26.105  1.00  0.00     0.124 S 
ATOM     80  O   UNL A   1      42.866  19.510  24.946  1.00  0.00    -0.237 OA
ATOM     81  O   UNL A   1      42.389  18.740  27.246  1.00  0.00    -0.237 OA
ATOM     82  O   UNL A   1      40.551  19.528  25.802  1.00  0.00    -0.744 OA
ENDBRANCH  78  79
ENDBRANCH  57  71
BRANCH  58  83
ATOM     83  C   UNL A   1      43.542  33.233  30.919  1.00  0.00     0.058 A 
ATOM     84  C   UNL A   1      43.408  33.586  32.268  1.00  0.00     0.135 A 
ATOM     85  C   UNL A   1      43.850  34.250  30.002  1.00  0.00     0.135 A 
ATOM     86  F   UNL A   1      43.106  32.647  33.180  1.00  0.00    -0.206 F 
ATOM     87  C   UNL A   1      43.577  34.898  32.697  1.00  0.00     0.059 A 
ATOM     88  C   UNL A   1      44.048  35.565  30.410  1.00  0.00     0.059 A 
ATOM     89  F   UNL A   1      44.002  33.959  28.700  1.00  0.00    -0.206 F 
ATOM     90  C   UNL A   1      43.904  35.879  31.760  1.00  0.00     0.060 A 
BRANCH  90  91
ATOM     91  S   UNL A   1      44.198  37.566  32.337  1.00  0.00     0.124 S 
ATOM     92  O   UNL A   1      43.815  38.346  31.166  1.00  0.00    -0.237 OA
ATOM     93  O   UNL A   1      43.304  37.656  33.487  1.00  0.00    -0.237 OA
ATOM     94  O   UNL A   1      45.621  37.565  32.659  1.00  0.00    -0.744 OA
ENDBRANCH  90  91
ENDBRANCH  58  83
BRANCH  70  95
ATOM     95  C   UNL A   1      48.052  27.972  30.125  1.00  0.00     0.058 A 
ATOM     96  C   UNL A   1      48.531  27.508  31.359  1.00  0.00     0.135 A 
ATOM     97  C   UNL A   1      48.987  28.251  29.117  1.00  0.00     0.135 A 
ATOM     98  F   UNL A   1      47.676  27.236  32.357  1.00  0.00    -0.206 F 
ATOM     99  C   UNL A   1      49.892  27.335  31.588  1.00  0.00     0.059 A 
ATOM    100  C   UNL A   1      50.351  28.065  29.317  1.00  0.00     0.059 A 
ATOM    101  F   UNL A   1      48.576  28.691  27.916  1.00  0.00    -0.206 F 
ATOM    102  C   UNL A   1      50.794  27.612  30.559  1.00  0.00     0.060 A 
BRANCH 102 103
ATOM    103  S   UNL A   1      52.553  27.337  30.856  1.00  0.00     0.124 S 
ATOM    104  O   UNL A   1      52.531  26.107  31.640  1.00  0.00    -0.237 OA
ATOM    105  O   UNL A   1      53.082  27.214  29.500  1.00  0.00    -0.237 OA
ATOM    106  O   UNL A   1      52.968  28.535  31.578  1.00  0.00    -0.744 OA
ENDBRANCH 102 103
ENDBRANCH  70  95
ENDBRANCH  44  45
ENDBRANCH  36  39
ENDBRANCH  34  35
ENDBRANCH   1  34
TORSDOF 16
ENDMDL
MODEL 2
REMARK VINA RESULT:     -12.1      4.743      9.247
REMARK SMILES Cc1ccc2cc(C[N@H+]3CC[NH2+][C@H](C(=O)NCCCNC(=O)c4ccc(-c5c6nc(c(-c7c(F)cc(S(=O)(=O)[O-])cc7F)c7ccc([nH]7)c(-c7c(F)cc(S(=O)(=O)[O-])cc7F)c7nc(c(-c8c(F)cc(S(=O)(=O)[O-])cc8F)c8ccc5[nH]8)C=C7)C=C6)cc4)C3)c(N3CCOCC3)nc2c1
REMARK SMILES IDX 18 1 17 2 16 3 14 4 15 5 13 7 9 8 10 9 89 10 11 12 12 13
REMARK SMILES IDX 8 16 7 17 1 18 2 19 3 20 99 21 4 22 98 23 5 24 97 25 6 26
REMARK SMILES IDX 90 27 91 28 92 29 96 30 93 31 95 32 94 33 19 34 20 35 21 36
REMARK SMILES IDX 22 38 23 39 24 40 88 41 25 42 87 43 26 44 27 45 28 46 81 47
REMARK SMILES IDX 29 48 86 49 80 50 82 51 30 52 85 53 79 54 78 55 31 57 65 58
REMARK SMILES IDX 44 59 64 60 45 61 48 62 63 63 83 64 46 65 47 66 62 68 84 69
REMARK SMILES IDX 49 70 32 71 33 72 42 73 34 74 35 75 41 76 43 77 36 78 37 79
REMARK SMILES IDX 38 80 39 81 40 82 66 83 67 84 76 85 68 86 69 87 75 88 77 89
REMARK SMILES IDX 70 90 71 91 72 92 73 93 74 94 50 95 51 96 60 97 52 98 53 99
REMARK SMILES IDX 59 100 61 101 54 102 55 103 56 104 57 105 58 106
REMARK H PARENT 16 6 9 11 12 14 12 15 20 37 82 56 48 67
REMARK Flexibility Score: inf
ROOT
ATOM      1  C   UNL A   1      37.787  23.127  25.275  1.00  0.00     0.042 C 
ENDROOT
BRANCH   1   2
ATOM      2  C   UNL A   1      36.290  23.355  25.416  1.00  0.00     0.118 C 
BRANCH   2   3
ATOM      3  N   UNL A   1      35.812  23.173  26.771  1.00  0.00    -0.351 N 
ATOM      4  C   UNL A   1      34.563  22.808  27.195  1.00  0.00     0.284 C 
ATOM      5  O   UNL A   1      34.390  22.634  28.405  1.00  0.00    -0.268 OA
ATOM      6  H   UNL A   1      36.475  23.333  27.483  1.00  0.00     0.163 HD
BRANCH   4   7
ATOM      7  C   UNL A   1      33.408  22.696  26.178  1.00  0.00     0.328 C 
ATOM      8  N   UNL A   1      30.997  23.553  25.967  1.00  0.00    -0.321 N 
ATOM      9  C   UNL A   1      30.626  22.158  25.701  1.00  0.00     0.324 C 
ATOM     10  C   UNL A   1      32.296  23.671  26.642  1.00  0.00     0.339 C 
ATOM     11  H   UNL A   1      30.322  23.880  26.658  1.00  0.00     0.348 HD
ATOM     12  C   UNL A   1      31.768  21.231  25.227  1.00  0.00     0.323 C 
ATOM     13  N   UNL A   1      32.955  21.282  26.093  1.00  0.00    -0.327 N 
ATOM     14  H   UNL A   1      33.698  20.706  25.695  1.00  0.00     0.347 HD
ATOM     15  H   UNL A   1      32.729  20.928  27.022  1.00  0.00     0.347 HD
BRANCH   8  16
ATOM     16  C   UNL A   1      30.728  24.513  24.886  1.00  0.00     0.303 C 
BRANCH  16  17
ATOM     17  C   UNL A   1      31.459  25.836  24.931  1.00  0.00     0.049 A 
ATOM     18  C   UNL A   1      34.936  30.759  27.293  1.00  0.00     0.044 C 
ATOM     19  C   UNL A   1      33.892  29.763  26.883  1.00  0.00    -0.049 A 
ATOM     20  C   UNL A   1      32.719  29.651  27.627  1.00  0.00     0.004 A 
ATOM     21  C   UNL A   1      34.063  28.947  25.749  1.00  0.00     0.032 A 
ATOM     22  C   UNL A   1      31.770  28.697  27.277  1.00  0.00     0.010 A 
ATOM     23  C   UNL A   1      33.137  27.969  25.389  1.00  0.00     0.073 A 
ATOM     24  C   UNL A   1      32.001  27.825  26.201  1.00  0.00     0.001 A 
ATOM     25  N   UNL A   1      33.352  27.181  24.315  1.00  0.00    -0.230 NA
ATOM     26  C   UNL A   1      31.154  26.747  25.946  1.00  0.00     0.023 A 
ATOM     27  C   UNL A   1      32.502  26.159  24.053  1.00  0.00     0.138 A 
BRANCH  27  28
ATOM     28  N   UNL A   1      32.699  25.412  22.902  1.00  0.00    -0.352 N 
ATOM     29  C   UNL A   1      32.833  26.165  21.642  1.00  0.00     0.146 C 
ATOM     30  C   UNL A   1      33.586  24.249  22.958  1.00  0.00     0.146 C 
ATOM     31  C   UNL A   1      32.521  25.211  20.479  1.00  0.00     0.181 C 
ATOM     32  C   UNL A   1      33.272  23.353  21.744  1.00  0.00     0.181 C 
ATOM     33  O   UNL A   1      33.393  24.065  20.496  1.00  0.00    -0.378 OA
ENDBRANCH  27  28
ENDBRANCH  16  17
ENDBRANCH   8  16
ENDBRANCH   4   7
ENDBRANCH   2   3
ENDBRANCH   1   2
BRANCH   1  34
ATOM     34  C   UNL A   1      38.611  23.692  26.421  1.00  0.00     0.118 C 
BRANCH  34  35
ATOM     35  N   UNL A   1      40.040  23.759  26.129  1.00  0.00    -0.352 N 
ATOM     36  C   UNL A   1      40.998  24.651  26.557  1.00  0.00     0.251 C 
ATOM     37  H   UNL A   1      40.372  23.053  25.529  1.00  0.00     0.163 HD
ATOM     38  O   UNL A   1      42.134  24.578  26.094  1.00  0.00    -0.269 OA
BRANCH  36  39
ATOM     39  C   UNL A   1      40.658  25.717  27.528  1.00  0.00     0.039 A 
ATOM     40  C   UNL A   1      41.377  26.911  27.567  1.00  0.00     0.014 A 
ATOM     41  C   UNL A   1      39.617  25.507  28.438  1.00  0.00     0.014 A 
ATOM     42  C   UNL A   1      41.214  27.779  28.638  1.00  0.00     0.010 A 
ATOM     43  C   UNL A   1      39.375  26.442  29.451  1.00  0.00     0.010 A 
ATOM     44  C   UNL A   1      40.217  27.554  29.602  1.00  0.00    -0.014 A 
BRANCH  44  45
ATOM     45  C   UNL A   1      40.104  28.486  30.758  1.00  0.00     0.031 A 
ATOM     46  C   UNL A   1      41.084  28.419  31.903  1.00  0.00     0.074 A 
ATOM     47  C   UNL A   1      39.171  29.458  30.731  1.00  0.00     0.049 A 
ATOM     48  N   UNL A   1      41.165  29.184  32.963  1.00  0.00    -0.248 NA
ATOM     49  C   UNL A   1      42.104  27.358  31.859  1.00  0.00     0.031 C 
ATOM     50  C   UNL A   1      38.171  29.637  29.675  1.00  0.00     0.029 A 
ATOM     51  N   UNL A   1      38.934  30.504  31.587  1.00  0.00    -0.354 N 
ATOM     52  C   UNL A   1      42.221  28.686  33.717  1.00  0.00     0.074 A 
ATOM     53  C   UNL A   1      42.737  27.535  33.010  1.00  0.00     0.031 C 
ATOM     54  C   UNL A   1      37.485  30.766  29.902  1.00  0.00     0.029 A 
ATOM     55  C   UNL A   1      37.943  31.354  31.157  1.00  0.00     0.049 A 
ATOM     56  H   UNL A   1      39.427  30.633  32.429  1.00  0.00     0.167 HD
ATOM     57  C   UNL A   1      42.726  29.153  34.885  1.00  0.00     0.037 A 
ATOM     58  C   UNL A   1      37.448  32.478  31.709  1.00  0.00     0.037 A 
ATOM     59  C   UNL A   1      42.234  30.320  35.571  1.00  0.00     0.049 A 
ATOM     60  C   UNL A   1      38.006  32.959  33.017  1.00  0.00     0.074 A 
ATOM     61  C   UNL A   1      42.691  30.879  36.752  1.00  0.00     0.029 A 
ATOM     62  N   UNL A   1      41.183  31.112  35.136  1.00  0.00    -0.354 N 
ATOM     63  N   UNL A   1      38.994  32.462  33.721  1.00  0.00    -0.248 NA
ATOM     64  C   UNL A   1      37.369  34.139  33.616  1.00  0.00     0.031 C 
ATOM     65  C   UNL A   1      41.894  31.990  37.048  1.00  0.00     0.029 A 
ATOM     66  C   UNL A   1      40.966  32.145  36.032  1.00  0.00     0.049 A 
ATOM     67  H   UNL A   1      40.666  30.962  34.310  1.00  0.00     0.167 HD
ATOM     68  C   UNL A   1      39.100  33.269  34.846  1.00  0.00     0.074 A 
ATOM     69  C   UNL A   1      38.090  34.301  34.718  1.00  0.00     0.031 C 
ATOM     70  C   UNL A   1      39.951  33.160  35.895  1.00  0.00     0.037 A 
BRANCH  57  71
ATOM     71  C   UNL A   1      43.872  28.402  35.504  1.00  0.00     0.058 A 
ATOM     72  C   UNL A   1      45.205  28.694  35.178  1.00  0.00     0.135 A 
ATOM     73  C   UNL A   1      43.636  27.415  36.476  1.00  0.00     0.135 A 
ATOM     74  F   UNL A   1      45.486  29.615  34.243  1.00  0.00    -0.206 F 
ATOM     75  C   UNL A   1      46.264  28.021  35.780  1.00  0.00     0.059 A 
ATOM     76  C   UNL A   1      44.680  26.747  37.108  1.00  0.00     0.059 A 
ATOM     77  F   UNL A   1      42.378  27.098  36.825  1.00  0.00    -0.206 F 
ATOM     78  C   UNL A   1      45.992  27.049  36.744  1.00  0.00     0.060 A 
BRANCH  78  79
ATOM     79  S   UNL A   1      47.380  26.194  37.521  1.00  0.00     0.124 S 
ATOM     80  O   UNL A   1      48.514  26.948  36.997  1.00  0.00    -0.237 OA
ATOM     81  O   UNL A   1      47.101  26.376  38.942  1.00  0.00    -0.237 OA
ATOM     82  O   UNL A   1      47.255  24.825  37.029  1.00  0.00    -0.744 OA
ENDBRANCH  78  79
ENDBRANCH  57  71
BRANCH  58  83
ATOM     83  C   UNL A   1      36.361  33.218  31.017  1.00  0.00     0.058 A 
ATOM     84  C   UNL A   1      35.047  33.190  31.505  1.00  0.00     0.135 A 
ATOM     85  C   UNL A   1      36.624  34.002  29.884  1.00  0.00     0.135 A 
ATOM     86  F   UNL A   1      34.747  32.448  32.582  1.00  0.00    -0.206 F 
ATOM     87  C   UNL A   1      34.030  33.917  30.895  1.00  0.00     0.059 A 
ATOM     88  C   UNL A   1      35.630  34.757  29.272  1.00  0.00     0.059 A 
ATOM     89  F   UNL A   1      37.870  34.071  29.387  1.00  0.00    -0.206 F 
ATOM     90  C   UNL A   1      34.334  34.704  29.783  1.00  0.00     0.060 A 
BRANCH  90  91
ATOM     91  S   UNL A   1      33.024  35.705  29.044  1.00  0.00     0.124 S 
ATOM     92  O   UNL A   1      32.404  34.750  28.134  1.00  0.00    -0.237 OA
ATOM     93  O   UNL A   1      32.233  36.083  30.212  1.00  0.00    -0.237 OA
ATOM     94  O   UNL A   1      33.756  36.799  28.413  1.00  0.00    -0.744 OA
ENDBRANCH  90  91
ENDBRANCH  58  83
BRANCH  70  95
ATOM     95  C   UNL A   1      39.830  34.178  36.990  1.00  0.00     0.058 A 
ATOM     96  C   UNL A   1      40.307  35.487  36.821  1.00  0.00     0.135 A 
ATOM     97  C   UNL A   1      39.175  33.865  38.191  1.00  0.00     0.135 A 
ATOM     98  F   UNL A   1      40.949  35.833  35.694  1.00  0.00    -0.206 F 
ATOM     99  C   UNL A   1      40.148  36.450  37.813  1.00  0.00     0.059 A 
ATOM    100  C   UNL A   1      38.986  34.817  39.187  1.00  0.00     0.059 A 
ATOM    101  F   UNL A   1      38.695  32.627  38.395  1.00  0.00    -0.206 F 
ATOM    102  C   UNL A   1      39.482  36.106  38.991  1.00  0.00     0.060 A 
BRANCH 102 103
ATOM    103  S   UNL A   1      39.240  37.378  40.249  1.00  0.00     0.124 S 
ATOM    104  O   UNL A   1      40.615  37.689  40.621  1.00  0.00    -0.237 OA
ATOM    105  O   UNL A   1      38.533  38.419  39.507  1.00  0.00    -0.237 OA
ATOM    106  O   UNL A   1      38.450  36.699  41.271  1.00  0.00    -0.744 OA
ENDBRANCH 102 103
ENDBRANCH  70  95
ENDBRANCH  44  45
ENDBRANCH  36  39
ENDBRANCH  34  35
ENDBRANCH   1  34
TORSDOF 16
ENDMDL
MODEL 3
REMARK VINA RESULT:     -12.1      1.569      8.463
REMARK SMILES Cc1ccc2cc(C[N@H+]3CC[NH2+][C@H](C(=O)NCCCNC(=O)c4ccc(-c5c6nc(c(-c7c(F)cc(S(=O)(=O)[O-])cc7F)c7ccc([nH]7)c(-c7c(F)cc(S(=O)(=O)[O-])cc7F)c7nc(c(-c8c(F)cc(S(=O)(=O)[O-])cc8F)c8ccc5[nH]8)C=C7)C=C6)cc4)C3)c(N3CCOCC3)nc2c1
REMARK SMILES IDX 18 1 17 2 16 3 14 4 15 5 13 7 9 8 10 9 89 10 11 12 12 13
REMARK SMILES IDX 8 16 7 17 1 18 2 19 3 20 99 21 4 22 98 23 5 24 97 25 6 26
REMARK SMILES IDX 90 27 91 28 92 29 96 30 93 31 95 32 94 33 19 34 20 35 21 36
REMARK SMILES IDX 22 38 23 39 24 40 88 41 25 42 87 43 26 44 27 45 28 46 81 47
REMARK SMILES IDX 29 48 86 49 80 50 82 51 30 52 85 53 79 54 78 55 31 57 65 58
REMARK SMILES IDX 44 59 64 60 45 61 48 62 63 63 83 64 46 65 47 66 62 68 84 69
REMARK SMILES IDX 49 70 32 71 33 72 42 73 34 74 35 75 41 76 43 77 36 78 37 79
REMARK SMILES IDX 38 80 39 81 40 82 66 83 67 84 76 85 68 86 69 87 75 88 77 89
REMARK SMILES IDX 70 90 71 91 72 92 73 93 74 94 50 95 51 96 60 97 52 98 53 99
REMARK SMILES IDX 59 100 61 101 54 102 55 103 56 104 57 105 58 106
REMARK H PARENT 16 6 9 11 12 14 12 15 20 37 82 56 48 67
REMARK Flexibility Score: inf
ROOT
ATOM      1  C   UNL A   1      33.799  28.404  25.590  1.00  0.00     0.042 C 
ENDROOT
BRANCH   1   2
ATOM      2  C   UNL A   1      33.403  27.080  24.955  1.00  0.00     0.118 C 
BRANCH   2   3
ATOM      3  N   UNL A   1      31.970  26.927  24.805  1.00  0.00    -0.351 N 
ATOM      4  C   UNL A   1      31.205  25.809  24.997  1.00  0.00     0.284 C 
ATOM      5  O   UNL A   1      29.980  25.918  24.887  1.00  0.00    -0.268 OA
ATOM      6  H   UNL A   1      31.481  27.736  24.526  1.00  0.00     0.163 HD
BRANCH   4   7
ATOM      7  C   UNL A   1      31.884  24.450  25.269  1.00  0.00     0.328 C 
ATOM      8  N   UNL A   1      31.342  21.968  24.901  1.00  0.00    -0.321 N 
ATOM      9  C   UNL A   1      31.666  21.784  26.320  1.00  0.00     0.324 C 
ATOM     10  C   UNL A   1      31.028  23.363  24.571  1.00  0.00     0.339 C 
ATOM     11  H   UNL A   1      30.463  21.470  24.762  1.00  0.00     0.348 HD
ATOM     12  C   UNL A   1      32.535  22.888  26.965  1.00  0.00     0.323 C 
ATOM     13  N   UNL A   1      32.017  24.244  26.736  1.00  0.00    -0.327 N 
ATOM     14  H   UNL A   1      32.664  24.931  27.123  1.00  0.00     0.347 HD
ATOM     15  H   UNL A   1      31.111  24.356  27.190  1.00  0.00     0.347 HD
BRANCH   8  16
ATOM     16  C   UNL A   1      32.188  21.240  23.943  1.00  0.00     0.303 C 
BRANCH  16  17
ATOM     17  C   UNL A   1      33.679  21.231  24.196  1.00  0.00     0.049 A 
ATOM     18  C   UNL A   1      39.412  22.931  26.675  1.00  0.00     0.044 C 
ATOM     19  C   UNL A   1      38.135  22.775  25.907  1.00  0.00    -0.049 A 
ATOM     20  C   UNL A   1      37.603  23.868  25.225  1.00  0.00     0.004 A 
ATOM     21  C   UNL A   1      37.463  21.539  25.844  1.00  0.00     0.032 A 
ATOM     22  C   UNL A   1      36.396  23.739  24.549  1.00  0.00     0.010 A 
ATOM     23  C   UNL A   1      36.241  21.388  25.192  1.00  0.00     0.073 A 
ATOM     24  C   UNL A   1      35.691  22.524  24.578  1.00  0.00     0.001 A 
ATOM     25  N   UNL A   1      35.609  20.195  25.183  1.00  0.00    -0.230 NA
ATOM     26  C   UNL A   1      34.397  22.424  24.067  1.00  0.00     0.023 A 
ATOM     27  C   UNL A   1      34.368  20.098  24.649  1.00  0.00     0.138 A 
BRANCH  27  28
ATOM     28  N   UNL A   1      33.772  18.849  24.581  1.00  0.00    -0.352 N 
ATOM     29  C   UNL A   1      34.568  17.771  23.967  1.00  0.00     0.146 C 
ATOM     30  C   UNL A   1      32.978  18.382  25.719  1.00  0.00     0.146 C 
ATOM     31  C   UNL A   1      33.604  16.662  23.516  1.00  0.00     0.181 C 
ATOM     32  C   UNL A   1      32.070  17.238  25.228  1.00  0.00     0.181 C 
ATOM     33  O   UNL A   1      32.822  16.169  24.620  1.00  0.00    -0.378 OA
ENDBRANCH  27  28
ENDBRANCH  16  17
ENDBRANCH   8  16
ENDBRANCH   4   7
ENDBRANCH   2   3
ENDBRANCH   1   2
BRANCH   1  34
ATOM     34  C   UNL A   1      33.601  28.451  27.098  1.00  0.00     0.118 C 
BRANCH  34  35
ATOM     35  N   UNL A   1      33.609  29.807  27.640  1.00  0.00    -0.352 N 
ATOM     36  C   UNL A   1      34.625  30.527  28.228  1.00  0.00     0.251 C 
ATOM     37  H   UNL A   1      32.750  30.282  27.576  1.00  0.00     0.163 HD
ATOM     38  O   UNL A   1      34.375  31.628  28.714  1.00  0.00    -0.269 OA
BRANCH  36  39
ATOM     39  C   UNL A   1      35.994  29.969  28.318  1.00  0.00     0.039 A 
ATOM     40  C   UNL A   1      36.442  29.345  29.482  1.00  0.00     0.014 A 
ATOM     41  C   UNL A   1      36.858  30.096  27.226  1.00  0.00     0.014 A 
ATOM     42  C   UNL A   1      37.792  29.062  29.636  1.00  0.00     0.010 A 
ATOM     43  C   UNL A   1      38.196  29.701  27.343  1.00  0.00     0.010 A 
ATOM     44  C   UNL A   1      38.693  29.244  28.573  1.00  0.00    -0.014 A 
BRANCH  44  45
ATOM     45  C   UNL A   1      40.139  28.968  28.794  1.00  0.00     0.031 A 
ATOM     46  C   UNL A   1      41.006  29.951  29.542  1.00  0.00     0.074 A 
ATOM     47  C   UNL A   1      40.652  27.786  28.401  1.00  0.00     0.049 A 
ATOM     48  N   UNL A   1      42.271  29.849  29.869  1.00  0.00    -0.248 NA
ATOM     49  C   UNL A   1      40.380  31.210  29.978  1.00  0.00     0.031 C 
ATOM     50  C   UNL A   1      39.914  26.747  27.678  1.00  0.00     0.029 A 
ATOM     51  N   UNL A   1      41.895  27.236  28.587  1.00  0.00    -0.354 N 
ATOM     52  C   UNL A   1      42.595  31.031  30.524  1.00  0.00     0.074 A 
ATOM     53  C   UNL A   1      41.403  31.851  30.526  1.00  0.00     0.031 C 
ATOM     54  C   UNL A   1      40.689  25.661  27.553  1.00  0.00     0.029 A 
ATOM     55  C   UNL A   1      42.003  25.948  28.120  1.00  0.00     0.049 A 
ATOM     56  H   UNL A   1      42.639  27.719  29.014  1.00  0.00     0.167 HD
ATOM     57  C   UNL A   1      43.772  31.396  31.086  1.00  0.00     0.037 A 
ATOM     58  C   UNL A   1      43.041  25.090  28.137  1.00  0.00     0.037 A 
ATOM     59  C   UNL A   1      44.949  30.566  31.114  1.00  0.00     0.049 A 
ATOM     60  C   UNL A   1      44.344  25.529  28.741  1.00  0.00     0.074 A 
ATOM     61  C   UNL A   1      46.184  30.843  31.674  1.00  0.00     0.029 A 
ATOM     62  N   UNL A   1      45.035  29.294  30.569  1.00  0.00    -0.354 N 
ATOM     63  N   UNL A   1      44.631  26.659  29.341  1.00  0.00    -0.248 NA
ATOM     64  C   UNL A   1      45.467  24.587  28.653  1.00  0.00     0.031 C 
ATOM     65  C   UNL A   1      47.027  29.752  31.437  1.00  0.00     0.029 A 
ATOM     66  C   UNL A   1      46.306  28.780  30.764  1.00  0.00     0.049 A 
ATOM     67  H   UNL A   1      44.300  28.825  30.109  1.00  0.00     0.167 HD
ATOM     68  C   UNL A   1      45.969  26.564  29.703  1.00  0.00     0.074 A 
ATOM     69  C   UNL A   1      46.427  25.256  29.276  1.00  0.00     0.031 C 
ATOM     70  C   UNL A   1      46.749  27.481  30.326  1.00  0.00     0.037 A 
BRANCH  57  71
ATOM     71  C   UNL A   1      43.856  32.758  31.719  1.00  0.00     0.058 A 
ATOM     72  C   UNL A   1      44.182  33.899  30.971  1.00  0.00     0.135 A 
ATOM     73  C   UNL A   1      43.552  32.932  33.080  1.00  0.00     0.135 A 
ATOM     74  F   UNL A   1      44.497  33.787  29.671  1.00  0.00    -0.206 F 
ATOM     75  C   UNL A   1      44.222  35.162  31.552  1.00  0.00     0.059 A 
ATOM     76  C   UNL A   1      43.564  34.188  33.677  1.00  0.00     0.059 A 
ATOM     77  F   UNL A   1      43.234  31.872  33.842  1.00  0.00    -0.206 F 
ATOM     78  C   UNL A   1      43.912  35.298  32.906  1.00  0.00     0.060 A 
BRANCH  78  79
ATOM     79  S   UNL A   1      43.961  36.946  33.641  1.00  0.00     0.124 S 
ATOM     80  O   UNL A   1      42.725  36.954  34.418  1.00  0.00    -0.237 OA
ATOM     81  O   UNL A   1      45.196  36.904  34.417  1.00  0.00    -0.237 OA
ATOM     82  O   UNL A   1      43.979  37.835  32.483  1.00  0.00    -0.744 OA
ENDBRANCH  78  79
ENDBRANCH  57  71
BRANCH  58  83
ATOM     83  C   UNL A   1      42.880  23.732  27.558  1.00  0.00     0.058 A 
ATOM     84  C   UNL A   1      43.100  23.500  26.193  1.00  0.00     0.135 A 
ATOM     85  C   UNL A   1      42.549  22.633  28.365  1.00  0.00     0.135 A 
ATOM     86  F   UNL A   1      43.412  24.522  25.381  1.00  0.00    -0.206 F 
ATOM     87  C   UNL A   1      43.000  22.225  25.647  1.00  0.00     0.059 A 
ATOM     88  C   UNL A   1      42.468  21.345  27.847  1.00  0.00     0.059 A 
ATOM     89  F   UNL A   1      42.342  22.802  29.681  1.00  0.00    -0.206 F 
ATOM     90  C   UNL A   1      42.691  21.153  26.485  1.00  0.00     0.060 A 
BRANCH  90  91
ATOM     91  S   UNL A   1      42.640  19.489  25.782  1.00  0.00     0.124 S 
ATOM     92  O   UNL A   1      41.231  19.364  25.427  1.00  0.00    -0.237 OA
ATOM     93  O   UNL A   1      43.574  19.600  24.666  1.00  0.00    -0.237 OA
ATOM     94  O   UNL A   1      43.092  18.646  26.885  1.00  0.00    -0.744 OA
ENDBRANCH  90  91
ENDBRANCH  58  83
BRANCH  70  95
ATOM     95  C   UNL A   1      48.180  27.108  30.583  1.00  0.00     0.058 A 
ATOM     96  C   UNL A   1      49.200  27.480  29.694  1.00  0.00     0.135 A 
ATOM     97  C   UNL A   1      48.543  26.433  31.758  1.00  0.00     0.135 A 
ATOM     98  F   UNL A   1      48.901  28.120  28.553  1.00  0.00    -0.206 F 
ATOM     99  C   UNL A   1      50.533  27.185  29.957  1.00  0.00     0.059 A 
ATOM    100  C   UNL A   1      49.873  26.145  32.052  1.00  0.00     0.059 A 
ATOM    101  F   UNL A   1      47.603  26.062  32.643  1.00  0.00    -0.206 F 
ATOM    102  C   UNL A   1      50.860  26.521  31.141  1.00  0.00     0.060 A 
BRANCH 102 103
ATOM    103  S   UNL A   1      52.599  26.187  31.492  1.00  0.00     0.124 S 
ATOM    104  O   UNL A   1      53.182  26.228  30.155  1.00  0.00    -0.237 OA
ATOM    105  O   UNL A   1      52.957  27.295  32.374  1.00  0.00    -0.237 OA
ATOM    106  O   UNL A   1      52.572  24.873  32.126  1.00  0.00    -0.744 OA
ENDBRANCH 102 103
ENDBRANCH  70  95
ENDBRANCH  44  45
ENDBRANCH  36  39
ENDBRANCH  34  35
ENDBRANCH   1  34
TORSDOF 16
ENDMDL
