MODEL 1
REMARK VINA RESULT:     -12.3      0.000      0.000
REMARK SMILES CNC(=O)CCn1c(SCC(=O)NCCCNC(=O)c2ccc(-c3c4nc(c(-c5c(F)cc(S(=O)(=O)[O-])cc5F)c5ccc([nH]5)c(-c5c(F)cc(S(=O)(=O)[O-])cc5F)c5nc(c(-c6c(F)cc(S(=O)(=O)[O-])cc6F)c6ccc3[nH]6)C=C5)C=C4)cc2)nc2ccc(C)cc21
REMARK SMILES IDX 14 1 13 2 11 3 12 4 10 6 9 7 8 8 7 9 93 10 86 11 87 12 92 13
REMARK SMILES IDX 88 14 90 15 89 16 91 17 6 18 5 19 3 20 1 21 2 22 4 24 15 25
REMARK SMILES IDX 16 26 17 27 18 28 19 30 20 31 21 32 85 33 22 34 84 35 23 36
REMARK SMILES IDX 24 37 25 38 78 39 26 40 83 41 77 42 79 43 27 44 82 45 76 46
REMARK SMILES IDX 75 47 28 49 62 50 41 51 61 52 42 53 45 54 60 55 80 56 43 57
REMARK SMILES IDX 44 58 59 60 81 61 46 62 29 63 30 64 39 65 31 66 32 67 38 68
REMARK SMILES IDX 40 69 33 70 34 71 35 72 36 73 37 74 63 75 64 76 73 77 65 78
REMARK SMILES IDX 66 79 72 80 74 81 67 82 68 83 69 84 70 85 71 86 47 87 48 88
REMARK SMILES IDX 57 89 49 90 50 91 56 92 58 93 51 94 52 95 53 96 54 97 55 98
REMARK H PARENT 13 5 2 23 17 29 79 48 45 59
REMARK Flexibility Score: inf
ROOT
ATOM      1  C   UNL A   1      38.367  21.616  25.801  1.00  0.00     0.117 C 
ENDROOT
BRANCH   1   2
ATOM      2  N   UNL A   1      37.792  22.121  24.567  1.00  0.00    -0.355 N 
ATOM      3  C   UNL A   1      36.940  23.163  24.344  1.00  0.00     0.230 C 
ATOM      4  O   UNL A   1      36.723  23.462  23.165  1.00  0.00    -0.274 OA
ATOM      5  H   UNL A   1      38.061  21.630  23.758  1.00  0.00     0.163 HD
BRANCH   3   6
ATOM      6  C   UNL A   1      36.404  24.013  25.482  1.00  0.00     0.178 C 
BRANCH   6   7
ATOM      7  S   UNL A   1      34.626  24.351  25.423  1.00  0.00    -0.078 SA
BRANCH   7   8
ATOM      8  C   UNL A   1      33.960  22.821  24.979  1.00  0.00     0.169 A 
ATOM      9  N   UNL A   1      33.370  22.582  23.761  1.00  0.00    -0.318 N 
ATOM     10  C   UNL A   1      32.938  21.270  23.771  1.00  0.00     0.069 A 
ATOM     11  N   UNL A   1      34.003  21.743  25.724  1.00  0.00    -0.222 NA
ATOM     12  C   UNL A   1      33.410  20.762  24.976  1.00  0.00     0.090 A 
ATOM     13  C   UNL A   1      32.308  20.473  22.808  1.00  0.00     0.032 A 
ATOM     14  C   UNL A   1      33.291  19.390  25.236  1.00  0.00     0.031 A 
ATOM     15  C   UNL A   1      32.322  19.086  23.017  1.00  0.00    -0.049 A 
ATOM     16  C   UNL A   1      32.788  18.556  24.227  1.00  0.00     0.006 A 
ATOM     17  C   UNL A   1      31.993  18.186  21.858  1.00  0.00     0.044 C 
BRANCH   9  18
ATOM     18  C   UNL A   1      33.332  23.451  22.595  1.00  0.00     0.135 C 
BRANCH  18  19
ATOM     19  C   UNL A   1      32.185  24.464  22.623  1.00  0.00     0.122 C 
BRANCH  19  20
ATOM     20  C   UNL A   1      32.503  25.707  21.819  1.00  0.00     0.221 C 
ATOM     21  C   UNL A   1      30.566  27.081  22.733  1.00  0.00     0.142 C 
ATOM     22  N   UNL A   1      31.704  26.807  21.886  1.00  0.00    -0.359 N 
ATOM     23  H   UNL A   1      31.940  27.528  21.260  1.00  0.00     0.163 HD
ATOM     24  O   UNL A   1      33.515  25.764  21.117  1.00  0.00    -0.275 OA
ENDBRANCH  19  20
ENDBRANCH  18  19
ENDBRANCH   9  18
ENDBRANCH   7   8
ENDBRANCH   6   7
ENDBRANCH   3   6
ENDBRANCH   1   2
BRANCH   1  25
ATOM     25  C   UNL A   1      39.589  22.420  26.250  1.00  0.00     0.042 C 
BRANCH  25  26
ATOM     26  C   UNL A   1      40.913  21.661  26.140  1.00  0.00     0.118 C 
BRANCH  26  27
ATOM     27  N   UNL A   1      41.926  22.327  25.342  1.00  0.00    -0.352 N 
ATOM     28  C   UNL A   1      42.555  23.540  25.394  1.00  0.00     0.251 C 
ATOM     29  H   UNL A   1      42.231  21.776  24.585  1.00  0.00     0.163 HD
ATOM     30  O   UNL A   1      43.536  23.663  24.655  1.00  0.00    -0.269 OA
BRANCH  28  31
ATOM     31  C   UNL A   1      42.106  24.715  26.190  1.00  0.00     0.039 A 
ATOM     32  C   UNL A   1      41.412  25.817  25.693  1.00  0.00     0.014 A 
ATOM     33  C   UNL A   1      42.509  24.727  27.542  1.00  0.00     0.014 A 
ATOM     34  C   UNL A   1      41.240  26.948  26.486  1.00  0.00     0.010 A 
ATOM     35  C   UNL A   1      42.324  25.848  28.342  1.00  0.00     0.010 A 
ATOM     36  C   UNL A   1      41.743  26.982  27.791  1.00  0.00    -0.014 A 
BRANCH  36  37
ATOM     37  C   UNL A   1      41.545  28.202  28.568  1.00  0.00     0.031 A 
ATOM     38  C   UNL A   1      42.666  29.178  28.474  1.00  0.00     0.074 A 
ATOM     39  C   UNL A   1      40.425  28.483  29.267  1.00  0.00     0.049 A 
ATOM     40  N   UNL A   1      43.484  29.532  29.411  1.00  0.00    -0.248 NA
ATOM     41  C   UNL A   1      43.017  29.708  27.148  1.00  0.00     0.031 C 
ATOM     42  C   UNL A   1      39.148  27.770  29.275  1.00  0.00     0.029 A 
ATOM     43  N   UNL A   1      40.179  29.547  30.083  1.00  0.00    -0.354 N 
ATOM     44  C   UNL A   1      44.332  30.484  28.850  1.00  0.00     0.074 A 
ATOM     45  C   UNL A   1      44.100  30.435  27.429  1.00  0.00     0.031 C 
ATOM     46  C   UNL A   1      38.206  28.544  29.863  1.00  0.00     0.029 A 
ATOM     47  C   UNL A   1      38.836  29.745  30.387  1.00  0.00     0.049 A 
ATOM     48  H   UNL A   1      40.894  30.129  30.429  1.00  0.00     0.167 HD
ATOM     49  C   UNL A   1      45.020  31.370  29.623  1.00  0.00     0.037 A 
ATOM     50  C   UNL A   1      38.289  30.846  30.967  1.00  0.00     0.037 A 
ATOM     51  C   UNL A   1      45.080  30.924  30.993  1.00  0.00     0.049 A 
ATOM     52  C   UNL A   1      39.383  31.527  31.716  1.00  0.00     0.074 A 
ATOM     53  C   UNL A   1      45.588  29.802  31.620  1.00  0.00     0.029 A 
ATOM     54  N   UNL A   1      44.233  31.507  31.905  1.00  0.00    -0.354 N 
ATOM     55  N   UNL A   1      39.973  31.008  32.762  1.00  0.00    -0.248 NA
ATOM     56  C   UNL A   1      40.150  32.544  31.010  1.00  0.00     0.031 C 
ATOM     57  C   UNL A   1      44.641  29.493  32.637  1.00  0.00     0.029 A 
ATOM     58  C   UNL A   1      43.660  30.486  32.619  1.00  0.00     0.049 A 
ATOM     59  H   UNL A   1      44.070  32.471  32.023  1.00  0.00     0.167 HD
ATOM     60  C   UNL A   1      41.318  31.305  32.594  1.00  0.00     0.074 A 
ATOM     61  C   UNL A   1      41.357  32.308  31.531  1.00  0.00     0.031 C 
ATOM     62  C   UNL A   1      42.302  30.516  33.122  1.00  0.00     0.037 A 
BRANCH  49  63
ATOM     63  C   UNL A   1      45.347  32.792  29.227  1.00  0.00     0.058 A 
ATOM     64  C   UNL A   1      44.304  33.653  28.825  1.00  0.00     0.135 A 
ATOM     65  C   UNL A   1      46.653  33.250  28.945  1.00  0.00     0.135 A 
ATOM     66  F   UNL A   1      43.020  33.328  29.050  1.00  0.00    -0.206 F 
ATOM     67  C   UNL A   1      44.536  34.828  28.108  1.00  0.00     0.059 A 
ATOM     68  C   UNL A   1      46.909  34.442  28.277  1.00  0.00     0.059 A 
ATOM     69  F   UNL A   1      47.742  32.521  29.214  1.00  0.00    -0.206 F 
ATOM     70  C   UNL A   1      45.843  35.201  27.821  1.00  0.00     0.060 A 
BRANCH  70  71
ATOM     71  S   UNL A   1      46.146  36.647  26.790  1.00  0.00     0.124 S 
ATOM     72  O   UNL A   1      47.181  37.337  27.557  1.00  0.00    -0.237 OA
ATOM     73  O   UNL A   1      46.587  36.032  25.538  1.00  0.00    -0.237 OA
ATOM     74  O   UNL A   1      44.851  37.305  26.740  1.00  0.00    -0.744 OA
ENDBRANCH  70  71
ENDBRANCH  49  63
BRANCH  50  75
ATOM     75  C   UNL A   1      37.022  31.533  30.567  1.00  0.00     0.058 A 
ATOM     76  C   UNL A   1      36.005  31.818  31.500  1.00  0.00     0.135 A 
ATOM     77  C   UNL A   1      36.889  32.166  29.313  1.00  0.00     0.135 A 
ATOM     78  F   UNL A   1      36.050  31.283  32.730  1.00  0.00    -0.206 F 
ATOM     79  C   UNL A   1      34.955  32.708  31.222  1.00  0.00     0.059 A 
ATOM     80  C   UNL A   1      35.849  33.045  29.010  1.00  0.00     0.059 A 
ATOM     81  F   UNL A   1      37.822  32.025  28.360  1.00  0.00    -0.206 F 
ATOM     82  C   UNL A   1      34.898  33.333  29.977  1.00  0.00     0.060 A 
BRANCH  82  83
ATOM     83  S   UNL A   1      33.650  34.604  29.659  1.00  0.00     0.124 S 
ATOM     84  O   UNL A   1      34.425  35.622  28.958  1.00  0.00    -0.237 OA
ATOM     85  O   UNL A   1      32.671  33.880  28.855  1.00  0.00    -0.237 OA
ATOM     86  O   UNL A   1      33.197  34.979  30.996  1.00  0.00    -0.744 OA
ENDBRANCH  82  83
ENDBRANCH  50  75
BRANCH  62  87
ATOM     87  C   UNL A   1      41.940  29.434  34.107  1.00  0.00     0.058 A 
ATOM     88  C   UNL A   1      41.511  28.144  33.745  1.00  0.00     0.135 A 
ATOM     89  C   UNL A   1      42.253  29.644  35.460  1.00  0.00     0.135 A 
ATOM     90  F   UNL A   1      41.286  27.826  32.463  1.00  0.00    -0.206 F 
ATOM     91  C   UNL A   1      41.384  27.119  34.686  1.00  0.00     0.059 A 
ATOM     92  C   UNL A   1      42.167  28.628  36.409  1.00  0.00     0.059 A 
ATOM     93  F   UNL A   1      42.726  30.836  35.863  1.00  0.00    -0.206 F 
ATOM     94  C   UNL A   1      41.728  27.367  36.015  1.00  0.00     0.060 A 
BRANCH  94  95
ATOM     95  S   UNL A   1      41.675  26.009  37.205  1.00  0.00     0.124 S 
ATOM     96  O   UNL A   1      40.315  26.105  37.722  1.00  0.00    -0.237 OA
ATOM     97  O   UNL A   1      41.955  24.845  36.367  1.00  0.00    -0.237 OA
ATOM     98  O   UNL A   1      42.730  26.346  38.157  1.00  0.00    -0.744 OA
ENDBRANCH  94  95
ENDBRANCH  62  87
ENDBRANCH  36  37
ENDBRANCH  28  31
ENDBRANCH  26  27
ENDBRANCH  25  26
ENDBRANCH   1  25
TORSDOF 18
ENDMDL
MODEL 2
REMARK VINA RESULT:     -12.2      2.778      9.317
REMARK SMILES CNC(=O)CCn1c(SCC(=O)NCCCNC(=O)c2ccc(-c3c4nc(c(-c5c(F)cc(S(=O)(=O)[O-])cc5F)c5ccc([nH]5)c(-c5c(F)cc(S(=O)(=O)[O-])cc5F)c5nc(c(-c6c(F)cc(S(=O)(=O)[O-])cc6F)c6ccc3[nH]6)C=C5)C=C4)cc2)nc2ccc(C)cc21
REMARK SMILES IDX 14 1 13 2 11 3 12 4 10 6 9 7 8 8 7 9 93 10 86 11 87 12 92 13
REMARK SMILES IDX 88 14 90 15 89 16 91 17 6 18 5 19 3 20 1 21 2 22 4 24 15 25
REMARK SMILES IDX 16 26 17 27 18 28 19 30 20 31 21 32 85 33 22 34 84 35 23 36
REMARK SMILES IDX 24 37 25 38 78 39 26 40 83 41 77 42 79 43 27 44 82 45 76 46
REMARK SMILES IDX 75 47 28 49 62 50 41 51 61 52 42 53 45 54 60 55 80 56 43 57
REMARK SMILES IDX 44 58 59 60 81 61 46 62 29 63 30 64 39 65 31 66 32 67 38 68
REMARK SMILES IDX 40 69 33 70 34 71 35 72 36 73 37 74 63 75 64 76 73 77 65 78
REMARK SMILES IDX 66 79 72 80 74 81 67 82 68 83 69 84 70 85 71 86 47 87 48 88
REMARK SMILES IDX 57 89 49 90 50 91 56 92 58 93 51 94 52 95 53 96 54 97 55 98
REMARK H PARENT 13 5 2 23 17 29 79 48 45 59
REMARK Flexibility Score: inf
ROOT
ATOM      1  C   UNL A   1      32.570  27.416  26.342  1.00  0.00     0.117 C 
ENDROOT
BRANCH   1   2
ATOM      2  N   UNL A   1      31.792  26.305  26.861  1.00  0.00    -0.355 N 
ATOM      3  C   UNL A   1      31.646  25.030  26.401  1.00  0.00     0.230 C 
ATOM      4  O   UNL A   1      31.030  24.242  27.127  1.00  0.00    -0.274 OA
ATOM      5  H   UNL A   1      31.286  26.506  27.681  1.00  0.00     0.163 HD
BRANCH   3   6
ATOM      6  C   UNL A   1      32.335  24.555  25.133  1.00  0.00     0.178 C 
BRANCH   6   7
ATOM      7  S   UNL A   1      34.013  23.915  25.359  1.00  0.00    -0.078 SA
BRANCH   7   8
ATOM      8  C   UNL A   1      33.856  22.258  24.899  1.00  0.00     0.169 A 
ATOM      9  N   UNL A   1      34.826  21.314  25.142  1.00  0.00    -0.318 N 
ATOM     10  C   UNL A   1      34.369  20.121  24.620  1.00  0.00     0.069 A 
ATOM     11  N   UNL A   1      32.794  21.736  24.334  1.00  0.00    -0.222 NA
ATOM     12  C   UNL A   1      33.078  20.405  24.190  1.00  0.00     0.090 A 
ATOM     13  C   UNL A   1      34.905  18.828  24.602  1.00  0.00     0.032 A 
ATOM     14  C   UNL A   1      32.254  19.359  23.752  1.00  0.00     0.031 A 
ATOM     15  C   UNL A   1      34.028  17.776  24.298  1.00  0.00    -0.049 A 
ATOM     16  C   UNL A   1      32.726  18.043  23.857  1.00  0.00     0.006 A 
ATOM     17  C   UNL A   1      34.459  16.372  24.621  1.00  0.00     0.044 C 
BRANCH   9  18
ATOM     18  C   UNL A   1      36.036  21.454  25.938  1.00  0.00     0.135 C 
BRANCH  18  19
ATOM     19  C   UNL A   1      37.273  21.817  25.114  1.00  0.00     0.122 C 
BRANCH  19  20
ATOM     20  C   UNL A   1      38.121  22.871  25.792  1.00  0.00     0.221 C 
ATOM     21  C   UNL A   1      40.055  21.309  26.332  1.00  0.00     0.142 C 
ATOM     22  N   UNL A   1      39.319  22.552  26.352  1.00  0.00    -0.359 N 
ATOM     23  H   UNL A   1      39.752  23.283  26.848  1.00  0.00     0.163 HD
ATOM     24  O   UNL A   1      37.763  24.051  25.816  1.00  0.00    -0.275 OA
ENDBRANCH  19  20
ENDBRANCH  18  19
ENDBRANCH   9  18
ENDBRANCH   7   8
ENDBRANCH   6   7
ENDBRANCH   3   6
ENDBRANCH   1   2
BRANCH   1  25
ATOM     25  C   UNL A   1      32.816  28.501  27.391  1.00  0.00     0.042 C 
BRANCH  25  26
ATOM     26  C   UNL A   1      33.297  29.834  26.815  1.00  0.00     0.118 C 
BRANCH  26  27
ATOM     27  N   UNL A   1      33.546  30.865  27.805  1.00  0.00    -0.352 N 
ATOM     28  C   UNL A   1      34.664  31.398  28.386  1.00  0.00     0.251 C 
ATOM     29  H   UNL A   1      32.716  31.277  28.136  1.00  0.00     0.163 HD
ATOM     30  O   UNL A   1      34.484  32.432  29.036  1.00  0.00    -0.269 OA
BRANCH  28  31
ATOM     31  C   UNL A   1      36.024  30.795  28.360  1.00  0.00     0.039 A 
ATOM     32  C   UNL A   1      36.324  29.480  28.009  1.00  0.00     0.014 A 
ATOM     33  C   UNL A   1      37.068  31.623  28.822  1.00  0.00     0.014 A 
ATOM     34  C   UNL A   1      37.600  28.971  28.235  1.00  0.00     0.010 A 
ATOM     35  C   UNL A   1      38.348  31.124  29.032  1.00  0.00     0.010 A 
ATOM     36  C   UNL A   1      38.596  29.779  28.794  1.00  0.00    -0.014 A 
BRANCH  36  37
ATOM     37  C   UNL A   1      39.910  29.185  29.021  1.00  0.00     0.031 A 
ATOM     38  C   UNL A   1      40.263  29.005  30.457  1.00  0.00     0.074 A 
ATOM     39  C   UNL A   1      40.730  28.762  28.037  1.00  0.00     0.049 A 
ATOM     40  N   UNL A   1      41.184  29.619  31.125  1.00  0.00    -0.248 NA
ATOM     41  C   UNL A   1      39.392  28.158  31.285  1.00  0.00     0.031 C 
ATOM     42  C   UNL A   1      40.454  28.633  26.606  1.00  0.00     0.029 A 
ATOM     43  N   UNL A   1      41.999  28.273  28.142  1.00  0.00    -0.354 N 
ATOM     44  C   UNL A   1      41.148  29.091  32.414  1.00  0.00     0.074 A 
ATOM     45  C   UNL A   1      39.935  28.319  32.494  1.00  0.00     0.031 C 
ATOM     46  C   UNL A   1      41.427  27.892  26.026  1.00  0.00     0.029 A 
ATOM     47  C   UNL A   1      42.458  27.606  27.011  1.00  0.00     0.049 A 
ATOM     48  H   UNL A   1      42.547  28.385  28.952  1.00  0.00     0.167 HD
ATOM     49  C   UNL A   1      42.220  29.180  33.251  1.00  0.00     0.037 A 
ATOM     50  C   UNL A   1      43.568  26.825  26.923  1.00  0.00     0.037 A 
ATOM     51  C   UNL A   1      43.142  30.194  32.806  1.00  0.00     0.049 A 
ATOM     52  C   UNL A   1      44.482  27.253  28.021  1.00  0.00     0.074 A 
ATOM     53  C   UNL A   1      43.046  31.557  32.593  1.00  0.00     0.029 A 
ATOM     54  N   UNL A   1      44.282  29.795  32.150  1.00  0.00    -0.354 N 
ATOM     55  N   UNL A   1      45.053  28.428  28.067  1.00  0.00    -0.248 NA
ATOM     56  C   UNL A   1      44.363  26.567  29.300  1.00  0.00     0.031 C 
ATOM     57  C   UNL A   1      43.815  31.796  31.418  1.00  0.00     0.029 A 
ATOM     58  C   UNL A   1      44.392  30.584  31.034  1.00  0.00     0.049 A 
ATOM     59  H   UNL A   1      44.901  29.082  32.429  1.00  0.00     0.167 HD
ATOM     60  C   UNL A   1      44.970  28.811  29.399  1.00  0.00     0.074 A 
ATOM     61  C   UNL A   1      44.594  27.596  30.121  1.00  0.00     0.031 C 
ATOM     62  C   UNL A   1      44.932  30.125  29.772  1.00  0.00     0.037 A 
BRANCH  49  63
ATOM     63  C   UNL A   1      42.608  28.135  34.272  1.00  0.00     0.058 A 
ATOM     64  C   UNL A   1      42.707  28.502  35.632  1.00  0.00     0.135 A 
ATOM     65  C   UNL A   1      43.168  26.881  33.941  1.00  0.00     0.135 A 
ATOM     66  F   UNL A   1      42.201  29.668  36.066  1.00  0.00    -0.206 F 
ATOM     67  C   UNL A   1      43.396  27.730  36.568  1.00  0.00     0.059 A 
ATOM     68  C   UNL A   1      43.815  26.072  34.869  1.00  0.00     0.059 A 
ATOM     69  F   UNL A   1      43.202  26.420  32.686  1.00  0.00    -0.206 F 
ATOM     70  C   UNL A   1      43.965  26.526  36.170  1.00  0.00     0.060 A 
BRANCH  70  71
ATOM     71  S   UNL A   1      44.962  25.588  37.339  1.00  0.00     0.124 S 
ATOM     72  O   UNL A   1      44.125  25.637  38.537  1.00  0.00    -0.237 OA
ATOM     73  O   UNL A   1      45.050  24.285  36.679  1.00  0.00    -0.237 OA
ATOM     74  O   UNL A   1      46.205  26.338  37.405  1.00  0.00    -0.744 OA
ENDBRANCH  70  71
ENDBRANCH  49  63
BRANCH  50  75
ATOM     75  C   UNL A   1      43.681  25.504  26.234  1.00  0.00     0.058 A 
ATOM     76  C   UNL A   1      44.720  25.227  25.323  1.00  0.00     0.135 A 
ATOM     77  C   UNL A   1      42.928  24.385  26.651  1.00  0.00     0.135 A 
ATOM     78  F   UNL A   1      45.510  26.219  24.881  1.00  0.00    -0.206 F 
ATOM     79  C   UNL A   1      45.020  23.925  24.893  1.00  0.00     0.059 A 
ATOM     80  C   UNL A   1      43.199  23.084  26.230  1.00  0.00     0.059 A 
ATOM     81  F   UNL A   1      41.951  24.505  27.561  1.00  0.00    -0.206 F 
ATOM     82  C   UNL A   1      44.264  22.855  25.370  1.00  0.00     0.060 A 
BRANCH  82  83
ATOM     83  S   UNL A   1      44.737  21.158  24.959  1.00  0.00     0.124 S 
ATOM     84  O   UNL A   1      44.587  21.143  23.507  1.00  0.00    -0.237 OA
ATOM     85  O   UNL A   1      46.105  21.088  25.460  1.00  0.00    -0.237 OA
ATOM     86  O   UNL A   1      43.767  20.347  25.692  1.00  0.00    -0.744 OA
ENDBRANCH  82  83
ENDBRANCH  50  75
BRANCH  62  87
ATOM     87  C   UNL A   1      45.224  31.196  28.751  1.00  0.00     0.058 A 
ATOM     88  C   UNL A   1      44.285  31.684  27.824  1.00  0.00     0.135 A 
ATOM     89  C   UNL A   1      46.430  31.905  28.868  1.00  0.00     0.135 A 
ATOM     90  F   UNL A   1      43.069  31.131  27.716  1.00  0.00    -0.206 F 
ATOM     91  C   UNL A   1      44.542  32.812  27.040  1.00  0.00     0.059 A 
ATOM     92  C   UNL A   1      46.694  33.051  28.122  1.00  0.00     0.059 A 
ATOM     93  F   UNL A   1      47.346  31.528  29.777  1.00  0.00    -0.206 F 
ATOM     94  C   UNL A   1      45.745  33.498  27.206  1.00  0.00     0.060 A 
BRANCH  94  95
ATOM     95  S   UNL A   1      46.024  35.022  26.277  1.00  0.00     0.124 S 
ATOM     96  O   UNL A   1      47.284  35.498  26.837  1.00  0.00    -0.237 OA
ATOM     97  O   UNL A   1      46.082  34.544  24.898  1.00  0.00    -0.237 OA
ATOM     98  O   UNL A   1      44.854  35.836  26.595  1.00  0.00    -0.744 OA
ENDBRANCH  94  95
ENDBRANCH  62  87
ENDBRANCH  36  37
ENDBRANCH  28  31
ENDBRANCH  26  27
ENDBRANCH  25  26
ENDBRANCH   1  25
TORSDOF 18
ENDMDL
MODEL 3
REMARK VINA RESULT:     -12.1      2.768      9.354
REMARK SMILES CNC(=O)CCn1c(SCC(=O)NCCCNC(=O)c2ccc(-c3c4nc(c(-c5c(F)cc(S(=O)(=O)[O-])cc5F)c5ccc([nH]5)c(-c5c(F)cc(S(=O)(=O)[O-])cc5F)c5nc(c(-c6c(F)cc(S(=O)(=O)[O-])cc6F)c6ccc3[nH]6)C=C5)C=C4)cc2)nc2ccc(C)cc21
REMARK SMILES IDX 14 1 13 2 11 3 12 4 10 6 9 7 8 8 7 9 93 10 86 11 87 12 92 13
REMARK SMILES IDX 88 14 90 15 89 16 91 17 6 18 5 19 3 20 1 21 2 22 4 24 15 25
REMARK SMILES IDX 16 26 17 27 18 28 19 30 20 31 21 32 85 33 22 34 84 35 23 36
REMARK SMILES IDX 24 37 25 38 78 39 26 40 83 41 77 42 79 43 27 44 82 45 76 46
REMARK SMILES IDX 75 47 28 49 62 50 41 51 61 52 42 53 45 54 60 55 80 56 43 57
REMARK SMILES IDX 44 58 59 60 81 61 46 62 29 63 30 64 39 65 31 66 32 67 38 68
REMARK SMILES IDX 40 69 33 70 34 71 35 72 36 73 37 74 63 75 64 76 73 77 65 78
REMARK SMILES IDX 66 79 72 80 74 81 67 82 68 83 69 84 70 85 71 86 47 87 48 88
REMARK SMILES IDX 57 89 49 90 50 91 56 92 58 93 51 94 52 95 53 96 54 97 55 98
REMARK H PARENT 13 5 2 23 17 29 79 48 45 59
REMARK Flexibility Score: inf
ROOT
ATOM      1  C   UNL A   1      32.071  28.056  26.100  1.00  0.00     0.117 C 
ENDROOT
BRANCH   1   2
ATOM      2  N   UNL A   1      33.088  28.127  25.064  1.00  0.00    -0.355 N 
ATOM      3  C   UNL A   1      33.067  27.705  23.768  1.00  0.00     0.230 C 
ATOM      4  O   UNL A   1      34.029  28.025  23.062  1.00  0.00    -0.274 OA
ATOM      5  H   UNL A   1      33.931  28.549  25.345  1.00  0.00     0.163 HD
BRANCH   3   6
ATOM      6  C   UNL A   1      31.854  27.009  23.174  1.00  0.00     0.178 C 
BRANCH   6   7
ATOM      7  S   UNL A   1      31.544  25.336  23.794  1.00  0.00    -0.078 SA
BRANCH   7   8
ATOM      8  C   UNL A   1      33.130  24.657  23.874  1.00  0.00     0.169 A 
ATOM      9  N   UNL A   1      33.810  24.472  25.054  1.00  0.00    -0.318 N 
ATOM     10  C   UNL A   1      35.040  23.935  24.732  1.00  0.00     0.069 A 
ATOM     11  N   UNL A   1      33.804  24.208  22.843  1.00  0.00    -0.222 NA
ATOM     12  C   UNL A   1      34.974  23.721  23.360  1.00  0.00     0.090 A 
ATOM     13  C   UNL A   1      36.123  23.513  25.512  1.00  0.00     0.032 A 
ATOM     14  C   UNL A   1      36.009  23.022  22.723  1.00  0.00     0.031 A 
ATOM     15  C   UNL A   1      37.079  22.695  24.891  1.00  0.00    -0.049 A 
ATOM     16  C   UNL A   1      37.032  22.473  23.509  1.00  0.00     0.006 A 
ATOM     17  C   UNL A   1      38.039  21.932  25.762  1.00  0.00     0.044 C 
BRANCH   9  18
ATOM     18  C   UNL A   1      33.313  24.633  26.412  1.00  0.00     0.135 C 
BRANCH  18  19
ATOM     19  C   UNL A   1      32.913  23.316  27.079  1.00  0.00     0.122 C 
BRANCH  19  20
ATOM     20  C   UNL A   1      31.484  22.929  26.765  1.00  0.00     0.221 C 
ATOM     21  C   UNL A   1      32.092  21.098  25.105  1.00  0.00     0.142 C 
ATOM     22  N   UNL A   1      31.205  21.971  25.839  1.00  0.00    -0.359 N 
ATOM     23  H   UNL A   1      30.248  21.856  25.639  1.00  0.00     0.163 HD
ATOM     24  O   UNL A   1      30.542  23.444  27.371  1.00  0.00    -0.275 OA
ENDBRANCH  19  20
ENDBRANCH  18  19
ENDBRANCH   9  18
ENDBRANCH   7   8
ENDBRANCH   6   7
ENDBRANCH   3   6
ENDBRANCH   1   2
BRANCH   1  25
ATOM     25  C   UNL A   1      32.343  29.021  27.254  1.00  0.00     0.042 C 
BRANCH  25  26
ATOM     26  C   UNL A   1      33.201  30.229  26.873  1.00  0.00     0.118 C 
BRANCH  26  27
ATOM     27  N   UNL A   1      33.436  31.168  27.954  1.00  0.00    -0.352 N 
ATOM     28  C   UNL A   1      34.543  31.630  28.611  1.00  0.00     0.251 C 
ATOM     29  H   UNL A   1      32.602  31.566  28.295  1.00  0.00     0.163 HD
ATOM     30  O   UNL A   1      34.359  32.608  29.342  1.00  0.00    -0.269 OA
BRANCH  28  31
ATOM     31  C   UNL A   1      35.894  31.006  28.575  1.00  0.00     0.039 A 
ATOM     32  C   UNL A   1      36.162  29.660  28.330  1.00  0.00     0.014 A 
ATOM     33  C   UNL A   1      36.968  31.856  28.909  1.00  0.00     0.014 A 
ATOM     34  C   UNL A   1      37.442  29.154  28.539  1.00  0.00     0.010 A 
ATOM     35  C   UNL A   1      38.252  31.358  29.102  1.00  0.00     0.010 A 
ATOM     36  C   UNL A   1      38.473  29.994  28.975  1.00  0.00    -0.014 A 
BRANCH  36  37
ATOM     37  C   UNL A   1      39.790  29.402  29.191  1.00  0.00     0.031 A 
ATOM     38  C   UNL A   1      40.118  29.139  30.619  1.00  0.00     0.074 A 
ATOM     39  C   UNL A   1      40.635  29.050  28.199  1.00  0.00     0.049 A 
ATOM     40  N   UNL A   1      41.018  29.721  31.342  1.00  0.00    -0.248 NA
ATOM     41  C   UNL A   1      39.242  28.232  31.377  1.00  0.00     0.031 C 
ATOM     42  C   UNL A   1      40.388  29.007  26.758  1.00  0.00     0.029 A 
ATOM     43  N   UNL A   1      41.908  28.571  28.299  1.00  0.00    -0.354 N 
ATOM     44  C   UNL A   1      40.965  29.114  32.595  1.00  0.00     0.074 A 
ATOM     45  C   UNL A   1      39.760  28.324  32.604  1.00  0.00     0.031 C 
ATOM     46  C   UNL A   1      41.381  28.314  26.153  1.00  0.00     0.029 A 
ATOM     47  C   UNL A   1      42.396  27.980  27.139  1.00  0.00     0.049 A 
ATOM     48  H   UNL A   1      42.438  28.639  29.125  1.00  0.00     0.167 HD
ATOM     49  C   UNL A   1      42.019  29.164  33.457  1.00  0.00     0.037 A 
ATOM     50  C   UNL A   1      43.518  27.220  27.025  1.00  0.00     0.037 A 
ATOM     51  C   UNL A   1      42.936  30.215  33.094  1.00  0.00     0.049 A 
ATOM     52  C   UNL A   1      44.405  27.590  28.165  1.00  0.00     0.074 A 
ATOM     53  C   UNL A   1      42.826  31.587  32.963  1.00  0.00     0.029 A 
ATOM     54  N   UNL A   1      44.094  29.870  32.437  1.00  0.00    -0.354 N 
ATOM     55  N   UNL A   1      44.960  28.766  28.295  1.00  0.00    -0.248 NA
ATOM     56  C   UNL A   1      44.271  26.825  29.397  1.00  0.00     0.031 C 
ATOM     57  C   UNL A   1      43.614  31.907  31.820  1.00  0.00     0.029 A 
ATOM     58  C   UNL A   1      44.215  30.728  31.374  1.00  0.00     0.049 A 
ATOM     59  H   UNL A   1      44.716  29.148  32.684  1.00  0.00     0.167 HD
ATOM     60  C   UNL A   1      44.847  29.065  29.645  1.00  0.00     0.074 A 
ATOM     61  C   UNL A   1      44.472  27.804  30.284  1.00  0.00     0.031 C 
ATOM     62  C   UNL A   1      44.784  30.354  30.097  1.00  0.00     0.037 A 
BRANCH  49  63
ATOM     63  C   UNL A   1      42.401  28.063  34.420  1.00  0.00     0.058 A 
ATOM     64  C   UNL A   1      42.447  28.341  35.804  1.00  0.00     0.135 A 
ATOM     65  C   UNL A   1      43.002  26.847  34.027  1.00  0.00     0.135 A 
ATOM     66  F   UNL A   1      41.898  29.463  36.296  1.00  0.00    -0.206 F 
ATOM     67  C   UNL A   1      43.126  27.525  36.709  1.00  0.00     0.059 A 
ATOM     68  C   UNL A   1      43.640  25.994  34.920  1.00  0.00     0.059 A 
ATOM     69  F   UNL A   1      43.089  26.472  32.745  1.00  0.00    -0.206 F 
ATOM     70  C   UNL A   1      43.737  26.364  36.252  1.00  0.00     0.060 A 
BRANCH  70  71
ATOM     71  S   UNL A   1      44.721  25.374  37.390  1.00  0.00     0.124 S 
ATOM     72  O   UNL A   1      44.020  25.603  38.653  1.00  0.00    -0.237 OA
ATOM     73  O   UNL A   1      44.578  24.034  36.820  1.00  0.00    -0.237 OA
ATOM     74  O   UNL A   1      46.048  25.957  37.290  1.00  0.00    -0.744 OA
ENDBRANCH  70  71
ENDBRANCH  49  63
BRANCH  50  75
ATOM     75  C   UNL A   1      43.661  25.944  26.258  1.00  0.00     0.058 A 
ATOM     76  C   UNL A   1      44.750  25.716  25.393  1.00  0.00     0.135 A 
ATOM     77  C   UNL A   1      42.877  24.810  26.558  1.00  0.00     0.135 A 
ATOM     78  F   UNL A   1      45.571  26.725  25.063  1.00  0.00    -0.206 F 
ATOM     79  C   UNL A   1      45.065  24.440  24.898  1.00  0.00     0.059 A 
ATOM     80  C   UNL A   1      43.162  23.535  26.068  1.00  0.00     0.059 A 
ATOM     81  F   UNL A   1      41.848  24.881  27.415  1.00  0.00    -0.206 F 
ATOM     82  C   UNL A   1      44.274  23.351  25.259  1.00  0.00     0.060 A 
BRANCH  82  83
ATOM     83  S   UNL A   1      44.757  21.678  24.765  1.00  0.00     0.124 S 
ATOM     84  O   UNL A   1      44.810  21.793  23.312  1.00  0.00    -0.237 OA
ATOM     85  O   UNL A   1      46.041  21.517  25.440  1.00  0.00    -0.237 OA
ATOM     86  O   UNL A   1      43.676  20.844  25.284  1.00  0.00    -0.744 OA
ENDBRANCH  82  83
ENDBRANCH  50  75
BRANCH  62  87
ATOM     87  C   UNL A   1      45.082  31.488  29.150  1.00  0.00     0.058 A 
ATOM     88  C   UNL A   1      46.376  31.955  28.855  1.00  0.00     0.135 A 
ATOM     89  C   UNL A   1      44.035  31.968  28.346  1.00  0.00     0.135 A 
ATOM     90  F   UNL A   1      47.447  31.476  29.503  1.00  0.00    -0.206 F 
ATOM     91  C   UNL A   1      46.613  32.866  27.822  1.00  0.00     0.059 A 
ATOM     92  C   UNL A   1      44.252  32.850  27.291  1.00  0.00     0.059 A 
ATOM     93  F   UNL A   1      42.782  31.517  28.536  1.00  0.00    -0.206 F 
ATOM     94  C   UNL A   1      45.545  33.298  27.036  1.00  0.00     0.060 A 
BRANCH  94  95
ATOM     95  S   UNL A   1      45.871  34.384  25.629  1.00  0.00     0.124 S 
ATOM     96  O   UNL A   1      47.299  34.179  25.407  1.00  0.00    -0.237 OA
ATOM     97  O   UNL A   1      44.985  33.842  24.602  1.00  0.00    -0.237 OA
ATOM     98  O   UNL A   1      45.501  35.707  26.124  1.00  0.00    -0.744 OA
ENDBRANCH  94  95
ENDBRANCH  62  87
ENDBRANCH  36  37
ENDBRANCH  28  31
ENDBRANCH  26  27
ENDBRANCH  25  26
ENDBRANCH   1  25
TORSDOF 18
ENDMDL
