MODEL 1
REMARK VINA RESULT:     -12.6      0.000      0.000
REMARK SMILES C[C@@H](C(=O)NCCCNC(=O)c1ccc(-c2c3nc(c(-c4c(F)cc(S(=O)(=O)[O-])cc4F)c4ccc([nH]4)c(-c4c(F)cc(S(=O)(=O)[O-])cc4F)c4nc(c(-c5c(F)cc(S(=O)(=O)[O-])cc5F)c5ccc2[nH]5)C=C4)C=C3)cc1)c1ccc2c3cc(Cl)ccc3n(C(=O)c3cocn3)c2c1
REMARK SMILES IDX 7 1 6 2 5 3 3 4 4 5 2 7 1 8 78 9 79 10 98 11 80 12 97 13
REMARK SMILES IDX 81 14 89 15 82 16 88 17 83 18 87 19 84 20 86 21 85 22 90 23
REMARK SMILES IDX 91 24 92 25 93 26 96 27 94 28 95 29 8 30 9 31 10 32 11 34
REMARK SMILES IDX 12 35 13 36 77 37 14 38 76 39 15 40 16 41 17 42 70 43 18 44
REMARK SMILES IDX 75 45 69 46 71 47 19 48 74 49 68 50 67 51 20 53 54 54 33 55
REMARK SMILES IDX 53 56 34 57 37 58 52 59 72 60 35 61 36 62 51 64 73 65 38 66
REMARK SMILES IDX 21 67 22 68 31 69 23 70 24 71 30 72 32 73 25 74 26 75 27 76
REMARK SMILES IDX 28 77 29 78 55 79 56 80 65 81 57 82 58 83 64 84 66 85 59 86
REMARK SMILES IDX 60 87 61 88 62 89 63 90 39 91 40 92 49 93 41 94 42 95 48 96
REMARK SMILES IDX 50 97 43 98 44 99 45 100 46 101 47 102
REMARK H PARENT 5 6 9 33 71 52 37 63
REMARK Flexibility Score: inf
ROOT
ATOM      1  C   UNL A   1      34.469  28.993  27.245  1.00  0.00     0.042 C 
ENDROOT
BRANCH   1   2
ATOM      2  C   UNL A   1      33.092  29.360  26.699  1.00  0.00     0.117 C 
BRANCH   2   3
ATOM      3  N   UNL A   1      32.086  28.376  27.049  1.00  0.00    -0.356 N 
ATOM      4  C   UNL A   1      31.514  27.386  26.306  1.00  0.00     0.227 C 
ATOM      5  O   UNL A   1      30.653  26.707  26.873  1.00  0.00    -0.274 OA
ATOM      6  H   UNL A   1      31.761  28.434  27.976  1.00  0.00     0.163 HD
BRANCH   4   7
ATOM      7  C   UNL A   1      31.972  27.132  24.858  1.00  0.00     0.105 C 
ATOM      8  C   UNL A   1      31.057  27.813  23.834  1.00  0.00     0.023 C 
BRANCH   7   9
ATOM      9  C   UNL A   1      32.069  25.638  24.550  1.00  0.00    -0.034 A 
ATOM     10  C   UNL A   1      31.192  25.036  23.644  1.00  0.00     0.005 A 
ATOM     11  C   UNL A   1      33.056  24.856  25.173  1.00  0.00     0.032 A 
ATOM     12  C   UNL A   1      31.298  23.671  23.344  1.00  0.00     0.011 A 
ATOM     13  C   UNL A   1      33.134  23.479  24.899  1.00  0.00     0.058 A 
ATOM     14  C   UNL A   1      32.288  22.883  23.971  1.00  0.00     0.008 A 
ATOM     15  N   UNL A   1      34.009  22.508  25.395  1.00  0.00    -0.274 N 
ATOM     16  C   UNL A   1      32.656  21.511  23.882  1.00  0.00     0.009 A 
ATOM     17  C   UNL A   1      33.700  21.283  24.789  1.00  0.00     0.057 A 
ATOM     18  C   UNL A   1      32.154  20.436  23.116  1.00  0.00     0.031 A 
ATOM     19  C   UNL A   1      34.191  19.978  25.005  1.00  0.00     0.029 A 
ATOM     20  C   UNL A   1      32.677  19.157  23.300  1.00  0.00     0.041 A 
ATOM     21  C   UNL A   1      33.673  18.927  24.238  1.00  0.00     0.023 A 
ATOM     22  Cl  UNL A   1      32.057  17.846  22.372  1.00  0.00    -0.084 Cl
BRANCH  15  23
ATOM     23  C   UNL A   1      34.992  22.760  26.388  1.00  0.00     0.284 C 
ATOM     24  O   UNL A   1      34.565  22.946  27.530  1.00  0.00    -0.266 OA
BRANCH  23  25
ATOM     25  C   UNL A   1      36.425  22.840  26.126  1.00  0.00     0.167 A 
ATOM     26  C   UNL A   1      37.273  23.915  26.286  1.00  0.00     0.231 A 
ATOM     27  N   UNL A   1      37.183  21.735  25.766  1.00  0.00    -0.211 NA
ATOM     28  O   UNL A   1      38.547  23.506  26.019  1.00  0.00    -0.451 OA
ATOM     29  C   UNL A   1      38.415  22.182  25.736  1.00  0.00     0.308 A 
ENDBRANCH  23  25
ENDBRANCH  15  23
ENDBRANCH   7   9
ENDBRANCH   4   7
ENDBRANCH   2   3
ENDBRANCH   1   2
BRANCH   1  30
ATOM     30  C   UNL A   1      35.325  30.181  27.683  1.00  0.00     0.118 C 
BRANCH  30  31
ATOM     31  N   UNL A   1      35.313  30.383  29.123  1.00  0.00    -0.352 N 
ATOM     32  C   UNL A   1      36.270  30.128  30.071  1.00  0.00     0.251 C 
ATOM     33  H   UNL A   1      34.477  30.767  29.476  1.00  0.00     0.163 HD
ATOM     34  O   UNL A   1      35.961  30.215  31.258  1.00  0.00    -0.269 OA
BRANCH  32  35
ATOM     35  C   UNL A   1      37.650  29.739  29.697  1.00  0.00     0.039 A 
ATOM     36  C   UNL A   1      38.008  29.792  28.346  1.00  0.00     0.014 A 
ATOM     37  C   UNL A   1      38.570  29.265  30.637  1.00  0.00     0.014 A 
ATOM     38  C   UNL A   1      39.294  29.421  27.948  1.00  0.00     0.010 A 
ATOM     39  C   UNL A   1      39.875  28.955  30.248  1.00  0.00     0.010 A 
ATOM     40  C   UNL A   1      40.249  29.025  28.898  1.00  0.00    -0.014 A 
BRANCH  40  41
ATOM     41  C   UNL A   1      41.636  28.696  28.479  1.00  0.00     0.031 A 
ATOM     42  C   UNL A   1      42.703  29.757  28.443  1.00  0.00     0.074 A 
ATOM     43  C   UNL A   1      41.929  27.436  28.103  1.00  0.00     0.049 A 
ATOM     44  N   UNL A   1      43.968  29.644  28.123  1.00  0.00    -0.248 NA
ATOM     45  C   UNL A   1      42.294  31.127  28.791  1.00  0.00     0.031 C 
ATOM     46  C   UNL A   1      40.969  26.332  28.033  1.00  0.00     0.029 A 
ATOM     47  N   UNL A   1      43.115  26.869  27.710  1.00  0.00    -0.354 N 
ATOM     48  C   UNL A   1      44.504  30.922  28.224  1.00  0.00     0.074 A 
ATOM     49  C   UNL A   1      43.415  31.805  28.590  1.00  0.00     0.031 C 
ATOM     50  C   UNL A   1      41.609  25.216  27.650  1.00  0.00     0.029 A 
ATOM     51  C   UNL A   1      43.017  25.528  27.427  1.00  0.00     0.049 A 
ATOM     52  H   UNL A   1      43.955  27.375  27.637  1.00  0.00     0.167 HD
ATOM     53  C   UNL A   1      45.787  31.322  28.052  1.00  0.00     0.037 A 
ATOM     54  C   UNL A   1      43.958  24.644  27.041  1.00  0.00     0.037 A 
ATOM     55  C   UNL A   1      46.872  30.438  27.711  1.00  0.00     0.049 A 
ATOM     56  C   UNL A   1      45.380  25.103  26.893  1.00  0.00     0.074 A 
ATOM     57  C   UNL A   1      48.217  30.738  27.571  1.00  0.00     0.029 A 
ATOM     58  N   UNL A   1      46.739  29.081  27.457  1.00  0.00    -0.354 N 
ATOM     59  N   UNL A   1      45.881  26.305  27.058  1.00  0.00    -0.248 NA
ATOM     60  C   UNL A   1      46.370  24.084  26.518  1.00  0.00     0.031 C 
ATOM     61  C   UNL A   1      48.892  29.567  27.203  1.00  0.00     0.029 A 
ATOM     62  C   UNL A   1      47.973  28.532  27.149  1.00  0.00     0.049 A 
ATOM     63  H   UNL A   1      45.891  28.581  27.491  1.00  0.00     0.167 HD
ATOM     64  C   UNL A   1      47.244  26.184  26.819  1.00  0.00     0.074 A 
ATOM     65  C   UNL A   1      47.494  24.788  26.520  1.00  0.00     0.031 C 
ATOM     66  C   UNL A   1      48.203  27.142  26.842  1.00  0.00     0.037 A 
BRANCH  53  67
ATOM     67  C   UNL A   1      46.089  32.783  28.245  1.00  0.00     0.058 A 
ATOM     68  C   UNL A   1      45.971  33.700  27.188  1.00  0.00     0.135 A 
ATOM     69  C   UNL A   1      46.471  33.277  29.502  1.00  0.00     0.135 A 
ATOM     70  F   UNL A   1      45.622  33.279  25.963  1.00  0.00    -0.206 F 
ATOM     71  C   UNL A   1      46.251  35.052  27.363  1.00  0.00     0.059 A 
ATOM     72  C   UNL A   1      46.733  34.630  29.706  1.00  0.00     0.059 A 
ATOM     73  F   UNL A   1      46.598  32.444  30.546  1.00  0.00    -0.206 F 
ATOM     74  C   UNL A   1      46.636  35.507  28.625  1.00  0.00     0.060 A 
BRANCH  74  75
ATOM     75  S   UNL A   1      46.996  37.263  28.839  1.00  0.00     0.124 S 
ATOM     76  O   UNL A   1      48.198  37.213  29.667  1.00  0.00    -0.237 OA
ATOM     77  O   UNL A   1      47.194  37.714  27.465  1.00  0.00    -0.237 OA
ATOM     78  O   UNL A   1      45.801  37.777  29.498  1.00  0.00    -0.744 OA
ENDBRANCH  74  75
ENDBRANCH  53  67
BRANCH  54  79
ATOM     79  C   UNL A   1      43.584  23.226  26.806  1.00  0.00     0.058 A 
ATOM     80  C   UNL A   1      43.287  22.373  27.879  1.00  0.00     0.135 A 
ATOM     81  C   UNL A   1      43.491  22.704  25.507  1.00  0.00     0.135 A 
ATOM     82  F   UNL A   1      43.368  22.827  29.139  1.00  0.00    -0.206 F 
ATOM     83  C   UNL A   1      42.921  21.047  27.674  1.00  0.00     0.059 A 
ATOM     84  C   UNL A   1      43.106  21.387  25.276  1.00  0.00     0.059 A 
ATOM     85  F   UNL A   1      43.747  23.488  24.448  1.00  0.00    -0.206 F 
ATOM     86  C   UNL A   1      42.831  20.564  26.367  1.00  0.00     0.060 A 
BRANCH  86  87
ATOM     87  S   UNL A   1      42.291  18.860  26.105  1.00  0.00     0.124 S 
ATOM     88  O   UNL A   1      42.554  18.266  27.411  1.00  0.00    -0.237 OA
ATOM     89  O   UNL A   1      40.886  19.031  25.753  1.00  0.00    -0.237 OA
ATOM     90  O   UNL A   1      43.150  18.403  25.017  1.00  0.00    -0.744 OA
ENDBRANCH  86  87
ENDBRANCH  54  79
BRANCH  66  91
ATOM     91  C   UNL A   1      49.609  26.705  26.543  1.00  0.00     0.058 A 
ATOM     92  C   UNL A   1      50.474  26.275  27.562  1.00  0.00     0.135 A 
ATOM     93  C   UNL A   1      50.093  26.707  25.227  1.00  0.00     0.135 A 
ATOM     94  F   UNL A   1      50.060  26.260  28.839  1.00  0.00    -0.206 F 
ATOM     95  C   UNL A   1      51.784  25.895  27.289  1.00  0.00     0.059 A 
ATOM     96  C   UNL A   1      51.393  26.310  24.928  1.00  0.00     0.059 A 
ATOM     97  F   UNL A   1      49.302  27.100  24.215  1.00  0.00    -0.206 F 
ATOM     98  C   UNL A   1      52.237  25.924  25.969  1.00  0.00     0.060 A 
BRANCH  98  99
ATOM     99  S   UNL A   1      53.939  25.429  25.622  1.00  0.00     0.124 S 
ATOM    100  O   UNL A   1      54.389  24.991  26.939  1.00  0.00    -0.237 OA
ATOM    101  O   UNL A   1      53.766  24.375  24.627  1.00  0.00    -0.237 OA
ATOM    102  O   UNL A   1      54.551  26.657  25.124  1.00  0.00    -0.744 OA
ENDBRANCH  98  99
ENDBRANCH  66  91
ENDBRANCH  40  41
ENDBRANCH  32  35
ENDBRANCH  30  31
ENDBRANCH   1  30
TORSDOF 16
ENDMDL
MODEL 2
REMARK VINA RESULT:     -12.4      5.064      6.521
REMARK SMILES C[C@@H](C(=O)NCCCNC(=O)c1ccc(-c2c3nc(c(-c4c(F)cc(S(=O)(=O)[O-])cc4F)c4ccc([nH]4)c(-c4c(F)cc(S(=O)(=O)[O-])cc4F)c4nc(c(-c5c(F)cc(S(=O)(=O)[O-])cc5F)c5ccc2[nH]5)C=C4)C=C3)cc1)c1ccc2c3cc(Cl)ccc3n(C(=O)c3cocn3)c2c1
REMARK SMILES IDX 7 1 6 2 5 3 3 4 4 5 2 7 1 8 78 9 79 10 98 11 80 12 97 13
REMARK SMILES IDX 81 14 89 15 82 16 88 17 83 18 87 19 84 20 86 21 85 22 90 23
REMARK SMILES IDX 91 24 92 25 93 26 96 27 94 28 95 29 8 30 9 31 10 32 11 34
REMARK SMILES IDX 12 35 13 36 77 37 14 38 76 39 15 40 16 41 17 42 70 43 18 44
REMARK SMILES IDX 75 45 69 46 71 47 19 48 74 49 68 50 67 51 20 53 54 54 33 55
REMARK SMILES IDX 53 56 34 57 37 58 52 59 72 60 35 61 36 62 51 64 73 65 38 66
REMARK SMILES IDX 21 67 22 68 31 69 23 70 24 71 30 72 32 73 25 74 26 75 27 76
REMARK SMILES IDX 28 77 29 78 55 79 56 80 65 81 57 82 58 83 64 84 66 85 59 86
REMARK SMILES IDX 60 87 61 88 62 89 63 90 39 91 40 92 49 93 41 94 42 95 48 96
REMARK SMILES IDX 50 97 43 98 44 99 45 100 46 101 47 102
REMARK H PARENT 5 6 9 33 71 52 37 63
REMARK Flexibility Score: inf
ROOT
ATOM      1  C   UNL A   1      33.008  27.859  26.761  1.00  0.00     0.042 C 
ENDROOT
BRANCH   1   2
ATOM      2  C   UNL A   1      31.567  27.907  26.259  1.00  0.00     0.117 C 
BRANCH   2   3
ATOM      3  N   UNL A   1      30.823  26.717  26.623  1.00  0.00    -0.356 N 
ATOM      4  C   UNL A   1      30.610  25.557  25.940  1.00  0.00     0.227 C 
ATOM      5  O   UNL A   1      29.903  24.714  26.501  1.00  0.00    -0.274 OA
ATOM      6  H   UNL A   1      30.401  26.753  27.512  1.00  0.00     0.163 HD
BRANCH   4   7
ATOM      7  C   UNL A   1      31.265  25.329  24.565  1.00  0.00     0.105 C 
ATOM      8  C   UNL A   1      30.325  24.615  23.587  1.00  0.00     0.023 C 
BRANCH   7   9
ATOM      9  C   UNL A   1      32.573  24.546  24.685  1.00  0.00    -0.034 A 
ATOM     10  C   UNL A   1      33.801  25.209  24.755  1.00  0.00     0.005 A 
ATOM     11  C   UNL A   1      32.548  23.142  24.737  1.00  0.00     0.032 A 
ATOM     12  C   UNL A   1      34.997  24.491  24.889  1.00  0.00     0.011 A 
ATOM     13  C   UNL A   1      33.753  22.423  24.833  1.00  0.00     0.058 A 
ATOM     14  C   UNL A   1      34.973  23.080  24.939  1.00  0.00     0.008 A 
ATOM     15  N   UNL A   1      33.980  21.045  24.889  1.00  0.00    -0.274 N 
ATOM     16  C   UNL A   1      35.980  22.083  25.076  1.00  0.00     0.009 A 
ATOM     17  C   UNL A   1      35.359  20.829  25.013  1.00  0.00     0.057 A 
ATOM     18  C   UNL A   1      37.383  22.157  25.218  1.00  0.00     0.031 A 
ATOM     19  C   UNL A   1      36.128  19.647  25.001  1.00  0.00     0.029 A 
ATOM     20  C   UNL A   1      38.134  20.983  25.255  1.00  0.00     0.041 A 
ATOM     21  C   UNL A   1      37.518  19.745  25.137  1.00  0.00     0.023 A 
ATOM     22  Cl  UNL A   1      39.845  21.075  25.419  1.00  0.00    -0.084 Cl
BRANCH  15  23
ATOM     23  C   UNL A   1      32.956  20.068  24.777  1.00  0.00     0.284 C 
ATOM     24  O   UNL A   1      32.169  20.004  25.725  1.00  0.00    -0.266 OA
BRANCH  23  25
ATOM     25  C   UNL A   1      32.815  19.149  23.653  1.00  0.00     0.167 A 
ATOM     26  C   UNL A   1      33.148  17.813  23.583  1.00  0.00     0.231 A 
ATOM     27  N   UNL A   1      32.180  19.504  22.471  1.00  0.00    -0.211 NA
ATOM     28  O   UNL A   1      32.746  17.329  22.373  1.00  0.00    -0.451 OA
ATOM     29  C   UNL A   1      32.155  18.395  21.771  1.00  0.00     0.308 A 
ENDBRANCH  23  25
ENDBRANCH  15  23
ENDBRANCH   7   9
ENDBRANCH   4   7
ENDBRANCH   2   3
ENDBRANCH   1   2
BRANCH   1  30
ATOM     30  C   UNL A   1      33.957  28.849  26.086  1.00  0.00     0.118 C 
BRANCH  30  31
ATOM     31  N   UNL A   1      33.719  30.224  26.492  1.00  0.00    -0.352 N 
ATOM     32  C   UNL A   1      34.335  30.996  27.444  1.00  0.00     0.251 C 
ATOM     33  H   UNL A   1      32.994  30.677  26.003  1.00  0.00     0.163 HD
ATOM     34  O   UNL A   1      33.837  32.082  27.734  1.00  0.00    -0.269 OA
BRANCH  32  35
ATOM     35  C   UNL A   1      35.567  30.545  28.131  1.00  0.00     0.039 A 
ATOM     36  C   UNL A   1      36.800  30.963  27.620  1.00  0.00     0.014 A 
ATOM     37  C   UNL A   1      35.533  29.674  29.225  1.00  0.00     0.014 A 
ATOM     38  C   UNL A   1      37.987  30.550  28.229  1.00  0.00     0.010 A 
ATOM     39  C   UNL A   1      36.716  29.313  29.873  1.00  0.00     0.010 A 
ATOM     40  C   UNL A   1      37.956  29.743  29.379  1.00  0.00    -0.014 A 
BRANCH  40  41
ATOM     41  C   UNL A   1      39.218  29.362  30.064  1.00  0.00     0.031 A 
ATOM     42  C   UNL A   1      39.646  30.051  31.332  1.00  0.00     0.074 A 
ATOM     43  C   UNL A   1      39.997  28.404  29.525  1.00  0.00     0.049 A 
ATOM     44  N   UNL A   1      40.703  29.833  32.072  1.00  0.00    -0.248 NA
ATOM     45  C   UNL A   1      38.787  31.141  31.822  1.00  0.00     0.031 C 
ATOM     46  C   UNL A   1      39.725  27.705  28.266  1.00  0.00     0.029 A 
ATOM     47  N   UNL A   1      41.173  27.851  29.963  1.00  0.00    -0.354 N 
ATOM     48  C   UNL A   1      40.643  30.758  33.108  1.00  0.00     0.074 A 
ATOM     49  C   UNL A   1      39.467  31.571  32.874  1.00  0.00     0.031 C 
ATOM     50  C   UNL A   1      40.690  26.797  28.050  1.00  0.00     0.029 A 
ATOM     51  C   UNL A   1      41.659  26.864  29.139  1.00  0.00     0.049 A 
ATOM     52  H   UNL A   1      41.627  28.134  30.789  1.00  0.00     0.167 HD
ATOM     53  C   UNL A   1      41.474  30.901  34.169  1.00  0.00     0.037 A 
ATOM     54  C   UNL A   1      42.757  26.091  29.252  1.00  0.00     0.037 A 
ATOM     55  C   UNL A   1      42.628  30.076  34.412  1.00  0.00     0.049 A 
ATOM     56  C   UNL A   1      43.642  26.244  30.456  1.00  0.00     0.074 A 
ATOM     57  C   UNL A   1      43.500  30.106  35.487  1.00  0.00     0.029 A 
ATOM     58  N   UNL A   1      43.074  29.070  33.568  1.00  0.00    -0.354 N 
ATOM     59  N   UNL A   1      43.531  27.081  31.460  1.00  0.00    -0.248 NA
ATOM     60  C   UNL A   1      44.797  25.339  30.549  1.00  0.00     0.031 C 
ATOM     61  C   UNL A   1      44.489  29.137  35.279  1.00  0.00     0.029 A 
ATOM     62  C   UNL A   1      44.214  28.480  34.091  1.00  0.00     0.049 A 
ATOM     63  H   UNL A   1      42.644  28.812  32.720  1.00  0.00     0.167 HD
ATOM     64  C   UNL A   1      44.592  26.795  32.310  1.00  0.00     0.074 A 
ATOM     65  C   UNL A   1      45.322  25.694  31.713  1.00  0.00     0.031 C 
ATOM     66  C   UNL A   1      44.935  27.393  33.479  1.00  0.00     0.037 A 
BRANCH  53  67
ATOM     67  C   UNL A   1      41.152  31.989  35.157  1.00  0.00     0.058 A 
ATOM     68  C   UNL A   1      40.205  31.797  36.176  1.00  0.00     0.135 A 
ATOM     69  C   UNL A   1      41.817  33.225  35.106  1.00  0.00     0.135 A 
ATOM     70  F   UNL A   1      39.531  30.640  36.262  1.00  0.00    -0.206 F 
ATOM     71  C   UNL A   1      39.905  32.802  37.090  1.00  0.00     0.059 A 
ATOM     72  C   UNL A   1      41.550  34.237  36.025  1.00  0.00     0.059 A 
ATOM     73  F   UNL A   1      42.733  33.460  34.153  1.00  0.00    -0.206 F 
ATOM     74  C   UNL A   1      40.581  34.021  37.004  1.00  0.00     0.060 A 
BRANCH  74  75
ATOM     75  S   UNL A   1      40.182  35.317  38.196  1.00  0.00     0.124 S 
ATOM     76  O   UNL A   1      41.431  35.413  38.947  1.00  0.00    -0.237 OA
ATOM     77  O   UNL A   1      39.872  36.453  37.335  1.00  0.00    -0.237 OA
ATOM     78  O   UNL A   1      39.049  34.764  38.931  1.00  0.00    -0.744 OA
ENDBRANCH  74  75
ENDBRANCH  53  67
BRANCH  54  79
ATOM     79  C   UNL A   1      43.053  25.076  28.209  1.00  0.00     0.058 A 
ATOM     80  C   UNL A   1      43.803  25.410  27.072  1.00  0.00     0.135 A 
ATOM     81  C   UNL A   1      42.616  23.749  28.342  1.00  0.00     0.135 A 
ATOM     82  F   UNL A   1      44.237  26.667  26.901  1.00  0.00    -0.206 F 
ATOM     83  C   UNL A   1      44.101  24.466  26.095  1.00  0.00     0.059 A 
ATOM     84  C   UNL A   1      42.920  22.783  27.388  1.00  0.00     0.059 A 
ATOM     85  F   UNL A   1      41.912  23.378  29.422  1.00  0.00    -0.206 F 
ATOM     86  C   UNL A   1      43.656  23.154  26.263  1.00  0.00     0.060 A 
BRANCH  86  87
ATOM     87  S   UNL A   1      44.103  21.918  25.023  1.00  0.00     0.124 S 
ATOM     88  O   UNL A   1      45.525  21.736  25.291  1.00  0.00    -0.237 OA
ATOM     89  O   UNL A   1      43.238  20.797  25.377  1.00  0.00    -0.237 OA
ATOM     90  O   UNL A   1      43.774  22.578  23.763  1.00  0.00    -0.744 OA
ENDBRANCH  86  87
ENDBRANCH  54  79
BRANCH  66  91
ATOM     91  C   UNL A   1      46.148  26.858  34.186  1.00  0.00     0.058 A 
ATOM     92  C   UNL A   1      46.049  25.813  35.118  1.00  0.00     0.135 A 
ATOM     93  C   UNL A   1      47.420  27.387  33.924  1.00  0.00     0.135 A 
ATOM     94  F   UNL A   1      44.854  25.276  35.408  1.00  0.00    -0.206 F 
ATOM     95  C   UNL A   1      47.168  25.334  35.793  1.00  0.00     0.059 A 
ATOM     96  C   UNL A   1      48.556  26.909  34.571  1.00  0.00     0.059 A 
ATOM     97  F   UNL A   1      47.569  28.381  33.033  1.00  0.00    -0.206 F 
ATOM     98  C   UNL A   1      48.416  25.895  35.518  1.00  0.00     0.060 A 
BRANCH  98  99
ATOM     99  S   UNL A   1      49.864  25.270  36.398  1.00  0.00     0.124 S 
ATOM    100  O   UNL A   1      49.941  26.193  37.524  1.00  0.00    -0.237 OA
ATOM    101  O   UNL A   1      49.470  23.903  36.724  1.00  0.00    -0.237 OA
ATOM    102  O   UNL A   1      50.934  25.388  35.412  1.00  0.00    -0.744 OA
ENDBRANCH  98  99
ENDBRANCH  66  91
ENDBRANCH  40  41
ENDBRANCH  32  35
ENDBRANCH  30  31
ENDBRANCH   1  30
TORSDOF 16
ENDMDL
MODEL 3
REMARK VINA RESULT:     -12.3      4.842      8.383
REMARK SMILES C[C@@H](C(=O)NCCCNC(=O)c1ccc(-c2c3nc(c(-c4c(F)cc(S(=O)(=O)[O-])cc4F)c4ccc([nH]4)c(-c4c(F)cc(S(=O)(=O)[O-])cc4F)c4nc(c(-c5c(F)cc(S(=O)(=O)[O-])cc5F)c5ccc2[nH]5)C=C4)C=C3)cc1)c1ccc2c3cc(Cl)ccc3n(C(=O)c3cocn3)c2c1
REMARK SMILES IDX 7 1 6 2 5 3 3 4 4 5 2 7 1 8 78 9 79 10 98 11 80 12 97 13
REMARK SMILES IDX 81 14 89 15 82 16 88 17 83 18 87 19 84 20 86 21 85 22 90 23
REMARK SMILES IDX 91 24 92 25 93 26 96 27 94 28 95 29 8 30 9 31 10 32 11 34
REMARK SMILES IDX 12 35 13 36 77 37 14 38 76 39 15 40 16 41 17 42 70 43 18 44
REMARK SMILES IDX 75 45 69 46 71 47 19 48 74 49 68 50 67 51 20 53 54 54 33 55
REMARK SMILES IDX 53 56 34 57 37 58 52 59 72 60 35 61 36 62 51 64 73 65 38 66
REMARK SMILES IDX 21 67 22 68 31 69 23 70 24 71 30 72 32 73 25 74 26 75 27 76
REMARK SMILES IDX 28 77 29 78 55 79 56 80 65 81 57 82 58 83 64 84 66 85 59 86
REMARK SMILES IDX 60 87 61 88 62 89 63 90 39 91 40 92 49 93 41 94 42 95 48 96
REMARK SMILES IDX 50 97 43 98 44 99 45 100 46 101 47 102
REMARK H PARENT 5 6 9 33 71 52 37 63
REMARK Flexibility Score: inf
ROOT
ATOM      1  C   UNL A   1      34.784  32.675  30.320  1.00  0.00     0.042 C 
ENDROOT
BRANCH   1   2
ATOM      2  C   UNL A   1      34.397  33.938  31.086  1.00  0.00     0.117 C 
BRANCH   2   3
ATOM      3  N   UNL A   1      35.559  34.673  31.548  1.00  0.00    -0.356 N 
ATOM      4  C   UNL A   1      36.359  34.479  32.635  1.00  0.00     0.227 C 
ATOM      5  O   UNL A   1      37.274  35.293  32.791  1.00  0.00    -0.274 OA
ATOM      6  H   UNL A   1      35.810  35.439  30.984  1.00  0.00     0.163 HD
BRANCH   4   7
ATOM      7  C   UNL A   1      36.127  33.279  33.571  1.00  0.00     0.105 C 
ATOM      8  C   UNL A   1      35.826  33.715  35.009  1.00  0.00     0.023 C 
BRANCH   7   9
ATOM      9  C   UNL A   1      37.317  32.319  33.563  1.00  0.00    -0.034 A 
ATOM     10  C   UNL A   1      37.421  31.315  32.598  1.00  0.00     0.005 A 
ATOM     11  C   UNL A   1      38.328  32.448  34.531  1.00  0.00     0.032 A 
ATOM     12  C   UNL A   1      38.524  30.451  32.578  1.00  0.00     0.011 A 
ATOM     13  C   UNL A   1      39.414  31.555  34.531  1.00  0.00     0.058 A 
ATOM     14  C   UNL A   1      39.540  30.578  33.551  1.00  0.00     0.008 A 
ATOM     15  N   UNL A   1      40.519  31.478  35.384  1.00  0.00    -0.274 N 
ATOM     16  C   UNL A   1      40.760  29.886  33.796  1.00  0.00     0.009 A 
ATOM     17  C   UNL A   1      41.342  30.429  34.949  1.00  0.00     0.057 A 
ATOM     18  C   UNL A   1      41.398  28.813  33.136  1.00  0.00     0.031 A 
ATOM     19  C   UNL A   1      42.506  29.859  35.502  1.00  0.00     0.029 A 
ATOM     20  C   UNL A   1      42.575  28.284  33.661  1.00  0.00     0.041 A 
ATOM     21  C   UNL A   1      43.117  28.791  34.834  1.00  0.00     0.023 A 
ATOM     22  Cl  UNL A   1      43.346  26.969  32.861  1.00  0.00    -0.084 Cl
BRANCH  15  23
ATOM     23  C   UNL A   1      40.703  32.309  36.520  1.00  0.00     0.284 C 
ATOM     24  O   UNL A   1      40.268  31.865  37.586  1.00  0.00    -0.266 OA
BRANCH  23  25
ATOM     25  C   UNL A   1      41.327  33.627  36.483  1.00  0.00     0.167 A 
ATOM     26  C   UNL A   1      40.729  34.862  36.342  1.00  0.00     0.231 A 
ATOM     27  N   UNL A   1      42.681  33.821  36.714  1.00  0.00    -0.211 NA
ATOM     28  O   UNL A   1      41.688  35.824  36.467  1.00  0.00    -0.451 OA
ATOM     29  C   UNL A   1      42.828  35.124  36.711  1.00  0.00     0.308 A 
ENDBRANCH  23  25
ENDBRANCH  15  23
ENDBRANCH   7   9
ENDBRANCH   4   7
ENDBRANCH   2   3
ENDBRANCH   1   2
BRANCH   1  30
ATOM     30  C   UNL A   1      34.541  32.738  28.813  1.00  0.00     0.118 C 
BRANCH  30  31
ATOM     31  N   UNL A   1      33.879  31.550  28.299  1.00  0.00    -0.352 N 
ATOM     32  C   UNL A   1      34.385  30.326  27.943  1.00  0.00     0.251 C 
ATOM     33  H   UNL A   1      32.905  31.639  28.186  1.00  0.00     0.163 HD
ATOM     34  O   UNL A   1      33.651  29.532  27.359  1.00  0.00    -0.269 OA
BRANCH  32  35
ATOM     35  C   UNL A   1      35.790  29.953  28.232  1.00  0.00     0.039 A 
ATOM     36  C   UNL A   1      36.742  30.134  27.224  1.00  0.00     0.014 A 
ATOM     37  C   UNL A   1      36.171  29.373  29.446  1.00  0.00     0.014 A 
ATOM     38  C   UNL A   1      38.075  29.783  27.449  1.00  0.00     0.010 A 
ATOM     39  C   UNL A   1      37.515  29.082  29.694  1.00  0.00     0.010 A 
ATOM     40  C   UNL A   1      38.480  29.278  28.696  1.00  0.00    -0.014 A 
BRANCH  40  41
ATOM     41  C   UNL A   1      39.910  28.970  28.954  1.00  0.00     0.031 A 
ATOM     42  C   UNL A   1      40.822  29.997  29.570  1.00  0.00     0.074 A 
ATOM     43  C   UNL A   1      40.396  27.763  28.607  1.00  0.00     0.049 A 
ATOM     44  N   UNL A   1      42.089  29.892  29.883  1.00  0.00    -0.248 NA
ATOM     45  C   UNL A   1      40.243  31.320  29.851  1.00  0.00     0.031 C 
ATOM     46  C   UNL A   1      39.631  26.703  27.945  1.00  0.00     0.029 A 
ATOM     47  N   UNL A   1      41.647  27.220  28.761  1.00  0.00    -0.354 N 
ATOM     48  C   UNL A   1      42.461  31.132  30.391  1.00  0.00     0.074 A 
ATOM     49  C   UNL A   1      41.296  31.988  30.300  1.00  0.00     0.031 C 
ATOM     50  C   UNL A   1      40.419  25.630  27.777  1.00  0.00     0.029 A 
ATOM     51  C   UNL A   1      41.749  25.930  28.298  1.00  0.00     0.049 A 
ATOM     52  H   UNL A   1      42.399  27.708  29.165  1.00  0.00     0.167 HD
ATOM     53  C   UNL A   1      43.653  31.515  30.908  1.00  0.00     0.037 A 
ATOM     54  C   UNL A   1      42.794  25.080  28.300  1.00  0.00     0.037 A 
ATOM     55  C   UNL A   1      44.803  30.655  31.018  1.00  0.00     0.049 A 
ATOM     56  C   UNL A   1      44.094  25.515  28.911  1.00  0.00     0.074 A 
ATOM     57  C   UNL A   1      46.038  30.934  31.579  1.00  0.00     0.029 A 
ATOM     58  N   UNL A   1      44.860  29.347  30.561  1.00  0.00    -0.354 N 
ATOM     59  N   UNL A   1      44.407  26.671  29.448  1.00  0.00    -0.248 NA
ATOM     60  C   UNL A   1      45.182  24.527  28.930  1.00  0.00     0.031 C 
ATOM     61  C   UNL A   1      46.852  29.803  31.434  1.00  0.00     0.029 A 
ATOM     62  C   UNL A   1      46.112  28.809  30.814  1.00  0.00     0.049 A 
ATOM     63  H   UNL A   1      44.121  28.870  30.120  1.00  0.00     0.167 HD
ATOM     64  C   UNL A   1      45.722  26.545  29.879  1.00  0.00     0.074 A 
ATOM     65  C   UNL A   1      46.139  25.194  29.560  1.00  0.00     0.031 C 
ATOM     66  C   UNL A   1      46.515  27.466  30.481  1.00  0.00     0.037 A 
BRANCH  53  67
ATOM     67  C   UNL A   1      43.769  32.930  31.406  1.00  0.00     0.058 A 
ATOM     68  C   UNL A   1      43.545  33.252  32.754  1.00  0.00     0.135 A 
ATOM     69  C   UNL A   1      44.135  33.969  30.536  1.00  0.00     0.135 A 
ATOM     70  F   UNL A   1      43.179  32.299  33.625  1.00  0.00    -0.206 F 
ATOM     71  C   UNL A   1      43.649  34.560  33.217  1.00  0.00     0.059 A 
ATOM     72  C   UNL A   1      44.269  35.282  30.983  1.00  0.00     0.059 A 
ATOM     73  F   UNL A   1      44.362  33.716  29.238  1.00  0.00    -0.206 F 
ATOM     74  C   UNL A   1      44.009  35.570  32.322  1.00  0.00     0.060 A 
BRANCH  74  75
ATOM     75  S   UNL A   1      44.141  37.262  32.936  1.00  0.00     0.124 S 
ATOM     76  O   UNL A   1      42.979  37.342  33.817  1.00  0.00    -0.237 OA
ATOM     77  O   UNL A   1      45.440  37.257  33.600  1.00  0.00    -0.237 OA
ATOM     78  O   UNL A   1      44.064  38.069  31.722  1.00  0.00    -0.744 OA
ENDBRANCH  74  75
ENDBRANCH  53  67
BRANCH  54  79
ATOM     79  C   UNL A   1      42.633  23.715  27.735  1.00  0.00     0.058 A 
ATOM     80  C   UNL A   1      42.752  23.488  26.356  1.00  0.00     0.135 A 
ATOM     81  C   UNL A   1      42.385  22.610  28.564  1.00  0.00     0.135 A 
ATOM     82  F   UNL A   1      42.984  24.515  25.526  1.00  0.00    -0.206 F 
ATOM     83  C   UNL A   1      42.620  22.213  25.815  1.00  0.00     0.059 A 
ATOM     84  C   UNL A   1      42.270  21.323  28.048  1.00  0.00     0.059 A 
ATOM     85  F   UNL A   1      42.283  22.776  29.892  1.00  0.00    -0.206 F 
ATOM     86  C   UNL A   1      42.380  21.137  26.671  1.00  0.00     0.060 A 
BRANCH  86  87
ATOM     87  S   UNL A   1      42.275  19.475  25.969  1.00  0.00     0.124 S 
ATOM     88  O   UNL A   1      43.165  19.586  24.819  1.00  0.00    -0.237 OA
ATOM     89  O   UNL A   1      42.754  18.643  27.069  1.00  0.00    -0.237 OA
ATOM     90  O   UNL A   1      40.855  19.334  25.661  1.00  0.00    -0.744 OA
ENDBRANCH  86  87
ENDBRANCH  54  79
BRANCH  66  91
ATOM     91  C   UNL A   1      47.909  27.034  30.838  1.00  0.00     0.058 A 
ATOM     92  C   UNL A   1      48.957  27.100  29.907  1.00  0.00     0.135 A 
ATOM     93  C   UNL A   1      48.202  26.558  32.125  1.00  0.00     0.135 A 
ATOM     94  F   UNL A   1      48.727  27.542  28.661  1.00  0.00    -0.206 F 
ATOM     95  C   UNL A   1      50.242  26.675  30.229  1.00  0.00     0.059 A 
ATOM     96  C   UNL A   1      49.485  26.148  32.476  1.00  0.00     0.059 A 
ATOM     97  F   UNL A   1      47.236  26.485  33.055  1.00  0.00    -0.206 F 
ATOM     98  C   UNL A   1      50.494  26.193  31.514  1.00  0.00     0.060 A 
BRANCH  98  99
ATOM     99  S   UNL A   1      52.164  25.643  31.926  1.00  0.00     0.124 S 
ATOM    100  O   UNL A   1      51.955  24.215  32.141  1.00  0.00    -0.237 OA
ATOM    101  O   UNL A   1      52.919  26.001  30.729  1.00  0.00    -0.237 OA
ATOM    102  O   UNL A   1      52.489  26.419  33.119  1.00  0.00    -0.744 OA
ENDBRANCH  98  99
ENDBRANCH  66  91
ENDBRANCH  40  41
ENDBRANCH  32  35
ENDBRANCH  30  31
ENDBRANCH   1  30
TORSDOF 16
ENDMDL
