MODEL 1
REMARK VINA RESULT:     -10.7      0.000      0.000
REMARK SMILES CCCCCCNC(=O)Oc1cccc(-c2ccc([C@@H](C)C(=O)NCCCNC(=O)c3ccc(-c4c5nc(c(-c6c(F)cc(S(=O)(=O)[O-])cc6F)c6ccc([nH]6)c(-c6c(F)cc(S(=O)(=O)[O-])cc6F)c6nc(c(-c7c(F)cc(S(=O)(=O)[O-])cc7F)c7ccc4[nH]7)C=C6)C=C5)cc3)cc2F)c1
REMARK SMILES IDX 20 1 21 2 19 3 16 4 17 5 98 6 18 7 97 8 99 9 15 10 11 11
REMARK SMILES IDX 12 12 100 13 13 14 14 15 10 16 8 17 7 18 9 20 6 21 5 22 4 23
REMARK SMILES IDX 3 24 2 25 1 26 22 27 23 28 24 29 25 31 26 32 27 33 28 34
REMARK SMILES IDX 29 35 30 37 31 38 32 39 96 40 33 41 95 42 34 43 35 44 36 45
REMARK SMILES IDX 89 46 37 47 94 48 88 49 90 50 38 51 93 52 87 53 86 54 39 56
REMARK SMILES IDX 73 57 52 58 72 59 53 60 56 61 71 62 91 63 54 64 55 65 70 67
REMARK SMILES IDX 92 68 57 69 40 70 41 71 50 72 42 73 43 74 49 75 51 76 44 77
REMARK SMILES IDX 45 78 46 79 47 80 48 81 74 82 75 83 84 84 76 85 77 86 83 87
REMARK SMILES IDX 85 88 78 89 79 90 80 91 81 92 82 93 58 94 59 95 68 96 60 97
REMARK SMILES IDX 61 98 67 99 69 100 62 101 63 102 64 103 65 104 66 105
REMARK H PARENT 7 19 24 30 28 36 90 55 56 66
REMARK Flexibility Score: inf
ROOT
ATOM      1  C   UNL A   1      30.844  27.477  22.657  1.00  0.00     0.105 C 
ATOM      2  C   UNL A   1      29.458  27.887  23.153  1.00  0.00     0.023 C 
ENDROOT
BRANCH   1   3
ATOM      3  C   UNL A   1      31.126  25.984  22.666  1.00  0.00    -0.033 A 
ATOM      4  C   UNL A   1      31.836  23.215  22.817  1.00  0.00     0.018 A 
ATOM      5  C   UNL A   1      30.692  23.721  23.455  1.00  0.00     0.012 A 
ATOM      6  C   UNL A   1      32.584  24.128  22.060  1.00  0.00     0.131 A 
ATOM      7  C   UNL A   1      30.323  25.066  23.347  1.00  0.00     0.005 A 
ATOM      8  C   UNL A   1      32.255  25.486  22.001  1.00  0.00     0.044 A 
ATOM      9  F   UNL A   1      33.656  23.721  21.361  1.00  0.00    -0.206 F 
BRANCH   4  10
ATOM     10  C   UNL A   1      32.223  21.798  22.989  1.00  0.00    -0.012 A 
ATOM     11  C   UNL A   1      33.290  20.029  24.272  1.00  0.00     0.133 A 
ATOM     12  C   UNL A   1      32.851  19.061  23.376  1.00  0.00     0.047 A 
ATOM     13  C   UNL A   1      32.996  21.380  24.085  1.00  0.00     0.056 A 
ATOM     14  C   UNL A   1      32.091  19.451  22.281  1.00  0.00     0.004 A 
ATOM     15  C   UNL A   1      31.789  20.804  22.087  1.00  0.00     0.009 A 
BRANCH  11  16
ATOM     16  O   UNL A   1      34.135  19.606  25.308  1.00  0.00    -0.410 OA
BRANCH  16  17
ATOM     17  C   UNL A   1      35.318  18.973  24.961  1.00  0.00     0.412 C 
ATOM     18  N   UNL A   1      36.391  19.820  24.961  1.00  0.00    -0.321 N 
ATOM     19  H   UNL A   1      37.255  19.440  24.680  1.00  0.00     0.167 HD
ATOM     20  O   UNL A   1      35.453  17.788  24.684  1.00  0.00    -0.224 OA
BRANCH  18  21
ATOM     21  C   UNL A   1      36.385  21.221  25.331  1.00  0.00     0.119 C 
BRANCH  21  22
ATOM     22  C   UNL A   1      36.909  22.102  24.197  1.00  0.00     0.021 C 
BRANCH  22  23
ATOM     23  C   UNL A   1      36.466  23.569  24.272  1.00  0.00     0.002 C 
BRANCH  23  24
ATOM     24  C   UNL A   1      35.645  23.944  25.511  1.00  0.00    -0.000 C 
BRANCH  24  25
ATOM     25  C   UNL A   1      34.364  24.733  25.231  1.00  0.00    -0.003 C 
ATOM     26  C   UNL A   1      33.213  24.354  26.149  1.00  0.00     0.004 C 
ENDBRANCH  24  25
ENDBRANCH  23  24
ENDBRANCH  22  23
ENDBRANCH  21  22
ENDBRANCH  18  21
ENDBRANCH  16  17
ENDBRANCH  11  16
ENDBRANCH   4  10
ENDBRANCH   1   3
BRANCH   1  27
ATOM     27  C   UNL A   1      31.994  28.329  23.216  1.00  0.00     0.227 C 
ATOM     28  O   UNL A   1      32.677  29.018  22.446  1.00  0.00    -0.274 OA
ATOM     29  N   UNL A   1      32.322  28.403  24.534  1.00  0.00    -0.356 N 
ATOM     30  H   UNL A   1      33.055  29.031  24.729  1.00  0.00     0.163 HD
BRANCH  29  31
ATOM     31  C   UNL A   1      31.796  27.731  25.706  1.00  0.00     0.117 C 
BRANCH  31  32
ATOM     32  C   UNL A   1      32.721  27.855  26.914  1.00  0.00     0.042 C 
BRANCH  32  33
ATOM     33  C   UNL A   1      34.045  28.543  26.610  1.00  0.00     0.118 C 
BRANCH  33  34
ATOM     34  N   UNL A   1      33.965  29.987  26.792  1.00  0.00    -0.352 N 
ATOM     35  C   UNL A   1      34.703  30.830  27.586  1.00  0.00     0.251 C 
ATOM     36  H   UNL A   1      33.269  30.432  26.258  1.00  0.00     0.163 HD
ATOM     37  O   UNL A   1      34.305  31.980  27.759  1.00  0.00    -0.269 OA
BRANCH  35  38
ATOM     38  C   UNL A   1      35.954  30.376  28.237  1.00  0.00     0.039 A 
ATOM     39  C   UNL A   1      37.172  30.605  27.588  1.00  0.00     0.014 A 
ATOM     40  C   UNL A   1      35.937  29.682  29.449  1.00  0.00     0.014 A 
ATOM     41  C   UNL A   1      38.368  30.186  28.179  1.00  0.00     0.010 A 
ATOM     42  C   UNL A   1      37.133  29.345  30.079  1.00  0.00     0.010 A 
ATOM     43  C   UNL A   1      38.361  29.581  29.446  1.00  0.00    -0.014 A 
BRANCH  43  44
ATOM     44  C   UNL A   1      39.625  29.176  30.116  1.00  0.00     0.031 A 
ATOM     45  C   UNL A   1      40.112  29.922  31.331  1.00  0.00     0.074 A 
ATOM     46  C   UNL A   1      40.361  28.173  29.597  1.00  0.00     0.049 A 
ATOM     47  N   UNL A   1      41.216  29.759  32.013  1.00  0.00    -0.248 NA
ATOM     48  C   UNL A   1      39.255  31.010  31.831  1.00  0.00     0.031 C 
ATOM     49  C   UNL A   1      40.020  27.408  28.396  1.00  0.00     0.029 A 
ATOM     50  N   UNL A   1      41.555  27.632  30.005  1.00  0.00    -0.354 N 
ATOM     51  C   UNL A   1      41.195  30.731  33.007  1.00  0.00     0.074 A 
ATOM     52  C   UNL A   1      39.995  31.513  32.809  1.00  0.00     0.031 C 
ATOM     53  C   UNL A   1      40.967  26.482  28.179  1.00  0.00     0.029 A 
ATOM     54  C   UNL A   1      42.005  26.615  29.196  1.00  0.00     0.049 A 
ATOM     55  H   UNL A   1      42.042  27.942  30.801  1.00  0.00     0.167 HD
ATOM     56  C   UNL A   1      42.081  30.936  34.011  1.00  0.00     0.037 A 
ATOM     57  C   UNL A   1      43.133  25.880  29.258  1.00  0.00     0.037 A 
ATOM     58  C   UNL A   1      43.263  30.138  34.215  1.00  0.00     0.049 A 
ATOM     59  C   UNL A   1      44.108  26.133  30.377  1.00  0.00     0.074 A 
ATOM     60  C   UNL A   1      44.196  30.226  35.233  1.00  0.00     0.029 A 
ATOM     61  N   UNL A   1      43.677  29.107  33.383  1.00  0.00    -0.354 N 
ATOM     62  N   UNL A   1      44.037  27.012  31.349  1.00  0.00    -0.248 NA
ATOM     63  C   UNL A   1      45.312  25.293  30.412  1.00  0.00     0.031 C 
ATOM     64  C   UNL A   1      45.200  29.284  34.990  1.00  0.00     0.029 A 
ATOM     65  C   UNL A   1      44.863  28.568  33.852  1.00  0.00     0.049 A 
ATOM     66  H   UNL A   1      43.198  28.804  32.577  1.00  0.00     0.167 HD
ATOM     67  C   UNL A   1      45.175  26.812  32.125  1.00  0.00     0.074 A 
ATOM     68  C   UNL A   1      45.906  25.720  31.518  1.00  0.00     0.031 C 
ATOM     69  C   UNL A   1      45.577  27.475  33.238  1.00  0.00     0.037 A 
BRANCH  56  70
ATOM     70  C   UNL A   1      41.808  32.064  34.970  1.00  0.00     0.058 A 
ATOM     71  C   UNL A   1      42.364  33.341  34.785  1.00  0.00     0.135 A 
ATOM     72  C   UNL A   1      40.948  31.881  36.065  1.00  0.00     0.135 A 
ATOM     73  F   UNL A   1      43.204  33.572  33.763  1.00  0.00    -0.206 F 
ATOM     74  C   UNL A   1      42.101  34.386  35.665  1.00  0.00     0.059 A 
ATOM     75  C   UNL A   1      40.647  32.920  36.942  1.00  0.00     0.059 A 
ATOM     76  F   UNL A   1      40.387  30.683  36.291  1.00  0.00    -0.206 F 
ATOM     77  C   UNL A   1      41.240  34.165  36.741  1.00  0.00     0.060 A 
BRANCH  77  78
ATOM     78  S   UNL A   1      40.902  35.536  37.866  1.00  0.00     0.124 S 
ATOM     79  O   UNL A   1      40.356  36.536  36.953  1.00  0.00    -0.237 OA
ATOM     80  O   UNL A   1      39.950  34.945  38.801  1.00  0.00    -0.237 OA
ATOM     81  O   UNL A   1      42.214  35.849  38.425  1.00  0.00    -0.744 OA
ENDBRANCH  77  78
ENDBRANCH  56  70
BRANCH  57  82
ATOM     82  C   UNL A   1      43.392  24.825  28.242  1.00  0.00     0.058 A 
ATOM     83  C   UNL A   1      44.053  25.124  27.041  1.00  0.00     0.135 A 
ATOM     84  C   UNL A   1      42.995  23.495  28.454  1.00  0.00     0.135 A 
ATOM     85  F   UNL A   1      44.446  26.381  26.787  1.00  0.00    -0.206 F 
ATOM     86  C   UNL A   1      44.294  24.149  26.078  1.00  0.00     0.059 A 
ATOM     87  C   UNL A   1      43.251  22.496  27.518  1.00  0.00     0.059 A 
ATOM     88  F   UNL A   1      42.372  23.151  29.592  1.00  0.00    -0.206 F 
ATOM     89  C   UNL A   1      43.891  22.836  26.328  1.00  0.00     0.060 A 
BRANCH  89  90
ATOM     90  S   UNL A   1      44.249  21.569  25.092  1.00  0.00     0.124 S 
ATOM     91  O   UNL A   1      44.116  22.323  23.851  1.00  0.00    -0.237 OA
ATOM     92  O   UNL A   1      45.604  21.164  25.452  1.00  0.00    -0.237 OA
ATOM     93  O   UNL A   1      43.218  20.564  25.334  1.00  0.00    -0.744 OA
ENDBRANCH  89  90
ENDBRANCH  57  82
BRANCH  69  94
ATOM     94  C   UNL A   1      46.851  27.016  33.894  1.00  0.00     0.058 A 
ATOM     95  C   UNL A   1      46.856  26.016  34.879  1.00  0.00     0.135 A 
ATOM     96  C   UNL A   1      48.087  27.548  33.495  1.00  0.00     0.135 A 
ATOM     97  F   UNL A   1      45.701  25.478  35.303  1.00  0.00    -0.206 F 
ATOM     98  C   UNL A   1      48.040  25.576  35.462  1.00  0.00     0.059 A 
ATOM     99  C   UNL A   1      49.286  27.103  34.041  1.00  0.00     0.059 A 
ATOM    100  F   UNL A   1      48.139  28.500  32.549  1.00  0.00    -0.206 F 
ATOM    101  C   UNL A   1      49.251  26.124  35.034  1.00  0.00     0.060 A 
BRANCH 101 102
ATOM    102  S   UNL A   1      50.782  25.521  35.774  1.00  0.00     0.124 S 
ATOM    103  O   UNL A   1      51.423  24.869  34.637  1.00  0.00    -0.237 OA
ATOM    104  O   UNL A   1      51.413  26.755  36.236  1.00  0.00    -0.237 OA
ATOM    105  O   UNL A   1      50.320  24.627  36.831  1.00  0.00    -0.744 OA
ENDBRANCH 101 102
ENDBRANCH  69  94
ENDBRANCH  43  44
ENDBRANCH  35  38
ENDBRANCH  33  34
ENDBRANCH  32  33
ENDBRANCH  31  32
ENDBRANCH  29  31
ENDBRANCH   1  27
TORSDOF 22
ENDMDL
MODEL 2
REMARK VINA RESULT:     -10.6      2.290      2.787
REMARK SMILES CCCCCCNC(=O)Oc1cccc(-c2ccc([C@@H](C)C(=O)NCCCNC(=O)c3ccc(-c4c5nc(c(-c6c(F)cc(S(=O)(=O)[O-])cc6F)c6ccc([nH]6)c(-c6c(F)cc(S(=O)(=O)[O-])cc6F)c6nc(c(-c7c(F)cc(S(=O)(=O)[O-])cc7F)c7ccc4[nH]7)C=C6)C=C5)cc3)cc2F)c1
REMARK SMILES IDX 20 1 21 2 19 3 16 4 17 5 98 6 18 7 97 8 99 9 15 10 11 11
REMARK SMILES IDX 12 12 100 13 13 14 14 15 10 16 8 17 7 18 9 20 6 21 5 22 4 23
REMARK SMILES IDX 3 24 2 25 1 26 22 27 23 28 24 29 25 31 26 32 27 33 28 34
REMARK SMILES IDX 29 35 30 37 31 38 32 39 96 40 33 41 95 42 34 43 35 44 36 45
REMARK SMILES IDX 89 46 37 47 94 48 88 49 90 50 38 51 93 52 87 53 86 54 39 56
REMARK SMILES IDX 73 57 52 58 72 59 53 60 56 61 71 62 91 63 54 64 55 65 70 67
REMARK SMILES IDX 92 68 57 69 40 70 41 71 50 72 42 73 43 74 49 75 51 76 44 77
REMARK SMILES IDX 45 78 46 79 47 80 48 81 74 82 75 83 84 84 76 85 77 86 83 87
REMARK SMILES IDX 85 88 78 89 79 90 80 91 81 92 82 93 58 94 59 95 68 96 60 97
REMARK SMILES IDX 61 98 67 99 69 100 62 101 63 102 64 103 65 104 66 105
REMARK H PARENT 7 19 24 30 28 36 90 55 56 66
REMARK Flexibility Score: inf
ROOT
ATOM      1  C   UNL A   1      30.982  27.379  22.857  1.00  0.00     0.105 C 
ATOM      2  C   UNL A   1      29.612  27.796  23.390  1.00  0.00     0.023 C 
ENDROOT
BRANCH   1   3
ATOM      3  C   UNL A   1      31.238  25.882  22.814  1.00  0.00    -0.033 A 
ATOM      4  C   UNL A   1      31.899  23.097  22.869  1.00  0.00     0.018 A 
ATOM      5  C   UNL A   1      30.759  23.599  23.516  1.00  0.00     0.012 A 
ATOM      6  C   UNL A   1      32.669  24.023  22.151  1.00  0.00     0.131 A 
ATOM      7  C   UNL A   1      30.414  24.954  23.455  1.00  0.00     0.005 A 
ATOM      8  C   UNL A   1      32.363  25.389  22.139  1.00  0.00     0.044 A 
ATOM      9  F   UNL A   1      33.739  23.624  21.445  1.00  0.00    -0.206 F 
BRANCH   4  10
ATOM     10  C   UNL A   1      32.260  21.668  22.991  1.00  0.00    -0.012 A 
ATOM     11  C   UNL A   1      33.274  19.832  24.223  1.00  0.00     0.133 A 
ATOM     12  C   UNL A   1      32.838  18.908  23.280  1.00  0.00     0.047 A 
ATOM     13  C   UNL A   1      33.004  21.195  24.085  1.00  0.00     0.056 A 
ATOM     14  C   UNL A   1      32.106  19.353  22.187  1.00  0.00     0.004 A 
ATOM     15  C   UNL A   1      31.829  20.718  22.042  1.00  0.00     0.009 A 
BRANCH  11  16
ATOM     16  O   UNL A   1      34.091  19.354  25.257  1.00  0.00    -0.410 OA
BRANCH  16  17
ATOM     17  C   UNL A   1      35.265  18.707  24.908  1.00  0.00     0.412 C 
ATOM     18  N   UNL A   1      36.352  19.537  24.924  1.00  0.00    -0.321 N 
ATOM     19  H   UNL A   1      37.211  19.147  24.642  1.00  0.00     0.167 HD
ATOM     20  O   UNL A   1      35.384  17.524  24.616  1.00  0.00    -0.224 OA
BRANCH  18  21
ATOM     21  C   UNL A   1      36.367  20.933  25.311  1.00  0.00     0.119 C 
BRANCH  21  22
ATOM     22  C   UNL A   1      36.795  21.832  24.151  1.00  0.00     0.021 C 
BRANCH  22  23
ATOM     23  C   UNL A   1      36.312  23.285  24.258  1.00  0.00     0.002 C 
BRANCH  23  24
ATOM     24  C   UNL A   1      35.652  23.661  25.590  1.00  0.00    -0.000 C 
BRANCH  24  25
ATOM     25  C   UNL A   1      34.314  24.393  25.472  1.00  0.00    -0.003 C 
ATOM     26  C   UNL A   1      33.257  23.871  26.432  1.00  0.00     0.004 C 
ENDBRANCH  24  25
ENDBRANCH  23  24
ENDBRANCH  22  23
ENDBRANCH  21  22
ENDBRANCH  18  21
ENDBRANCH  16  17
ENDBRANCH  11  16
ENDBRANCH   4  10
ENDBRANCH   1   3
BRANCH   1  27
ATOM     27  C   UNL A   1      32.156  28.193  23.424  1.00  0.00     0.227 C 
ATOM     28  O   UNL A   1      32.744  29.006  22.699  1.00  0.00    -0.274 OA
ATOM     29  N   UNL A   1      32.603  28.101  24.705  1.00  0.00    -0.356 N 
ATOM     30  H   UNL A   1      33.334  28.726  24.919  1.00  0.00     0.163 HD
BRANCH  29  31
ATOM     31  C   UNL A   1      32.208  27.257  25.816  1.00  0.00     0.117 C 
BRANCH  31  32
ATOM     32  C   UNL A   1      32.669  27.810  27.162  1.00  0.00     0.042 C 
BRANCH  32  33
ATOM     33  C   UNL A   1      33.945  28.637  27.086  1.00  0.00     0.118 C 
BRANCH  33  34
ATOM     34  N   UNL A   1      33.736  30.010  27.529  1.00  0.00    -0.352 N 
ATOM     35  C   UNL A   1      34.530  30.836  28.285  1.00  0.00     0.251 C 
ATOM     36  H   UNL A   1      32.885  30.411  27.238  1.00  0.00     0.163 HD
ATOM     37  O   UNL A   1      34.046  31.873  28.735  1.00  0.00    -0.269 OA
BRANCH  35  38
ATOM     38  C   UNL A   1      35.943  30.496  28.571  1.00  0.00     0.039 A 
ATOM     39  C   UNL A   1      36.267  29.965  29.825  1.00  0.00     0.014 A 
ATOM     40  C   UNL A   1      36.956  30.743  27.643  1.00  0.00     0.014 A 
ATOM     41  C   UNL A   1      37.593  29.636  30.122  1.00  0.00     0.010 A 
ATOM     42  C   UNL A   1      38.262  30.332  27.906  1.00  0.00     0.010 A 
ATOM     43  C   UNL A   1      38.597  29.787  29.153  1.00  0.00    -0.014 A 
BRANCH  43  44
ATOM     44  C   UNL A   1      40.005  29.394  29.430  1.00  0.00     0.031 A 
ATOM     45  C   UNL A   1      40.965  30.388  30.029  1.00  0.00     0.074 A 
ATOM     46  C   UNL A   1      40.430  28.162  29.090  1.00  0.00     0.049 A 
ATOM     47  N   UNL A   1      42.241  30.254  30.284  1.00  0.00    -0.248 NA
ATOM     48  C   UNL A   1      40.425  31.716  30.364  1.00  0.00     0.031 C 
ATOM     49  C   UNL A   1      39.607  27.127  28.458  1.00  0.00     0.029 A 
ATOM     50  N   UNL A   1      41.663  27.571  29.217  1.00  0.00    -0.354 N 
ATOM     51  C   UNL A   1      42.658  31.479  30.792  1.00  0.00     0.074 A 
ATOM     52  C   UNL A   1      41.513  32.362  30.759  1.00  0.00     0.031 C 
ATOM     53  C   UNL A   1      40.350  26.024  28.275  1.00  0.00     0.029 A 
ATOM     54  C   UNL A   1      41.710  26.284  28.734  1.00  0.00     0.049 A 
ATOM     55  H   UNL A   1      42.439  28.025  29.615  1.00  0.00     0.167 HD
ATOM     56  C   UNL A   1      43.878  31.830  31.266  1.00  0.00     0.037 A 
ATOM     57  C   UNL A   1      42.737  25.414  28.657  1.00  0.00     0.037 A 
ATOM     58  C   UNL A   1      45.007  30.937  31.315  1.00  0.00     0.049 A 
ATOM     59  C   UNL A   1      44.085  25.830  29.182  1.00  0.00     0.074 A 
ATOM     60  C   UNL A   1      46.271  31.175  31.828  1.00  0.00     0.029 A 
ATOM     61  N   UNL A   1      45.012  29.636  30.830  1.00  0.00    -0.354 N 
ATOM     62  N   UNL A   1      44.445  26.971  29.721  1.00  0.00    -0.248 NA
ATOM     63  C   UNL A   1      45.167  24.840  29.093  1.00  0.00     0.031 C 
ATOM     64  C   UNL A   1      47.053  30.037  31.609  1.00  0.00     0.029 A 
ATOM     65  C   UNL A   1      46.262  29.068  31.011  1.00  0.00     0.049 A 
ATOM     66  H   UNL A   1      44.240  29.184  30.418  1.00  0.00     0.167 HD
ATOM     67  C   UNL A   1      45.786  26.826  30.059  1.00  0.00     0.074 A 
ATOM     68  C   UNL A   1      46.169  25.482  29.678  1.00  0.00     0.031 C 
ATOM     69  C   UNL A   1      46.626  27.725  30.631  1.00  0.00     0.037 A 
BRANCH  56  70
ATOM     70  C   UNL A   1      44.056  33.235  31.774  1.00  0.00     0.058 A 
ATOM     71  C   UNL A   1      44.458  34.281  30.926  1.00  0.00     0.135 A 
ATOM     72  C   UNL A   1      43.785  33.552  33.115  1.00  0.00     0.135 A 
ATOM     73  F   UNL A   1      44.744  34.036  29.638  1.00  0.00    -0.206 F 
ATOM     74  C   UNL A   1      44.611  35.582  31.395  1.00  0.00     0.059 A 
ATOM     75  C   UNL A   1      43.902  34.853  33.599  1.00  0.00     0.059 A 
ATOM     76  F   UNL A   1      43.397  32.594  33.971  1.00  0.00    -0.206 F 
ATOM     77  C   UNL A   1      44.330  35.858  32.734  1.00  0.00     0.060 A 
BRANCH  77  78
ATOM     78  S   UNL A   1      44.524  37.554  33.321  1.00  0.00     0.124 S 
ATOM     79  O   UNL A   1      43.885  37.484  34.631  1.00  0.00    -0.237 OA
ATOM     80  O   UNL A   1      45.974  37.717  33.330  1.00  0.00    -0.237 OA
ATOM     81  O   UNL A   1      43.814  38.345  32.320  1.00  0.00    -0.744 OA
ENDBRANCH  77  78
ENDBRANCH  56  70
BRANCH  57  82
ATOM     82  C   UNL A   1      42.525  24.060  28.078  1.00  0.00     0.058 A 
ATOM     83  C   UNL A   1      42.386  23.880  26.693  1.00  0.00     0.135 A 
ATOM     84  C   UNL A   1      42.470  22.919  28.893  1.00  0.00     0.135 A 
ATOM     85  F   UNL A   1      42.425  24.940  25.872  1.00  0.00    -0.206 F 
ATOM     86  C   UNL A   1      42.179  22.621  26.139  1.00  0.00     0.059 A 
ATOM     87  C   UNL A   1      42.293  21.646  28.359  1.00  0.00     0.059 A 
ATOM     88  F   UNL A   1      42.612  23.033  30.223  1.00  0.00    -0.206 F 
ATOM     89  C   UNL A   1      42.137  21.508  26.981  1.00  0.00     0.060 A 
BRANCH  89  90
ATOM     90  S   UNL A   1      41.913  19.873  26.247  1.00  0.00     0.124 S 
ATOM     91  O   UNL A   1      40.494  19.891  25.916  1.00  0.00    -0.237 OA
ATOM     92  O   UNL A   1      42.835  19.916  25.117  1.00  0.00    -0.237 OA
ATOM     93  O   UNL A   1      42.299  18.967  27.325  1.00  0.00    -0.744 OA
ENDBRANCH  89  90
ENDBRANCH  57  82
BRANCH  69  94
ATOM     94  C   UNL A   1      48.034  27.276  30.913  1.00  0.00     0.058 A 
ATOM     95  C   UNL A   1      48.379  26.637  32.114  1.00  0.00     0.135 A 
ATOM     96  C   UNL A   1      49.038  27.441  29.946  1.00  0.00     0.135 A 
ATOM     97  F   UNL A   1      47.458  26.461  33.075  1.00  0.00    -0.206 F 
ATOM     98  C   UNL A   1      49.677  26.200  32.357  1.00  0.00     0.059 A 
ATOM     99  C   UNL A   1      50.335  26.984  30.154  1.00  0.00     0.059 A 
ATOM    100  F   UNL A   1      48.758  28.037  28.775  1.00  0.00    -0.206 F 
ATOM    101  C   UNL A   1      50.648  26.375  31.368  1.00  0.00     0.060 A 
BRANCH 101 102
ATOM    102  S   UNL A   1      52.319  25.772  31.682  1.00  0.00     0.124 S 
ATOM    103  O   UNL A   1      52.068  24.381  32.043  1.00  0.00    -0.237 OA
ATOM    104  O   UNL A   1      52.975  25.985  30.395  1.00  0.00    -0.237 OA
ATOM    105  O   UNL A   1      52.791  26.626  32.768  1.00  0.00    -0.744 OA
ENDBRANCH 101 102
ENDBRANCH  69  94
ENDBRANCH  43  44
ENDBRANCH  35  38
ENDBRANCH  33  34
ENDBRANCH  32  33
ENDBRANCH  31  32
ENDBRANCH  29  31
ENDBRANCH   1  27
TORSDOF 22
ENDMDL
MODEL 3
REMARK VINA RESULT:     -10.1      4.680     12.190
REMARK SMILES CCCCCCNC(=O)Oc1cccc(-c2ccc([C@@H](C)C(=O)NCCCNC(=O)c3ccc(-c4c5nc(c(-c6c(F)cc(S(=O)(=O)[O-])cc6F)c6ccc([nH]6)c(-c6c(F)cc(S(=O)(=O)[O-])cc6F)c6nc(c(-c7c(F)cc(S(=O)(=O)[O-])cc7F)c7ccc4[nH]7)C=C6)C=C5)cc3)cc2F)c1
REMARK SMILES IDX 20 1 21 2 19 3 16 4 17 5 98 6 18 7 97 8 99 9 15 10 11 11
REMARK SMILES IDX 12 12 100 13 13 14 14 15 10 16 8 17 7 18 9 20 6 21 5 22 4 23
REMARK SMILES IDX 3 24 2 25 1 26 22 27 23 28 24 29 25 31 26 32 27 33 28 34
REMARK SMILES IDX 29 35 30 37 31 38 32 39 96 40 33 41 95 42 34 43 35 44 36 45
REMARK SMILES IDX 89 46 37 47 94 48 88 49 90 50 38 51 93 52 87 53 86 54 39 56
REMARK SMILES IDX 73 57 52 58 72 59 53 60 56 61 71 62 91 63 54 64 55 65 70 67
REMARK SMILES IDX 92 68 57 69 40 70 41 71 50 72 42 73 43 74 49 75 51 76 44 77
REMARK SMILES IDX 45 78 46 79 47 80 48 81 74 82 75 83 84 84 76 85 77 86 83 87
REMARK SMILES IDX 85 88 78 89 79 90 80 91 81 92 82 93 58 94 59 95 68 96 60 97
REMARK SMILES IDX 61 98 67 99 69 100 62 101 63 102 64 103 65 104 66 105
REMARK H PARENT 7 19 24 30 28 36 90 55 56 66
REMARK Flexibility Score: inf
ROOT
ATOM      1  C   UNL A   1      45.616  24.247  26.301  1.00  0.00     0.105 C 
ATOM      2  C   UNL A   1      45.112  23.444  27.499  1.00  0.00     0.023 C 
ENDROOT
BRANCH   1   3
ATOM      3  C   UNL A   1      45.559  25.758  26.456  1.00  0.00    -0.033 A 
ATOM      4  C   UNL A   1      45.322  28.571  26.933  1.00  0.00     0.018 A 
ATOM      5  C   UNL A   1      46.533  27.887  27.127  1.00  0.00     0.012 A 
ATOM      6  C   UNL A   1      44.248  27.813  26.445  1.00  0.00     0.131 A 
ATOM      7  C   UNL A   1      46.658  26.520  26.854  1.00  0.00     0.005 A 
ATOM      8  C   UNL A   1      44.352  26.434  26.231  1.00  0.00     0.044 A 
ATOM      9  F   UNL A   1      43.071  28.394  26.165  1.00  0.00    -0.206 F 
BRANCH   4  10
ATOM     10  C   UNL A   1      45.211  30.005  27.274  1.00  0.00    -0.012 A 
ATOM     11  C   UNL A   1      45.608  32.348  26.756  1.00  0.00     0.133 A 
ATOM     12  C   UNL A   1      44.881  32.757  27.868  1.00  0.00     0.047 A 
ATOM     13  C   UNL A   1      45.786  30.996  26.460  1.00  0.00     0.056 A 
ATOM     14  C   UNL A   1      44.308  31.796  28.690  1.00  0.00     0.004 A 
ATOM     15  C   UNL A   1      44.480  30.438  28.400  1.00  0.00     0.009 A 
BRANCH  11  16
ATOM     16  O   UNL A   1      46.250  33.345  26.009  1.00  0.00    -0.410 OA
BRANCH  16  17
ATOM     17  C   UNL A   1      45.458  34.277  25.357  1.00  0.00     0.412 C 
ATOM     18  N   UNL A   1      46.045  35.510  25.280  1.00  0.00    -0.321 N 
ATOM     19  H   UNL A   1      45.514  36.227  24.866  1.00  0.00     0.167 HD
ATOM     20  O   UNL A   1      44.351  34.077  24.872  1.00  0.00    -0.224 OA
BRANCH  18  21
ATOM     21  C   UNL A   1      47.368  35.866  25.748  1.00  0.00     0.119 C 
BRANCH  21  22
ATOM     22  C   UNL A   1      47.349  36.283  27.219  1.00  0.00     0.021 C 
BRANCH  22  23
ATOM     23  C   UNL A   1      46.037  36.928  27.683  1.00  0.00     0.002 C 
BRANCH  23  24
ATOM     24  C   UNL A   1      45.345  36.233  28.861  1.00  0.00    -0.000 C 
BRANCH  24  25
ATOM     25  C   UNL A   1      46.261  35.864  30.031  1.00  0.00    -0.003 C 
ATOM     26  C   UNL A   1      46.736  37.070  30.825  1.00  0.00     0.004 C 
ENDBRANCH  24  25
ENDBRANCH  23  24
ENDBRANCH  22  23
ENDBRANCH  21  22
ENDBRANCH  18  21
ENDBRANCH  16  17
ENDBRANCH  11  16
ENDBRANCH   4  10
ENDBRANCH   1   3
BRANCH   1  27
ATOM     27  C   UNL A   1      45.104  23.744  24.941  1.00  0.00     0.227 C 
ATOM     28  O   UNL A   1      45.878  23.694  23.976  1.00  0.00    -0.274 OA
ATOM     29  N   UNL A   1      43.833  23.319  24.711  1.00  0.00    -0.356 N 
ATOM     30  H   UNL A   1      43.682  22.985  23.796  1.00  0.00     0.163 HD
BRANCH  29  31
ATOM     31  C   UNL A   1      42.657  23.265  25.557  1.00  0.00     0.117 C 
BRANCH  31  32
ATOM     32  C   UNL A   1      42.149  21.840  25.761  1.00  0.00     0.042 C 
BRANCH  32  33
ATOM     33  C   UNL A   1      40.892  21.749  26.616  1.00  0.00     0.118 C 
BRANCH  33  34
ATOM     34  N   UNL A   1      39.693  22.098  25.866  1.00  0.00    -0.352 N 
ATOM     35  C   UNL A   1      38.873  23.196  25.951  1.00  0.00     0.251 C 
ATOM     36  H   UNL A   1      39.426  21.438  25.187  1.00  0.00     0.163 HD
ATOM     37  O   UNL A   1      37.783  23.167  25.382  1.00  0.00    -0.269 OA
BRANCH  35  38
ATOM     38  C   UNL A   1      39.275  24.399  26.716  1.00  0.00     0.039 A 
ATOM     39  C   UNL A   1      38.870  24.514  28.051  1.00  0.00     0.014 A 
ATOM     40  C   UNL A   1      39.995  25.437  26.122  1.00  0.00     0.014 A 
ATOM     41  C   UNL A   1      39.234  25.640  28.796  1.00  0.00     0.010 A 
ATOM     42  C   UNL A   1      40.434  26.515  26.889  1.00  0.00     0.010 A 
ATOM     43  C   UNL A   1      40.047  26.635  28.231  1.00  0.00    -0.014 A 
BRANCH  43  44
ATOM     44  C   UNL A   1      40.490  27.814  29.022  1.00  0.00     0.031 A 
ATOM     45  C   UNL A   1      41.833  27.807  29.704  1.00  0.00     0.074 A 
ATOM     46  C   UNL A   1      39.660  28.865  29.170  1.00  0.00     0.049 A 
ATOM     47  N   UNL A   1      42.366  28.710  30.486  1.00  0.00    -0.248 NA
ATOM     48  C   UNL A   1      42.677  26.619  29.500  1.00  0.00     0.031 C 
ATOM     49  C   UNL A   1      38.314  28.967  28.599  1.00  0.00     0.029 A 
ATOM     50  N   UNL A   1      39.817  30.043  29.856  1.00  0.00    -0.354 N 
ATOM     51  C   UNL A   1      43.596  28.194  30.878  1.00  0.00     0.074 A 
ATOM     52  C   UNL A   1      43.708  26.877  30.293  1.00  0.00     0.031 C 
ATOM     53  C   UNL A   1      37.781  30.151  28.937  1.00  0.00     0.029 A 
ATOM     54  C   UNL A   1      38.724  30.875  29.784  1.00  0.00     0.049 A 
ATOM     55  H   UNL A   1      40.635  30.272  30.352  1.00  0.00     0.167 HD
ATOM     56  C   UNL A   1      44.557  28.775  31.637  1.00  0.00     0.037 A 
ATOM     57  C   UNL A   1      38.500  32.078  30.347  1.00  0.00     0.037 A 
ATOM     58  C   UNL A   1      44.446  30.097  32.198  1.00  0.00     0.049 A 
ATOM     59  C   UNL A   1      39.578  32.700  31.193  1.00  0.00     0.074 A 
ATOM     60  C   UNL A   1      45.384  30.801  32.934  1.00  0.00     0.029 A 
ATOM     61  N   UNL A   1      43.330  30.914  32.091  1.00  0.00    -0.354 N 
ATOM     62  N   UNL A   1      40.763  32.225  31.498  1.00  0.00    -0.248 NA
ATOM     63  C   UNL A   1      39.293  34.021  31.769  1.00  0.00     0.031 C 
ATOM     64  C   UNL A   1      44.817  32.021  33.312  1.00  0.00     0.029 A 
ATOM     65  C   UNL A   1      43.546  32.104  32.765  1.00  0.00     0.049 A 
ATOM     66  H   UNL A   1      42.504  30.682  31.606  1.00  0.00     0.167 HD
ATOM     67  C   UNL A   1      41.374  33.201  32.279  1.00  0.00     0.074 A 
ATOM     68  C   UNL A   1      40.434  34.298  32.386  1.00  0.00     0.031 C 
ATOM     69  C   UNL A   1      42.601  33.190  32.857  1.00  0.00     0.037 A 
BRANCH  56  70
ATOM     70  C   UNL A   1      45.813  27.990  31.902  1.00  0.00     0.058 A 
ATOM     71  C   UNL A   1      45.911  27.096  32.981  1.00  0.00     0.135 A 
ATOM     72  C   UNL A   1      46.921  28.099  31.045  1.00  0.00     0.135 A 
ATOM     73  F   UNL A   1      44.889  26.960  33.842  1.00  0.00    -0.206 F 
ATOM     74  C   UNL A   1      47.069  26.362  33.218  1.00  0.00     0.059 A 
ATOM     75  C   UNL A   1      48.078  27.352  31.245  1.00  0.00     0.059 A 
ATOM     76  F   UNL A   1      46.884  28.937  29.997  1.00  0.00    -0.206 F 
ATOM     77  C   UNL A   1      48.148  26.496  32.343  1.00  0.00     0.060 A 
BRANCH  77  78
ATOM     78  S   UNL A   1      49.638  25.527  32.661  1.00  0.00     0.124 S 
ATOM     79  O   UNL A   1      50.566  26.560  33.113  1.00  0.00    -0.237 OA
ATOM     80  O   UNL A   1      49.187  24.589  33.684  1.00  0.00    -0.237 OA
ATOM     81  O   UNL A   1      49.943  24.936  31.362  1.00  0.00    -0.744 OA
ENDBRANCH  77  78
ENDBRANCH  56  70
BRANCH  57  82
ATOM     82  C   UNL A   1      37.210  32.782  30.113  1.00  0.00     0.058 A 
ATOM     83  C   UNL A   1      36.151  32.674  31.028  1.00  0.00     0.135 A 
ATOM     84  C   UNL A   1      37.012  33.585  28.979  1.00  0.00     0.135 A 
ATOM     85  F   UNL A   1      36.288  31.913  32.124  1.00  0.00    -0.206 F 
ATOM     86  C   UNL A   1      34.937  33.319  30.818  1.00  0.00     0.059 A 
ATOM     87  C   UNL A   1      35.816  34.264  28.762  1.00  0.00     0.059 A 
ATOM     88  F   UNL A   1      37.997  33.735  28.080  1.00  0.00    -0.206 F 
ATOM     89  C   UNL A   1      34.780  34.115  29.682  1.00  0.00     0.060 A 
BRANCH  89  90
ATOM     90  S   UNL A   1      33.215  34.985  29.441  1.00  0.00     0.124 S 
ATOM     91  O   UNL A   1      32.646  34.943  30.783  1.00  0.00    -0.237 OA
ATOM     92  O   UNL A   1      33.661  36.294  28.976  1.00  0.00    -0.237 OA
ATOM     93  O   UNL A   1      32.531  34.173  28.439  1.00  0.00    -0.744 OA
ENDBRANCH  89  90
ENDBRANCH  57  82
BRANCH  69  94
ATOM     94  C   UNL A   1      43.014  34.413  33.629  1.00  0.00     0.058 A 
ATOM     95  C   UNL A   1      42.936  34.464  35.029  1.00  0.00     0.135 A 
ATOM     96  C   UNL A   1      43.544  35.529  32.961  1.00  0.00     0.135 A 
ATOM     97  F   UNL A   1      42.430  33.427  35.717  1.00  0.00    -0.206 F 
ATOM     98  C   UNL A   1      43.345  35.588  35.739  1.00  0.00     0.059 A 
ATOM     99  C   UNL A   1      43.989  36.651  33.652  1.00  0.00     0.059 A 
ATOM    100  F   UNL A   1      43.652  35.527  31.623  1.00  0.00    -0.206 F 
ATOM    101  C   UNL A   1      43.874  36.676  35.042  1.00  0.00     0.060 A 
BRANCH 101 102
ATOM    102  S   UNL A   1      44.433  38.114  35.977  1.00  0.00     0.124 S 
ATOM    103  O   UNL A   1      43.855  37.854  37.291  1.00  0.00    -0.237 OA
ATOM    104  O   UNL A   1      45.886  37.997  35.889  1.00  0.00    -0.237 OA
ATOM    105  O   UNL A   1      43.855  39.240  35.250  1.00  0.00    -0.744 OA
ENDBRANCH 101 102
ENDBRANCH  69  94
ENDBRANCH  43  44
ENDBRANCH  35  38
ENDBRANCH  33  34
ENDBRANCH  32  33
ENDBRANCH  31  32
ENDBRANCH  29  31
ENDBRANCH   1  27
TORSDOF 22
ENDMDL
