MODEL 1
REMARK VINA RESULT:     -10.8      0.000      0.000
REMARK SMILES CCCCCC(=O)N1CSC[C@H]1C(=O)NCCCNC(=O)c1ccc(-c2c3nc(c(-c4c(F)cc(S(=O)(=O)[O-])cc4F)c4ccc([nH]4)c(-c4c(F)cc(S(=O)(=O)[O-])cc4F)c4nc(c(-c5c(F)cc(S(=O)(=O)[O-])cc5F)c5ccc2[nH]5)C=C4)C=C3)cc1
REMARK SMILES IDX 16 1 15 2 13 3 14 4 12 6 8 7 9 8 10 9 11 10 6 11 7 12 5 13
REMARK SMILES IDX 4 14 3 15 2 16 1 17 17 18 18 19 19 20 20 21 21 23 22 24
REMARK SMILES IDX 23 25 87 26 24 27 86 28 25 29 26 30 27 31 80 32 28 33 85 34
REMARK SMILES IDX 79 35 81 36 29 37 84 38 78 39 77 40 30 42 64 43 43 44 63 45
REMARK SMILES IDX 44 46 47 47 62 48 82 49 45 50 46 51 61 53 83 54 48 55 31 56
REMARK SMILES IDX 32 57 41 58 33 59 34 60 40 61 42 62 35 63 36 64 37 65 38 66
REMARK SMILES IDX 39 67 65 68 66 69 75 70 67 71 68 72 74 73 76 74 69 75 70 76
REMARK SMILES IDX 71 77 72 78 73 79 49 80 50 81 59 82 51 83 52 84 58 85 60 86
REMARK SMILES IDX 53 87 54 88 55 89 56 90 57 91
REMARK H PARENT 15 5 19 22 81 41 47 52
REMARK Flexibility Score: inf
ROOT
ATOM      1  C   UNL A   1      32.890  29.567  26.208  1.00  0.00     0.117 C 
ENDROOT
BRANCH   1   2
ATOM      2  N   UNL A   1      33.511  29.560  24.904  1.00  0.00    -0.354 N 
ATOM      3  C   UNL A   1      33.495  28.612  23.927  1.00  0.00     0.243 C 
ATOM      4  O   UNL A   1      33.833  28.982  22.796  1.00  0.00    -0.273 OA
ATOM      5  H   UNL A   1      34.028  30.369  24.687  1.00  0.00     0.163 HD
BRANCH   3   6
ATOM      6  C   UNL A   1      32.881  27.214  24.128  1.00  0.00     0.185 C 
ATOM      7  N   UNL A   1      31.708  26.844  23.330  1.00  0.00    -0.321 N 
ATOM      8  C   UNL A   1      31.914  25.785  22.385  1.00  0.00     0.190 C 
ATOM      9  S   UNL A   1      33.426  24.916  22.801  1.00  0.00    -0.138 SA
ATOM     10  C   UNL A   1      33.970  26.146  24.010  1.00  0.00     0.106 C 
BRANCH   7  11
ATOM     11  C   UNL A   1      30.498  27.436  23.634  1.00  0.00     0.223 C 
ATOM     12  O   UNL A   1      29.863  27.072  24.627  1.00  0.00    -0.275 OA
BRANCH  11  13
ATOM     13  C   UNL A   1      29.823  28.346  22.604  1.00  0.00     0.100 C 
BRANCH  13  14
ATOM     14  C   UNL A   1      28.405  28.868  22.826  1.00  0.00     0.010 C 
BRANCH  14  15
ATOM     15  C   UNL A   1      27.999  30.189  22.160  1.00  0.00     0.000 C 
BRANCH  15  16
ATOM     16  C   UNL A   1      27.858  31.417  23.075  1.00  0.00    -0.003 C 
ATOM     17  C   UNL A   1      29.063  31.704  23.946  1.00  0.00     0.004 C 
ENDBRANCH  15  16
ENDBRANCH  14  15
ENDBRANCH  13  14
ENDBRANCH  11  13
ENDBRANCH   7  11
ENDBRANCH   3   6
ENDBRANCH   1   2
BRANCH   1  18
ATOM     18  C   UNL A   1      33.741  28.890  27.271  1.00  0.00     0.042 C 
BRANCH  18  19
ATOM     19  C   UNL A   1      35.096  29.564  27.451  1.00  0.00     0.118 C 
BRANCH  19  20
ATOM     20  N   UNL A   1      35.148  30.362  28.671  1.00  0.00    -0.352 N 
ATOM     21  C   UNL A   1      36.144  30.481  29.608  1.00  0.00     0.251 C 
ATOM     22  H   UNL A   1      34.343  30.900  28.851  1.00  0.00     0.163 HD
ATOM     23  O   UNL A   1      35.903  31.023  30.681  1.00  0.00    -0.269 OA
BRANCH  21  24
ATOM     24  C   UNL A   1      37.490  29.945  29.325  1.00  0.00     0.039 A 
ATOM     25  C   UNL A   1      37.938  29.899  28.004  1.00  0.00     0.014 A 
ATOM     26  C   UNL A   1      38.301  29.473  30.361  1.00  0.00     0.014 A 
ATOM     27  C   UNL A   1      39.228  29.445  27.728  1.00  0.00     0.010 A 
ATOM     28  C   UNL A   1      39.613  29.099  30.096  1.00  0.00     0.010 A 
ATOM     29  C   UNL A   1      40.089  29.081  28.777  1.00  0.00    -0.014 A 
BRANCH  29  30
ATOM     30  C   UNL A   1      41.495  28.681  28.522  1.00  0.00     0.031 A 
ATOM     31  C   UNL A   1      42.585  29.717  28.548  1.00  0.00     0.074 A 
ATOM     32  C   UNL A   1      41.772  27.402  28.200  1.00  0.00     0.049 A 
ATOM     33  N   UNL A   1      43.850  29.591  28.241  1.00  0.00    -0.248 NA
ATOM     34  C   UNL A   1      42.199  31.081  28.949  1.00  0.00     0.031 C 
ATOM     35  C   UNL A   1      40.788  26.319  28.111  1.00  0.00     0.029 A 
ATOM     36  N   UNL A   1      42.959  26.796  27.872  1.00  0.00    -0.354 N 
ATOM     37  C   UNL A   1      44.409  30.852  28.415  1.00  0.00     0.074 A 
ATOM     38  C   UNL A   1      43.334  31.744  28.789  1.00  0.00     0.031 C 
ATOM     39  C   UNL A   1      41.415  25.181  27.772  1.00  0.00     0.029 A 
ATOM     40  C   UNL A   1      42.831  25.460  27.569  1.00  0.00     0.049 A 
ATOM     41  H   UNL A   1      43.819  27.273  27.856  1.00  0.00     0.167 HD
ATOM     42  C   UNL A   1      45.706  31.223  28.304  1.00  0.00     0.037 A 
ATOM     43  C   UNL A   1      43.752  24.568  27.153  1.00  0.00     0.037 A 
ATOM     44  C   UNL A   1      46.769  30.323  27.941  1.00  0.00     0.049 A 
ATOM     45  C   UNL A   1      45.178  25.024  26.980  1.00  0.00     0.074 A 
ATOM     46  C   UNL A   1      48.120  30.593  27.820  1.00  0.00     0.029 A 
ATOM     47  N   UNL A   1      46.602  28.977  27.645  1.00  0.00    -0.354 N 
ATOM     48  N   UNL A   1      45.697  26.209  27.197  1.00  0.00    -0.248 NA
ATOM     49  C   UNL A   1      46.143  24.023  26.506  1.00  0.00     0.031 C 
ATOM     50  C   UNL A   1      48.765  29.422  27.409  1.00  0.00     0.029 A 
ATOM     51  C   UNL A   1      47.824  28.410  27.326  1.00  0.00     0.049 A 
ATOM     52  H   UNL A   1      45.743  28.498  27.661  1.00  0.00     0.167 HD
ATOM     53  C   UNL A   1      47.054  26.086  26.917  1.00  0.00     0.074 A 
ATOM     54  C   UNL A   1      47.277  24.709  26.532  1.00  0.00     0.031 C 
ATOM     55  C   UNL A   1      48.027  27.028  26.969  1.00  0.00     0.037 A 
BRANCH  42  56
ATOM     56  C   UNL A   1      46.055  32.654  28.605  1.00  0.00     0.058 A 
ATOM     57  C   UNL A   1      46.052  33.632  27.598  1.00  0.00     0.135 A 
ATOM     58  C   UNL A   1      46.332  33.069  29.918  1.00  0.00     0.135 A 
ATOM     59  F   UNL A   1      45.812  33.289  26.322  1.00  0.00    -0.206 F 
ATOM     60  C   UNL A   1      46.323  34.966  27.877  1.00  0.00     0.059 A 
ATOM     61  C   UNL A   1      46.580  34.404  30.225  1.00  0.00     0.059 A 
ATOM     62  F   UNL A   1      46.353  32.175  30.919  1.00  0.00    -0.206 F 
ATOM     63  C   UNL A   1      46.579  35.344  29.196  1.00  0.00     0.060 A 
BRANCH  63  64
ATOM     64  S   UNL A   1      46.895  37.088  29.541  1.00  0.00     0.124 S 
ATOM     65  O   UNL A   1      45.750  37.432  30.380  1.00  0.00    -0.237 OA
ATOM     66  O   UNL A   1      48.186  37.041  30.221  1.00  0.00    -0.237 OA
ATOM     67  O   UNL A   1      46.908  37.701  28.217  1.00  0.00    -0.744 OA
ENDBRANCH  63  64
ENDBRANCH  42  56
BRANCH  43  68
ATOM     68  C   UNL A   1      43.367  23.160  26.864  1.00  0.00     0.058 A 
ATOM     69  C   UNL A   1      42.997  22.286  27.897  1.00  0.00     0.135 A 
ATOM     70  C   UNL A   1      43.398  22.647  25.557  1.00  0.00     0.135 A 
ATOM     71  F   UNL A   1      42.952  22.727  29.164  1.00  0.00    -0.206 F 
ATOM     72  C   UNL A   1      42.716  20.945  27.654  1.00  0.00     0.059 A 
ATOM     73  C   UNL A   1      43.090  21.317  25.285  1.00  0.00     0.059 A 
ATOM     74  F   UNL A   1      43.724  23.443  24.528  1.00  0.00    -0.206 F 
ATOM     75  C   UNL A   1      42.771  20.469  26.344  1.00  0.00     0.060 A 
BRANCH  75  76
ATOM     76  S   UNL A   1      42.413  18.725  26.039  1.00  0.00     0.124 S 
ATOM     77  O   UNL A   1      40.997  18.775  25.693  1.00  0.00    -0.237 OA
ATOM     78  O   UNL A   1      43.329  18.411  24.947  1.00  0.00    -0.237 OA
ATOM     79  O   UNL A   1      42.730  18.091  27.315  1.00  0.00    -0.744 OA
ENDBRANCH  75  76
ENDBRANCH  43  68
BRANCH  55  80
ATOM     80  C   UNL A   1      49.430  26.596  26.645  1.00  0.00     0.058 A 
ATOM     81  C   UNL A   1      50.295  26.098  27.632  1.00  0.00     0.135 A 
ATOM     82  C   UNL A   1      49.889  26.612  25.317  1.00  0.00     0.135 A 
ATOM     83  F   UNL A   1      49.908  26.071  28.917  1.00  0.00    -0.206 F 
ATOM     84  C   UNL A   1      51.571  25.644  27.317  1.00  0.00     0.059 A 
ATOM     85  C   UNL A   1      51.150  26.134  24.975  1.00  0.00     0.059 A 
ATOM     86  F   UNL A   1      49.099  27.070  24.334  1.00  0.00    -0.206 F 
ATOM     87  C   UNL A   1      51.986  25.658  25.984  1.00  0.00     0.060 A 
BRANCH  87  88
ATOM     88  S   UNL A   1      53.623  25.010  25.584  1.00  0.00     0.124 S 
ATOM     89  O   UNL A   1      54.343  25.237  26.832  1.00  0.00    -0.237 OA
ATOM     90  O   UNL A   1      53.333  23.616  25.264  1.00  0.00    -0.237 OA
ATOM     91  O   UNL A   1      54.049  25.831  24.455  1.00  0.00    -0.744 OA
ENDBRANCH  87  88
ENDBRANCH  55  80
ENDBRANCH  29  30
ENDBRANCH  21  24
ENDBRANCH  19  20
ENDBRANCH  18  19
ENDBRANCH   1  18
TORSDOF 18
ENDMDL
MODEL 2
REMARK VINA RESULT:     -10.8      2.464      3.222
REMARK SMILES CCCCCC(=O)N1CSC[C@H]1C(=O)NCCCNC(=O)c1ccc(-c2c3nc(c(-c4c(F)cc(S(=O)(=O)[O-])cc4F)c4ccc([nH]4)c(-c4c(F)cc(S(=O)(=O)[O-])cc4F)c4nc(c(-c5c(F)cc(S(=O)(=O)[O-])cc5F)c5ccc2[nH]5)C=C4)C=C3)cc1
REMARK SMILES IDX 16 1 15 2 13 3 14 4 12 6 8 7 9 8 10 9 11 10 6 11 7 12 5 13
REMARK SMILES IDX 4 14 3 15 2 16 1 17 17 18 18 19 19 20 20 21 21 23 22 24
REMARK SMILES IDX 23 25 87 26 24 27 86 28 25 29 26 30 27 31 80 32 28 33 85 34
REMARK SMILES IDX 79 35 81 36 29 37 84 38 78 39 77 40 30 42 64 43 43 44 63 45
REMARK SMILES IDX 44 46 47 47 62 48 82 49 45 50 46 51 61 53 83 54 48 55 31 56
REMARK SMILES IDX 32 57 41 58 33 59 34 60 40 61 42 62 35 63 36 64 37 65 38 66
REMARK SMILES IDX 39 67 65 68 66 69 75 70 67 71 68 72 74 73 76 74 69 75 70 76
REMARK SMILES IDX 71 77 72 78 73 79 49 80 50 81 59 82 51 83 52 84 58 85 60 86
REMARK SMILES IDX 53 87 54 88 55 89 56 90 57 91
REMARK H PARENT 15 5 19 22 81 41 47 52
REMARK Flexibility Score: inf
ROOT
ATOM      1  C   UNL A   1      32.884  28.673  24.781  1.00  0.00     0.117 C 
ENDROOT
BRANCH   1   2
ATOM      2  N   UNL A   1      33.084  28.143  23.453  1.00  0.00    -0.354 N 
ATOM      3  C   UNL A   1      32.870  26.891  22.964  1.00  0.00     0.243 C 
ATOM      4  O   UNL A   1      32.815  26.783  21.732  1.00  0.00    -0.273 OA
ATOM      5  H   UNL A   1      33.429  28.790  22.796  1.00  0.00     0.163 HD
BRANCH   3   6
ATOM      6  C   UNL A   1      32.487  25.697  23.858  1.00  0.00     0.185 C 
ATOM      7  N   UNL A   1      31.076  25.308  23.939  1.00  0.00    -0.321 N 
ATOM      8  C   UNL A   1      30.758  24.022  23.390  1.00  0.00     0.190 C 
ATOM      9  S   UNL A   1      32.270  23.080  23.194  1.00  0.00    -0.138 SA
ATOM     10  C   UNL A   1      33.359  24.488  23.514  1.00  0.00     0.106 C 
BRANCH   7  11
ATOM     11  C   UNL A   1      30.211  26.129  24.637  1.00  0.00     0.223 C 
ATOM     12  O   UNL A   1      30.268  26.184  25.868  1.00  0.00    -0.275 OA
BRANCH  11  13
ATOM     13  C   UNL A   1      29.019  26.759  23.911  1.00  0.00     0.100 C 
BRANCH  13  14
ATOM     14  C   UNL A   1      29.187  28.031  23.083  1.00  0.00     0.010 C 
BRANCH  14  15
ATOM     15  C   UNL A   1      27.952  28.906  22.827  1.00  0.00     0.000 C 
BRANCH  15  16
ATOM     16  C   UNL A   1      28.201  30.400  22.557  1.00  0.00    -0.003 C 
ATOM     17  C   UNL A   1      27.590  31.341  23.572  1.00  0.00     0.004 C 
ENDBRANCH  15  16
ENDBRANCH  14  15
ENDBRANCH  13  14
ENDBRANCH  11  13
ENDBRANCH   7  11
ENDBRANCH   3   6
ENDBRANCH   1   2
BRANCH   1  18
ATOM     18  C   UNL A   1      33.910  28.162  25.780  1.00  0.00     0.042 C 
BRANCH  18  19
ATOM     19  C   UNL A   1      33.502  28.428  27.225  1.00  0.00     0.118 C 
BRANCH  19  20
ATOM     20  N   UNL A   1      33.448  29.856  27.520  1.00  0.00    -0.352 N 
ATOM     21  C   UNL A   1      34.374  30.669  28.125  1.00  0.00     0.251 C 
ATOM     22  H   UNL A   1      32.619  30.307  27.242  1.00  0.00     0.163 HD
ATOM     23  O   UNL A   1      34.046  31.792  28.489  1.00  0.00    -0.269 OA
BRANCH  21  24
ATOM     24  C   UNL A   1      35.751  30.182  28.344  1.00  0.00     0.039 A 
ATOM     25  C   UNL A   1      36.663  30.227  27.288  1.00  0.00     0.014 A 
ATOM     26  C   UNL A   1      36.135  29.667  29.585  1.00  0.00     0.014 A 
ATOM     27  C   UNL A   1      37.981  29.821  27.497  1.00  0.00     0.010 A 
ATOM     28  C   UNL A   1      37.466  29.341  29.816  1.00  0.00     0.010 A 
ATOM     29  C   UNL A   1      38.402  29.414  28.774  1.00  0.00    -0.014 A 
BRANCH  29  30
ATOM     30  C   UNL A   1      39.817  29.063  29.048  1.00  0.00     0.031 A 
ATOM     31  C   UNL A   1      40.752  30.101  29.606  1.00  0.00     0.074 A 
ATOM     32  C   UNL A   1      40.269  27.834  28.728  1.00  0.00     0.049 A 
ATOM     33  N   UNL A   1      42.042  30.026  29.807  1.00  0.00    -0.248 NA
ATOM     34  C   UNL A   1      40.163  31.403  29.966  1.00  0.00     0.031 C 
ATOM     35  C   UNL A   1      39.460  26.759  28.148  1.00  0.00     0.029 A 
ATOM     36  N   UNL A   1      41.523  27.285  28.828  1.00  0.00    -0.354 N 
ATOM     37  C   UNL A   1      42.417  31.264  30.317  1.00  0.00     0.074 A 
ATOM     38  C   UNL A   1      41.233  32.093  30.333  1.00  0.00     0.031 C 
ATOM     39  C   UNL A   1      40.232  25.676  27.964  1.00  0.00     0.029 A 
ATOM     40  C   UNL A   1      41.599  25.993  28.361  1.00  0.00     0.049 A 
ATOM     41  H   UNL A   1      42.294  27.770  29.200  1.00  0.00     0.167 HD
ATOM     42  C   UNL A   1      43.633  31.660  30.761  1.00  0.00     0.037 A 
ATOM     43  C   UNL A   1      42.657  25.167  28.247  1.00  0.00     0.037 A 
ATOM     44  C   UNL A   1      44.803  30.822  30.751  1.00  0.00     0.049 A 
ATOM     45  C   UNL A   1      44.011  25.657  28.693  1.00  0.00     0.074 A 
ATOM     46  C   UNL A   1      46.079  31.120  31.196  1.00  0.00     0.029 A 
ATOM     47  N   UNL A   1      44.840  29.518  30.273  1.00  0.00    -0.354 N 
ATOM     48  N   UNL A   1      44.338  26.814  29.219  1.00  0.00    -0.248 NA
ATOM     49  C   UNL A   1      45.140  24.730  28.532  1.00  0.00     0.031 C 
ATOM     50  C   UNL A   1      46.897  30.013  30.950  1.00  0.00     0.029 A 
ATOM     51  C   UNL A   1      46.120  29.007  30.399  1.00  0.00     0.049 A 
ATOM     52  H   UNL A   1      44.070  29.031  29.902  1.00  0.00     0.167 HD
ATOM     53  C   UNL A   1      45.702  26.739  29.481  1.00  0.00     0.074 A 
ATOM     54  C   UNL A   1      46.134  25.420  29.071  1.00  0.00     0.031 C 
ATOM     55  C   UNL A   1      46.524  27.680  30.007  1.00  0.00     0.037 A 
BRANCH  42  56
ATOM     56  C   UNL A   1      43.757  33.049  31.323  1.00  0.00     0.058 A 
ATOM     57  C   UNL A   1      43.563  33.302  32.690  1.00  0.00     0.135 A 
ATOM     58  C   UNL A   1      44.136  34.126  30.507  1.00  0.00     0.135 A 
ATOM     59  F   UNL A   1      43.182  32.312  33.514  1.00  0.00    -0.206 F 
ATOM     60  C   UNL A   1      43.726  34.574  33.226  1.00  0.00     0.059 A 
ATOM     61  C   UNL A   1      44.332  35.404  31.026  1.00  0.00     0.059 A 
ATOM     62  F   UNL A   1      44.331  33.943  29.191  1.00  0.00    -0.206 F 
ATOM     63  C   UNL A   1      44.118  35.618  32.387  1.00  0.00     0.060 A 
BRANCH  63  64
ATOM     64  S   UNL A   1      44.357  37.255  33.110  1.00  0.00     0.124 S 
ATOM     65  O   UNL A   1      43.295  37.289  34.112  1.00  0.00    -0.237 OA
ATOM     66  O   UNL A   1      45.717  37.168  33.631  1.00  0.00    -0.237 OA
ATOM     67  O   UNL A   1      44.178  38.158  31.978  1.00  0.00    -0.744 OA
ENDBRANCH  63  64
ENDBRANCH  42  56
BRANCH  43  68
ATOM     68  C   UNL A   1      42.495  23.799  27.685  1.00  0.00     0.058 A 
ATOM     69  C   UNL A   1      42.452  22.675  28.522  1.00  0.00     0.135 A 
ATOM     70  C   UNL A   1      42.418  23.583  26.299  1.00  0.00     0.135 A 
ATOM     71  F   UNL A   1      42.521  22.827  29.854  1.00  0.00    -0.206 F 
ATOM     72  C   UNL A   1      42.385  21.383  28.008  1.00  0.00     0.059 A 
ATOM     73  C   UNL A   1      42.318  22.302  25.762  1.00  0.00     0.059 A 
ATOM     74  F   UNL A   1      42.433  24.623  25.452  1.00  0.00    -0.206 F 
ATOM     75  C   UNL A   1      42.325  21.207  26.625  1.00  0.00     0.060 A 
BRANCH  75  76
ATOM     76  S   UNL A   1      42.247  19.528  25.967  1.00  0.00     0.124 S 
ATOM     77  O   UNL A   1      40.881  19.478  25.458  1.00  0.00    -0.237 OA
ATOM     78  O   UNL A   1      43.305  19.543  24.963  1.00  0.00    -0.237 OA
ATOM     79  O   UNL A   1      42.516  18.698  27.137  1.00  0.00    -0.744 OA
ENDBRANCH  75  76
ENDBRANCH  43  68
BRANCH  55  80
ATOM     80  C   UNL A   1      47.965  27.304  30.214  1.00  0.00     0.058 A 
ATOM     81  C   UNL A   1      48.941  27.561  29.239  1.00  0.00     0.135 A 
ATOM     82  C   UNL A   1      48.385  26.747  31.434  1.00  0.00     0.135 A 
ATOM     83  F   UNL A   1      48.590  28.083  28.053  1.00  0.00    -0.206 F 
ATOM     84  C   UNL A   1      50.282  27.266  29.460  1.00  0.00     0.059 A 
ATOM     85  C   UNL A   1      49.725  26.473  31.687  1.00  0.00     0.059 A 
ATOM     86  F   UNL A   1      47.493  26.489  32.403  1.00  0.00    -0.206 F 
ATOM     87  C   UNL A   1      50.666  26.730  30.690  1.00  0.00     0.060 A 
BRANCH  87  88
ATOM     88  S   UNL A   1      52.418  26.409  30.982  1.00  0.00     0.124 S 
ATOM     89  O   UNL A   1      52.816  27.602  31.722  1.00  0.00    -0.237 OA
ATOM     90  O   UNL A   1      52.381  25.169  31.750  1.00  0.00    -0.237 OA
ATOM     91  O   UNL A   1      52.972  26.291  29.637  1.00  0.00    -0.744 OA
ENDBRANCH  87  88
ENDBRANCH  55  80
ENDBRANCH  29  30
ENDBRANCH  21  24
ENDBRANCH  19  20
ENDBRANCH  18  19
ENDBRANCH   1  18
TORSDOF 18
ENDMDL
MODEL 3
REMARK VINA RESULT:     -10.6      3.385      4.832
REMARK SMILES CCCCCC(=O)N1CSC[C@H]1C(=O)NCCCNC(=O)c1ccc(-c2c3nc(c(-c4c(F)cc(S(=O)(=O)[O-])cc4F)c4ccc([nH]4)c(-c4c(F)cc(S(=O)(=O)[O-])cc4F)c4nc(c(-c5c(F)cc(S(=O)(=O)[O-])cc5F)c5ccc2[nH]5)C=C4)C=C3)cc1
REMARK SMILES IDX 16 1 15 2 13 3 14 4 12 6 8 7 9 8 10 9 11 10 6 11 7 12 5 13
REMARK SMILES IDX 4 14 3 15 2 16 1 17 17 18 18 19 19 20 20 21 21 23 22 24
REMARK SMILES IDX 23 25 87 26 24 27 86 28 25 29 26 30 27 31 80 32 28 33 85 34
REMARK SMILES IDX 79 35 81 36 29 37 84 38 78 39 77 40 30 42 64 43 43 44 63 45
REMARK SMILES IDX 44 46 47 47 62 48 82 49 45 50 46 51 61 53 83 54 48 55 31 56
REMARK SMILES IDX 32 57 41 58 33 59 34 60 40 61 42 62 35 63 36 64 37 65 38 66
REMARK SMILES IDX 39 67 65 68 66 69 75 70 67 71 68 72 74 73 76 74 69 75 70 76
REMARK SMILES IDX 71 77 72 78 73 79 49 80 50 81 59 82 51 83 52 84 58 85 60 86
REMARK SMILES IDX 53 87 54 88 55 89 56 90 57 91
REMARK H PARENT 15 5 19 22 81 41 47 52
REMARK Flexibility Score: inf
ROOT
ATOM      1  C   UNL A   1      33.017  26.581  25.329  1.00  0.00     0.117 C 
ENDROOT
BRANCH   1   2
ATOM      2  N   UNL A   1      33.613  25.989  24.154  1.00  0.00    -0.354 N 
ATOM      3  C   UNL A   1      34.281  24.813  24.004  1.00  0.00     0.243 C 
ATOM      4  O   UNL A   1      34.406  24.394  22.847  1.00  0.00    -0.273 OA
ATOM      5  H   UNL A   1      33.522  26.521  23.331  1.00  0.00     0.163 HD
BRANCH   3   6
ATOM      6  C   UNL A   1      34.671  23.914  25.193  1.00  0.00     0.185 C 
ATOM      7  N   UNL A   1      34.233  22.515  25.185  1.00  0.00    -0.321 N 
ATOM      8  C   UNL A   1      35.282  21.542  25.086  1.00  0.00     0.190 C 
ATOM      9  S   UNL A   1      36.846  22.324  25.477  1.00  0.00    -0.138 SA
ATOM     10  C   UNL A   1      36.178  24.005  25.442  1.00  0.00     0.106 C 
BRANCH   7  11
ATOM     11  C   UNL A   1      32.895  22.248  25.401  1.00  0.00     0.223 C 
ATOM     12  O   UNL A   1      32.173  23.095  25.932  1.00  0.00    -0.275 OA
BRANCH  11  13
ATOM     13  C   UNL A   1      32.374  20.819  25.229  1.00  0.00     0.100 C 
BRANCH  13  14
ATOM     14  C   UNL A   1      32.497  20.094  23.890  1.00  0.00     0.010 C 
BRANCH  14  15
ATOM     15  C   UNL A   1      32.495  18.560  23.885  1.00  0.00     0.000 C 
BRANCH  15  16
ATOM     16  C   UNL A   1      33.856  17.861  24.043  1.00  0.00    -0.003 C 
ATOM     17  C   UNL A   1      34.081  16.688  23.115  1.00  0.00     0.004 C 
ENDBRANCH  15  16
ENDBRANCH  14  15
ENDBRANCH  13  14
ENDBRANCH  11  13
ENDBRANCH   7  11
ENDBRANCH   3   6
ENDBRANCH   1   2
BRANCH   1  18
ATOM     18  C   UNL A   1      33.686  27.884  25.737  1.00  0.00     0.042 C 
BRANCH  18  19
ATOM     19  C   UNL A   1      33.446  28.232  27.201  1.00  0.00     0.118 C 
BRANCH  19  20
ATOM     20  N   UNL A   1      33.357  29.673  27.409  1.00  0.00    -0.352 N 
ATOM     21  C   UNL A   1      34.255  30.540  27.982  1.00  0.00     0.251 C 
ATOM     22  H   UNL A   1      32.525  30.090  27.090  1.00  0.00     0.163 HD
ATOM     23  O   UNL A   1      33.898  31.676  28.272  1.00  0.00    -0.269 OA
BRANCH  21  24
ATOM     24  C   UNL A   1      35.637  30.097  28.255  1.00  0.00     0.039 A 
ATOM     25  C   UNL A   1      36.569  30.101  27.215  1.00  0.00     0.014 A 
ATOM     26  C   UNL A   1      36.006  29.662  29.531  1.00  0.00     0.014 A 
ATOM     27  C   UNL A   1      37.891  29.736  27.472  1.00  0.00     0.010 A 
ATOM     28  C   UNL A   1      37.339  29.378  29.805  1.00  0.00     0.010 A 
ATOM     29  C   UNL A   1      38.294  29.411  28.779  1.00  0.00    -0.014 A 
BRANCH  29  30
ATOM     30  C   UNL A   1      39.710  29.107  29.099  1.00  0.00     0.031 A 
ATOM     31  C   UNL A   1      40.594  30.178  29.677  1.00  0.00     0.074 A 
ATOM     32  C   UNL A   1      40.210  27.891  28.803  1.00  0.00     0.049 A 
ATOM     33  N   UNL A   1      41.878  30.145  29.918  1.00  0.00    -0.248 NA
ATOM     34  C   UNL A   1      39.954  31.463  30.007  1.00  0.00     0.031 C 
ATOM     35  C   UNL A   1      39.453  26.787  28.207  1.00  0.00     0.029 A 
ATOM     36  N   UNL A   1      41.476  27.382  28.946  1.00  0.00    -0.354 N 
ATOM     37  C   UNL A   1      42.199  31.398  30.429  1.00  0.00     0.074 A 
ATOM     38  C   UNL A   1      40.989  32.190  30.402  1.00  0.00     0.031 C 
ATOM     39  C   UNL A   1      40.264  25.727  28.056  1.00  0.00     0.029 A 
ATOM     40  C   UNL A   1      41.607  26.091  28.492  1.00  0.00     0.049 A 
ATOM     41  H   UNL A   1      42.220  27.894  29.338  1.00  0.00     0.167 HD
ATOM     42  C   UNL A   1      43.388  31.835  30.908  1.00  0.00     0.037 A 
ATOM     43  C   UNL A   1      42.694  25.298  28.418  1.00  0.00     0.037 A 
ATOM     44  C   UNL A   1      44.583  31.034  30.940  1.00  0.00     0.049 A 
ATOM     45  C   UNL A   1      44.017  25.832  28.902  1.00  0.00     0.074 A 
ATOM     46  C   UNL A   1      45.834  31.376  31.422  1.00  0.00     0.029 A 
ATOM     47  N   UNL A   1      44.675  29.730  30.475  1.00  0.00    -0.354 N 
ATOM     48  N   UNL A   1      44.291  27.003  29.428  1.00  0.00    -0.248 NA
ATOM     49  C   UNL A   1      45.179  24.940  28.783  1.00  0.00     0.031 C 
ATOM     50  C   UNL A   1      46.693  30.293  31.211  1.00  0.00     0.029 A 
ATOM     51  C   UNL A   1      45.966  29.259  30.644  1.00  0.00     0.049 A 
ATOM     52  H   UNL A   1      43.933  29.216  30.084  1.00  0.00     0.167 HD
ATOM     53  C   UNL A   1      45.648  26.973  29.732  1.00  0.00     0.074 A 
ATOM     54  C   UNL A   1      46.134  25.666  29.347  1.00  0.00     0.031 C 
ATOM     55  C   UNL A   1      46.423  27.943  30.276  1.00  0.00     0.037 A 
BRANCH  42  56
ATOM     56  C   UNL A   1      43.450  33.231  31.462  1.00  0.00     0.058 A 
ATOM     57  C   UNL A   1      43.194  33.490  32.818  1.00  0.00     0.135 A 
ATOM     58  C   UNL A   1      43.832  34.313  30.652  1.00  0.00     0.135 A 
ATOM     59  F   UNL A   1      42.807  32.496  33.635  1.00  0.00    -0.206 F 
ATOM     60  C   UNL A   1      43.300  34.770  33.349  1.00  0.00     0.059 A 
ATOM     61  C   UNL A   1      43.971  35.599  31.167  1.00  0.00     0.059 A 
ATOM     62  F   UNL A   1      44.085  34.124  29.347  1.00  0.00    -0.206 F 
ATOM     63  C   UNL A   1      43.697  35.818  32.516  1.00  0.00     0.060 A 
BRANCH  63  64
ATOM     64  S   UNL A   1      43.862  37.466  33.234  1.00  0.00     0.124 S 
ATOM     65  O   UNL A   1      43.725  38.314  32.053  1.00  0.00    -0.237 OA
ATOM     66  O   UNL A   1      42.747  37.507  34.176  1.00  0.00    -0.237 OA
ATOM     67  O   UNL A   1      45.190  37.444  33.838  1.00  0.00    -0.744 OA
ENDBRANCH  63  64
ENDBRANCH  42  56
BRANCH  43  68
ATOM     68  C   UNL A   1      42.592  23.921  27.862  1.00  0.00     0.058 A 
ATOM     69  C   UNL A   1      42.517  23.705  26.478  1.00  0.00     0.135 A 
ATOM     70  C   UNL A   1      42.527  22.796  28.700  1.00  0.00     0.135 A 
ATOM     71  F   UNL A   1      42.574  24.747  25.633  1.00  0.00    -0.206 F 
ATOM     72  C   UNL A   1      42.336  22.432  25.945  1.00  0.00     0.059 A 
ATOM     73  C   UNL A   1      42.379  21.510  28.190  1.00  0.00     0.059 A 
ATOM     74  F   UNL A   1      42.615  22.941  30.031  1.00  0.00    -0.206 F 
ATOM     75  C   UNL A   1      42.262  21.341  26.811  1.00  0.00     0.060 A 
BRANCH  75  76
ATOM     76  S   UNL A   1      42.019  19.694  26.112  1.00  0.00     0.124 S 
ATOM     77  O   UNL A   1      42.395  18.843  27.235  1.00  0.00    -0.237 OA
ATOM     78  O   UNL A   1      40.601  19.713  25.769  1.00  0.00    -0.237 OA
ATOM     79  O   UNL A   1      42.932  19.677  24.972  1.00  0.00    -0.744 OA
ENDBRANCH  75  76
ENDBRANCH  43  68
BRANCH  55  80
ATOM     80  C   UNL A   1      47.868  27.615  30.531  1.00  0.00     0.058 A 
ATOM     81  C   UNL A   1      48.277  26.933  31.687  1.00  0.00     0.135 A 
ATOM     82  C   UNL A   1      48.846  27.924  29.569  1.00  0.00     0.135 A 
ATOM     83  F   UNL A   1      47.384  26.623  32.640  1.00  0.00    -0.206 F 
ATOM     84  C   UNL A   1      49.607  26.579  31.888  1.00  0.00     0.059 A 
ATOM     85  C   UNL A   1      50.176  27.553  29.737  1.00  0.00     0.059 A 
ATOM     86  F   UNL A   1      48.507  28.568  28.442  1.00  0.00    -0.206 F 
ATOM     87  C   UNL A   1      50.548  26.886  30.904  1.00  0.00     0.060 A 
BRANCH  87  88
ATOM     88  S   UNL A   1      52.259  26.368  31.154  1.00  0.00     0.124 S 
ATOM     89  O   UNL A   1      52.797  27.488  31.918  1.00  0.00    -0.237 OA
ATOM     90  O   UNL A   1      52.098  25.117  31.890  1.00  0.00    -0.237 OA
ATOM     91  O   UNL A   1      52.775  26.228  29.796  1.00  0.00    -0.744 OA
ENDBRANCH  87  88
ENDBRANCH  55  80
ENDBRANCH  29  30
ENDBRANCH  21  24
ENDBRANCH  19  20
ENDBRANCH  18  19
ENDBRANCH   1  18
TORSDOF 18
ENDMDL
