MODEL 1
REMARK VINA RESULT:     -13.4      0.000      0.000
REMARK SMILES O=C(NCCCNC(=O)c1ccc(-c2c3nc(c(-c4c(F)cc(S(=O)(=O)[O-])cc4F)c4ccc([nH]4)c(-c4c(F)cc(S(=O)(=O)[O-])cc4F)c4nc(c(-c5c(F)cc(S(=O)(=O)[O-])cc5F)c5ccc2[nH]5)C=C4)C=C3)cc1)C1=Cc2cc(Cl)cc(-c3ccccc3)c2O[C@@H]1C(F)(F)F
REMARK SMILES IDX 6 1 5 2 4 3 3 4 1 5 2 6 76 8 77 9 92 10 78 11 91 12 79 13
REMARK SMILES IDX 90 14 80 15 83 16 81 17 82 18 93 19 94 20 95 21 96 22 84 23
REMARK SMILES IDX 85 24 89 25 86 26 88 27 87 28 7 29 8 30 9 32 10 33 11 34
REMARK SMILES IDX 75 35 12 36 74 37 13 38 14 39 15 40 68 41 16 42 73 43 67 44
REMARK SMILES IDX 69 45 17 46 72 47 66 48 65 49 18 51 52 52 31 53 51 54 32 55
REMARK SMILES IDX 35 56 50 57 70 58 33 59 34 60 49 62 71 63 36 64 19 65 20 66
REMARK SMILES IDX 29 67 21 68 22 69 28 70 30 71 23 72 24 73 25 74 26 75 27 76
REMARK SMILES IDX 53 77 54 78 63 79 55 80 56 81 62 82 64 83 57 84 58 85 59 86
REMARK SMILES IDX 60 87 61 88 37 89 38 90 47 91 39 92 40 93 46 94 48 95 41 96
REMARK SMILES IDX 42 97 43 98 44 99 45 100
REMARK H PARENT 3 7 7 31 69 50 35 61
REMARK Flexibility Score: inf
ROOT
ATOM      1  C   UNL A   1      33.225  28.942  27.055  1.00  0.00     0.118 C 
ENDROOT
BRANCH   1   2
ATOM      2  C   UNL A   1      31.819  28.345  27.052  1.00  0.00     0.042 C 
BRANCH   2   3
ATOM      3  C   UNL A   1      31.697  27.130  26.128  1.00  0.00     0.118 C 
BRANCH   3   4
ATOM      4  N   UNL A   1      31.255  25.921  26.833  1.00  0.00    -0.352 N 
ATOM      5  O   UNL A   1      31.378  23.763  27.535  1.00  0.00    -0.270 OA
ATOM      6  C   UNL A   1      31.696  24.626  26.728  1.00  0.00     0.251 C 
ATOM      7  H   UNL A   1      30.529  26.060  27.483  1.00  0.00     0.163 HD
BRANCH   6   8
ATOM      8  C   UNL A   1      32.634  24.338  25.635  1.00  0.00     0.067 C 
ATOM      9  C   UNL A   1      33.930  24.596  25.846  1.00  0.00     0.025 C 
ATOM     10  C   UNL A   1      32.152  23.462  24.526  1.00  0.00     0.314 C 
ATOM     11  C   UNL A   1      34.842  23.591  25.292  1.00  0.00     0.019 A 
ATOM     12  O   UNL A   1      32.978  22.280  24.402  1.00  0.00    -0.475 OA
ATOM     13  C   UNL A   1      36.188  23.654  25.661  1.00  0.00     0.032 A 
ATOM     14  C   UNL A   1      34.300  22.395  24.776  1.00  0.00     0.135 A 
ATOM     15  C   UNL A   1      36.961  22.499  25.618  1.00  0.00     0.042 A 
ATOM     16  C   UNL A   1      35.059  21.212  24.796  1.00  0.00     0.026 A 
ATOM     17  Cl  UNL A   1      38.572  22.541  26.214  1.00  0.00    -0.084 Cl
ATOM     18  C   UNL A   1      36.399  21.286  25.218  1.00  0.00     0.033 A 
BRANCH  10  19
ATOM     19  C   UNL A   1      32.027  24.228  23.198  1.00  0.00     0.429 C 
ATOM     20  F   UNL A   1      30.728  24.383  22.840  1.00  0.00    -0.167 F 
ATOM     21  F   UNL A   1      32.552  25.474  23.287  1.00  0.00    -0.167 F 
ATOM     22  F   UNL A   1      32.651  23.606  22.171  1.00  0.00    -0.167 F 
ENDBRANCH  10  19
BRANCH  16  23
ATOM     23  C   UNL A   1      34.445  19.890  24.600  1.00  0.00    -0.015 A 
ATOM     24  C   UNL A   1      35.248  18.736  24.626  1.00  0.00     0.009 A 
ATOM     25  C   UNL A   1      33.081  19.737  24.334  1.00  0.00     0.009 A 
ATOM     26  C   UNL A   1      34.726  17.476  24.342  1.00  0.00     0.001 A 
ATOM     27  C   UNL A   1      32.550  18.470  24.064  1.00  0.00     0.001 A 
ATOM     28  C   UNL A   1      33.374  17.345  24.054  1.00  0.00     0.000 A 
ENDBRANCH  16  23
ENDBRANCH   6   8
ENDBRANCH   3   4
ENDBRANCH   2   3
ENDBRANCH   1   2
BRANCH   1  29
ATOM     29  N   UNL A   1      33.355  30.211  27.750  1.00  0.00    -0.352 N 
ATOM     30  C   UNL A   1      34.466  30.792  28.330  1.00  0.00     0.251 C 
ATOM     31  H   UNL A   1      32.526  30.737  27.817  1.00  0.00     0.163 HD
ATOM     32  O   UNL A   1      34.345  31.893  28.866  1.00  0.00    -0.269 OA
BRANCH  30  33
ATOM     33  C   UNL A   1      35.763  30.070  28.423  1.00  0.00     0.039 A 
ATOM     34  C   UNL A   1      36.590  30.063  27.292  1.00  0.00     0.014 A 
ATOM     35  C   UNL A   1      36.224  29.486  29.600  1.00  0.00     0.014 A 
ATOM     36  C   UNL A   1      37.909  29.614  27.390  1.00  0.00     0.010 A 
ATOM     37  C   UNL A   1      37.566  29.144  29.730  1.00  0.00     0.010 A 
ATOM     38  C   UNL A   1      38.433  29.235  28.635  1.00  0.00    -0.014 A 
BRANCH  38  39
ATOM     39  C   UNL A   1      39.889  29.014  28.827  1.00  0.00     0.031 A 
ATOM     40  C   UNL A   1      40.523  27.699  28.466  1.00  0.00     0.074 A 
ATOM     41  C   UNL A   1      40.616  29.977  29.432  1.00  0.00     0.049 A 
ATOM     42  N   UNL A   1      41.761  27.308  28.627  1.00  0.00    -0.248 NA
ATOM     43  C   UNL A   1      39.642  26.668  27.892  1.00  0.00     0.031 C 
ATOM     44  C   UNL A   1      40.085  31.249  29.935  1.00  0.00     0.029 A 
ATOM     45  N   UNL A   1      41.952  30.040  29.734  1.00  0.00    -0.354 N 
ATOM     46  C   UNL A   1      41.800  25.983  28.205  1.00  0.00     0.074 A 
ATOM     47  C   UNL A   1      40.449  25.619  27.836  1.00  0.00     0.031 C 
ATOM     48  C   UNL A   1      41.091  31.984  30.434  1.00  0.00     0.029 A 
ATOM     49  C   UNL A   1      42.331  31.229  30.314  1.00  0.00     0.049 A 
ATOM     50  H   UNL A   1      42.580  29.304  29.552  1.00  0.00     0.167 HD
ATOM     51  C   UNL A   1      42.869  25.157  28.107  1.00  0.00     0.037 A 
ATOM     52  C   UNL A   1      43.548  31.666  30.691  1.00  0.00     0.037 A 
ATOM     53  C   UNL A   1      44.216  25.550  28.428  1.00  0.00     0.049 A 
ATOM     54  C   UNL A   1      44.735  30.775  30.460  1.00  0.00     0.074 A 
ATOM     55  C   UNL A   1      45.386  24.821  28.302  1.00  0.00     0.029 A 
ATOM     56  N   UNL A   1      44.575  26.796  28.924  1.00  0.00    -0.354 N 
ATOM     57  N   UNL A   1      44.763  29.548  29.994  1.00  0.00    -0.248 NA
ATOM     58  C   UNL A   1      46.054  31.330  30.784  1.00  0.00     0.031 C 
ATOM     59  C   UNL A   1      46.449  25.622  28.734  1.00  0.00     0.029 A 
ATOM     60  C   UNL A   1      45.946  26.861  29.101  1.00  0.00     0.049 A 
ATOM     61  H   UNL A   1      43.946  27.527  29.121  1.00  0.00     0.167 HD
ATOM     62  C   UNL A   1      46.104  29.191  29.952  1.00  0.00     0.074 A 
ATOM     63  C   UNL A   1      46.856  30.339  30.419  1.00  0.00     0.031 C 
ATOM     64  C   UNL A   1      46.666  28.019  29.565  1.00  0.00     0.037 A 
BRANCH  51  65
ATOM     65  C   UNL A   1      42.617  23.760  27.609  1.00  0.00     0.058 A 
ATOM     66  C   UNL A   1      42.469  22.679  28.496  1.00  0.00     0.135 A 
ATOM     67  C   UNL A   1      42.528  23.491  26.233  1.00  0.00     0.135 A 
ATOM     68  F   UNL A   1      42.562  22.875  29.820  1.00  0.00    -0.206 F 
ATOM     69  C   UNL A   1      42.288  21.379  28.037  1.00  0.00     0.059 A 
ATOM     70  C   UNL A   1      42.319  22.200  25.753  1.00  0.00     0.059 A 
ATOM     71  F   UNL A   1      42.660  24.484  25.341  1.00  0.00    -0.206 F 
ATOM     72  C   UNL A   1      42.222  21.148  26.663  1.00  0.00     0.060 A 
BRANCH  72  73
ATOM     73  S   UNL A   1      42.009  19.452  26.081  1.00  0.00     0.124 S 
ATOM     74  O   UNL A   1      40.573  19.415  25.820  1.00  0.00    -0.237 OA
ATOM     75  O   UNL A   1      42.867  19.411  24.902  1.00  0.00    -0.237 OA
ATOM     76  O   UNL A   1      42.463  18.647  27.211  1.00  0.00    -0.744 OA
ENDBRANCH  72  73
ENDBRANCH  51  65
BRANCH  52  77
ATOM     77  C   UNL A   1      43.707  33.033  31.252  1.00  0.00     0.058 A 
ATOM     78  C   UNL A   1      43.838  34.145  30.405  1.00  0.00     0.135 A 
ATOM     79  C   UNL A   1      43.706  33.264  32.636  1.00  0.00     0.135 A 
ATOM     80  F   UNL A   1      43.844  33.974  29.074  1.00  0.00    -0.206 F 
ATOM     81  C   UNL A   1      43.983  35.434  30.907  1.00  0.00     0.059 A 
ATOM     82  C   UNL A   1      43.828  34.548  33.163  1.00  0.00     0.059 A 
ATOM     83  F   UNL A   1      43.558  32.238  33.488  1.00  0.00    -0.206 F 
ATOM     84  C   UNL A   1      43.978  35.625  32.290  1.00  0.00     0.060 A 
BRANCH  84  85
ATOM     85  S   UNL A   1      44.117  37.307  32.933  1.00  0.00     0.124 S 
ATOM     86  O   UNL A   1      42.960  37.379  33.818  1.00  0.00    -0.237 OA
ATOM     87  O   UNL A   1      45.421  37.282  33.588  1.00  0.00    -0.237 OA
ATOM     88  O   UNL A   1      44.044  38.131  31.729  1.00  0.00    -0.744 OA
ENDBRANCH  84  85
ENDBRANCH  52  77
BRANCH  64  89
ATOM     89  C   UNL A   1      48.164  27.942  29.612  1.00  0.00     0.058 A 
ATOM     90  C   UNL A   1      48.952  28.296  28.507  1.00  0.00     0.135 A 
ATOM     91  C   UNL A   1      48.816  27.514  30.779  1.00  0.00     0.135 A 
ATOM     92  F   UNL A   1      48.373  28.707  27.367  1.00  0.00    -0.206 F 
ATOM     93  C   UNL A   1      50.338  28.193  28.543  1.00  0.00     0.059 A 
ATOM     94  C   UNL A   1      50.201  27.424  30.845  1.00  0.00     0.059 A 
ATOM     95  F   UNL A   1      48.105  27.175  31.866  1.00  0.00    -0.206 F 
ATOM     96  C   UNL A   1      50.952  27.748  29.715  1.00  0.00     0.060 A 
BRANCH  96  97
ATOM     97  S   UNL A   1      52.751  27.612  29.756  1.00  0.00     0.124 S 
ATOM     98  O   UNL A   1      52.930  26.259  30.273  1.00  0.00    -0.237 OA
ATOM     99  O   UNL A   1      53.117  27.810  28.356  1.00  0.00    -0.237 OA
ATOM    100  O   UNL A   1      53.149  28.688  30.658  1.00  0.00    -0.744 OA
ENDBRANCH  96  97
ENDBRANCH  64  89
ENDBRANCH  38  39
ENDBRANCH  30  33
ENDBRANCH   1  29
TORSDOF 15
ENDMDL
MODEL 2
REMARK VINA RESULT:     -13.4      0.878      8.155
REMARK SMILES O=C(NCCCNC(=O)c1ccc(-c2c3nc(c(-c4c(F)cc(S(=O)(=O)[O-])cc4F)c4ccc([nH]4)c(-c4c(F)cc(S(=O)(=O)[O-])cc4F)c4nc(c(-c5c(F)cc(S(=O)(=O)[O-])cc5F)c5ccc2[nH]5)C=C4)C=C3)cc1)C1=Cc2cc(Cl)cc(-c3ccccc3)c2O[C@@H]1C(F)(F)F
REMARK SMILES IDX 6 1 5 2 4 3 3 4 1 5 2 6 76 8 77 9 92 10 78 11 91 12 79 13
REMARK SMILES IDX 90 14 80 15 83 16 81 17 82 18 93 19 94 20 95 21 96 22 84 23
REMARK SMILES IDX 85 24 89 25 86 26 88 27 87 28 7 29 8 30 9 32 10 33 11 34
REMARK SMILES IDX 75 35 12 36 74 37 13 38 14 39 15 40 68 41 16 42 73 43 67 44
REMARK SMILES IDX 69 45 17 46 72 47 66 48 65 49 18 51 52 52 31 53 51 54 32 55
REMARK SMILES IDX 35 56 50 57 70 58 33 59 34 60 49 62 71 63 36 64 19 65 20 66
REMARK SMILES IDX 29 67 21 68 22 69 28 70 30 71 23 72 24 73 25 74 26 75 27 76
REMARK SMILES IDX 53 77 54 78 63 79 55 80 56 81 62 82 64 83 57 84 58 85 59 86
REMARK SMILES IDX 60 87 61 88 37 89 38 90 47 91 39 92 40 93 46 94 48 95 41 96
REMARK SMILES IDX 42 97 43 98 44 99 45 100
REMARK H PARENT 3 7 7 31 69 50 35 61
REMARK Flexibility Score: inf
ROOT
ATOM      1  C   UNL A   1      33.315  28.876  27.315  1.00  0.00     0.118 C 
ENDROOT
BRANCH   1   2
ATOM      2  C   UNL A   1      33.750  28.665  25.866  1.00  0.00     0.042 C 
BRANCH   2   3
ATOM      3  C   UNL A   1      32.791  27.759  25.088  1.00  0.00     0.118 C 
BRANCH   3   4
ATOM      4  N   UNL A   1      32.173  26.728  25.931  1.00  0.00    -0.352 N 
ATOM      5  O   UNL A   1      32.006  24.703  26.949  1.00  0.00    -0.270 OA
ATOM      6  C   UNL A   1      32.465  25.392  26.049  1.00  0.00     0.251 C 
ATOM      7  H   UNL A   1      31.436  27.043  26.500  1.00  0.00     0.163 HD
BRANCH   6   8
ATOM      8  C   UNL A   1      33.420  24.840  25.079  1.00  0.00     0.067 C 
ATOM      9  C   UNL A   1      34.723  24.942  25.364  1.00  0.00     0.025 C 
ATOM     10  C   UNL A   1      32.888  23.904  24.044  1.00  0.00     0.314 C 
ATOM     11  C   UNL A   1      35.512  23.759  25.009  1.00  0.00     0.019 A 
ATOM     12  O   UNL A   1      33.538  22.613  24.128  1.00  0.00    -0.475 OA
ATOM     13  C   UNL A   1      36.825  23.682  25.480  1.00  0.00     0.032 A 
ATOM     14  C   UNL A   1      34.835  22.592  24.595  1.00  0.00     0.135 A 
ATOM     15  C   UNL A   1      37.421  22.436  25.636  1.00  0.00     0.042 A 
ATOM     16  C   UNL A   1      35.408  21.329  24.816  1.00  0.00     0.026 A 
ATOM     17  Cl  UNL A   1      38.979  22.331  26.355  1.00  0.00    -0.084 Cl
ATOM     18  C   UNL A   1      36.715  21.271  25.337  1.00  0.00     0.033 A 
BRANCH  10  19
ATOM     19  C   UNL A   1      32.963  24.503  22.629  1.00  0.00     0.429 C 
ATOM     20  F   UNL A   1      31.758  24.982  22.233  1.00  0.00    -0.167 F 
ATOM     21  F   UNL A   1      33.828  25.545  22.572  1.00  0.00    -0.167 F 
ATOM     22  F   UNL A   1      33.360  23.605  21.698  1.00  0.00    -0.167 F 
ENDBRANCH  10  19
BRANCH  16  23
ATOM     23  C   UNL A   1      34.621  20.090  24.727  1.00  0.00    -0.015 A 
ATOM     24  C   UNL A   1      35.278  18.850  24.623  1.00  0.00     0.009 A 
ATOM     25  C   UNL A   1      33.223  20.099  24.689  1.00  0.00     0.009 A 
ATOM     26  C   UNL A   1      34.573  17.664  24.432  1.00  0.00     0.001 A 
ATOM     27  C   UNL A   1      32.511  18.907  24.513  1.00  0.00     0.001 A 
ATOM     28  C   UNL A   1      33.186  17.694  24.370  1.00  0.00     0.000 A 
ENDBRANCH  16  23
ENDBRANCH   6   8
ENDBRANCH   3   4
ENDBRANCH   2   3
ENDBRANCH   1   2
BRANCH   1  29
ATOM     29  N   UNL A   1      33.544  30.211  27.840  1.00  0.00    -0.352 N 
ATOM     30  C   UNL A   1      34.710  30.794  28.294  1.00  0.00     0.251 C 
ATOM     31  H   UNL A   1      32.746  30.787  27.878  1.00  0.00     0.163 HD
ATOM     32  O   UNL A   1      34.673  31.957  28.694  1.00  0.00    -0.269 OA
BRANCH  30  33
ATOM     33  C   UNL A   1      35.973  30.017  28.418  1.00  0.00     0.039 A 
ATOM     34  C   UNL A   1      36.848  30.013  27.324  1.00  0.00     0.014 A 
ATOM     35  C   UNL A   1      36.357  29.375  29.594  1.00  0.00     0.014 A 
ATOM     36  C   UNL A   1      38.143  29.506  27.464  1.00  0.00     0.010 A 
ATOM     37  C   UNL A   1      37.677  28.975  29.769  1.00  0.00     0.010 A 
ATOM     38  C   UNL A   1      38.595  29.065  28.717  1.00  0.00    -0.014 A 
BRANCH  38  39
ATOM     39  C   UNL A   1      40.031  28.778  28.964  1.00  0.00     0.031 A 
ATOM     40  C   UNL A   1      40.938  29.827  29.547  1.00  0.00     0.074 A 
ATOM     41  C   UNL A   1      40.534  27.594  28.555  1.00  0.00     0.049 A 
ATOM     42  N   UNL A   1      42.226  29.773  29.768  1.00  0.00    -0.248 NA
ATOM     43  C   UNL A   1      40.327  31.124  29.884  1.00  0.00     0.031 C 
ATOM     44  C   UNL A   1      39.775  26.543  27.867  1.00  0.00     0.029 A 
ATOM     45  N   UNL A   1      41.799  27.073  28.650  1.00  0.00    -0.354 N 
ATOM     46  C   UNL A   1      42.584  31.033  30.238  1.00  0.00     0.074 A 
ATOM     47  C   UNL A   1      41.387  31.846  30.215  1.00  0.00     0.031 C 
ATOM     48  C   UNL A   1      40.575  25.488  27.650  1.00  0.00     0.029 A 
ATOM     49  C   UNL A   1      41.907  25.794  28.155  1.00  0.00     0.049 A 
ATOM     50  H   UNL A   1      42.557  27.568  29.037  1.00  0.00     0.167 HD
ATOM     51  C   UNL A   1      43.792  31.462  30.676  1.00  0.00     0.037 A 
ATOM     52  C   UNL A   1      42.961  24.955  28.128  1.00  0.00     0.037 A 
ATOM     53  C   UNL A   1      44.961  30.624  30.742  1.00  0.00     0.049 A 
ATOM     54  C   UNL A   1      44.259  25.414  28.730  1.00  0.00     0.074 A 
ATOM     55  C   UNL A   1      46.220  30.930  31.231  1.00  0.00     0.029 A 
ATOM     56  N   UNL A   1      45.008  29.303  30.319  1.00  0.00    -0.354 N 
ATOM     57  N   UNL A   1      44.562  26.587  29.235  1.00  0.00    -0.248 NA
ATOM     58  C   UNL A   1      45.349  24.433  28.778  1.00  0.00     0.031 C 
ATOM     59  C   UNL A   1      47.029  29.797  31.092  1.00  0.00     0.029 A 
ATOM     60  C   UNL A   1      46.268  28.776  30.544  1.00  0.00     0.049 A 
ATOM     61  H   UNL A   1      44.255  28.812  29.919  1.00  0.00     0.167 HD
ATOM     62  C   UNL A   1      45.873  26.479  29.678  1.00  0.00     0.074 A 
ATOM     63  C   UNL A   1      46.297  25.121  29.401  1.00  0.00     0.031 C 
ATOM     64  C   UNL A   1      46.660  27.419  30.260  1.00  0.00     0.037 A 
BRANCH  51  65
ATOM     65  C   UNL A   1      43.892  32.890  31.137  1.00  0.00     0.058 A 
ATOM     66  C   UNL A   1      43.676  33.244  32.480  1.00  0.00     0.135 A 
ATOM     67  C   UNL A   1      44.200  33.919  30.233  1.00  0.00     0.135 A 
ATOM     68  F   UNL A   1      43.361  32.304  33.384  1.00  0.00    -0.206 F 
ATOM     69  C   UNL A   1      43.716  34.569  32.900  1.00  0.00     0.059 A 
ATOM     70  C   UNL A   1      44.274  35.250  30.638  1.00  0.00     0.059 A 
ATOM     71  F   UNL A   1      44.418  33.639  28.939  1.00  0.00    -0.206 F 
ATOM     72  C   UNL A   1      44.008  35.567  31.969  1.00  0.00     0.060 A 
BRANCH  72  73
ATOM     73  S   UNL A   1      44.035  37.285  32.524  1.00  0.00     0.124 S 
ATOM     74  O   UNL A   1      45.401  37.404  33.027  1.00  0.00    -0.237 OA
ATOM     75  O   UNL A   1      43.747  38.019  31.296  1.00  0.00    -0.237 OA
ATOM     76  O   UNL A   1      42.986  37.329  33.538  1.00  0.00    -0.744 OA
ENDBRANCH  72  73
ENDBRANCH  51  65
BRANCH  52  77
ATOM     77  C   UNL A   1      42.806  23.582  27.580  1.00  0.00     0.058 A 
ATOM     78  C   UNL A   1      42.467  22.510  28.420  1.00  0.00     0.135 A 
ATOM     79  C   UNL A   1      42.967  23.315  26.213  1.00  0.00     0.135 A 
ATOM     80  F   UNL A   1      42.302  22.717  29.736  1.00  0.00    -0.206 F 
ATOM     81  C   UNL A   1      42.312  21.217  27.929  1.00  0.00     0.059 A 
ATOM     82  C   UNL A   1      42.796  22.034  25.693  1.00  0.00     0.059 A 
ATOM     83  F   UNL A   1      43.266  24.310  25.364  1.00  0.00    -0.206 F 
ATOM     84  C   UNL A   1      42.480  20.990  26.562  1.00  0.00     0.060 A 
BRANCH  84  85
ATOM     85  S   UNL A   1      42.229  19.317  25.925  1.00  0.00     0.124 S 
ATOM     86  O   UNL A   1      42.703  18.505  27.040  1.00  0.00    -0.237 OA
ATOM     87  O   UNL A   1      40.791  19.291  25.680  1.00  0.00    -0.237 OA
ATOM     88  O   UNL A   1      43.061  19.291  24.725  1.00  0.00    -0.744 OA
ENDBRANCH  84  85
ENDBRANCH  52  77
BRANCH  64  89
ATOM     89  C   UNL A   1      48.043  26.990  30.651  1.00  0.00     0.058 A 
ATOM     90  C   UNL A   1      48.297  26.365  31.881  1.00  0.00     0.135 A 
ATOM     91  C   UNL A   1      49.125  27.206  29.783  1.00  0.00     0.135 A 
ATOM     92  F   UNL A   1      47.295  26.143  32.746  1.00  0.00    -0.206 F 
ATOM     93  C   UNL A   1      49.585  25.999  32.254  1.00  0.00     0.059 A 
ATOM     94  C   UNL A   1      50.417  26.827  30.126  1.00  0.00     0.059 A 
ATOM     95  F   UNL A   1      48.929  27.791  28.591  1.00  0.00    -0.206 F 
ATOM     96  C   UNL A   1      50.640  26.243  31.372  1.00  0.00     0.060 A 
BRANCH  96  97
ATOM     97  S   UNL A   1      52.311  25.769  31.863  1.00  0.00     0.124 S 
ATOM     98  O   UNL A   1      52.121  24.369  32.229  1.00  0.00    -0.237 OA
ATOM     99  O   UNL A   1      53.080  26.007  30.645  1.00  0.00    -0.237 OA
ATOM    100  O   UNL A   1      52.606  26.674  32.970  1.00  0.00    -0.744 OA
ENDBRANCH  96  97
ENDBRANCH  64  89
ENDBRANCH  38  39
ENDBRANCH  30  33
ENDBRANCH   1  29
TORSDOF 15
ENDMDL
MODEL 3
REMARK VINA RESULT:     -12.8      3.384      8.489
REMARK SMILES O=C(NCCCNC(=O)c1ccc(-c2c3nc(c(-c4c(F)cc(S(=O)(=O)[O-])cc4F)c4ccc([nH]4)c(-c4c(F)cc(S(=O)(=O)[O-])cc4F)c4nc(c(-c5c(F)cc(S(=O)(=O)[O-])cc5F)c5ccc2[nH]5)C=C4)C=C3)cc1)C1=Cc2cc(Cl)cc(-c3ccccc3)c2O[C@@H]1C(F)(F)F
REMARK SMILES IDX 6 1 5 2 4 3 3 4 1 5 2 6 76 8 77 9 92 10 78 11 91 12 79 13
REMARK SMILES IDX 90 14 80 15 83 16 81 17 82 18 93 19 94 20 95 21 96 22 84 23
REMARK SMILES IDX 85 24 89 25 86 26 88 27 87 28 7 29 8 30 9 32 10 33 11 34
REMARK SMILES IDX 75 35 12 36 74 37 13 38 14 39 15 40 68 41 16 42 73 43 67 44
REMARK SMILES IDX 69 45 17 46 72 47 66 48 65 49 18 51 52 52 31 53 51 54 32 55
REMARK SMILES IDX 35 56 50 57 70 58 33 59 34 60 49 62 71 63 36 64 19 65 20 66
REMARK SMILES IDX 29 67 21 68 22 69 28 70 30 71 23 72 24 73 25 74 26 75 27 76
REMARK SMILES IDX 53 77 54 78 63 79 55 80 56 81 62 82 64 83 57 84 58 85 59 86
REMARK SMILES IDX 60 87 61 88 37 89 38 90 47 91 39 92 40 93 46 94 48 95 41 96
REMARK SMILES IDX 42 97 43 98 44 99 45 100
REMARK H PARENT 3 7 7 31 69 50 35 61
REMARK Flexibility Score: inf
ROOT
ATOM      1  C   UNL A   1      37.164  23.229  25.233  1.00  0.00     0.118 C 
ENDROOT
BRANCH   1   2
ATOM      2  C   UNL A   1      36.191  22.418  24.381  1.00  0.00     0.042 C 
BRANCH   2   3
ATOM      3  C   UNL A   1      34.784  23.021  24.357  1.00  0.00     0.118 C 
BRANCH   3   4
ATOM      4  N   UNL A   1      34.526  23.817  23.150  1.00  0.00    -0.352 N 
ATOM      5  O   UNL A   1      33.942  25.668  21.968  1.00  0.00    -0.270 OA
ATOM      6  C   UNL A   1      33.893  25.026  23.009  1.00  0.00     0.251 C 
ATOM      7  H   UNL A   1      34.859  23.423  22.313  1.00  0.00     0.163 HD
BRANCH   6   8
ATOM      8  C   UNL A   1      33.208  25.553  24.196  1.00  0.00     0.067 C 
ATOM      9  C   UNL A   1      33.935  26.262  25.068  1.00  0.00     0.025 C 
ATOM     10  C   UNL A   1      31.715  25.578  24.178  1.00  0.00     0.314 C 
ATOM     11  C   UNL A   1      33.241  27.426  25.625  1.00  0.00     0.019 A 
ATOM     12  O   UNL A   1      31.216  26.926  24.346  1.00  0.00    -0.475 OA
ATOM     13  C   UNL A   1      33.992  28.350  26.356  1.00  0.00     0.032 A 
ATOM     14  C   UNL A   1      31.994  27.797  25.079  1.00  0.00     0.135 A 
ATOM     15  C   UNL A   1      33.553  29.665  26.449  1.00  0.00     0.042 A 
ATOM     16  C   UNL A   1      31.581  29.140  25.113  1.00  0.00     0.026 A 
ATOM     17  Cl  UNL A   1      34.550  30.834  27.219  1.00  0.00    -0.084 Cl
ATOM     18  C   UNL A   1      32.377  30.065  25.813  1.00  0.00     0.033 A 
BRANCH  10  19
ATOM     19  C   UNL A   1      31.109  24.601  25.199  1.00  0.00     0.429 C 
ATOM     20  F   UNL A   1      31.884  24.505  26.309  1.00  0.00    -0.167 F 
ATOM     21  F   UNL A   1      29.886  25.009  25.619  1.00  0.00    -0.167 F 
ATOM     22  F   UNL A   1      30.963  23.349  24.707  1.00  0.00    -0.167 F 
ENDBRANCH  10  19
BRANCH  16  23
ATOM     23  C   UNL A   1      30.480  29.638  24.274  1.00  0.00    -0.015 A 
ATOM     24  C   UNL A   1      29.993  30.944  24.463  1.00  0.00     0.009 A 
ATOM     25  C   UNL A   1      29.855  28.835  23.316  1.00  0.00     0.009 A 
ATOM     26  C   UNL A   1      28.886  31.419  23.764  1.00  0.00     0.001 A 
ATOM     27  C   UNL A   1      28.753  29.314  22.599  1.00  0.00     0.001 A 
ATOM     28  C   UNL A   1      28.261  30.598  22.834  1.00  0.00     0.000 A 
ENDBRANCH  16  23
ENDBRANCH   6   8
ENDBRANCH   3   4
ENDBRANCH   2   3
ENDBRANCH   1   2
BRANCH   1  29
ATOM     29  N   UNL A   1      38.448  22.594  25.478  1.00  0.00    -0.352 N 
ATOM     30  C   UNL A   1      39.529  23.039  26.212  1.00  0.00     0.251 C 
ATOM     31  H   UNL A   1      38.563  21.711  25.057  1.00  0.00     0.163 HD
ATOM     32  O   UNL A   1      40.526  22.322  26.291  1.00  0.00    -0.269 OA
BRANCH  30  33
ATOM     33  C   UNL A   1      39.559  24.403  26.805  1.00  0.00     0.039 A 
ATOM     34  C   UNL A   1      38.962  24.584  28.060  1.00  0.00     0.014 A 
ATOM     35  C   UNL A   1      40.226  25.474  26.214  1.00  0.00     0.014 A 
ATOM     36  C   UNL A   1      39.165  25.771  28.769  1.00  0.00     0.010 A 
ATOM     37  C   UNL A   1      40.523  26.608  26.960  1.00  0.00     0.010 A 
ATOM     38  C   UNL A   1      40.024  26.757  28.260  1.00  0.00    -0.014 A 
BRANCH  38  39
ATOM     39  C   UNL A   1      40.474  27.898  29.097  1.00  0.00     0.031 A 
ATOM     40  C   UNL A   1      41.809  27.867  29.789  1.00  0.00     0.074 A 
ATOM     41  C   UNL A   1      39.617  28.918  29.315  1.00  0.00     0.049 A 
ATOM     42  N   UNL A   1      42.333  28.741  30.608  1.00  0.00    -0.248 NA
ATOM     43  C   UNL A   1      42.646  26.676  29.569  1.00  0.00     0.031 C 
ATOM     44  C   UNL A   1      38.248  29.001  28.794  1.00  0.00     0.029 A 
ATOM     45  N   UNL A   1      39.762  30.077  30.034  1.00  0.00    -0.354 N 
ATOM     46  C   UNL A   1      43.543  28.194  31.025  1.00  0.00     0.074 A 
ATOM     47  C   UNL A   1      43.647  26.888  30.412  1.00  0.00     0.031 C 
ATOM     48  C   UNL A   1      37.701  30.169  29.166  1.00  0.00     0.029 A 
ATOM     49  C   UNL A   1      38.664  30.904  29.974  1.00  0.00     0.049 A 
ATOM     50  H   UNL A   1      40.576  30.296  30.543  1.00  0.00     0.167 HD
ATOM     51  C   UNL A   1      44.492  28.744  31.820  1.00  0.00     0.037 A 
ATOM     52  C   UNL A   1      38.465  32.128  30.500  1.00  0.00     0.037 A 
ATOM     53  C   UNL A   1      44.398  30.068  32.378  1.00  0.00     0.049 A 
ATOM     54  C   UNL A   1      39.582  32.766  31.277  1.00  0.00     0.074 A 
ATOM     55  C   UNL A   1      45.327  30.755  33.141  1.00  0.00     0.029 A 
ATOM     56  N   UNL A   1      43.311  30.915  32.217  1.00  0.00    -0.354 N 
ATOM     57  N   UNL A   1      40.748  32.262  31.604  1.00  0.00    -0.248 NA
ATOM     58  C   UNL A   1      39.365  34.142  31.740  1.00  0.00     0.031 C 
ATOM     59  C   UNL A   1      44.795  32.012  33.450  1.00  0.00     0.029 A 
ATOM     60  C   UNL A   1      43.547  32.120  32.856  1.00  0.00     0.049 A 
ATOM     61  H   UNL A   1      42.490  30.691  31.721  1.00  0.00     0.167 HD
ATOM     62  C   UNL A   1      41.414  33.266  32.295  1.00  0.00     0.074 A 
ATOM     63  C   UNL A   1      40.527  34.412  32.320  1.00  0.00     0.031 C 
ATOM     64  C   UNL A   1      42.646  33.243  32.861  1.00  0.00     0.037 A 
BRANCH  51  65
ATOM     65  C   UNL A   1      45.717  27.919  32.103  1.00  0.00     0.058 A 
ATOM     66  C   UNL A   1      46.849  27.976  31.273  1.00  0.00     0.135 A 
ATOM     67  C   UNL A   1      45.764  27.057  33.212  1.00  0.00     0.135 A 
ATOM     68  F   UNL A   1      46.853  28.769  30.191  1.00  0.00    -0.206 F 
ATOM     69  C   UNL A   1      47.963  27.176  31.503  1.00  0.00     0.059 A 
ATOM     70  C   UNL A   1      46.881  26.268  33.477  1.00  0.00     0.059 A 
ATOM     71  F   UNL A   1      44.712  26.963  34.040  1.00  0.00    -0.206 F 
ATOM     72  C   UNL A   1      47.967  26.318  32.604  1.00  0.00     0.060 A 
BRANCH  72  73
ATOM     73  S   UNL A   1      49.411  25.270  32.878  1.00  0.00     0.124 S 
ATOM     74  O   UNL A   1      48.846  24.213  33.712  1.00  0.00    -0.237 OA
ATOM     75  O   UNL A   1      49.779  24.877  31.522  1.00  0.00    -0.237 OA
ATOM     76  O   UNL A   1      50.354  26.161  33.546  1.00  0.00    -0.744 OA
ENDBRANCH  72  73
ENDBRANCH  51  65
BRANCH  52  77
ATOM     77  C   UNL A   1      37.193  32.852  30.242  1.00  0.00     0.058 A 
ATOM     78  C   UNL A   1      37.056  33.685  29.121  1.00  0.00     0.135 A 
ATOM     79  C   UNL A   1      36.083  32.709  31.089  1.00  0.00     0.135 A 
ATOM     80  F   UNL A   1      38.089  33.851  28.281  1.00  0.00    -0.206 F 
ATOM     81  C   UNL A   1      35.872  34.367  28.857  1.00  0.00     0.059 A 
ATOM     82  C   UNL A   1      34.881  33.365  30.835  1.00  0.00     0.059 A 
ATOM     83  F   UNL A   1      36.154  31.905  32.161  1.00  0.00    -0.206 F 
ATOM     84  C   UNL A   1      34.790  34.201  29.722  1.00  0.00     0.060 A 
BRANCH  84  85
ATOM     85  S   UNL A   1      33.241  35.052  29.346  1.00  0.00     0.124 S 
ATOM     86  O   UNL A   1      32.598  35.082  30.655  1.00  0.00    -0.237 OA
ATOM     87  O   UNL A   1      33.709  36.336  28.834  1.00  0.00    -0.237 OA
ATOM     88  O   UNL A   1      32.616  34.181  28.355  1.00  0.00    -0.744 OA
ENDBRANCH  84  85
ENDBRANCH  52  77
BRANCH  64  89
ATOM     89  C   UNL A   1      43.103  34.507  33.530  1.00  0.00     0.058 A 
ATOM     90  C   UNL A   1      42.930  34.713  34.907  1.00  0.00     0.135 A 
ATOM     91  C   UNL A   1      43.723  35.520  32.782  1.00  0.00     0.135 A 
ATOM     92  F   UNL A   1      42.337  33.773  35.661  1.00  0.00    -0.206 F 
ATOM     93  C   UNL A   1      43.324  35.898  35.517  1.00  0.00     0.059 A 
ATOM     94  C   UNL A   1      44.145  36.705  33.376  1.00  0.00     0.059 A 
ATOM     95  F   UNL A   1      43.919  35.365  31.464  1.00  0.00    -0.206 F 
ATOM     96  C   UNL A   1      43.923  36.891  34.740  1.00  0.00     0.060 A 
BRANCH  96  97
ATOM     97  S   UNL A   1      44.430  38.430  35.536  1.00  0.00     0.124 S 
ATOM     98  O   UNL A   1      43.841  38.279  36.863  1.00  0.00    -0.237 OA
ATOM     99  O   UNL A   1      45.887  38.355  35.476  1.00  0.00    -0.237 OA
ATOM    100  O   UNL A   1      43.827  39.459  34.694  1.00  0.00    -0.744 OA
ENDBRANCH  96  97
ENDBRANCH  64  89
ENDBRANCH  38  39
ENDBRANCH  30  33
ENDBRANCH   1  29
TORSDOF 15
ENDMDL
