MODEL 1
REMARK VINA RESULT:     -10.9      0.000      0.000
REMARK SMILES Cc1cc(C)cc(-c2ccc([C@@H](C)C(=O)NCCCNC(=O)c3ccc(-c4c5nc(c(-c6c(F)cc(S(=O)(=O)[O-])cc6F)c6ccc([nH]6)c(-c6c(F)cc(S(=O)(=O)[O-])cc6F)c6nc(c(-c7c(F)cc(S(=O)(=O)[O-])cc7F)c7ccc4[nH]7)C=C6)C=C5)cc3)cc2F)c1
REMARK SMILES IDX 18 1 17 2 16 3 14 4 15 5 12 7 13 8 11 9 8 10 9 11 90 12
REMARK SMILES IDX 10 13 89 14 91 15 7 16 1 17 2 18 3 19 92 20 4 21 5 22 6 23
REMARK SMILES IDX 19 24 20 25 21 26 22 28 23 29 24 30 88 31 25 32 87 33 26 34
REMARK SMILES IDX 27 35 28 36 81 37 29 38 86 39 80 40 82 41 30 42 85 43 79 44
REMARK SMILES IDX 78 45 31 47 65 48 44 49 64 50 45 51 48 52 63 53 83 54 46 55
REMARK SMILES IDX 47 56 62 58 84 59 49 60 32 61 33 62 42 63 34 64 35 65 41 66
REMARK SMILES IDX 43 67 36 68 37 69 38 70 39 71 40 72 66 73 67 74 76 75 68 76
REMARK SMILES IDX 69 77 75 78 77 79 70 80 71 81 72 82 73 83 74 84 50 85 51 86
REMARK SMILES IDX 60 87 52 88 53 89 59 90 61 91 54 92 55 93 56 94 57 95 58 96
REMARK H PARENT 16 6 20 27 82 46 48 57
REMARK Flexibility Score: inf
ROOT
ATOM      1  C   UNL A   1      34.309  33.847  28.195  1.00  0.00     0.042 C 
ENDROOT
BRANCH   1   2
ATOM      2  C   UNL A   1      32.963  34.438  28.599  1.00  0.00     0.117 C 
BRANCH   2   3
ATOM      3  N   UNL A   1      33.093  35.774  29.147  1.00  0.00    -0.356 N 
ATOM      4  C   UNL A   1      33.052  36.248  30.421  1.00  0.00     0.227 C 
ATOM      5  O   UNL A   1      33.139  37.476  30.547  1.00  0.00    -0.274 OA
ATOM      6  H   UNL A   1      33.240  36.471  28.467  1.00  0.00     0.163 HD
BRANCH   4   7
ATOM      7  C   UNL A   1      32.928  35.362  31.670  1.00  0.00     0.105 C 
ATOM      8  C   UNL A   1      32.278  36.053  32.868  1.00  0.00     0.023 C 
BRANCH   7   9
ATOM      9  C   UNL A   1      34.180  34.558  31.981  1.00  0.00    -0.033 A 
ATOM     10  C   UNL A   1      36.582  33.178  32.705  1.00  0.00     0.017 A 
ATOM     11  C   UNL A   1      35.311  32.663  33.008  1.00  0.00     0.012 A 
ATOM     12  C   UNL A   1      36.615  34.385  31.998  1.00  0.00     0.131 A 
ATOM     13  C   UNL A   1      34.137  33.316  32.617  1.00  0.00     0.005 A 
ATOM     14  C   UNL A   1      35.444  35.075  31.657  1.00  0.00     0.044 A 
ATOM     15  F   UNL A   1      37.786  34.922  31.618  1.00  0.00    -0.206 F 
BRANCH  10  16
ATOM     16  C   UNL A   1      37.793  32.454  33.143  1.00  0.00    -0.015 A 
ATOM     17  C   UNL A   1      40.895  32.976  35.326  1.00  0.00     0.044 C 
ATOM     18  C   UNL A   1      39.866  32.330  34.444  1.00  0.00    -0.050 A 
ATOM     19  C   UNL A   1      40.003  30.980  34.101  1.00  0.00     0.006 A 
ATOM     20  C   UNL A   1      38.764  33.055  33.963  1.00  0.00     0.012 A 
ATOM     21  C   UNL A   1      39.058  30.354  33.285  1.00  0.00    -0.050 A 
ATOM     22  C   UNL A   1      39.201  28.899  32.946  1.00  0.00     0.044 C 
ATOM     23  C   UNL A   1      37.977  31.099  32.802  1.00  0.00     0.012 A 
ENDBRANCH  10  16
ENDBRANCH   7   9
ENDBRANCH   4   7
ENDBRANCH   2   3
ENDBRANCH   1   2
BRANCH   1  24
ATOM     24  C   UNL A   1      34.674  32.585  28.963  1.00  0.00     0.118 C 
BRANCH  24  25
ATOM     25  N   UNL A   1      34.021  31.403  28.413  1.00  0.00    -0.352 N 
ATOM     26  C   UNL A   1      34.564  30.217  27.980  1.00  0.00     0.251 C 
ATOM     27  H   UNL A   1      33.041  31.463  28.342  1.00  0.00     0.163 HD
ATOM     28  O   UNL A   1      33.870  29.435  27.339  1.00  0.00    -0.269 OA
BRANCH  26  29
ATOM     29  C   UNL A   1      35.978  29.892  28.273  1.00  0.00     0.039 A 
ATOM     30  C   UNL A   1      36.316  29.377  29.529  1.00  0.00     0.014 A 
ATOM     31  C   UNL A   1      36.975  30.121  27.323  1.00  0.00     0.014 A 
ATOM     32  C   UNL A   1      37.642  29.035  29.805  1.00  0.00     0.010 A 
ATOM     33  C   UNL A   1      38.276  29.695  27.565  1.00  0.00     0.010 A 
ATOM     34  C   UNL A   1      38.628  29.160  28.813  1.00  0.00    -0.014 A 
BRANCH  34  35
ATOM     35  C   UNL A   1      40.046  28.788  29.057  1.00  0.00     0.031 A 
ATOM     36  C   UNL A   1      40.987  29.810  29.641  1.00  0.00     0.074 A 
ATOM     37  C   UNL A   1      40.499  27.572  28.692  1.00  0.00     0.049 A 
ATOM     38  N   UNL A   1      42.283  29.748  29.790  1.00  0.00    -0.248 NA
ATOM     39  C   UNL A   1      40.393  31.081  30.093  1.00  0.00     0.031 C 
ATOM     40  C   UNL A   1      39.688  26.505  28.103  1.00  0.00     0.029 A 
ATOM     41  N   UNL A   1      41.760  27.031  28.754  1.00  0.00    -0.354 N 
ATOM     42  C   UNL A   1      42.659  30.969  30.338  1.00  0.00     0.074 A 
ATOM     43  C   UNL A   1      41.466  31.777  30.440  1.00  0.00     0.031 C 
ATOM     44  C   UNL A   1      40.465  25.430  27.884  1.00  0.00     0.029 A 
ATOM     45  C   UNL A   1      41.837  25.746  28.266  1.00  0.00     0.049 A 
ATOM     46  H   UNL A   1      42.537  27.517  29.115  1.00  0.00     0.167 HD
ATOM     47  C   UNL A   1      43.884  31.367  30.752  1.00  0.00     0.037 A 
ATOM     48  C   UNL A   1      42.897  24.924  28.130  1.00  0.00     0.037 A 
ATOM     49  C   UNL A   1      45.061  30.542  30.683  1.00  0.00     0.049 A 
ATOM     50  C   UNL A   1      44.258  25.411  28.557  1.00  0.00     0.074 A 
ATOM     51  C   UNL A   1      46.346  30.846  31.095  1.00  0.00     0.029 A 
ATOM     52  N   UNL A   1      45.093  29.247  30.187  1.00  0.00    -0.354 N 
ATOM     53  N   UNL A   1      44.592  26.564  29.085  1.00  0.00    -0.248 NA
ATOM     54  C   UNL A   1      45.387  24.488  28.369  1.00  0.00     0.031 C 
ATOM     55  C   UNL A   1      47.164  29.750  30.813  1.00  0.00     0.029 A 
ATOM     56  C   UNL A   1      46.378  28.743  30.276  1.00  0.00     0.049 A 
ATOM     57  H   UNL A   1      44.318  28.761  29.824  1.00  0.00     0.167 HD
ATOM     58  C   UNL A   1      45.959  26.488  29.333  1.00  0.00     0.074 A 
ATOM     59  C   UNL A   1      46.391  25.177  28.896  1.00  0.00     0.031 C 
ATOM     60  C   UNL A   1      46.781  27.419  29.875  1.00  0.00     0.037 A 
BRANCH  47  61
ATOM     61  C   UNL A   1      44.021  32.737  31.356  1.00  0.00     0.058 A 
ATOM     62  C   UNL A   1      43.777  32.948  32.722  1.00  0.00     0.135 A 
ATOM     63  C   UNL A   1      44.298  33.858  30.559  1.00  0.00     0.135 A 
ATOM     64  F   UNL A   1      43.517  31.910  33.532  1.00  0.00    -0.206 F 
ATOM     65  C   UNL A   1      43.769  34.226  33.269  1.00  0.00     0.059 A 
ATOM     66  C   UNL A   1      44.323  35.144  31.090  1.00  0.00     0.059 A 
ATOM     67  F   UNL A   1      44.564  33.710  29.251  1.00  0.00    -0.206 F 
ATOM     68  C   UNL A   1      44.037  35.319  32.443  1.00  0.00     0.060 A 
BRANCH  68  69
ATOM     69  S   UNL A   1      44.010  36.973  33.166  1.00  0.00     0.124 S 
ATOM     70  O   UNL A   1      45.318  37.042  33.806  1.00  0.00    -0.237 OA
ATOM     71  O   UNL A   1      43.831  37.816  31.988  1.00  0.00    -0.237 OA
ATOM     72  O   UNL A   1      42.866  36.928  34.073  1.00  0.00    -0.744 OA
ENDBRANCH  68  69
ENDBRANCH  47  61
BRANCH  48  73
ATOM     73  C   UNL A   1      42.717  23.548  27.591  1.00  0.00     0.058 A 
ATOM     74  C   UNL A   1      42.781  23.280  26.215  1.00  0.00     0.135 A 
ATOM     75  C   UNL A   1      42.482  22.466  28.455  1.00  0.00     0.135 A 
ATOM     76  F   UNL A   1      42.992  24.277  25.343  1.00  0.00    -0.206 F 
ATOM     77  C   UNL A   1      42.611  21.993  25.715  1.00  0.00     0.059 A 
ATOM     78  C   UNL A   1      42.339  21.165  27.981  1.00  0.00     0.059 A 
ATOM     79  F   UNL A   1      42.421  22.669  29.780  1.00  0.00    -0.206 F 
ATOM     80  C   UNL A   1      42.395  20.940  26.606  1.00  0.00     0.060 A 
BRANCH  80  81
ATOM     81  S   UNL A   1      42.211  19.274  25.936  1.00  0.00     0.124 S 
ATOM     82  O   UNL A   1      40.772  19.215  25.694  1.00  0.00    -0.237 OA
ATOM     83  O   UNL A   1      43.053  19.330  24.745  1.00  0.00    -0.237 OA
ATOM     84  O   UNL A   1      42.704  18.420  27.012  1.00  0.00    -0.744 OA
ENDBRANCH  80  81
ENDBRANCH  48  73
BRANCH  60  85
ATOM     85  C   UNL A   1      48.222  27.053  30.093  1.00  0.00     0.058 A 
ATOM     86  C   UNL A   1      48.620  26.460  31.304  1.00  0.00     0.135 A 
ATOM     87  C   UNL A   1      49.220  27.401  29.171  1.00  0.00     0.135 A 
ATOM     88  F   UNL A   1      47.704  26.114  32.222  1.00  0.00    -0.206 F 
ATOM     89  C   UNL A   1      49.961  26.258  31.606  1.00  0.00     0.059 A 
ATOM     90  C   UNL A   1      50.567  27.180  29.441  1.00  0.00     0.059 A 
ATOM     91  F   UNL A   1      48.889  27.959  27.996  1.00  0.00    -0.206 F 
ATOM     92  C   UNL A   1      50.929  26.630  30.672  1.00  0.00     0.060 A 
BRANCH  92  93
ATOM     93  S   UNL A   1      52.666  26.387  31.095  1.00  0.00     0.124 S 
ATOM     94  O   UNL A   1      53.286  26.304  29.777  1.00  0.00    -0.237 OA
ATOM     95  O   UNL A   1      52.967  27.591  31.862  1.00  0.00    -0.237 OA
ATOM     96  O   UNL A   1      52.658  25.147  31.864  1.00  0.00    -0.744 OA
ENDBRANCH  92  93
ENDBRANCH  60  85
ENDBRANCH  34  35
ENDBRANCH  26  29
ENDBRANCH  24  25
ENDBRANCH   1  24
TORSDOF 15
ENDMDL
MODEL 2
REMARK VINA RESULT:     -10.7      3.063     11.108
REMARK SMILES Cc1cc(C)cc(-c2ccc([C@@H](C)C(=O)NCCCNC(=O)c3ccc(-c4c5nc(c(-c6c(F)cc(S(=O)(=O)[O-])cc6F)c6ccc([nH]6)c(-c6c(F)cc(S(=O)(=O)[O-])cc6F)c6nc(c(-c7c(F)cc(S(=O)(=O)[O-])cc7F)c7ccc4[nH]7)C=C6)C=C5)cc3)cc2F)c1
REMARK SMILES IDX 18 1 17 2 16 3 14 4 15 5 12 7 13 8 11 9 8 10 9 11 90 12
REMARK SMILES IDX 10 13 89 14 91 15 7 16 1 17 2 18 3 19 92 20 4 21 5 22 6 23
REMARK SMILES IDX 19 24 20 25 21 26 22 28 23 29 24 30 88 31 25 32 87 33 26 34
REMARK SMILES IDX 27 35 28 36 81 37 29 38 86 39 80 40 82 41 30 42 85 43 79 44
REMARK SMILES IDX 78 45 31 47 65 48 44 49 64 50 45 51 48 52 63 53 83 54 46 55
REMARK SMILES IDX 47 56 62 58 84 59 49 60 32 61 33 62 42 63 34 64 35 65 41 66
REMARK SMILES IDX 43 67 36 68 37 69 38 70 39 71 40 72 66 73 67 74 76 75 68 76
REMARK SMILES IDX 69 77 75 78 77 79 70 80 71 81 72 82 73 83 74 84 50 85 51 86
REMARK SMILES IDX 60 87 52 88 53 89 59 90 61 91 54 92 55 93 56 94 57 95 58 96
REMARK H PARENT 16 6 20 27 82 46 48 57
REMARK Flexibility Score: inf
ROOT
ATOM      1  C   UNL A   1      40.984  20.127  26.142  1.00  0.00     0.042 C 
ENDROOT
BRANCH   1   2
ATOM      2  C   UNL A   1      42.251  19.640  26.839  1.00  0.00     0.117 C 
BRANCH   2   3
ATOM      3  N   UNL A   1      43.437  19.852  26.032  1.00  0.00    -0.356 N 
ATOM      4  C   UNL A   1      43.987  20.973  25.493  1.00  0.00     0.227 C 
ATOM      5  O   UNL A   1      44.991  20.801  24.790  1.00  0.00    -0.274 OA
ATOM      6  H   UNL A   1      43.939  19.028  25.838  1.00  0.00     0.163 HD
BRANCH   4   7
ATOM      7  C   UNL A   1      43.453  22.395  25.723  1.00  0.00     0.105 C 
ATOM      8  C   UNL A   1      43.744  23.367  24.579  1.00  0.00     0.023 C 
BRANCH   7   9
ATOM      9  C   UNL A   1      43.716  22.934  27.120  1.00  0.00    -0.033 A 
ATOM     10  C   UNL A   1      44.233  24.128  29.670  1.00  0.00     0.017 A 
ATOM     11  C   UNL A   1      42.961  23.645  29.321  1.00  0.00     0.012 A 
ATOM     12  C   UNL A   1      45.247  23.963  28.720  1.00  0.00     0.131 A 
ATOM     13  C   UNL A   1      42.719  23.023  28.091  1.00  0.00     0.005 A 
ATOM     14  C   UNL A   1      44.997  23.397  27.462  1.00  0.00     0.044 A 
ATOM     15  F   UNL A   1      46.505  24.345  28.990  1.00  0.00    -0.206 F 
BRANCH  10  16
ATOM     16  C   UNL A   1      44.438  24.781  30.980  1.00  0.00    -0.015 A 
ATOM     17  C   UNL A   1      44.851  28.279  32.481  1.00  0.00     0.044 C 
ATOM     18  C   UNL A   1      44.698  26.790  32.357  1.00  0.00    -0.050 A 
ATOM     19  C   UNL A   1      44.653  26.005  33.515  1.00  0.00     0.006 A 
ATOM     20  C   UNL A   1      44.590  26.173  31.101  1.00  0.00     0.012 A 
ATOM     21  C   UNL A   1      44.508  24.618  33.429  1.00  0.00    -0.050 A 
ATOM     22  C   UNL A   1      44.433  23.789  34.677  1.00  0.00     0.044 C 
ATOM     23  C   UNL A   1      44.420  24.022  32.167  1.00  0.00     0.012 A 
ENDBRANCH  10  16
ENDBRANCH   7   9
ENDBRANCH   4   7
ENDBRANCH   2   3
ENDBRANCH   1   2
BRANCH   1  24
ATOM     24  C   UNL A   1      40.266  21.237  26.894  1.00  0.00     0.118 C 
BRANCH  24  25
ATOM     25  N   UNL A   1      39.038  21.645  26.224  1.00  0.00    -0.352 N 
ATOM     26  C   UNL A   1      38.419  22.873  26.186  1.00  0.00     0.251 C 
ATOM     27  H   UNL A   1      38.582  20.933  25.718  1.00  0.00     0.163 HD
ATOM     28  O   UNL A   1      37.274  22.957  25.756  1.00  0.00    -0.269 OA
BRANCH  26  29
ATOM     29  C   UNL A   1      39.125  24.079  26.673  1.00  0.00     0.039 A 
ATOM     30  C   UNL A   1      39.895  24.829  25.778  1.00  0.00     0.014 A 
ATOM     31  C   UNL A   1      39.053  24.456  28.015  1.00  0.00     0.014 A 
ATOM     32  C   UNL A   1      40.537  25.989  26.219  1.00  0.00     0.010 A 
ATOM     33  C   UNL A   1      39.615  25.657  28.431  1.00  0.00     0.010 A 
ATOM     34  C   UNL A   1      40.376  26.431  27.542  1.00  0.00    -0.014 A 
BRANCH  34  35
ATOM     35  C   UNL A   1      41.024  27.669  28.046  1.00  0.00     0.031 A 
ATOM     36  C   UNL A   1      42.525  27.786  28.006  1.00  0.00     0.074 A 
ATOM     37  C   UNL A   1      40.278  28.647  28.599  1.00  0.00     0.049 A 
ATOM     38  N   UNL A   1      43.296  28.701  28.529  1.00  0.00    -0.248 NA
ATOM     39  C   UNL A   1      43.258  26.714  27.306  1.00  0.00     0.031 C 
ATOM     40  C   UNL A   1      38.818  28.641  28.710  1.00  0.00     0.029 A 
ATOM     41  N   UNL A   1      40.648  29.834  29.183  1.00  0.00    -0.354 N 
ATOM     42  C   UNL A   1      44.598  28.312  28.234  1.00  0.00     0.074 A 
ATOM     43  C   UNL A   1      44.519  27.047  27.540  1.00  0.00     0.031 C 
ATOM     44  C   UNL A   1      38.416  29.781  29.298  1.00  0.00     0.029 A 
ATOM     45  C   UNL A   1      39.588  30.574  29.654  1.00  0.00     0.049 A 
ATOM     46  H   UNL A   1      41.584  30.127  29.258  1.00  0.00     0.167 HD
ATOM     47  C   UNL A   1      45.753  28.968  28.488  1.00  0.00     0.037 A 
ATOM     48  C   UNL A   1      39.566  31.751  30.311  1.00  0.00     0.037 A 
ATOM     49  C   UNL A   1      45.822  30.245  29.146  1.00  0.00     0.049 A 
ATOM     50  C   UNL A   1      40.871  32.439  30.621  1.00  0.00     0.074 A 
ATOM     51  C   UNL A   1      46.943  31.004  29.432  1.00  0.00     0.029 A 
ATOM     52  N   UNL A   1      44.725  30.962  29.601  1.00  0.00    -0.354 N 
ATOM     53  N   UNL A   1      42.091  32.061  30.324  1.00  0.00    -0.248 NA
ATOM     54  C   UNL A   1      40.799  33.708  31.359  1.00  0.00     0.031 C 
ATOM     55  C   UNL A   1      46.529  32.160  30.096  1.00  0.00     0.029 A 
ATOM     56  C   UNL A   1      45.145  32.150  30.173  1.00  0.00     0.049 A 
ATOM     57  H   UNL A   1      43.788  30.669  29.529  1.00  0.00     0.167 HD
ATOM     58  C   UNL A   1      42.927  33.068  30.796  1.00  0.00     0.074 A 
ATOM     59  C   UNL A   1      42.075  34.069  31.402  1.00  0.00     0.031 C 
ATOM     60  C   UNL A   1      44.278  33.154  30.733  1.00  0.00     0.037 A 
BRANCH  47  61
ATOM     61  C   UNL A   1      47.042  28.347  28.024  1.00  0.00     0.058 A 
ATOM     62  C   UNL A   1      47.483  28.511  26.702  1.00  0.00     0.135 A 
ATOM     63  C   UNL A   1      47.789  27.507  28.865  1.00  0.00     0.135 A 
ATOM     64  F   UNL A   1      46.812  29.311  25.858  1.00  0.00    -0.206 F 
ATOM     65  C   UNL A   1      48.600  27.838  26.220  1.00  0.00     0.059 A 
ATOM     66  C   UNL A   1      48.925  26.844  28.413  1.00  0.00     0.059 A 
ATOM     67  F   UNL A   1      47.425  27.336  30.146  1.00  0.00    -0.206 F 
ATOM     68  C   UNL A   1      49.310  27.000  27.082  1.00  0.00     0.060 A 
BRANCH  68  69
ATOM     69  S   UNL A   1      50.750  26.122  26.438  1.00  0.00     0.124 S 
ATOM     70  O   UNL A   1      51.848  26.959  26.908  1.00  0.00    -0.237 OA
ATOM     71  O   UNL A   1      50.622  24.817  27.080  1.00  0.00    -0.237 OA
ATOM     72  O   UNL A   1      50.531  26.124  24.994  1.00  0.00    -0.744 OA
ENDBRANCH  68  69
ENDBRANCH  47  61
BRANCH  48  73
ATOM     73  C   UNL A   1      38.270  32.374  30.698  1.00  0.00     0.058 A 
ATOM     74  C   UNL A   1      37.682  32.137  31.950  1.00  0.00     0.135 A 
ATOM     75  C   UNL A   1      37.594  33.230  29.812  1.00  0.00     0.135 A 
ATOM     76  F   UNL A   1      38.277  31.319  32.831  1.00  0.00    -0.206 F 
ATOM     77  C   UNL A   1      36.470  32.718  32.307  1.00  0.00     0.059 A 
ATOM     78  C   UNL A   1      36.396  33.847  30.159  1.00  0.00     0.059 A 
ATOM     79  F   UNL A   1      38.119  33.494  28.607  1.00  0.00    -0.206 F 
ATOM     80  C   UNL A   1      35.836  33.576  31.407  1.00  0.00     0.060 A 
BRANCH  80  81
ATOM     81  S   UNL A   1      34.281  34.346  31.906  1.00  0.00     0.124 S 
ATOM     82  O   UNL A   1      33.609  34.506  30.619  1.00  0.00    -0.237 OA
ATOM     83  O   UNL A   1      33.714  33.337  32.796  1.00  0.00    -0.237 OA
ATOM     84  O   UNL A   1      34.707  35.583  32.552  1.00  0.00    -0.744 OA
ENDBRANCH  80  81
ENDBRANCH  48  73
BRANCH  60  85
ATOM     85  C   UNL A   1      44.936  34.394  31.272  1.00  0.00     0.058 A 
ATOM     86  C   UNL A   1      45.275  34.475  32.633  1.00  0.00     0.135 A 
ATOM     87  C   UNL A   1      45.114  35.539  30.481  1.00  0.00     0.135 A 
ATOM     88  F   UNL A   1      45.118  33.409  33.434  1.00  0.00    -0.206 F 
ATOM     89  C   UNL A   1      45.733  35.658  33.199  1.00  0.00     0.059 A 
ATOM     90  C   UNL A   1      45.599  36.726  31.020  1.00  0.00     0.059 A 
ATOM     91  F   UNL A   1      44.816  35.508  29.172  1.00  0.00    -0.206 F 
ATOM     92  C   UNL A   1      45.883  36.782  32.385  1.00  0.00     0.060 A 
BRANCH  92  93
ATOM     93  S   UNL A   1      46.450  38.319  33.143  1.00  0.00     0.124 S 
ATOM     94  O   UNL A   1      47.803  37.966  33.559  1.00  0.00    -0.237 OA
ATOM     95  O   UNL A   1      46.352  39.263  32.034  1.00  0.00    -0.237 OA
ATOM     96  O   UNL A   1      45.497  38.535  34.227  1.00  0.00    -0.744 OA
ENDBRANCH  92  93
ENDBRANCH  60  85
ENDBRANCH  34  35
ENDBRANCH  26  29
ENDBRANCH  24  25
ENDBRANCH   1  24
TORSDOF 15
ENDMDL
MODEL 3
REMARK VINA RESULT:     -10.7      2.489      3.926
REMARK SMILES Cc1cc(C)cc(-c2ccc([C@@H](C)C(=O)NCCCNC(=O)c3ccc(-c4c5nc(c(-c6c(F)cc(S(=O)(=O)[O-])cc6F)c6ccc([nH]6)c(-c6c(F)cc(S(=O)(=O)[O-])cc6F)c6nc(c(-c7c(F)cc(S(=O)(=O)[O-])cc7F)c7ccc4[nH]7)C=C6)C=C5)cc3)cc2F)c1
REMARK SMILES IDX 18 1 17 2 16 3 14 4 15 5 12 7 13 8 11 9 8 10 9 11 90 12
REMARK SMILES IDX 10 13 89 14 91 15 7 16 1 17 2 18 3 19 92 20 4 21 5 22 6 23
REMARK SMILES IDX 19 24 20 25 21 26 22 28 23 29 24 30 88 31 25 32 87 33 26 34
REMARK SMILES IDX 27 35 28 36 81 37 29 38 86 39 80 40 82 41 30 42 85 43 79 44
REMARK SMILES IDX 78 45 31 47 65 48 44 49 64 50 45 51 48 52 63 53 83 54 46 55
REMARK SMILES IDX 47 56 62 58 84 59 49 60 32 61 33 62 42 63 34 64 35 65 41 66
REMARK SMILES IDX 43 67 36 68 37 69 38 70 39 71 40 72 66 73 67 74 76 75 68 76
REMARK SMILES IDX 69 77 75 78 77 79 70 80 71 81 72 82 73 83 74 84 50 85 51 86
REMARK SMILES IDX 60 87 52 88 53 89 59 90 61 91 54 92 55 93 56 94 57 95 58 96
REMARK H PARENT 16 6 20 27 82 46 48 57
REMARK Flexibility Score: inf
ROOT
ATOM      1  C   UNL A   1      33.324  33.844  28.202  1.00  0.00     0.042 C 
ENDROOT
BRANCH   1   2
ATOM      2  C   UNL A   1      33.918  35.166  28.677  1.00  0.00     0.117 C 
BRANCH   2   3
ATOM      3  N   UNL A   1      33.784  35.344  30.110  1.00  0.00    -0.356 N 
ATOM      4  C   UNL A   1      34.218  34.608  31.167  1.00  0.00     0.227 C 
ATOM      5  O   UNL A   1      33.877  35.010  32.286  1.00  0.00    -0.274 OA
ATOM      6  H   UNL A   1      33.282  36.152  30.365  1.00  0.00     0.163 HD
BRANCH   4   7
ATOM      7  C   UNL A   1      35.100  33.355  31.045  1.00  0.00     0.105 C 
ATOM      8  C   UNL A   1      34.887  32.328  32.157  1.00  0.00     0.023 C 
BRANCH   7   9
ATOM      9  C   UNL A   1      36.550  33.653  30.701  1.00  0.00    -0.033 A 
ATOM     10  C   UNL A   1      39.333  34.067  30.172  1.00  0.00     0.017 A 
ATOM     11  C   UNL A   1      38.461  33.551  29.199  1.00  0.00     0.012 A 
ATOM     12  C   UNL A   1      38.764  34.403  31.406  1.00  0.00     0.131 A 
ATOM     13  C   UNL A   1      37.094  33.389  29.443  1.00  0.00     0.005 A 
ATOM     14  C   UNL A   1      37.407  34.185  31.678  1.00  0.00     0.044 A 
ATOM     15  F   UNL A   1      39.513  34.952  32.376  1.00  0.00    -0.206 F 
BRANCH  10  16
ATOM     16  C   UNL A   1      40.772  34.215  29.868  1.00  0.00    -0.015 A 
ATOM     17  C   UNL A   1      43.168  36.645  28.134  1.00  0.00     0.044 C 
ATOM     18  C   UNL A   1      42.644  35.477  28.918  1.00  0.00    -0.050 A 
ATOM     19  C   UNL A   1      43.545  34.552  29.459  1.00  0.00     0.006 A 
ATOM     20  C   UNL A   1      41.268  35.302  29.127  1.00  0.00     0.012 A 
ATOM     21  C   UNL A   1      43.085  33.458  30.196  1.00  0.00    -0.050 A 
ATOM     22  C   UNL A   1      44.061  32.488  30.794  1.00  0.00     0.044 C 
ATOM     23  C   UNL A   1      41.708  33.293  30.377  1.00  0.00     0.012 A 
ENDBRANCH  10  16
ENDBRANCH   7   9
ENDBRANCH   4   7
ENDBRANCH   2   3
ENDBRANCH   1   2
BRANCH   1  24
ATOM     24  C   UNL A   1      34.368  32.839  27.740  1.00  0.00     0.118 C 
BRANCH  24  25
ATOM     25  N   UNL A   1      33.765  31.588  27.299  1.00  0.00    -0.352 N 
ATOM     26  C   UNL A   1      34.292  30.318  27.266  1.00  0.00     0.251 C 
ATOM     27  H   UNL A   1      32.838  31.662  26.977  1.00  0.00     0.163 HD
ATOM     28  O   UNL A   1      33.704  29.438  26.647  1.00  0.00    -0.269 OA
BRANCH  26  29
ATOM     29  C   UNL A   1      35.565  30.020  27.960  1.00  0.00     0.039 A 
ATOM     30  C   UNL A   1      35.541  29.673  29.314  1.00  0.00     0.014 A 
ATOM     31  C   UNL A   1      36.784  30.109  27.285  1.00  0.00     0.014 A 
ATOM     32  C   UNL A   1      36.734  29.356  29.970  1.00  0.00     0.010 A 
ATOM     33  C   UNL A   1      37.957  29.705  27.912  1.00  0.00     0.010 A 
ATOM     34  C   UNL A   1      37.948  29.338  29.266  1.00  0.00    -0.014 A 
BRANCH  34  35
ATOM     35  C   UNL A   1      39.235  28.986  29.919  1.00  0.00     0.031 A 
ATOM     36  C   UNL A   1      39.691  29.770  31.122  1.00  0.00     0.074 A 
ATOM     37  C   UNL A   1      40.019  28.022  29.396  1.00  0.00     0.049 A 
ATOM     38  N   UNL A   1      40.838  29.734  31.745  1.00  0.00    -0.248 NA
ATOM     39  C   UNL A   1      38.737  30.744  31.682  1.00  0.00     0.031 C 
ATOM     40  C   UNL A   1      39.694  27.205  28.225  1.00  0.00     0.029 A 
ATOM     41  N   UNL A   1      41.260  27.571  29.776  1.00  0.00    -0.354 N 
ATOM     42  C   UNL A   1      40.749  30.683  32.757  1.00  0.00     0.074 A 
ATOM     43  C   UNL A   1      39.461  31.323  32.630  1.00  0.00     0.031 C 
ATOM     44  C   UNL A   1      40.694  26.337  28.001  1.00  0.00     0.029 A 
ATOM     45  C   UNL A   1      41.756  26.568  28.976  1.00  0.00     0.049 A 
ATOM     46  H   UNL A   1      41.749  27.933  30.551  1.00  0.00     0.167 HD
ATOM     47  C   UNL A   1      41.647  30.970  33.727  1.00  0.00     0.037 A 
ATOM     48  C   UNL A   1      42.937  25.919  29.016  1.00  0.00     0.037 A 
ATOM     49  C   UNL A   1      42.913  30.301  33.870  1.00  0.00     0.049 A 
ATOM     50  C   UNL A   1      43.938  26.291  30.080  1.00  0.00     0.074 A 
ATOM     51  C   UNL A   1      43.886  30.504  34.833  1.00  0.00     0.029 A 
ATOM     52  N   UNL A   1      43.372  29.288  33.042  1.00  0.00    -0.354 N 
ATOM     53  N   UNL A   1      43.831  27.183  31.036  1.00  0.00    -0.248 NA
ATOM     54  C   UNL A   1      45.221  25.573  30.071  1.00  0.00     0.031 C 
ATOM     55  C   UNL A   1      44.951  29.642  34.564  1.00  0.00     0.029 A 
ATOM     56  C   UNL A   1      44.619  28.863  33.467  1.00  0.00     0.049 A 
ATOM     57  H   UNL A   1      42.886  28.927  32.266  1.00  0.00     0.167 HD
ATOM     58  C   UNL A   1      45.011  27.100  31.768  1.00  0.00     0.074 A 
ATOM     59  C   UNL A   1      45.819  26.074  31.143  1.00  0.00     0.031 C 
ATOM     60  C   UNL A   1      45.390  27.810  32.858  1.00  0.00     0.037 A 
BRANCH  47  61
ATOM     61  C   UNL A   1      41.291  32.022  34.739  1.00  0.00     0.058 A 
ATOM     62  C   UNL A   1      40.551  31.694  35.887  1.00  0.00     0.135 A 
ATOM     63  C   UNL A   1      41.598  33.374  34.522  1.00  0.00     0.135 A 
ATOM     64  F   UNL A   1      40.238  30.415  36.149  1.00  0.00    -0.206 F 
ATOM     65  C   UNL A   1      40.099  32.673  36.764  1.00  0.00     0.059 A 
ATOM     66  C   UNL A   1      41.180  34.369  35.401  1.00  0.00     0.059 A 
ATOM     67  F   UNL A   1      42.325  33.739  33.453  1.00  0.00    -0.206 F 
ATOM     68  C   UNL A   1      40.413  34.010  36.508  1.00  0.00     0.060 A 
BRANCH  68  69
ATOM     69  S   UNL A   1      39.808  35.270  37.649  1.00  0.00     0.124 S 
ATOM     70  O   UNL A   1      38.565  34.674  38.125  1.00  0.00    -0.237 OA
ATOM     71  O   UNL A   1      40.894  35.345  38.623  1.00  0.00    -0.237 OA
ATOM     72  O   UNL A   1      39.656  36.450  36.802  1.00  0.00    -0.744 OA
ENDBRANCH  68  69
ENDBRANCH  47  61
BRANCH  48  73
ATOM     73  C   UNL A   1      43.234  24.835  28.040  1.00  0.00     0.058 A 
ATOM     74  C   UNL A   1      42.890  23.498  28.294  1.00  0.00     0.135 A 
ATOM     75  C   UNL A   1      43.869  25.123  26.821  1.00  0.00     0.135 A 
ATOM     76  F   UNL A   1      42.292  23.163  29.448  1.00  0.00    -0.206 F 
ATOM     77  C   UNL A   1      43.171  22.488  27.382  1.00  0.00     0.059 A 
ATOM     78  C   UNL A   1      44.133  24.134  25.879  1.00  0.00     0.059 A 
ATOM     79  F   UNL A   1      44.209  26.387  26.527  1.00  0.00    -0.206 F 
ATOM     80  C   UNL A   1      43.789  22.815  26.173  1.00  0.00     0.060 A 
BRANCH  80  81
ATOM     81  S   UNL A   1      44.113  21.491  24.989  1.00  0.00     0.124 S 
ATOM     82  O   UNL A   1      44.024  22.207  23.720  1.00  0.00    -0.237 OA
ATOM     83  O   UNL A   1      45.450  21.056  25.379  1.00  0.00    -0.237 OA
ATOM     84  O   UNL A   1      43.043  20.534  25.249  1.00  0.00    -0.744 OA
ENDBRANCH  80  81
ENDBRANCH  48  73
BRANCH  60  85
ATOM     85  C   UNL A   1      46.707  27.475  33.501  1.00  0.00     0.058 A 
ATOM     86  C   UNL A   1      47.888  28.083  33.041  1.00  0.00     0.135 A 
ATOM     87  C   UNL A   1      46.819  26.471  34.474  1.00  0.00     0.135 A 
ATOM     88  F   UNL A   1      47.835  29.045  32.106  1.00  0.00    -0.206 F 
ATOM     89  C   UNL A   1      49.136  27.680  33.497  1.00  0.00     0.059 A 
ATOM     90  C   UNL A   1      48.058  26.073  34.966  1.00  0.00     0.059 A 
ATOM     91  F   UNL A   1      45.719  25.869  34.953  1.00  0.00    -0.206 F 
ATOM     92  C   UNL A   1      49.212  26.667  34.454  1.00  0.00     0.060 A 
BRANCH  92  93
ATOM     93  S   UNL A   1      50.844  26.136  35.013  1.00  0.00     0.124 S 
ATOM     94  O   UNL A   1      51.324  25.381  33.862  1.00  0.00    -0.237 OA
ATOM     95  O   UNL A   1      51.513  27.410  35.259  1.00  0.00    -0.237 OA
ATOM     96  O   UNL A   1      50.555  25.347  36.206  1.00  0.00    -0.744 OA
ENDBRANCH  92  93
ENDBRANCH  60  85
ENDBRANCH  34  35
ENDBRANCH  26  29
ENDBRANCH  24  25
ENDBRANCH   1  24
TORSDOF 15
ENDMDL
