MODEL 1
REMARK VINA RESULT:     -12.3      0.000      0.000
REMARK SMILES O=C(NCCCNC(=O)c1cc([N+](=O)[O-])c(NCCC2=CCCCC2)c([N+](=O)[O-])c1)c1ccc(-c2c3nc(c(-c4c(F)cc(S(=O)(=O)[O-])cc4F)c4ccc([nH]4)c(-c4c(F)cc(S(=O)(=O)[O-])cc4F)c4nc(c(-c5c(F)cc(S(=O)(=O)[O-])cc5F)c5ccc2[nH]5)C=C4)C=C3)cc1
REMARK SMILES IDX 5 1 4 2 3 3 1 4 2 5 31 7 32 8 96 9 33 10 95 11 34 12 35 13
REMARK SMILES IDX 36 14 89 15 37 16 94 17 88 18 90 19 38 20 93 21 87 22 86 23
REMARK SMILES IDX 39 25 73 26 52 27 72 28 53 29 56 30 71 31 91 32 54 33 55 34
REMARK SMILES IDX 70 36 92 37 57 38 40 39 41 40 50 41 42 42 43 43 49 44 51 45
REMARK SMILES IDX 44 46 45 47 46 48 47 49 48 50 74 51 75 52 84 53 76 54 77 55
REMARK SMILES IDX 83 56 85 57 78 58 79 59 80 60 81 61 82 62 58 63 59 64 68 65
REMARK SMILES IDX 60 66 61 67 67 68 69 69 62 70 63 71 64 72 65 73 66 74 6 75
REMARK SMILES IDX 7 76 8 77 9 79 10 80 11 81 30 82 12 83 26 84 16 85 13 86
REMARK SMILES IDX 14 87 15 88 27 89 28 90 29 91 17 92 18 94 19 95 20 96 21 97
REMARK SMILES IDX 25 98 22 99 24 100 23 101
REMARK H PARENT 3 6 90 24 56 35 7 78 17 93
REMARK Flexibility Score: inf
ROOT
ATOM      1  C   UNL A   1      35.194  29.405  27.219  1.00  0.00     0.042 C 
ENDROOT
BRANCH   1   2
ATOM      2  C   UNL A   1      35.542  30.721  27.895  1.00  0.00     0.118 C 
BRANCH   2   3
ATOM      3  N   UNL A   1      35.466  30.650  29.349  1.00  0.00    -0.352 N 
ATOM      4  O   UNL A   1      36.062  30.095  31.445  1.00  0.00    -0.269 OA
ATOM      5  C   UNL A   1      36.399  30.237  30.272  1.00  0.00     0.251 C 
ATOM      6  H   UNL A   1      34.609  30.946  29.732  1.00  0.00     0.163 HD
BRANCH   5   7
ATOM      7  C   UNL A   1      37.786  29.943  29.854  1.00  0.00     0.039 A 
ATOM      8  C   UNL A   1      38.181  30.114  28.529  1.00  0.00     0.014 A 
ATOM      9  C   UNL A   1      38.715  29.507  30.806  1.00  0.00     0.014 A 
ATOM     10  C   UNL A   1      39.431  29.675  28.118  1.00  0.00     0.010 A 
ATOM     11  C   UNL A   1      40.017  29.177  30.410  1.00  0.00     0.010 A 
ATOM     12  C   UNL A   1      40.375  29.223  29.055  1.00  0.00    -0.014 A 
BRANCH  12  13
ATOM     13  C   UNL A   1      41.741  28.879  28.580  1.00  0.00     0.031 A 
ATOM     14  C   UNL A   1      42.850  29.895  28.577  1.00  0.00     0.074 A 
ATOM     15  C   UNL A   1      41.984  27.607  28.206  1.00  0.00     0.049 A 
ATOM     16  N   UNL A   1      44.105  29.736  28.242  1.00  0.00    -0.248 NA
ATOM     17  C   UNL A   1      42.513  31.264  28.996  1.00  0.00     0.031 C 
ATOM     18  C   UNL A   1      40.977  26.540  28.148  1.00  0.00     0.029 A 
ATOM     19  N   UNL A   1      43.145  26.981  27.835  1.00  0.00    -0.354 N 
ATOM     20  C   UNL A   1      44.707  30.980  28.402  1.00  0.00     0.074 A 
ATOM     21  C   UNL A   1      43.670  31.893  28.830  1.00  0.00     0.031 C 
ATOM     22  C   UNL A   1      41.574  25.386  27.822  1.00  0.00     0.029 A 
ATOM     23  C   UNL A   1      42.988  25.639  27.579  1.00  0.00     0.049 A 
ATOM     24  H   UNL A   1      44.008  27.448  27.758  1.00  0.00     0.167 HD
ATOM     25  C   UNL A   1      46.006  31.321  28.220  1.00  0.00     0.037 A 
ATOM     26  C   UNL A   1      43.878  24.713  27.175  1.00  0.00     0.037 A 
ATOM     27  C   UNL A   1      47.033  30.402  27.797  1.00  0.00     0.049 A 
ATOM     28  C   UNL A   1      45.307  25.124  26.970  1.00  0.00     0.074 A 
ATOM     29  C   UNL A   1      48.378  30.650  27.582  1.00  0.00     0.029 A 
ATOM     30  N   UNL A   1      46.831  29.055  27.528  1.00  0.00    -0.354 N 
ATOM     31  N   UNL A   1      45.855  26.304  27.137  1.00  0.00    -0.248 NA
ATOM     32  C   UNL A   1      46.237  24.082  26.519  1.00  0.00     0.031 C 
ATOM     33  C   UNL A   1      48.981  29.463  27.152  1.00  0.00     0.029 A 
ATOM     34  C   UNL A   1      48.023  28.463  27.141  1.00  0.00     0.049 A 
ATOM     35  H   UNL A   1      45.967  28.588  27.602  1.00  0.00     0.167 HD
ATOM     36  C   UNL A   1      47.198  26.144  26.821  1.00  0.00     0.074 A 
ATOM     37  C   UNL A   1      47.383  24.747  26.481  1.00  0.00     0.031 C 
ATOM     38  C   UNL A   1      48.187  27.071  26.805  1.00  0.00     0.037 A 
BRANCH  25  39
ATOM     39  C   UNL A   1      46.398  32.751  28.477  1.00  0.00     0.058 A 
ATOM     40  C   UNL A   1      46.862  33.172  29.734  1.00  0.00     0.135 A 
ATOM     41  C   UNL A   1      46.362  33.703  27.443  1.00  0.00     0.135 A 
ATOM     42  F   UNL A   1      46.903  32.310  30.762  1.00  0.00    -0.206 F 
ATOM     43  C   UNL A   1      47.259  34.486  29.962  1.00  0.00     0.059 A 
ATOM     44  C   UNL A   1      46.777  35.018  27.643  1.00  0.00     0.059 A 
ATOM     45  F   UNL A   1      45.927  33.356  26.222  1.00  0.00    -0.206 F 
ATOM     46  C   UNL A   1      47.213  35.402  28.910  1.00  0.00     0.060 A 
BRANCH  46  47
ATOM     47  S   UNL A   1      47.743  37.100  29.222  1.00  0.00     0.124 S 
ATOM     48  O   UNL A   1      48.959  37.177  28.418  1.00  0.00    -0.237 OA
ATOM     49  O   UNL A   1      46.609  37.876  28.730  1.00  0.00    -0.237 OA
ATOM     50  O   UNL A   1      47.943  37.134  30.667  1.00  0.00    -0.744 OA
ENDBRANCH  46  47
ENDBRANCH  25  39
BRANCH  26  51
ATOM     51  C   UNL A   1      43.430  23.319  26.920  1.00  0.00     0.058 A 
ATOM     52  C   UNL A   1      43.292  22.826  25.615  1.00  0.00     0.135 A 
ATOM     53  C   UNL A   1      43.145  22.450  27.984  1.00  0.00     0.135 A 
ATOM     54  F   UNL A   1      43.553  23.619  24.565  1.00  0.00    -0.206 F 
ATOM     55  C   UNL A   1      42.862  21.524  25.374  1.00  0.00     0.059 A 
ATOM     56  C   UNL A   1      42.744  21.136  27.768  1.00  0.00     0.059 A 
ATOM     57  F   UNL A   1      43.284  22.868  29.252  1.00  0.00    -0.206 F 
ATOM     58  C   UNL A   1      42.590  20.688  26.457  1.00  0.00     0.060 A 
BRANCH  58  59
ATOM     59  S   UNL A   1      42.063  18.991  26.139  1.00  0.00     0.124 S 
ATOM     60  O   UNL A   1      42.963  18.605  25.057  1.00  0.00    -0.237 OA
ATOM     61  O   UNL A   1      42.298  18.347  27.428  1.00  0.00    -0.237 OA
ATOM     62  O   UNL A   1      40.659  19.141  25.770  1.00  0.00    -0.744 OA
ENDBRANCH  58  59
ENDBRANCH  26  51
BRANCH  38  63
ATOM     63  C   UNL A   1      49.560  26.591  26.428  1.00  0.00     0.058 A 
ATOM     64  C   UNL A   1      50.044  26.703  25.115  1.00  0.00     0.135 A 
ATOM     65  C   UNL A   1      50.407  26.026  27.396  1.00  0.00     0.135 A 
ATOM     66  F   UNL A   1      49.269  27.228  24.153  1.00  0.00    -0.206 F 
ATOM     67  C   UNL A   1      51.307  26.240  24.766  1.00  0.00     0.059 A 
ATOM     68  C   UNL A   1      51.684  25.580  27.074  1.00  0.00     0.059 A 
ATOM     69  F   UNL A   1      49.994  25.904  28.668  1.00  0.00    -0.206 F 
ATOM     70  C   UNL A   1      52.119  25.676  25.753  1.00  0.00     0.060 A 
BRANCH  70  71
ATOM     71  S   UNL A   1      53.762  25.089  25.290  1.00  0.00     0.124 S 
ATOM     72  O   UNL A   1      54.558  25.512  26.438  1.00  0.00    -0.237 OA
ATOM     73  O   UNL A   1      53.556  23.651  25.157  1.00  0.00    -0.237 OA
ATOM     74  O   UNL A   1      54.035  25.795  24.042  1.00  0.00    -0.744 OA
ENDBRANCH  70  71
ENDBRANCH  38  63
ENDBRANCH  12  13
ENDBRANCH   5   7
ENDBRANCH   2   3
ENDBRANCH   1   2
BRANCH   1  75
ATOM     75  C   UNL A   1      33.757  28.961  27.435  1.00  0.00     0.118 C 
BRANCH  75  76
ATOM     76  N   UNL A   1      32.829  29.556  26.478  1.00  0.00    -0.352 N 
ATOM     77  C   UNL A   1      32.169  29.022  25.402  1.00  0.00     0.251 C 
ATOM     78  H   UNL A   1      32.643  30.510  26.634  1.00  0.00     0.163 HD
ATOM     79  O   UNL A   1      31.556  29.747  24.627  1.00  0.00    -0.269 OA
BRANCH  77  80
ATOM     80  C   UNL A   1      32.202  27.568  25.145  1.00  0.00     0.053 A 
ATOM     81  C   UNL A   1      32.982  27.077  24.109  1.00  0.00     0.102 A 
ATOM     82  C   UNL A   1      31.412  26.687  25.871  1.00  0.00     0.102 A 
ATOM     83  C   UNL A   1      33.077  25.685  23.912  1.00  0.00     0.300 A 
ATOM     84  C   UNL A   1      31.585  25.296  25.725  1.00  0.00     0.300 A 
ATOM     85  C   UNL A   1      32.481  24.733  24.772  1.00  0.00     0.192 A 
BRANCH  83  86
ATOM     86  N   UNL A   1      33.747  25.296  22.686  1.00  0.00     0.065 N 
ATOM     87  O   UNL A   1      33.547  25.996  21.685  1.00  0.00    -0.258 OA
ATOM     88  O   UNL A   1      34.428  24.262  22.719  1.00  0.00    -0.258 OA
ENDBRANCH  83  86
BRANCH  84  89
ATOM     89  N   UNL A   1      30.784  24.455  26.640  1.00  0.00     0.065 N 
ATOM     90  O   UNL A   1      29.553  24.592  26.644  1.00  0.00    -0.258 OA
ATOM     91  O   UNL A   1      31.396  23.664  27.373  1.00  0.00    -0.258 OA
ENDBRANCH  84  89
BRANCH  85  92
ATOM     92  N   UNL A   1      32.777  23.383  24.818  1.00  0.00    -0.374 N 
ATOM     93  H   UNL A   1      33.577  23.164  25.349  1.00  0.00     0.161 HD
BRANCH  92  94
ATOM     94  C   UNL A   1      32.119  22.223  24.225  1.00  0.00     0.118 C 
BRANCH  94  95
ATOM     95  C   UNL A   1      32.183  20.992  25.148  1.00  0.00     0.052 C 
BRANCH  95  96
ATOM     96  C   UNL A   1      32.501  19.614  24.594  1.00  0.00    -0.072 C 
ATOM     97  C   UNL A   1      32.860  18.533  25.312  1.00  0.00    -0.028 C 
ATOM     98  C   UNL A   1      32.385  19.536  23.082  1.00  0.00     0.031 C 
ATOM     99  C   UNL A   1      33.282  17.223  24.705  1.00  0.00     0.027 C 
ATOM    100  C   UNL A   1      32.389  18.107  22.535  1.00  0.00     0.005 C 
ATOM    101  C   UNL A   1      33.488  17.286  23.192  1.00  0.00     0.004 C 
ENDBRANCH  95  96
ENDBRANCH  94  95
ENDBRANCH  92  94
ENDBRANCH  85  92
ENDBRANCH  77  80
ENDBRANCH  75  76
ENDBRANCH   1  75
TORSDOF 19
ENDMDL
MODEL 2
REMARK VINA RESULT:     -12.3      2.546      8.708
REMARK SMILES O=C(NCCCNC(=O)c1cc([N+](=O)[O-])c(NCCC2=CCCCC2)c([N+](=O)[O-])c1)c1ccc(-c2c3nc(c(-c4c(F)cc(S(=O)(=O)[O-])cc4F)c4ccc([nH]4)c(-c4c(F)cc(S(=O)(=O)[O-])cc4F)c4nc(c(-c5c(F)cc(S(=O)(=O)[O-])cc5F)c5ccc2[nH]5)C=C4)C=C3)cc1
REMARK SMILES IDX 5 1 4 2 3 3 1 4 2 5 31 7 32 8 96 9 33 10 95 11 34 12 35 13
REMARK SMILES IDX 36 14 89 15 37 16 94 17 88 18 90 19 38 20 93 21 87 22 86 23
REMARK SMILES IDX 39 25 73 26 52 27 72 28 53 29 56 30 71 31 91 32 54 33 55 34
REMARK SMILES IDX 70 36 92 37 57 38 40 39 41 40 50 41 42 42 43 43 49 44 51 45
REMARK SMILES IDX 44 46 45 47 46 48 47 49 48 50 74 51 75 52 84 53 76 54 77 55
REMARK SMILES IDX 83 56 85 57 78 58 79 59 80 60 81 61 82 62 58 63 59 64 68 65
REMARK SMILES IDX 60 66 61 67 67 68 69 69 62 70 63 71 64 72 65 73 66 74 6 75
REMARK SMILES IDX 7 76 8 77 9 79 10 80 11 81 30 82 12 83 26 84 16 85 13 86
REMARK SMILES IDX 14 87 15 88 27 89 28 90 29 91 17 92 18 94 19 95 20 96 21 97
REMARK SMILES IDX 25 98 22 99 24 100 23 101
REMARK H PARENT 3 6 90 24 56 35 7 78 17 93
REMARK Flexibility Score: inf
ROOT
ATOM      1  C   UNL A   1      33.045  27.570  25.986  1.00  0.00     0.042 C 
ENDROOT
BRANCH   1   2
ATOM      2  C   UNL A   1      34.138  28.143  26.872  1.00  0.00     0.118 C 
BRANCH   2   3
ATOM      3  N   UNL A   1      33.829  29.481  27.363  1.00  0.00    -0.352 N 
ATOM      4  O   UNL A   1      34.062  31.369  28.560  1.00  0.00    -0.269 OA
ATOM      5  C   UNL A   1      34.586  30.356  28.107  1.00  0.00     0.251 C 
ATOM      6  H   UNL A   1      32.934  29.811  27.122  1.00  0.00     0.163 HD
BRANCH   5   7
ATOM      7  C   UNL A   1      36.011  30.067  28.380  1.00  0.00     0.039 A 
ATOM      8  C   UNL A   1      36.980  30.281  27.401  1.00  0.00     0.014 A 
ATOM      9  C   UNL A   1      36.389  29.593  29.640  1.00  0.00     0.014 A 
ATOM     10  C   UNL A   1      38.281  29.848  27.611  1.00  0.00     0.010 A 
ATOM     11  C   UNL A   1      37.728  29.267  29.891  1.00  0.00     0.010 A 
ATOM     12  C   UNL A   1      38.679  29.358  28.865  1.00  0.00    -0.014 A 
BRANCH  12  13
ATOM     13  C   UNL A   1      40.112  29.022  29.075  1.00  0.00     0.031 A 
ATOM     14  C   UNL A   1      40.665  27.673  28.703  1.00  0.00     0.074 A 
ATOM     15  C   UNL A   1      40.929  29.982  29.554  1.00  0.00     0.049 A 
ATOM     16  N   UNL A   1      41.899  27.245  28.777  1.00  0.00    -0.248 NA
ATOM     17  C   UNL A   1      39.716  26.674  28.188  1.00  0.00     0.031 C 
ATOM     18  C   UNL A   1      40.498  31.322  29.970  1.00  0.00     0.029 A 
ATOM     19  N   UNL A   1      42.285  30.000  29.746  1.00  0.00    -0.354 N 
ATOM     20  C   UNL A   1      41.878  25.929  28.326  1.00  0.00     0.074 A 
ATOM     21  C   UNL A   1      40.500  25.617  28.014  1.00  0.00     0.031 C 
ATOM     22  C   UNL A   1      41.573  32.046  30.311  1.00  0.00     0.029 A 
ATOM     23  C   UNL A   1      42.758  31.206  30.206  1.00  0.00     0.049 A 
ATOM     24  H   UNL A   1      42.865  29.223  29.571  1.00  0.00     0.167 HD
ATOM     25  C   UNL A   1      42.915  25.070  28.176  1.00  0.00     0.037 A 
ATOM     26  C   UNL A   1      44.007  31.593  30.528  1.00  0.00     0.037 A 
ATOM     27  C   UNL A   1      44.285  25.393  28.486  1.00  0.00     0.049 A 
ATOM     28  C   UNL A   1      45.133  30.615  30.364  1.00  0.00     0.074 A 
ATOM     29  C   UNL A   1      45.408  24.590  28.370  1.00  0.00     0.029 A 
ATOM     30  N   UNL A   1      44.722  26.618  28.969  1.00  0.00    -0.354 N 
ATOM     31  N   UNL A   1      45.091  29.379  29.925  1.00  0.00    -0.248 NA
ATOM     32  C   UNL A   1      46.473  31.080  30.737  1.00  0.00     0.031 C 
ATOM     33  C   UNL A   1      46.517  25.319  28.815  1.00  0.00     0.029 A 
ATOM     34  C   UNL A   1      46.095  26.590  29.166  1.00  0.00     0.049 A 
ATOM     35  H   UNL A   1      44.143  27.394  29.147  1.00  0.00     0.167 HD
ATOM     36  C   UNL A   1      46.401  28.921  29.963  1.00  0.00     0.074 A 
ATOM     37  C   UNL A   1      47.215  30.022  30.438  1.00  0.00     0.031 C 
ATOM     38  C   UNL A   1      46.887  27.697  29.641  1.00  0.00     0.037 A 
BRANCH  25  39
ATOM     39  C   UNL A   1      42.613  23.691  27.652  1.00  0.00     0.058 A 
ATOM     40  C   UNL A   1      42.585  23.419  26.275  1.00  0.00     0.135 A 
ATOM     41  C   UNL A   1      42.402  22.618  28.534  1.00  0.00     0.135 A 
ATOM     42  F   UNL A   1      42.764  24.409  25.386  1.00  0.00    -0.206 F 
ATOM     43  C   UNL A   1      42.342  22.136  25.791  1.00  0.00     0.059 A 
ATOM     44  C   UNL A   1      42.181  21.323  28.072  1.00  0.00     0.059 A 
ATOM     45  F   UNL A   1      42.418  22.821  29.860  1.00  0.00    -0.206 F 
ATOM     46  C   UNL A   1      42.141  21.094  26.697  1.00  0.00     0.060 A 
BRANCH  46  47
ATOM     47  S   UNL A   1      41.838  19.436  26.051  1.00  0.00     0.124 S 
ATOM     48  O   UNL A   1      42.679  19.432  24.858  1.00  0.00    -0.237 OA
ATOM     49  O   UNL A   1      42.291  18.586  27.147  1.00  0.00    -0.237 OA
ATOM     50  O   UNL A   1      40.400  19.424  25.804  1.00  0.00    -0.744 OA
ENDBRANCH  46  47
ENDBRANCH  25  39
BRANCH  26  51
ATOM     51  C   UNL A   1      44.243  32.962  31.058  1.00  0.00     0.058 A 
ATOM     52  C   UNL A   1      44.541  34.033  30.204  1.00  0.00     0.135 A 
ATOM     53  C   UNL A   1      44.161  33.224  32.434  1.00  0.00     0.135 A 
ATOM     54  F   UNL A   1      44.630  33.833  28.880  1.00  0.00    -0.206 F 
ATOM     55  C   UNL A   1      44.773  35.313  30.699  1.00  0.00     0.059 A 
ATOM     56  C   UNL A   1      44.358  34.500  32.949  1.00  0.00     0.059 A 
ATOM     57  F   UNL A   1      43.857  32.236  33.291  1.00  0.00    -0.206 F 
ATOM     58  C   UNL A   1      44.680  35.535  32.073  1.00  0.00     0.060 A 
BRANCH  58  59
ATOM     59  S   UNL A   1      44.952  37.204  32.707  1.00  0.00     0.124 S 
ATOM     60  O   UNL A   1      44.001  37.974  31.913  1.00  0.00    -0.237 OA
ATOM     61  O   UNL A   1      44.628  37.053  34.123  1.00  0.00    -0.237 OA
ATOM     62  O   UNL A   1      46.361  37.446  32.417  1.00  0.00    -0.744 OA
ENDBRANCH  58  59
ENDBRANCH  26  51
BRANCH  38  63
ATOM     63  C   UNL A   1      48.370  27.499  29.773  1.00  0.00     0.058 A 
ATOM     64  C   UNL A   1      49.239  27.694  28.687  1.00  0.00     0.135 A 
ATOM     65  C   UNL A   1      48.931  27.123  31.004  1.00  0.00     0.135 A 
ATOM     66  F   UNL A   1      48.750  28.046  27.487  1.00  0.00    -0.206 F 
ATOM     67  C   UNL A   1      50.608  27.491  28.808  1.00  0.00     0.059 A 
ATOM     68  C   UNL A   1      50.301  26.940  31.155  1.00  0.00     0.059 A 
ATOM     69  F   UNL A   1      48.144  26.932  32.075  1.00  0.00    -0.206 F 
ATOM     70  C   UNL A   1      51.130  27.110  30.047  1.00  0.00     0.060 A 
BRANCH  70  71
ATOM     71  S   UNL A   1      52.911  26.860  30.195  1.00  0.00     0.124 S 
ATOM     72  O   UNL A   1      52.973  25.736  31.124  1.00  0.00    -0.237 OA
ATOM     73  O   UNL A   1      53.304  26.569  28.820  1.00  0.00    -0.237 OA
ATOM     74  O   UNL A   1      53.390  28.136  30.720  1.00  0.00    -0.744 OA
ENDBRANCH  70  71
ENDBRANCH  38  63
ENDBRANCH  12  13
ENDBRANCH   5   7
ENDBRANCH   2   3
ENDBRANCH   1   2
BRANCH   1  75
ATOM     75  C   UNL A   1      32.867  28.308  24.669  1.00  0.00     0.118 C 
BRANCH  75  76
ATOM     76  N   UNL A   1      31.508  28.214  24.145  1.00  0.00    -0.352 N 
ATOM     77  C   UNL A   1      30.772  27.139  23.720  1.00  0.00     0.251 C 
ATOM     78  H   UNL A   1      31.036  29.077  24.087  1.00  0.00     0.163 HD
ATOM     79  O   UNL A   1      29.695  27.307  23.158  1.00  0.00    -0.269 OA
BRANCH  77  80
ATOM     80  C   UNL A   1      31.271  25.763  23.911  1.00  0.00     0.053 A 
ATOM     81  C   UNL A   1      30.746  24.983  24.932  1.00  0.00     0.102 A 
ATOM     82  C   UNL A   1      32.305  25.254  23.138  1.00  0.00     0.102 A 
ATOM     83  C   UNL A   1      31.164  23.645  25.066  1.00  0.00     0.300 A 
ATOM     84  C   UNL A   1      32.647  23.890  23.221  1.00  0.00     0.300 A 
ATOM     85  C   UNL A   1      32.039  23.005  24.158  1.00  0.00     0.192 A 
BRANCH  83  86
ATOM     86  N   UNL A   1      30.711  22.993  26.280  1.00  0.00     0.065 N 
ATOM     87  O   UNL A   1      30.113  21.916  26.155  1.00  0.00    -0.258 OA
ATOM     88  O   UNL A   1      30.911  23.588  27.348  1.00  0.00    -0.258 OA
ENDBRANCH  83  86
BRANCH  84  89
ATOM     89  N   UNL A   1      33.673  23.430  22.261  1.00  0.00     0.065 N 
ATOM     90  O   UNL A   1      34.810  23.181  22.684  1.00  0.00    -0.258 OA
ATOM     91  O   UNL A   1      33.340  23.336  21.070  1.00  0.00    -0.258 OA
ENDBRANCH  84  89
BRANCH  85  92
ATOM     92  N   UNL A   1      32.248  21.642  24.053  1.00  0.00    -0.374 N 
ATOM     93  H   UNL A   1      31.685  21.200  23.377  1.00  0.00     0.161 HD
BRANCH  92  94
ATOM     94  C   UNL A   1      33.150  20.739  24.760  1.00  0.00     0.118 C 
BRANCH  94  95
ATOM     95  C   UNL A   1      33.932  21.463  25.871  1.00  0.00     0.052 C 
BRANCH  95  96
ATOM     96  C   UNL A   1      35.388  21.851  25.679  1.00  0.00    -0.072 C 
ATOM     97  C   UNL A   1      36.348  21.084  25.130  1.00  0.00    -0.028 C 
ATOM     98  C   UNL A   1      35.706  23.247  26.186  1.00  0.00     0.031 C 
ATOM     99  C   UNL A   1      37.801  21.469  25.072  1.00  0.00     0.027 C 
ATOM    100  C   UNL A   1      37.066  23.776  25.726  1.00  0.00     0.005 C 
ATOM    101  C   UNL A   1      38.139  22.712  25.896  1.00  0.00     0.004 C 
ENDBRANCH  95  96
ENDBRANCH  94  95
ENDBRANCH  92  94
ENDBRANCH  85  92
ENDBRANCH  77  80
ENDBRANCH  75  76
ENDBRANCH   1  75
TORSDOF 19
ENDMDL
MODEL 3
REMARK VINA RESULT:     -12.3      2.550      8.854
REMARK SMILES O=C(NCCCNC(=O)c1cc([N+](=O)[O-])c(NCCC2=CCCCC2)c([N+](=O)[O-])c1)c1ccc(-c2c3nc(c(-c4c(F)cc(S(=O)(=O)[O-])cc4F)c4ccc([nH]4)c(-c4c(F)cc(S(=O)(=O)[O-])cc4F)c4nc(c(-c5c(F)cc(S(=O)(=O)[O-])cc5F)c5ccc2[nH]5)C=C4)C=C3)cc1
REMARK SMILES IDX 5 1 4 2 3 3 1 4 2 5 31 7 32 8 96 9 33 10 95 11 34 12 35 13
REMARK SMILES IDX 36 14 89 15 37 16 94 17 88 18 90 19 38 20 93 21 87 22 86 23
REMARK SMILES IDX 39 25 73 26 52 27 72 28 53 29 56 30 71 31 91 32 54 33 55 34
REMARK SMILES IDX 70 36 92 37 57 38 40 39 41 40 50 41 42 42 43 43 49 44 51 45
REMARK SMILES IDX 44 46 45 47 46 48 47 49 48 50 74 51 75 52 84 53 76 54 77 55
REMARK SMILES IDX 83 56 85 57 78 58 79 59 80 60 81 61 82 62 58 63 59 64 68 65
REMARK SMILES IDX 60 66 61 67 67 68 69 69 62 70 63 71 64 72 65 73 66 74 6 75
REMARK SMILES IDX 7 76 8 77 9 79 10 80 11 81 30 82 12 83 26 84 16 85 13 86
REMARK SMILES IDX 14 87 15 88 27 89 28 90 29 91 17 92 18 94 19 95 20 96 21 97
REMARK SMILES IDX 25 98 22 99 24 100 23 101
REMARK H PARENT 3 6 90 24 56 35 7 78 17 93
REMARK Flexibility Score: inf
ROOT
ATOM      1  C   UNL A   1      38.392  19.657  25.096  1.00  0.00     0.042 C 
ENDROOT
BRANCH   1   2
ATOM      2  C   UNL A   1      39.573  20.183  25.895  1.00  0.00     0.118 C 
BRANCH   2   3
ATOM      3  N   UNL A   1      40.636  19.197  26.054  1.00  0.00    -0.352 N 
ATOM      4  O   UNL A   1      42.730  18.387  26.165  1.00  0.00    -0.269 OA
ATOM      5  C   UNL A   1      41.990  19.366  26.226  1.00  0.00     0.251 C 
ATOM      6  H   UNL A   1      40.335  18.260  26.035  1.00  0.00     0.163 HD
BRANCH   5   7
ATOM      7  C   UNL A   1      42.554  20.713  26.457  1.00  0.00     0.039 A 
ATOM      8  C   UNL A   1      42.652  21.231  27.747  1.00  0.00     0.014 A 
ATOM      9  C   UNL A   1      43.008  21.466  25.369  1.00  0.00     0.014 A 
ATOM     10  C   UNL A   1      43.021  22.555  27.935  1.00  0.00     0.010 A 
ATOM     11  C   UNL A   1      43.495  22.763  25.573  1.00  0.00     0.010 A 
ATOM     12  C   UNL A   1      43.471  23.332  26.855  1.00  0.00    -0.014 A 
BRANCH  12  13
ATOM     13  C   UNL A   1      43.970  24.706  27.126  1.00  0.00     0.031 A 
ATOM     14  C   UNL A   1      45.412  25.074  26.907  1.00  0.00     0.074 A 
ATOM     15  C   UNL A   1      43.082  25.642  27.517  1.00  0.00     0.049 A 
ATOM     16  N   UNL A   1      45.990  26.240  27.048  1.00  0.00    -0.248 NA
ATOM     17  C   UNL A   1      46.326  24.002  26.481  1.00  0.00     0.031 C 
ATOM     18  C   UNL A   1      41.660  25.392  27.782  1.00  0.00     0.029 A 
ATOM     19  N   UNL A   1      43.224  26.987  27.731  1.00  0.00    -0.354 N 
ATOM     20  C   UNL A   1      47.332  26.044  26.737  1.00  0.00     0.074 A 
ATOM     21  C   UNL A   1      47.490  24.639  26.433  1.00  0.00     0.031 C 
ATOM     22  C   UNL A   1      41.053  26.553  28.066  1.00  0.00     0.029 A 
ATOM     23  C   UNL A   1      42.049  27.616  28.072  1.00  0.00     0.049 A 
ATOM     24  H   UNL A   1      44.085  27.458  27.650  1.00  0.00     0.167 HD
ATOM     25  C   UNL A   1      48.333  26.957  26.697  1.00  0.00     0.037 A 
ATOM     26  C   UNL A   1      41.800  28.904  28.375  1.00  0.00     0.037 A 
ATOM     27  C   UNL A   1      48.164  28.357  26.997  1.00  0.00     0.049 A 
ATOM     28  C   UNL A   1      42.931  29.889  28.335  1.00  0.00     0.074 A 
ATOM     29  C   UNL A   1      49.116  29.363  26.987  1.00  0.00     0.029 A 
ATOM     30  N   UNL A   1      46.963  28.952  27.358  1.00  0.00    -0.354 N 
ATOM     31  N   UNL A   1      44.190  29.683  28.027  1.00  0.00    -0.248 NA
ATOM     32  C   UNL A   1      42.612  31.278  28.683  1.00  0.00     0.031 C 
ATOM     33  C   UNL A   1      48.498  30.557  27.373  1.00  0.00     0.029 A 
ATOM     34  C   UNL A   1      47.152  30.308  27.582  1.00  0.00     0.049 A 
ATOM     35  H   UNL A   1      46.103  28.482  27.442  1.00  0.00     0.167 HD
ATOM     36  C   UNL A   1      44.812  30.920  28.137  1.00  0.00     0.074 A 
ATOM     37  C   UNL A   1      43.784  31.873  28.509  1.00  0.00     0.031 C 
ATOM     38  C   UNL A   1      46.116  31.239  27.953  1.00  0.00     0.037 A 
BRANCH  25  39
ATOM     39  C   UNL A   1      49.706  26.475  26.314  1.00  0.00     0.058 A 
ATOM     40  C   UNL A   1      50.173  26.561  24.992  1.00  0.00     0.135 A 
ATOM     41  C   UNL A   1      50.588  25.974  27.287  1.00  0.00     0.135 A 
ATOM     42  F   UNL A   1      49.368  27.017  24.020  1.00  0.00    -0.206 F 
ATOM     43  C   UNL A   1      51.457  26.149  24.645  1.00  0.00     0.059 A 
ATOM     44  C   UNL A   1      51.885  25.578  26.965  1.00  0.00     0.059 A 
ATOM     45  F   UNL A   1      50.195  25.870  28.565  1.00  0.00    -0.206 F 
ATOM     46  C   UNL A   1      52.306  25.659  25.639  1.00  0.00     0.060 A 
BRANCH  46  47
ATOM     47  S   UNL A   1      53.971  25.141  25.170  1.00  0.00     0.124 S 
ATOM     48  O   UNL A   1      54.743  25.561  26.335  1.00  0.00    -0.237 OA
ATOM     49  O   UNL A   1      53.813  23.700  25.002  1.00  0.00    -0.237 OA
ATOM     50  O   UNL A   1      54.228  25.889  23.944  1.00  0.00    -0.744 OA
ENDBRANCH  46  47
ENDBRANCH  25  39
BRANCH  26  51
ATOM     51  C   UNL A   1      40.427  29.319  28.763  1.00  0.00     0.058 A 
ATOM     52  C   UNL A   1      39.424  29.509  27.803  1.00  0.00     0.135 A 
ATOM     53  C   UNL A   1      40.091  29.520  30.111  1.00  0.00     0.135 A 
ATOM     54  F   UNL A   1      39.696  29.328  26.502  1.00  0.00    -0.206 F 
ATOM     55  C   UNL A   1      38.140  29.908  28.163  1.00  0.00     0.059 A 
ATOM     56  C   UNL A   1      38.808  29.889  30.498  1.00  0.00     0.059 A 
ATOM     57  F   UNL A   1      41.010  29.329  31.070  1.00  0.00    -0.206 F 
ATOM     58  C   UNL A   1      37.843  30.097  29.514  1.00  0.00     0.060 A 
BRANCH  58  59
ATOM     59  S   UNL A   1      36.168  30.584  29.979  1.00  0.00     0.124 S 
ATOM     60  O   UNL A   1      35.422  30.250  28.770  1.00  0.00    -0.237 OA
ATOM     61  O   UNL A   1      35.912  29.740  31.142  1.00  0.00    -0.237 OA
ATOM     62  O   UNL A   1      36.302  32.009  30.265  1.00  0.00    -0.744 OA
ENDBRANCH  58  59
ENDBRANCH  26  51
BRANCH  38  63
ATOM     63  C   UNL A   1      46.494  32.682  28.133  1.00  0.00     0.058 A 
ATOM     64  C   UNL A   1      46.343  33.617  27.097  1.00  0.00     0.135 A 
ATOM     65  C   UNL A   1      47.001  33.136  29.361  1.00  0.00     0.135 A 
ATOM     66  F   UNL A   1      45.871  33.230  25.902  1.00  0.00    -0.206 F 
ATOM     67  C   UNL A   1      46.712  34.947  27.261  1.00  0.00     0.059 A 
ATOM     68  C   UNL A   1      47.353  34.468  29.556  1.00  0.00     0.059 A 
ATOM     69  F   UNL A   1      47.158  32.283  30.386  1.00  0.00    -0.206 F 
ATOM     70  C   UNL A   1      47.220  35.363  28.495  1.00  0.00     0.060 A 
BRANCH  70  71
ATOM     71  S   UNL A   1      47.686  37.094  28.700  1.00  0.00     0.124 S 
ATOM     72  O   UNL A   1      47.554  37.264  30.143  1.00  0.00    -0.237 OA
ATOM     73  O   UNL A   1      49.050  37.117  28.181  1.00  0.00    -0.237 OA
ATOM     74  O   UNL A   1      46.703  37.807  27.890  1.00  0.00    -0.744 OA
ENDBRANCH  70  71
ENDBRANCH  38  63
ENDBRANCH  12  13
ENDBRANCH   5   7
ENDBRANCH   2   3
ENDBRANCH   1   2
BRANCH   1  75
ATOM     75  C   UNL A   1      37.228  20.630  25.001  1.00  0.00     0.118 C 
BRANCH  75  76
ATOM     76  N   UNL A   1      37.546  21.949  25.538  1.00  0.00    -0.352 N 
ATOM     77  C   UNL A   1      36.791  23.087  25.655  1.00  0.00     0.251 C 
ATOM     78  H   UNL A   1      38.466  22.038  25.878  1.00  0.00     0.163 HD
ATOM     79  O   UNL A   1      37.310  24.146  25.991  1.00  0.00    -0.269 OA
BRANCH  77  80
ATOM     80  C   UNL A   1      35.345  23.064  25.358  1.00  0.00     0.053 A 
ATOM     81  C   UNL A   1      34.434  23.253  26.387  1.00  0.00     0.102 A 
ATOM     82  C   UNL A   1      34.872  22.786  24.083  1.00  0.00     0.102 A 
ATOM     83  C   UNL A   1      33.058  23.311  26.093  1.00  0.00     0.300 A 
ATOM     84  C   UNL A   1      33.503  22.937  23.786  1.00  0.00     0.300 A 
ATOM     85  C   UNL A   1      32.538  23.271  24.779  1.00  0.00     0.192 A 
BRANCH  83  86
ATOM     86  N   UNL A   1      32.194  23.304  27.258  1.00  0.00     0.065 N 
ATOM     87  O   UNL A   1      31.228  24.079  27.251  1.00  0.00    -0.258 OA
ATOM     88  O   UNL A   1      32.516  22.561  28.196  1.00  0.00    -0.258 OA
ENDBRANCH  83  86
BRANCH  84  89
ATOM     89  N   UNL A   1      33.133  22.740  22.368  1.00  0.00     0.065 N 
ATOM     90  O   UNL A   1      32.352  21.822  22.083  1.00  0.00    -0.258 OA
ATOM     91  O   UNL A   1      33.645  23.501  21.533  1.00  0.00    -0.258 OA
ENDBRANCH  84  89
BRANCH  85  92
ATOM     92  N   UNL A   1      31.255  23.621  24.401  1.00  0.00    -0.374 N 
ATOM     93  H   UNL A   1      30.612  22.876  24.421  1.00  0.00     0.161 HD
BRANCH  92  94
ATOM     94  C   UNL A   1      30.680  24.894  23.978  1.00  0.00     0.118 C 
BRANCH  94  95
ATOM     95  C   UNL A   1      31.766  25.918  23.601  1.00  0.00     0.052 C 
BRANCH  95  96
ATOM     96  C   UNL A   1      32.158  27.031  24.557  1.00  0.00    -0.072 C 
ATOM     97  C   UNL A   1      31.384  28.067  24.930  1.00  0.00    -0.028 C 
ATOM     98  C   UNL A   1      33.573  26.888  25.092  1.00  0.00     0.031 C 
ATOM     99  C   UNL A   1      31.862  29.208  25.786  1.00  0.00     0.027 C 
ATOM    100  C   UNL A   1      33.880  27.801  26.280  1.00  0.00     0.005 C 
ATOM    101  C   UNL A   1      33.374  29.211  26.015  1.00  0.00     0.004 C 
ENDBRANCH  95  96
ENDBRANCH  94  95
ENDBRANCH  92  94
ENDBRANCH  85  92
ENDBRANCH  77  80
ENDBRANCH  75  76
ENDBRANCH   1  75
TORSDOF 19
ENDMDL
