MODEL 1
REMARK VINA RESULT:     -12.2      0.000      0.000
REMARK SMILES Cc1cc(C(=O)Nc2ccn(C)n2)sc1/C=C/C(=O)NCCCNC(=O)c1ccc(-c2c3nc(c(-c4c(F)cc(S(=O)(=O)[O-])cc4F)c4ccc([nH]4)c(-c4c(F)cc(S(=O)(=O)[O-])cc4F)c4nc(c(-c5c(F)cc(S(=O)(=O)[O-])cc5F)c5ccc2[nH]5)C=C4)C=C3)cc1
REMARK SMILES IDX 22 1 21 2 20 3 18 4 19 5 17 7 16 8 15 9 1 10 2 11 3 12 4 13
REMARK SMILES IDX 14 14 5 15 6 16 7 17 8 19 9 20 13 21 10 22 11 23 12 24 23 25
REMARK SMILES IDX 24 26 25 27 26 29 27 30 28 31 92 32 29 33 91 34 30 35 31 36
REMARK SMILES IDX 32 37 85 38 33 39 90 40 84 41 86 42 34 43 89 44 83 45 82 46
REMARK SMILES IDX 35 48 69 49 48 50 68 51 49 52 52 53 67 54 87 55 50 56 51 57
REMARK SMILES IDX 66 59 88 60 53 61 36 62 37 63 46 64 38 65 39 66 45 67 47 68
REMARK SMILES IDX 40 69 41 70 42 71 43 72 44 73 70 74 71 75 80 76 72 77 73 78
REMARK SMILES IDX 79 79 81 80 74 81 75 82 76 83 77 84 78 85 54 86 55 87 64 88
REMARK SMILES IDX 56 89 57 90 63 91 65 92 58 93 59 94 60 95 61 96 62 97
REMARK H PARENT 20 6 7 18 24 28 86 47 52 58
REMARK Flexibility Score: inf
ROOT
ATOM      1  C   UNL A   1      34.223  30.285  26.893  1.00  0.00     0.042 C 
ENDROOT
BRANCH   1   2
ATOM      2  C   UNL A   1      33.384  29.261  26.134  1.00  0.00     0.118 C 
BRANCH   2   3
ATOM      3  N   UNL A   1      33.787  29.178  24.740  1.00  0.00    -0.352 N 
ATOM      4  C   UNL A   1      33.867  28.102  23.914  1.00  0.00     0.244 C 
ATOM      5  O   UNL A   1      34.120  28.262  22.722  1.00  0.00    -0.270 OA
ATOM      6  H   UNL A   1      34.040  30.037  24.330  1.00  0.00     0.163 HD
BRANCH   4   7
ATOM      7  C   UNL A   1      33.560  26.746  24.413  1.00  0.00     0.072 C 
ATOM      8  C   UNL A   1      33.487  25.663  23.625  1.00  0.00     0.025 C 
BRANCH   8   9
ATOM      9  C   UNL A   1      33.124  24.360  24.080  1.00  0.00     0.031 A 
ATOM     10  C   UNL A   1      30.635  24.246  23.421  1.00  0.00     0.046 C 
ATOM     11  C   UNL A   1      31.864  23.766  24.123  1.00  0.00    -0.032 A 
ATOM     12  C   UNL A   1      31.870  22.629  25.008  1.00  0.00     0.029 A 
ATOM     13  C   UNL A   1      33.123  22.345  25.524  1.00  0.00     0.093 A 
ATOM     14  S   UNL A   1      34.284  23.217  24.624  1.00  0.00    -0.130 S 
BRANCH  13  15
ATOM     15  C   UNL A   1      33.470  21.306  26.491  1.00  0.00     0.266 C 
ATOM     16  O   UNL A   1      33.854  21.596  27.628  1.00  0.00    -0.268 OA
ATOM     17  N   UNL A   1      33.297  19.967  26.214  1.00  0.00    -0.304 N 
ATOM     18  H   UNL A   1      33.234  19.385  27.006  1.00  0.00     0.171 HD
BRANCH  17  19
ATOM     19  C   UNL A   1      33.197  19.317  25.011  1.00  0.00     0.154 A 
ATOM     20  C   UNL A   1      32.193  19.402  24.017  1.00  0.00     0.068 A 
ATOM     21  N   UNL A   1      34.157  18.460  24.653  1.00  0.00    -0.155 NA
ATOM     22  C   UNL A   1      32.498  18.407  23.116  1.00  0.00     0.110 A 
ATOM     23  N   UNL A   1      33.633  17.822  23.591  1.00  0.00    -0.274 N 
ATOM     24  C   UNL A   1      34.221  16.582  23.148  1.00  0.00     0.173 C 
ENDBRANCH  17  19
ENDBRANCH  13  15
ENDBRANCH   8   9
ENDBRANCH   4   7
ENDBRANCH   2   3
ENDBRANCH   1   2
BRANCH   1  25
ATOM     25  C   UNL A   1      35.214  29.642  27.860  1.00  0.00     0.118 C 
BRANCH  25  26
ATOM     26  N   UNL A   1      35.263  30.355  29.128  1.00  0.00    -0.352 N 
ATOM     27  C   UNL A   1      36.287  30.479  30.033  1.00  0.00     0.251 C 
ATOM     28  H   UNL A   1      34.432  30.820  29.377  1.00  0.00     0.163 HD
ATOM     29  O   UNL A   1      36.044  30.909  31.156  1.00  0.00    -0.269 OA
BRANCH  27  30
ATOM     30  C   UNL A   1      37.668  30.097  29.666  1.00  0.00     0.039 A 
ATOM     31  C   UNL A   1      38.564  29.759  30.684  1.00  0.00     0.014 A 
ATOM     32  C   UNL A   1      38.099  30.125  28.336  1.00  0.00     0.014 A 
ATOM     33  C   UNL A   1      39.877  29.405  30.364  1.00  0.00     0.010 A 
ATOM     34  C   UNL A   1      39.387  29.705  28.013  1.00  0.00     0.010 A 
ATOM     35  C   UNL A   1      40.292  29.351  29.024  1.00  0.00    -0.014 A 
BRANCH  35  36
ATOM     36  C   UNL A   1      41.670  28.934  28.663  1.00  0.00     0.031 A 
ATOM     37  C   UNL A   1      42.780  29.950  28.616  1.00  0.00     0.074 A 
ATOM     38  C   UNL A   1      41.907  27.653  28.322  1.00  0.00     0.049 A 
ATOM     39  N   UNL A   1      44.027  29.792  28.254  1.00  0.00    -0.248 NA
ATOM     40  C   UNL A   1      42.436  31.328  28.997  1.00  0.00     0.031 C 
ATOM     41  C   UNL A   1      40.901  26.589  28.284  1.00  0.00     0.029 A 
ATOM     42  N   UNL A   1      43.063  27.029  27.929  1.00  0.00    -0.354 N 
ATOM     43  C   UNL A   1      44.612  31.049  28.351  1.00  0.00     0.074 A 
ATOM     44  C   UNL A   1      43.571  31.968  28.757  1.00  0.00     0.031 C 
ATOM     45  C   UNL A   1      41.488  25.441  27.908  1.00  0.00     0.029 A 
ATOM     46  C   UNL A   1      42.901  25.694  27.643  1.00  0.00     0.049 A 
ATOM     47  H   UNL A   1      43.929  27.493  27.858  1.00  0.00     0.167 HD
ATOM     48  C   UNL A   1      45.903  31.401  28.143  1.00  0.00     0.037 A 
ATOM     49  C   UNL A   1      43.789  24.779  27.209  1.00  0.00     0.037 A 
ATOM     50  C   UNL A   1      46.940  30.475  27.764  1.00  0.00     0.049 A 
ATOM     51  C   UNL A   1      45.219  25.190  26.997  1.00  0.00     0.074 A 
ATOM     52  C   UNL A   1      48.289  30.720  27.580  1.00  0.00     0.029 A 
ATOM     53  N   UNL A   1      46.741  29.124  27.514  1.00  0.00    -0.354 N 
ATOM     54  N   UNL A   1      45.766  26.372  27.146  1.00  0.00    -0.248 NA
ATOM     55  C   UNL A   1      46.155  24.142  26.566  1.00  0.00     0.031 C 
ATOM     56  C   UNL A   1      48.901  29.525  27.182  1.00  0.00     0.029 A 
ATOM     57  C   UNL A   1      47.941  28.526  27.162  1.00  0.00     0.049 A 
ATOM     58  H   UNL A   1      45.877  28.660  27.577  1.00  0.00     0.167 HD
ATOM     59  C   UNL A   1      47.115  26.207  26.849  1.00  0.00     0.074 A 
ATOM     60  C   UNL A   1      47.301  24.807  26.526  1.00  0.00     0.031 C 
ATOM     61  C   UNL A   1      48.109  27.130  26.847  1.00  0.00     0.037 A 
BRANCH  48  62
ATOM     62  C   UNL A   1      46.270  32.849  28.327  1.00  0.00     0.058 A 
ATOM     63  C   UNL A   1      46.225  33.761  27.259  1.00  0.00     0.135 A 
ATOM     64  C   UNL A   1      46.644  33.340  29.588  1.00  0.00     0.135 A 
ATOM     65  F   UNL A   1      45.888  33.345  26.027  1.00  0.00    -0.206 F 
ATOM     66  C   UNL A   1      46.568  35.098  27.428  1.00  0.00     0.059 A 
ATOM     67  C   UNL A   1      46.964  34.680  29.787  1.00  0.00     0.059 A 
ATOM     68  F   UNL A   1      46.703  32.513  30.645  1.00  0.00    -0.206 F 
ATOM     69  C   UNL A   1      46.938  35.548  28.697  1.00  0.00     0.060 A 
BRANCH  69  70
ATOM     70  S   UNL A   1      47.382  37.287  28.900  1.00  0.00     0.124 S 
ATOM     71  O   UNL A   1      46.094  37.874  29.254  1.00  0.00    -0.237 OA
ATOM     72  O   UNL A   1      48.370  37.235  29.972  1.00  0.00    -0.237 OA
ATOM     73  O   UNL A   1      47.902  37.660  27.589  1.00  0.00    -0.744 OA
ENDBRANCH  69  70
ENDBRANCH  48  62
BRANCH  49  74
ATOM     74  C   UNL A   1      43.349  23.378  26.973  1.00  0.00     0.058 A 
ATOM     75  C   UNL A   1      43.176  22.887  25.671  1.00  0.00     0.135 A 
ATOM     76  C   UNL A   1      43.122  22.496  28.041  1.00  0.00     0.135 A 
ATOM     77  F   UNL A   1      43.377  23.694  24.618  1.00  0.00    -0.206 F 
ATOM     78  C   UNL A   1      42.781  21.575  25.433  1.00  0.00     0.059 A 
ATOM     79  C   UNL A   1      42.749  21.173  27.829  1.00  0.00     0.059 A 
ATOM     80  F   UNL A   1      43.293  22.912  29.305  1.00  0.00    -0.206 F 
ATOM     81  C   UNL A   1      42.573  20.724  26.520  1.00  0.00     0.060 A 
BRANCH  81  82
ATOM     82  S   UNL A   1      42.118  19.005  26.200  1.00  0.00     0.124 S 
ATOM     83  O   UNL A   1      42.395  18.384  27.490  1.00  0.00    -0.237 OA
ATOM     84  O   UNL A   1      40.711  19.123  25.835  1.00  0.00    -0.237 OA
ATOM     85  O   UNL A   1      43.011  18.622  25.110  1.00  0.00    -0.744 OA
ENDBRANCH  81  82
ENDBRANCH  49  74
BRANCH  61  86
ATOM     86  C   UNL A   1      49.493  26.651  26.513  1.00  0.00     0.058 A 
ATOM     87  C   UNL A   1      50.342  26.109  27.492  1.00  0.00     0.135 A 
ATOM     88  C   UNL A   1      49.958  26.690  25.189  1.00  0.00     0.135 A 
ATOM     89  F   UNL A   1      49.948  26.055  28.774  1.00  0.00    -0.206 F 
ATOM     90  C   UNL A   1      51.614  25.646  27.172  1.00  0.00     0.059 A 
ATOM     91  C   UNL A   1      51.217  26.208  24.843  1.00  0.00     0.059 A 
ATOM     92  F   UNL A   1      49.181  27.189  24.215  1.00  0.00    -0.206 F 
ATOM     93  C   UNL A   1      52.042  25.699  25.844  1.00  0.00     0.060 A 
BRANCH  93  94
ATOM     94  S   UNL A   1      53.682  25.065  25.437  1.00  0.00     0.124 S 
ATOM     95  O   UNL A   1      53.414  23.640  25.271  1.00  0.00    -0.237 OA
ATOM     96  O   UNL A   1      54.006  25.795  24.215  1.00  0.00    -0.237 OA
ATOM     97  O   UNL A   1      54.483  25.422  26.604  1.00  0.00    -0.744 OA
ENDBRANCH  93  94
ENDBRANCH  61  86
ENDBRANCH  35  36
ENDBRANCH  27  30
ENDBRANCH  25  26
ENDBRANCH   1  25
TORSDOF 16
ENDMDL
MODEL 2
REMARK VINA RESULT:     -12.2      6.527     12.012
REMARK SMILES Cc1cc(C(=O)Nc2ccn(C)n2)sc1/C=C/C(=O)NCCCNC(=O)c1ccc(-c2c3nc(c(-c4c(F)cc(S(=O)(=O)[O-])cc4F)c4ccc([nH]4)c(-c4c(F)cc(S(=O)(=O)[O-])cc4F)c4nc(c(-c5c(F)cc(S(=O)(=O)[O-])cc5F)c5ccc2[nH]5)C=C4)C=C3)cc1
REMARK SMILES IDX 22 1 21 2 20 3 18 4 19 5 17 7 16 8 15 9 1 10 2 11 3 12 4 13
REMARK SMILES IDX 14 14 5 15 6 16 7 17 8 19 9 20 13 21 10 22 11 23 12 24 23 25
REMARK SMILES IDX 24 26 25 27 26 29 27 30 28 31 92 32 29 33 91 34 30 35 31 36
REMARK SMILES IDX 32 37 85 38 33 39 90 40 84 41 86 42 34 43 89 44 83 45 82 46
REMARK SMILES IDX 35 48 69 49 48 50 68 51 49 52 52 53 67 54 87 55 50 56 51 57
REMARK SMILES IDX 66 59 88 60 53 61 36 62 37 63 46 64 38 65 39 66 45 67 47 68
REMARK SMILES IDX 40 69 41 70 42 71 43 72 44 73 70 74 71 75 80 76 72 77 73 78
REMARK SMILES IDX 79 79 81 80 74 81 75 82 76 83 77 84 78 85 54 86 55 87 64 88
REMARK SMILES IDX 56 89 57 90 63 91 65 92 58 93 59 94 60 95 61 96 62 97
REMARK H PARENT 20 6 7 18 24 28 86 47 52 58
REMARK Flexibility Score: inf
ROOT
ATOM      1  C   UNL A   1      39.932  21.875  26.361  1.00  0.00     0.042 C 
ENDROOT
BRANCH   1   2
ATOM      2  C   UNL A   1      38.432  22.032  26.126  1.00  0.00     0.118 C 
BRANCH   2   3
ATOM      3  N   UNL A   1      38.151  22.439  24.760  1.00  0.00    -0.352 N 
ATOM      4  C   UNL A   1      36.962  22.624  24.128  1.00  0.00     0.244 C 
ATOM      5  O   UNL A   1      36.938  23.088  22.990  1.00  0.00    -0.270 OA
ATOM      6  H   UNL A   1      38.947  22.607  24.206  1.00  0.00     0.163 HD
BRANCH   4   7
ATOM      7  C   UNL A   1      35.689  22.360  24.829  1.00  0.00     0.072 C 
ATOM      8  C   UNL A   1      34.482  22.598  24.293  1.00  0.00     0.025 C 
BRANCH   8   9
ATOM      9  C   UNL A   1      33.245  22.415  24.981  1.00  0.00     0.031 A 
ATOM     10  C   UNL A   1      32.431  20.168  24.015  1.00  0.00     0.046 C 
ATOM     11  C   UNL A   1      32.271  21.437  24.789  1.00  0.00    -0.032 A 
ATOM     12  C   UNL A   1      31.026  21.838  25.390  1.00  0.00     0.029 A 
ATOM     13  C   UNL A   1      31.114  23.034  26.083  1.00  0.00     0.093 A 
ATOM     14  S   UNL A   1      32.766  23.410  26.296  1.00  0.00    -0.130 S 
BRANCH  13  15
ATOM     15  C   UNL A   1      30.034  23.752  26.756  1.00  0.00     0.266 C 
ATOM     16  O   UNL A   1      29.354  23.208  27.630  1.00  0.00    -0.268 OA
ATOM     17  N   UNL A   1      29.787  25.088  26.516  1.00  0.00    -0.304 N 
ATOM     18  H   UNL A   1      29.292  25.551  27.230  1.00  0.00     0.171 HD
BRANCH  17  19
ATOM     19  C   UNL A   1      30.124  25.871  25.443  1.00  0.00     0.154 A 
ATOM     20  C   UNL A   1      29.547  25.936  24.153  1.00  0.00     0.068 A 
ATOM     21  N   UNL A   1      31.139  26.732  25.560  1.00  0.00    -0.155 NA
ATOM     22  C   UNL A   1      30.387  26.749  23.427  1.00  0.00     0.110 A 
ATOM     23  N   UNL A   1      31.366  27.127  24.294  1.00  0.00    -0.274 N 
ATOM     24  C   UNL A   1      32.611  27.779  23.968  1.00  0.00     0.173 C 
ENDBRANCH  17  19
ENDBRANCH  13  15
ENDBRANCH   8   9
ENDBRANCH   4   7
ENDBRANCH   2   3
ENDBRANCH   1   2
BRANCH   1  25
ATOM     25  C   UNL A   1      40.575  23.122  26.959  1.00  0.00     0.118 C 
BRANCH  25  26
ATOM     26  N   UNL A   1      41.386  23.829  25.978  1.00  0.00    -0.352 N 
ATOM     27  C   UNL A   1      41.740  25.153  25.914  1.00  0.00     0.251 C 
ATOM     28  H   UNL A   1      41.734  23.271  25.246  1.00  0.00     0.163 HD
ATOM     29  O   UNL A   1      42.216  25.595  24.872  1.00  0.00    -0.269 OA
BRANCH  27  30
ATOM     30  C   UNL A   1      41.550  26.042  27.081  1.00  0.00     0.039 A 
ATOM     31  C   UNL A   1      42.427  27.117  27.255  1.00  0.00     0.014 A 
ATOM     32  C   UNL A   1      40.554  25.792  28.029  1.00  0.00     0.014 A 
ATOM     33  C   UNL A   1      42.275  27.965  28.355  1.00  0.00     0.010 A 
ATOM     34  C   UNL A   1      40.360  26.677  29.086  1.00  0.00     0.010 A 
ATOM     35  C   UNL A   1      41.225  27.767  29.266  1.00  0.00    -0.014 A 
BRANCH  35  36
ATOM     36  C   UNL A   1      41.022  28.684  30.415  1.00  0.00     0.031 A 
ATOM     37  C   UNL A   1      41.859  28.538  31.657  1.00  0.00     0.074 A 
ATOM     38  C   UNL A   1      40.044  29.609  30.359  1.00  0.00     0.049 A 
ATOM     39  N   UNL A   1      41.781  29.194  32.786  1.00  0.00    -0.248 NA
ATOM     40  C   UNL A   1      42.901  27.499  31.638  1.00  0.00     0.031 C 
ATOM     41  C   UNL A   1      39.138  29.813  29.227  1.00  0.00     0.029 A 
ATOM     42  N   UNL A   1      39.640  30.541  31.280  1.00  0.00    -0.354 N 
ATOM     43  C   UNL A   1      42.751  28.640  33.614  1.00  0.00     0.074 A 
ATOM     44  C   UNL A   1      43.370  27.562  32.876  1.00  0.00     0.031 C 
ATOM     45  C   UNL A   1      38.296  30.819  29.514  1.00  0.00     0.029 A 
ATOM     46  C   UNL A   1      38.578  31.307  30.860  1.00  0.00     0.049 A 
ATOM     47  H   UNL A   1      40.069  30.652  32.160  1.00  0.00     0.167 HD
ATOM     48  C   UNL A   1      43.107  29.012  34.867  1.00  0.00     0.037 A 
ATOM     49  C   UNL A   1      37.904  32.287  31.492  1.00  0.00     0.037 A 
ATOM     50  C   UNL A   1      42.503  30.104  35.586  1.00  0.00     0.049 A 
ATOM     51  C   UNL A   1      38.325  32.691  32.877  1.00  0.00     0.074 A 
ATOM     52  C   UNL A   1      42.827  30.595  36.838  1.00  0.00     0.029 A 
ATOM     53  N   UNL A   1      41.451  30.876  35.114  1.00  0.00    -0.354 N 
ATOM     54  N   UNL A   1      39.281  32.193  33.624  1.00  0.00    -0.248 NA
ATOM     55  C   UNL A   1      37.584  33.795  33.502  1.00  0.00     0.031 C 
ATOM     56  C   UNL A   1      41.946  31.641  37.140  1.00  0.00     0.029 A 
ATOM     57  C   UNL A   1      41.103  31.831  36.057  1.00  0.00     0.049 A 
ATOM     58  H   UNL A   1      41.015  30.763  34.239  1.00  0.00     0.167 HD
ATOM     59  C   UNL A   1      39.271  32.937  34.799  1.00  0.00     0.074 A 
ATOM     60  C   UNL A   1      38.224  33.927  34.656  1.00  0.00     0.031 C 
ATOM     61  C   UNL A   1      40.060  32.812  35.896  1.00  0.00     0.037 A 
BRANCH  48  62
ATOM     62  C   UNL A   1      44.207  28.235  35.539  1.00  0.00     0.058 A 
ATOM     63  C   UNL A   1      43.932  27.118  36.346  1.00  0.00     0.135 A 
ATOM     64  C   UNL A   1      45.553  28.590  35.352  1.00  0.00     0.135 A 
ATOM     65  F   UNL A   1      42.663  26.742  36.570  1.00  0.00    -0.206 F 
ATOM     66  C   UNL A   1      44.949  26.403  36.970  1.00  0.00     0.059 A 
ATOM     67  C   UNL A   1      46.588  27.871  35.945  1.00  0.00     0.059 A 
ATOM     68  F   UNL A   1      45.873  29.648  34.591  1.00  0.00    -0.206 F 
ATOM     69  C   UNL A   1      46.274  26.789  36.764  1.00  0.00     0.060 A 
BRANCH  69  70
ATOM     70  S   UNL A   1      47.582  25.850  37.582  1.00  0.00     0.124 S 
ATOM     71  O   UNL A   1      48.771  26.588  37.169  1.00  0.00    -0.237 OA
ATOM     72  O   UNL A   1      47.220  25.970  38.991  1.00  0.00    -0.237 OA
ATOM     73  O   UNL A   1      47.445  24.512  37.016  1.00  0.00    -0.744 OA
ENDBRANCH  69  70
ENDBRANCH  48  62
BRANCH  49  74
ATOM     74  C   UNL A   1      36.775  32.969  30.803  1.00  0.00     0.058 A 
ATOM     75  C   UNL A   1      35.445  32.666  31.128  1.00  0.00     0.135 A 
ATOM     76  C   UNL A   1      37.004  33.954  29.830  1.00  0.00     0.135 A 
ATOM     77  F   UNL A   1      35.177  31.728  32.049  1.00  0.00    -0.206 F 
ATOM     78  C   UNL A   1      34.379  33.306  30.505  1.00  0.00     0.059 A 
ATOM     79  C   UNL A   1      35.956  34.625  29.210  1.00  0.00     0.059 A 
ATOM     80  F   UNL A   1      38.260  34.293  29.499  1.00  0.00    -0.206 F 
ATOM     81  C   UNL A   1      34.645  34.287  29.549  1.00  0.00     0.060 A 
BRANCH  81  82
ATOM     82  S   UNL A   1      33.255  35.155  28.788  1.00  0.00     0.124 S 
ATOM     83  O   UNL A   1      32.519  35.612  29.960  1.00  0.00    -0.237 OA
ATOM     84  O   UNL A   1      33.929  36.191  28.011  1.00  0.00    -0.237 OA
ATOM     85  O   UNL A   1      32.604  34.114  27.998  1.00  0.00    -0.744 OA
ENDBRANCH  81  82
ENDBRANCH  49  74
BRANCH  61  86
ATOM     86  C   UNL A   1      39.841  33.789  37.016  1.00  0.00     0.058 A 
ATOM     87  C   UNL A   1      40.381  35.085  36.981  1.00  0.00     0.135 A 
ATOM     88  C   UNL A   1      39.042  33.440  38.116  1.00  0.00     0.135 A 
ATOM     89  F   UNL A   1      41.157  35.465  35.954  1.00  0.00    -0.206 F 
ATOM     90  C   UNL A   1      40.155  35.992  38.010  1.00  0.00     0.059 A 
ATOM     91  C   UNL A   1      38.782  34.341  39.144  1.00  0.00     0.059 A 
ATOM     92  F   UNL A   1      38.494  32.217  38.193  1.00  0.00    -0.206 F 
ATOM     93  C   UNL A   1      39.353  35.611  39.088  1.00  0.00     0.060 A 
BRANCH  93  94
ATOM     94  S   UNL A   1      39.042  36.809  40.402  1.00  0.00     0.124 S 
ATOM     95  O   UNL A   1      38.083  36.090  41.234  1.00  0.00    -0.237 OA
ATOM     96  O   UNL A   1      40.370  36.993  40.979  1.00  0.00    -0.237 OA
ATOM     97  O   UNL A   1      38.510  37.966  39.688  1.00  0.00    -0.744 OA
ENDBRANCH  93  94
ENDBRANCH  61  86
ENDBRANCH  35  36
ENDBRANCH  27  30
ENDBRANCH  25  26
ENDBRANCH   1  25
TORSDOF 16
ENDMDL
MODEL 3
REMARK VINA RESULT:     -12.1      6.660     12.257
REMARK SMILES Cc1cc(C(=O)Nc2ccn(C)n2)sc1/C=C/C(=O)NCCCNC(=O)c1ccc(-c2c3nc(c(-c4c(F)cc(S(=O)(=O)[O-])cc4F)c4ccc([nH]4)c(-c4c(F)cc(S(=O)(=O)[O-])cc4F)c4nc(c(-c5c(F)cc(S(=O)(=O)[O-])cc5F)c5ccc2[nH]5)C=C4)C=C3)cc1
REMARK SMILES IDX 22 1 21 2 20 3 18 4 19 5 17 7 16 8 15 9 1 10 2 11 3 12 4 13
REMARK SMILES IDX 14 14 5 15 6 16 7 17 8 19 9 20 13 21 10 22 11 23 12 24 23 25
REMARK SMILES IDX 24 26 25 27 26 29 27 30 28 31 92 32 29 33 91 34 30 35 31 36
REMARK SMILES IDX 32 37 85 38 33 39 90 40 84 41 86 42 34 43 89 44 83 45 82 46
REMARK SMILES IDX 35 48 69 49 48 50 68 51 49 52 52 53 67 54 87 55 50 56 51 57
REMARK SMILES IDX 66 59 88 60 53 61 36 62 37 63 46 64 38 65 39 66 45 67 47 68
REMARK SMILES IDX 40 69 41 70 42 71 43 72 44 73 70 74 71 75 80 76 72 77 73 78
REMARK SMILES IDX 79 79 81 80 74 81 75 82 76 83 77 84 78 85 54 86 55 87 64 88
REMARK SMILES IDX 56 89 57 90 63 91 65 92 58 93 59 94 60 95 61 96 62 97
REMARK H PARENT 20 6 7 18 24 28 86 47 52 58
REMARK Flexibility Score: inf
ROOT
ATOM      1  C   UNL A   1      38.943  22.427  26.425  1.00  0.00     0.042 C 
ENDROOT
BRANCH   1   2
ATOM      2  C   UNL A   1      37.665  22.992  25.812  1.00  0.00     0.118 C 
BRANCH   2   3
ATOM      3  N   UNL A   1      37.584  22.695  24.392  1.00  0.00    -0.352 N 
ATOM      4  C   UNL A   1      36.631  23.023  23.480  1.00  0.00     0.244 C 
ATOM      5  O   UNL A   1      36.809  22.774  22.290  1.00  0.00    -0.270 OA
ATOM      6  H   UNL A   1      38.339  22.174  24.034  1.00  0.00     0.163 HD
BRANCH   4   7
ATOM      7  C   UNL A   1      35.421  23.763  23.892  1.00  0.00     0.072 C 
ATOM      8  C   UNL A   1      34.217  23.593  23.324  1.00  0.00     0.025 C 
BRANCH   8   9
ATOM      9  C   UNL A   1      33.054  24.349  23.662  1.00  0.00     0.031 A 
ATOM     10  C   UNL A   1      32.658  25.700  21.503  1.00  0.00     0.046 C 
ATOM     11  C   UNL A   1      32.429  25.365  22.942  1.00  0.00    -0.032 A 
ATOM     12  C   UNL A   1      31.554  26.125  23.795  1.00  0.00     0.029 A 
ATOM     13  C   UNL A   1      31.469  25.620  25.081  1.00  0.00     0.093 A 
ATOM     14  S   UNL A   1      32.142  24.049  25.085  1.00  0.00    -0.130 S 
BRANCH  13  15
ATOM     15  C   UNL A   1      30.725  26.177  26.208  1.00  0.00     0.266 C 
ATOM     16  O   UNL A   1      29.596  25.767  26.492  1.00  0.00    -0.268 OA
ATOM     17  N   UNL A   1      31.280  27.111  27.058  1.00  0.00    -0.304 N 
ATOM     18  H   UNL A   1      30.853  27.170  27.943  1.00  0.00     0.171 HD
BRANCH  17  19
ATOM     19  C   UNL A   1      32.331  27.969  26.865  1.00  0.00     0.154 A 
ATOM     20  C   UNL A   1      33.669  27.692  26.498  1.00  0.00     0.068 A 
ATOM     21  N   UNL A   1      32.138  29.280  27.027  1.00  0.00    -0.155 NA
ATOM     22  C   UNL A   1      34.331  28.892  26.628  1.00  0.00     0.110 A 
ATOM     23  N   UNL A   1      33.385  29.786  27.028  1.00  0.00    -0.274 N 
ATOM     24  C   UNL A   1      33.609  31.119  27.535  1.00  0.00     0.173 C 
ENDBRANCH  17  19
ENDBRANCH  13  15
ENDBRANCH   8   9
ENDBRANCH   4   7
ENDBRANCH   2   3
ENDBRANCH   1   2
BRANCH   1  25
ATOM     25  C   UNL A   1      39.800  23.493  27.101  1.00  0.00     0.118 C 
BRANCH  25  26
ATOM     26  N   UNL A   1      40.729  24.107  26.163  1.00  0.00    -0.352 N 
ATOM     27  C   UNL A   1      41.229  25.384  26.123  1.00  0.00     0.251 C 
ATOM     28  H   UNL A   1      41.048  23.514  25.446  1.00  0.00     0.163 HD
ATOM     29  O   UNL A   1      41.799  25.771  25.107  1.00  0.00    -0.269 OA
BRANCH  27  30
ATOM     30  C   UNL A   1      41.082  26.289  27.283  1.00  0.00     0.039 A 
ATOM     31  C   UNL A   1      41.965  27.365  27.411  1.00  0.00     0.014 A 
ATOM     32  C   UNL A   1      40.121  26.052  28.271  1.00  0.00     0.014 A 
ATOM     33  C   UNL A   1      41.854  28.228  28.503  1.00  0.00     0.010 A 
ATOM     34  C   UNL A   1      39.967  26.952  29.322  1.00  0.00     0.010 A 
ATOM     35  C   UNL A   1      40.838  28.043  29.455  1.00  0.00    -0.014 A 
BRANCH  35  36
ATOM     36  C   UNL A   1      40.678  28.976  30.598  1.00  0.00     0.031 A 
ATOM     37  C   UNL A   1      41.530  28.819  31.829  1.00  0.00     0.074 A 
ATOM     38  C   UNL A   1      39.724  29.927  30.549  1.00  0.00     0.049 A 
ATOM     39  N   UNL A   1      41.487  29.487  32.953  1.00  0.00    -0.248 NA
ATOM     40  C   UNL A   1      42.542  27.752  31.804  1.00  0.00     0.031 C 
ATOM     41  C   UNL A   1      38.806  30.145  29.429  1.00  0.00     0.029 A 
ATOM     42  N   UNL A   1      39.360  30.878  31.467  1.00  0.00    -0.354 N 
ATOM     43  C   UNL A   1      42.453  28.915  33.771  1.00  0.00     0.074 A 
ATOM     44  C   UNL A   1      43.032  27.813  33.034  1.00  0.00     0.031 C 
ATOM     45  C   UNL A   1      37.997  31.177  29.718  1.00  0.00     0.029 A 
ATOM     46  C   UNL A   1      38.313  31.669  31.056  1.00  0.00     0.049 A 
ATOM     47  H   UNL A   1      39.805  30.985  32.338  1.00  0.00     0.167 HD
ATOM     48  C   UNL A   1      42.839  29.288  35.015  1.00  0.00     0.037 A 
ATOM     49  C   UNL A   1      37.675  32.673  31.687  1.00  0.00     0.037 A 
ATOM     50  C   UNL A   1      42.276  30.403  35.732  1.00  0.00     0.049 A 
ATOM     51  C   UNL A   1      38.129  33.078  33.062  1.00  0.00     0.074 A 
ATOM     52  C   UNL A   1      42.632  30.897  36.975  1.00  0.00     0.029 A 
ATOM     53  N   UNL A   1      41.238  31.199  35.269  1.00  0.00    -0.354 N 
ATOM     54  N   UNL A   1      39.082  32.561  33.800  1.00  0.00    -0.248 NA
ATOM     55  C   UNL A   1      37.427  34.207  33.688  1.00  0.00     0.031 C 
ATOM     56  C   UNL A   1      41.785  31.969  37.280  1.00  0.00     0.029 A 
ATOM     57  C   UNL A   1      40.931  32.171  36.208  1.00  0.00     0.049 A 
ATOM     58  H   UNL A   1      40.786  31.090  34.402  1.00  0.00     0.167 HD
ATOM     59  C   UNL A   1      39.111  33.315  34.968  1.00  0.00     0.074 A 
ATOM     60  C   UNL A   1      38.088  34.333  34.830  1.00  0.00     0.031 C 
ATOM     61  C   UNL A   1      39.912  33.179  36.053  1.00  0.00     0.037 A 
BRANCH  48  62
ATOM     62  C   UNL A   1      43.928  28.487  35.677  1.00  0.00     0.058 A 
ATOM     63  C   UNL A   1      45.286  28.792  35.484  1.00  0.00     0.135 A 
ATOM     64  C   UNL A   1      43.613  27.422  36.537  1.00  0.00     0.135 A 
ATOM     65  F   UNL A   1      45.646  29.790  34.662  1.00  0.00    -0.206 F 
ATOM     66  C   UNL A   1      46.292  28.049  36.093  1.00  0.00     0.059 A 
ATOM     67  C   UNL A   1      44.603  26.683  37.178  1.00  0.00     0.059 A 
ATOM     68  F   UNL A   1      42.332  27.088  36.758  1.00  0.00    -0.206 F 
ATOM     69  C   UNL A   1      45.940  26.994  36.937  1.00  0.00     0.060 A 
BRANCH  69  70
ATOM     70  S   UNL A   1      47.258  26.039  37.720  1.00  0.00     0.124 S 
ATOM     71  O   UNL A   1      47.887  25.411  36.562  1.00  0.00    -0.237 OA
ATOM     72  O   UNL A   1      48.044  27.075  38.383  1.00  0.00    -0.237 OA
ATOM     73  O   UNL A   1      46.539  25.136  38.611  1.00  0.00    -0.744 OA
ENDBRANCH  69  70
ENDBRANCH  48  62
BRANCH  49  74
ATOM     74  C   UNL A   1      36.555  33.379  31.009  1.00  0.00     0.058 A 
ATOM     75  C   UNL A   1      36.802  34.302  29.983  1.00  0.00     0.135 A 
ATOM     76  C   UNL A   1      35.219  33.123  31.353  1.00  0.00     0.135 A 
ATOM     77  F   UNL A   1      38.064  34.583  29.623  1.00  0.00    -0.206 F 
ATOM     78  C   UNL A   1      35.765  34.958  29.329  1.00  0.00     0.059 A 
ATOM     79  C   UNL A   1      34.164  33.748  30.697  1.00  0.00     0.059 A 
ATOM     80  F   UNL A   1      34.930  32.232  32.315  1.00  0.00    -0.206 F 
ATOM     81  C   UNL A   1      34.448  34.671  29.691  1.00  0.00     0.060 A 
BRANCH  81  82
ATOM     82  S   UNL A   1      33.106  35.483  28.794  1.00  0.00     0.124 S 
ATOM     83  O   UNL A   1      33.845  36.349  27.883  1.00  0.00    -0.237 OA
ATOM     84  O   UNL A   1      32.416  34.351  28.184  1.00  0.00    -0.237 OA
ATOM     85  O   UNL A   1      32.363  36.164  29.851  1.00  0.00    -0.744 OA
ENDBRANCH  81  82
ENDBRANCH  49  74
BRANCH  61  86
ATOM     86  C   UNL A   1      39.737  34.172  37.167  1.00  0.00     0.058 A 
ATOM     87  C   UNL A   1      38.877  33.923  38.249  1.00  0.00     0.135 A 
ATOM     88  C   UNL A   1      40.474  35.367  37.176  1.00  0.00     0.135 A 
ATOM     89  F   UNL A   1      38.145  32.798  38.285  1.00  0.00    -0.206 F 
ATOM     90  C   UNL A   1      38.738  34.835  39.290  1.00  0.00     0.059 A 
ATOM     91  C   UNL A   1      40.369  36.281  38.220  1.00  0.00     0.059 A 
ATOM     92  F   UNL A   1      41.318  35.648  36.171  1.00  0.00    -0.206 F 
ATOM     93  C   UNL A   1      39.489  36.011  39.266  1.00  0.00     0.060 A 
BRANCH  93  94
ATOM     94  S   UNL A   1      39.322  37.173  40.638  1.00  0.00     0.124 S 
ATOM     95  O   UNL A   1      40.686  37.673  40.767  1.00  0.00    -0.237 OA
ATOM     96  O   UNL A   1      38.343  38.126  40.124  1.00  0.00    -0.237 OA
ATOM     97  O   UNL A   1      38.853  36.335  41.737  1.00  0.00    -0.744 OA
ENDBRANCH  93  94
ENDBRANCH  61  86
ENDBRANCH  35  36
ENDBRANCH  27  30
ENDBRANCH  25  26
ENDBRANCH   1  25
TORSDOF 16
ENDMDL
