MODEL 1
REMARK VINA RESULT:     -12.4      0.000      0.000
REMARK SMILES CSc1cccc(NC(=O)N[C@@H]2C=C[C@@H](C(=O)NCCCNC(=O)c3ccc(-c4c5nc(c(-c6c(F)cc(S(=O)(=O)[O-])cc6F)c6ccc([nH]6)c(-c6c(F)cc(S(=O)(=O)[O-])cc6F)c6nc(c(-c7c(F)cc(S(=O)(=O)[O-])cc7F)c7ccc4[nH]7)C=C6)C=C5)cc3)C2)c1
REMARK SMILES IDX 20 1 19 2 18 3 16 4 17 5 15 7 12 8 13 9 91 10 14 11 11 12
REMARK SMILES IDX 8 13 9 14 10 16 7 18 3 19 4 20 92 21 5 22 6 23 2 24 1 25
REMARK SMILES IDX 21 26 22 27 23 28 24 30 25 31 26 32 90 33 27 34 89 35 28 36
REMARK SMILES IDX 29 37 30 38 83 39 31 40 88 41 82 42 84 43 32 44 87 45 81 46
REMARK SMILES IDX 80 47 33 49 67 50 46 51 66 52 47 53 50 54 65 55 85 56 48 57
REMARK SMILES IDX 49 58 64 60 86 61 51 62 34 63 35 64 44 65 36 66 37 67 43 68
REMARK SMILES IDX 45 69 38 70 39 71 40 72 41 73 42 74 68 75 69 76 78 77 70 78
REMARK SMILES IDX 71 79 77 80 79 81 72 82 73 83 74 84 75 85 76 86 52 87 53 88
REMARK SMILES IDX 62 89 54 90 55 91 61 92 63 93 56 94 57 95 58 96 59 97 60 98
REMARK H PARENT 18 6 8 15 11 17 22 29 84 48 50 59
REMARK Flexibility Score: inf
ROOT
ATOM      1  C   UNL A   1      38.011  24.023  26.097  1.00  0.00     0.042 C 
ENDROOT
BRANCH   1   2
ATOM      2  C   UNL A   1      36.625  23.370  26.103  1.00  0.00     0.117 C 
BRANCH   2   3
ATOM      3  N   UNL A   1      36.636  21.926  25.951  1.00  0.00    -0.356 N 
ATOM      4  C   UNL A   1      35.819  21.063  25.291  1.00  0.00     0.227 C 
ATOM      5  O   UNL A   1      36.338  19.977  24.991  1.00  0.00    -0.274 OA
ATOM      6  H   UNL A   1      37.382  21.485  26.417  1.00  0.00     0.163 HD
BRANCH   4   7
ATOM      7  C   UNL A   1      34.328  21.282  24.950  1.00  0.00     0.103 C 
ATOM      8  C   UNL A   1      32.314  22.476  25.615  1.00  0.00     0.107 C 
ATOM      9  C   UNL A   1      32.582  22.658  24.169  1.00  0.00    -0.006 C 
ATOM     10  C   UNL A   1      33.359  21.477  26.102  1.00  0.00     0.047 C 
ATOM     11  C   UNL A   1      33.823  22.216  23.886  1.00  0.00    -0.016 C 
BRANCH   8  12
ATOM     12  N   UNL A   1      31.052  22.262  26.195  1.00  0.00    -0.332 N 
ATOM     13  N   UNL A   1      30.616  24.558  26.869  1.00  0.00    -0.308 N 
ATOM     14  C   UNL A   1      30.394  23.211  26.905  1.00  0.00     0.319 C 
ATOM     15  H   UNL A   1      30.301  24.962  27.710  1.00  0.00     0.171 HD
ATOM     16  O   UNL A   1      29.537  22.802  27.698  1.00  0.00    -0.248 OA
ATOM     17  H   UNL A   1      30.626  21.383  26.079  1.00  0.00     0.165 HD
BRANCH  13  18
ATOM     18  C   UNL A   1      31.152  25.587  26.024  1.00  0.00     0.043 A 
ATOM     19  C   UNL A   1      30.789  27.003  24.053  1.00  0.00     0.009 A 
ATOM     20  C   UNL A   1      32.158  27.221  23.926  1.00  0.00     0.015 A 
ATOM     21  C   UNL A   1      30.296  26.131  25.050  1.00  0.00     0.041 A 
ATOM     22  C   UNL A   1      32.980  26.839  24.945  1.00  0.00     0.003 A 
ATOM     23  C   UNL A   1      32.440  26.122  26.004  1.00  0.00     0.026 A 
BRANCH  19  24
ATOM     24  S   UNL A   1      29.706  27.965  23.016  1.00  0.00    -0.130 SA
ATOM     25  C   UNL A   1      30.179  29.636  23.591  1.00  0.00     0.091 C 
ENDBRANCH  19  24
ENDBRANCH  13  18
ENDBRANCH   8  12
ENDBRANCH   4   7
ENDBRANCH   2   3
ENDBRANCH   1   2
BRANCH   1  26
ATOM     26  C   UNL A   1      39.163  23.214  26.704  1.00  0.00     0.118 C 
BRANCH  26  27
ATOM     27  N   UNL A   1      40.466  23.487  26.105  1.00  0.00    -0.352 N 
ATOM     28  C   UNL A   1      41.434  24.435  26.363  1.00  0.00     0.251 C 
ATOM     29  H   UNL A   1      40.700  22.874  25.373  1.00  0.00     0.163 HD
ATOM     30  O   UNL A   1      42.406  24.480  25.606  1.00  0.00    -0.269 OA
BRANCH  28  31
ATOM     31  C   UNL A   1      41.327  25.441  27.458  1.00  0.00     0.039 A 
ATOM     32  C   UNL A   1      42.321  26.429  27.551  1.00  0.00     0.014 A 
ATOM     33  C   UNL A   1      40.308  25.431  28.407  1.00  0.00     0.014 A 
ATOM     34  C   UNL A   1      42.220  27.471  28.481  1.00  0.00     0.010 A 
ATOM     35  C   UNL A   1      40.186  26.483  29.319  1.00  0.00     0.010 A 
ATOM     36  C   UNL A   1      41.132  27.521  29.357  1.00  0.00    -0.014 A 
BRANCH  36  37
ATOM     37  C   UNL A   1      41.018  28.572  30.402  1.00  0.00     0.031 A 
ATOM     38  C   UNL A   1      41.917  28.496  31.602  1.00  0.00     0.074 A 
ATOM     39  C   UNL A   1      40.086  29.542  30.318  1.00  0.00     0.049 A 
ATOM     40  N   UNL A   1      41.905  29.210  32.696  1.00  0.00    -0.248 NA
ATOM     41  C   UNL A   1      42.960  27.457  31.571  1.00  0.00     0.031 C 
ATOM     42  C   UNL A   1      39.161  29.731  29.202  1.00  0.00     0.029 A 
ATOM     43  N   UNL A   1      39.745  30.537  31.202  1.00  0.00    -0.354 N 
ATOM     44  C   UNL A   1      42.924  28.698  33.490  1.00  0.00     0.074 A 
ATOM     45  C   UNL A   1      43.506  27.587  32.770  1.00  0.00     0.031 C 
ATOM     46  C   UNL A   1      38.349  30.768  29.473  1.00  0.00     0.029 A 
ATOM     47  C   UNL A   1      38.670  31.296  30.797  1.00  0.00     0.049 A 
ATOM     48  H   UNL A   1      40.226  30.694  32.047  1.00  0.00     0.167 HD
ATOM     49  C   UNL A   1      43.344  29.124  34.704  1.00  0.00     0.037 A 
ATOM     50  C   UNL A   1      38.007  32.285  31.433  1.00  0.00     0.037 A 
ATOM     51  C   UNL A   1      42.766  30.235  35.411  1.00  0.00     0.049 A 
ATOM     52  C   UNL A   1      38.460  32.709  32.809  1.00  0.00     0.074 A 
ATOM     53  C   UNL A   1      43.145  30.769  36.631  1.00  0.00     0.029 A 
ATOM     54  N   UNL A   1      41.682  30.981  34.968  1.00  0.00    -0.354 N 
ATOM     55  N   UNL A   1      39.453  32.244  33.530  1.00  0.00    -0.248 NA
ATOM     56  C   UNL A   1      37.703  33.790  33.458  1.00  0.00     0.031 C 
ATOM     57  C   UNL A   1      42.256  31.799  36.951  1.00  0.00     0.029 A 
ATOM     58  C   UNL A   1      41.361  31.949  35.904  1.00  0.00     0.049 A 
ATOM     59  H   UNL A   1      41.211  30.840  34.115  1.00  0.00     0.167 HD
ATOM     60  C   UNL A   1      39.459  32.995  34.703  1.00  0.00     0.074 A 
ATOM     61  C   UNL A   1      38.377  33.951  34.589  1.00  0.00     0.031 C 
ATOM     62  C   UNL A   1      40.285  32.902  35.773  1.00  0.00     0.037 A 
BRANCH  49  63
ATOM     63  C   UNL A   1      44.472  28.369  35.349  1.00  0.00     0.058 A 
ATOM     64  C   UNL A   1      45.814  28.733  35.152  1.00  0.00     0.135 A 
ATOM     65  C   UNL A   1      44.207  27.276  36.190  1.00  0.00     0.135 A 
ATOM     66  F   UNL A   1      46.125  29.757  34.341  1.00  0.00    -0.206 F 
ATOM     67  C   UNL A   1      46.854  28.022  35.740  1.00  0.00     0.059 A 
ATOM     68  C   UNL A   1      45.230  26.570  36.814  1.00  0.00     0.059 A 
ATOM     69  F   UNL A   1      42.943  26.882  36.410  1.00  0.00    -0.206 F 
ATOM     70  C   UNL A   1      46.552  26.941  36.569  1.00  0.00     0.060 A 
BRANCH  70  71
ATOM     71  S   UNL A   1      47.912  26.027  37.325  1.00  0.00     0.124 S 
ATOM     72  O   UNL A   1      49.038  26.437  36.489  1.00  0.00    -0.237 OA
ATOM     73  O   UNL A   1      47.916  26.552  38.690  1.00  0.00    -0.237 OA
ATOM     74  O   UNL A   1      47.506  24.637  37.194  1.00  0.00    -0.744 OA
ENDBRANCH  70  71
ENDBRANCH  49  63
BRANCH  50  75
ATOM     75  C   UNL A   1      36.839  32.946  30.783  1.00  0.00     0.058 A 
ATOM     76  C   UNL A   1      35.525  32.602  31.132  1.00  0.00     0.135 A 
ATOM     77  C   UNL A   1      37.012  33.926  29.792  1.00  0.00     0.135 A 
ATOM     78  F   UNL A   1      35.304  31.659  32.063  1.00  0.00    -0.206 F 
ATOM     79  C   UNL A   1      34.425  33.189  30.515  1.00  0.00     0.059 A 
ATOM     80  C   UNL A   1      35.928  34.548  29.178  1.00  0.00     0.059 A 
ATOM     81  F   UNL A   1      38.247  34.298  29.422  1.00  0.00    -0.206 F 
ATOM     82  C   UNL A   1      34.637  34.166  29.540  1.00  0.00     0.060 A 
BRANCH  82  83
ATOM     83  S   UNL A   1      33.201  34.953  28.777  1.00  0.00     0.124 S 
ATOM     84  O   UNL A   1      33.805  36.118  28.141  1.00  0.00    -0.237 OA
ATOM     85  O   UNL A   1      32.723  33.910  27.875  1.00  0.00    -0.237 OA
ATOM     86  O   UNL A   1      32.330  35.236  29.914  1.00  0.00    -0.744 OA
ENDBRANCH  82  83
ENDBRANCH  50  75
BRANCH  62  87
ATOM     87  C   UNL A   1      40.086  33.879  36.902  1.00  0.00     0.058 A 
ATOM     88  C   UNL A   1      40.679  35.151  36.894  1.00  0.00     0.135 A 
ATOM     89  C   UNL A   1      39.224  33.567  37.967  1.00  0.00     0.135 A 
ATOM     90  F   UNL A   1      41.516  35.499  35.903  1.00  0.00    -0.206 F 
ATOM     91  C   UNL A   1      40.437  36.073  37.906  1.00  0.00     0.059 A 
ATOM     92  C   UNL A   1      38.943  34.484  38.974  1.00  0.00     0.059 A 
ATOM     93  F   UNL A   1      38.621  32.368  38.019  1.00  0.00    -0.206 F 
ATOM     94  C   UNL A   1      39.561  35.733  38.939  1.00  0.00     0.060 A 
BRANCH  94  95
ATOM     95  S   UNL A   1      39.214  36.959  40.219  1.00  0.00     0.124 S 
ATOM     96  O   UNL A   1      38.569  38.016  39.447  1.00  0.00    -0.237 OA
ATOM     97  O   UNL A   1      38.345  36.220  41.130  1.00  0.00    -0.237 OA
ATOM     98  O   UNL A   1      40.535  37.284  40.747  1.00  0.00    -0.744 OA
ENDBRANCH  94  95
ENDBRANCH  62  87
ENDBRANCH  36  37
ENDBRANCH  28  31
ENDBRANCH  26  27
ENDBRANCH   1  26
TORSDOF 16
ENDMDL
MODEL 2
REMARK VINA RESULT:     -12.3      4.942     10.564
REMARK SMILES CSc1cccc(NC(=O)N[C@@H]2C=C[C@@H](C(=O)NCCCNC(=O)c3ccc(-c4c5nc(c(-c6c(F)cc(S(=O)(=O)[O-])cc6F)c6ccc([nH]6)c(-c6c(F)cc(S(=O)(=O)[O-])cc6F)c6nc(c(-c7c(F)cc(S(=O)(=O)[O-])cc7F)c7ccc4[nH]7)C=C6)C=C5)cc3)C2)c1
REMARK SMILES IDX 20 1 19 2 18 3 16 4 17 5 15 7 12 8 13 9 91 10 14 11 11 12
REMARK SMILES IDX 8 13 9 14 10 16 7 18 3 19 4 20 92 21 5 22 6 23 2 24 1 25
REMARK SMILES IDX 21 26 22 27 23 28 24 30 25 31 26 32 90 33 27 34 89 35 28 36
REMARK SMILES IDX 29 37 30 38 83 39 31 40 88 41 82 42 84 43 32 44 87 45 81 46
REMARK SMILES IDX 80 47 33 49 67 50 46 51 66 52 47 53 50 54 65 55 85 56 48 57
REMARK SMILES IDX 49 58 64 60 86 61 51 62 34 63 35 64 44 65 36 66 37 67 43 68
REMARK SMILES IDX 45 69 38 70 39 71 40 72 41 73 42 74 68 75 69 76 78 77 70 78
REMARK SMILES IDX 71 79 77 80 79 81 72 82 73 83 74 84 75 85 76 86 52 87 53 88
REMARK SMILES IDX 62 89 54 90 55 91 61 92 63 93 56 94 57 95 58 96 59 97 60 98
REMARK H PARENT 18 6 8 15 11 17 22 29 84 48 50 59
REMARK Flexibility Score: inf
ROOT
ATOM      1  C   UNL A   1      32.427  28.024  26.002  1.00  0.00     0.042 C 
ENDROOT
BRANCH   1   2
ATOM      2  C   UNL A   1      31.107  27.617  26.664  1.00  0.00     0.117 C 
BRANCH   2   3
ATOM      3  N   UNL A   1      30.905  26.184  26.780  1.00  0.00    -0.356 N 
ATOM      4  C   UNL A   1      31.727  25.119  26.590  1.00  0.00     0.227 C 
ATOM      5  O   UNL A   1      31.392  24.084  27.187  1.00  0.00    -0.274 OA
ATOM      6  H   UNL A   1      29.993  25.935  27.052  1.00  0.00     0.163 HD
BRANCH   4   7
ATOM      7  C   UNL A   1      32.968  25.064  25.671  1.00  0.00     0.103 C 
ATOM      8  C   UNL A   1      34.655  23.583  24.731  1.00  0.00     0.107 C 
ATOM      9  C   UNL A   1      34.010  24.388  23.668  1.00  0.00    -0.006 C 
ATOM     10  C   UNL A   1      34.087  24.110  26.046  1.00  0.00     0.047 C 
ATOM     11  C   UNL A   1      32.916  24.995  24.169  1.00  0.00    -0.016 C 
BRANCH   8  12
ATOM     12  N   UNL A   1      36.026  23.287  24.818  1.00  0.00    -0.332 N 
ATOM     13  N   UNL A   1      35.811  21.033  25.707  1.00  0.00    -0.308 N 
ATOM     14  C   UNL A   1      36.506  22.177  25.429  1.00  0.00     0.319 C 
ATOM     15  H   UNL A   1      36.246  20.564  26.455  1.00  0.00     0.171 HD
ATOM     16  O   UNL A   1      37.682  22.229  25.810  1.00  0.00    -0.248 OA
ATOM     17  H   UNL A   1      36.668  23.915  24.415  1.00  0.00     0.165 HD
BRANCH  13  18
ATOM     18  C   UNL A   1      34.665  20.283  25.281  1.00  0.00     0.043 A 
ATOM     19  C   UNL A   1      33.854  18.298  24.088  1.00  0.00     0.009 A 
ATOM     20  C   UNL A   1      32.609  18.890  23.898  1.00  0.00     0.015 A 
ATOM     21  C   UNL A   1      34.899  19.019  24.709  1.00  0.00     0.041 A 
ATOM     22  C   UNL A   1      32.316  20.035  24.578  1.00  0.00     0.003 A 
ATOM     23  C   UNL A   1      33.318  20.642  25.323  1.00  0.00     0.026 A 
BRANCH  19  24
ATOM     24  S   UNL A   1      34.020  16.579  23.650  1.00  0.00    -0.130 SA
ATOM     25  C   UNL A   1      34.813  15.975  25.184  1.00  0.00     0.091 C 
ENDBRANCH  19  24
ENDBRANCH  13  18
ENDBRANCH   8  12
ENDBRANCH   4   7
ENDBRANCH   2   3
ENDBRANCH   1   2
BRANCH   1  26
ATOM     26  C   UNL A   1      33.598  28.358  26.934  1.00  0.00     0.118 C 
BRANCH  26  27
ATOM     27  N   UNL A   1      33.572  29.718  27.462  1.00  0.00    -0.352 N 
ATOM     28  C   UNL A   1      34.513  30.487  28.115  1.00  0.00     0.251 C 
ATOM     29  H   UNL A   1      32.713  30.178  27.326  1.00  0.00     0.163 HD
ATOM     30  O   UNL A   1      34.157  31.588  28.538  1.00  0.00    -0.269 OA
BRANCH  28  31
ATOM     31  C   UNL A   1      35.903  30.025  28.390  1.00  0.00     0.039 A 
ATOM     32  C   UNL A   1      36.830  30.045  27.335  1.00  0.00     0.014 A 
ATOM     33  C   UNL A   1      36.318  29.549  29.632  1.00  0.00     0.014 A 
ATOM     34  C   UNL A   1      38.179  29.735  27.552  1.00  0.00     0.010 A 
ATOM     35  C   UNL A   1      37.667  29.266  29.861  1.00  0.00     0.010 A 
ATOM     36  C   UNL A   1      38.615  29.369  28.828  1.00  0.00    -0.014 A 
BRANCH  36  37
ATOM     37  C   UNL A   1      40.022  28.971  29.090  1.00  0.00     0.031 A 
ATOM     38  C   UNL A   1      40.976  30.005  29.619  1.00  0.00     0.074 A 
ATOM     39  C   UNL A   1      40.463  27.731  28.802  1.00  0.00     0.049 A 
ATOM     40  N   UNL A   1      42.269  29.930  29.790  1.00  0.00    -0.248 NA
ATOM     41  C   UNL A   1      40.391  31.305  29.985  1.00  0.00     0.031 C 
ATOM     42  C   UNL A   1      39.637  26.637  28.295  1.00  0.00     0.029 A 
ATOM     43  N   UNL A   1      41.724  27.189  28.870  1.00  0.00    -0.354 N 
ATOM     44  C   UNL A   1      42.656  31.177  30.266  1.00  0.00     0.074 A 
ATOM     45  C   UNL A   1      41.468  32.000  30.317  1.00  0.00     0.031 C 
ATOM     46  C   UNL A   1      40.413  25.560  28.085  1.00  0.00     0.029 A 
ATOM     47  C   UNL A   1      41.799  25.895  28.407  1.00  0.00     0.049 A 
ATOM     48  H   UNL A   1      42.503  27.680  29.219  1.00  0.00     0.167 HD
ATOM     49  C   UNL A   1      43.889  31.593  30.639  1.00  0.00     0.037 A 
ATOM     50  C   UNL A   1      42.864  25.085  28.239  1.00  0.00     0.037 A 
ATOM     51  C   UNL A   1      45.065  30.767  30.594  1.00  0.00     0.049 A 
ATOM     52  C   UNL A   1      44.238  25.588  28.612  1.00  0.00     0.074 A 
ATOM     53  C   UNL A   1      46.354  31.085  30.985  1.00  0.00     0.029 A 
ATOM     54  N   UNL A   1      45.101  29.462  30.122  1.00  0.00    -0.354 N 
ATOM     55  N   UNL A   1      44.584  26.755  29.102  1.00  0.00    -0.248 NA
ATOM     56  C   UNL A   1      45.366  24.666  28.409  1.00  0.00     0.031 C 
ATOM     57  C   UNL A   1      47.178  29.992  30.698  1.00  0.00     0.029 A 
ATOM     58  C   UNL A   1      46.394  28.971  30.185  1.00  0.00     0.049 A 
ATOM     59  H   UNL A   1      44.321  28.960  29.791  1.00  0.00     0.167 HD
ATOM     60  C   UNL A   1      45.961  26.697  29.295  1.00  0.00     0.074 A 
ATOM     61  C   UNL A   1      46.384  25.376  28.877  1.00  0.00     0.031 C 
ATOM     62  C   UNL A   1      46.799  27.649  29.774  1.00  0.00     0.037 A 
BRANCH  49  63
ATOM     63  C   UNL A   1      44.026  33.014  31.111  1.00  0.00     0.058 A 
ATOM     64  C   UNL A   1      43.907  33.358  32.466  1.00  0.00     0.135 A 
ATOM     65  C   UNL A   1      44.296  34.044  30.195  1.00  0.00     0.135 A 
ATOM     66  F   UNL A   1      43.628  32.416  33.382  1.00  0.00    -0.206 F 
ATOM     67  C   UNL A   1      44.020  34.676  32.894  1.00  0.00     0.059 A 
ATOM     68  C   UNL A   1      44.445  35.365  30.604  1.00  0.00     0.059 A 
ATOM     69  F   UNL A   1      44.415  33.772  28.886  1.00  0.00    -0.206 F 
ATOM     70  C   UNL A   1      44.289  35.673  31.955  1.00  0.00     0.060 A 
BRANCH  70  71
ATOM     71  S   UNL A   1      44.432  37.379  32.525  1.00  0.00     0.124 S 
ATOM     72  O   UNL A   1      43.368  37.442  33.525  1.00  0.00    -0.237 OA
ATOM     73  O   UNL A   1      45.796  37.415  33.053  1.00  0.00    -0.237 OA
ATOM     74  O   UNL A   1      44.210  38.163  31.321  1.00  0.00    -0.744 OA
ENDBRANCH  70  71
ENDBRANCH  49  63
BRANCH  50  75
ATOM     75  C   UNL A   1      42.686  23.711  27.688  1.00  0.00     0.058 A 
ATOM     76  C   UNL A   1      42.544  22.602  28.535  1.00  0.00     0.135 A 
ATOM     77  C   UNL A   1      42.668  23.476  26.303  1.00  0.00     0.135 A 
ATOM     78  F   UNL A   1      42.571  22.770  29.867  1.00  0.00    -0.206 F 
ATOM     79  C   UNL A   1      42.406  21.311  28.036  1.00  0.00     0.059 A 
ATOM     80  C   UNL A   1      42.504  22.196  25.778  1.00  0.00     0.059 A 
ATOM     81  F   UNL A   1      42.795  24.500  25.445  1.00  0.00    -0.206 F 
ATOM     82  C   UNL A   1      42.383  21.118  26.654  1.00  0.00     0.060 A 
BRANCH  82  83
ATOM     83  S   UNL A   1      42.159  19.442  26.018  1.00  0.00     0.124 S 
ATOM     84  O   UNL A   1      42.633  18.635  27.137  1.00  0.00    -0.237 OA
ATOM     85  O   UNL A   1      40.723  19.401  25.764  1.00  0.00    -0.237 OA
ATOM     86  O   UNL A   1      43.001  19.420  24.825  1.00  0.00    -0.744 OA
ENDBRANCH  82  83
ENDBRANCH  50  75
BRANCH  62  87
ATOM     87  C   UNL A   1      48.257  27.297  29.913  1.00  0.00     0.058 A 
ATOM     88  C   UNL A   1      49.204  27.668  28.946  1.00  0.00     0.135 A 
ATOM     89  C   UNL A   1      48.723  26.651  31.071  1.00  0.00     0.135 A 
ATOM     90  F   UNL A   1      48.811  28.282  27.819  1.00  0.00    -0.206 F 
ATOM     91  C   UNL A   1      50.557  27.398  29.114  1.00  0.00     0.059 A 
ATOM     92  C   UNL A   1      50.075  26.399  31.274  1.00  0.00     0.059 A 
ATOM     93  F   UNL A   1      47.862  26.284  32.034  1.00  0.00    -0.206 F 
ATOM     94  C   UNL A   1      50.986  26.769  30.285  1.00  0.00     0.060 A 
BRANCH  94  95
ATOM     95  S   UNL A   1      52.752  26.474  30.513  1.00  0.00     0.124 S 
ATOM     96  O   UNL A   1      53.177  26.156  29.154  1.00  0.00    -0.237 OA
ATOM     97  O   UNL A   1      53.216  27.755  31.039  1.00  0.00    -0.237 OA
ATOM     98  O   UNL A   1      52.793  25.364  31.459  1.00  0.00    -0.744 OA
ENDBRANCH  94  95
ENDBRANCH  62  87
ENDBRANCH  36  37
ENDBRANCH  28  31
ENDBRANCH  26  27
ENDBRANCH   1  26
TORSDOF 16
ENDMDL
MODEL 3
REMARK VINA RESULT:     -12.2      0.713      1.665
REMARK SMILES CSc1cccc(NC(=O)N[C@@H]2C=C[C@@H](C(=O)NCCCNC(=O)c3ccc(-c4c5nc(c(-c6c(F)cc(S(=O)(=O)[O-])cc6F)c6ccc([nH]6)c(-c6c(F)cc(S(=O)(=O)[O-])cc6F)c6nc(c(-c7c(F)cc(S(=O)(=O)[O-])cc7F)c7ccc4[nH]7)C=C6)C=C5)cc3)C2)c1
REMARK SMILES IDX 20 1 19 2 18 3 16 4 17 5 15 7 12 8 13 9 91 10 14 11 11 12
REMARK SMILES IDX 8 13 9 14 10 16 7 18 3 19 4 20 92 21 5 22 6 23 2 24 1 25
REMARK SMILES IDX 21 26 22 27 23 28 24 30 25 31 26 32 90 33 27 34 89 35 28 36
REMARK SMILES IDX 29 37 30 38 83 39 31 40 88 41 82 42 84 43 32 44 87 45 81 46
REMARK SMILES IDX 80 47 33 49 67 50 46 51 66 52 47 53 50 54 65 55 85 56 48 57
REMARK SMILES IDX 49 58 64 60 86 61 51 62 34 63 35 64 44 65 36 66 37 67 43 68
REMARK SMILES IDX 45 69 38 70 39 71 40 72 41 73 42 74 68 75 69 76 78 77 70 78
REMARK SMILES IDX 71 79 77 80 79 81 72 82 73 83 74 84 75 85 76 86 52 87 53 88
REMARK SMILES IDX 62 89 54 90 55 91 61 92 63 93 56 94 57 95 58 96 59 97 60 98
REMARK H PARENT 18 6 8 15 11 17 22 29 84 48 50 59
REMARK Flexibility Score: inf
ROOT
ATOM      1  C   UNL A   1      37.763  24.085  26.007  1.00  0.00     0.042 C 
ENDROOT
BRANCH   1   2
ATOM      2  C   UNL A   1      36.415  23.365  26.116  1.00  0.00     0.117 C 
BRANCH   2   3
ATOM      3  N   UNL A   1      36.482  21.925  25.945  1.00  0.00    -0.356 N 
ATOM      4  C   UNL A   1      35.679  21.035  25.305  1.00  0.00     0.227 C 
ATOM      5  O   UNL A   1      36.231  19.976  24.971  1.00  0.00    -0.274 OA
ATOM      6  H   UNL A   1      37.265  21.512  26.375  1.00  0.00     0.163 HD
BRANCH   4   7
ATOM      7  C   UNL A   1      34.167  21.192  25.026  1.00  0.00     0.103 C 
ATOM      8  C   UNL A   1      32.147  22.349  25.735  1.00  0.00     0.107 C 
ATOM      9  C   UNL A   1      32.342  22.477  24.272  1.00  0.00    -0.006 C 
ATOM     10  C   UNL A   1      33.245  21.404  26.213  1.00  0.00     0.047 C 
ATOM     11  C   UNL A   1      33.583  22.063  23.949  1.00  0.00    -0.016 C 
BRANCH   8  12
ATOM     12  N   UNL A   1      30.920  22.119  26.381  1.00  0.00    -0.332 N 
ATOM     13  N   UNL A   1      30.269  24.445  26.666  1.00  0.00    -0.308 N 
ATOM     14  C   UNL A   1      30.182  23.110  26.939  1.00  0.00     0.319 C 
ATOM     15  H   UNL A   1      29.927  24.957  27.435  1.00  0.00     0.171 HD
ATOM     16  O   UNL A   1      29.380  22.765  27.816  1.00  0.00    -0.248 OA
ATOM     17  H   UNL A   1      30.582  21.197  26.431  1.00  0.00     0.165 HD
BRANCH  13  18
ATOM     18  C   UNL A   1      30.688  25.359  25.641  1.00  0.00     0.043 A 
ATOM     19  C   UNL A   1      32.116  27.272  25.072  1.00  0.00     0.009 A 
ATOM     20  C   UNL A   1      31.313  27.578  23.978  1.00  0.00     0.015 A 
ATOM     21  C   UNL A   1      31.763  26.214  25.941  1.00  0.00     0.041 A 
ATOM     22  C   UNL A   1      30.371  26.674  23.582  1.00  0.00     0.003 A 
ATOM     23  C   UNL A   1      30.155  25.550  24.367  1.00  0.00     0.026 A 
BRANCH  19  24
ATOM     24  S   UNL A   1      33.651  28.162  25.238  1.00  0.00    -0.130 SA
ATOM     25  C   UNL A   1      34.010  28.433  23.466  1.00  0.00     0.091 C 
ENDBRANCH  19  24
ENDBRANCH  13  18
ENDBRANCH   8  12
ENDBRANCH   4   7
ENDBRANCH   2   3
ENDBRANCH   1   2
BRANCH   1  26
ATOM     26  C   UNL A   1      38.948  23.456  26.750  1.00  0.00     0.118 C 
BRANCH  26  27
ATOM     27  N   UNL A   1      40.249  23.753  26.158  1.00  0.00    -0.352 N 
ATOM     28  C   UNL A   1      41.207  24.706  26.433  1.00  0.00     0.251 C 
ATOM     29  H   UNL A   1      40.491  23.154  25.417  1.00  0.00     0.163 HD
ATOM     30  O   UNL A   1      42.179  24.774  25.680  1.00  0.00    -0.269 OA
BRANCH  28  31
ATOM     31  C   UNL A   1      41.087  25.693  27.544  1.00  0.00     0.039 A 
ATOM     32  C   UNL A   1      42.077  26.684  27.661  1.00  0.00     0.014 A 
ATOM     33  C   UNL A   1      40.061  25.663  28.485  1.00  0.00     0.014 A 
ATOM     34  C   UNL A   1      41.964  27.710  28.608  1.00  0.00     0.010 A 
ATOM     35  C   UNL A   1      39.928  26.700  29.414  1.00  0.00     0.010 A 
ATOM     36  C   UNL A   1      40.869  27.741  29.477  1.00  0.00    -0.014 A 
BRANCH  36  37
ATOM     37  C   UNL A   1      40.742  28.774  30.537  1.00  0.00     0.031 A 
ATOM     38  C   UNL A   1      41.599  28.654  31.765  1.00  0.00     0.074 A 
ATOM     39  C   UNL A   1      39.835  29.766  30.442  1.00  0.00     0.049 A 
ATOM     40  N   UNL A   1      41.565  29.347  32.872  1.00  0.00    -0.248 NA
ATOM     41  C   UNL A   1      42.619  27.593  31.748  1.00  0.00     0.031 C 
ATOM     42  C   UNL A   1      38.953  29.997  29.299  1.00  0.00     0.029 A 
ATOM     43  N   UNL A   1      39.487  30.751  31.334  1.00  0.00    -0.354 N 
ATOM     44  C   UNL A   1      42.545  28.797  33.689  1.00  0.00     0.074 A 
ATOM     45  C   UNL A   1      43.126  27.687  32.967  1.00  0.00     0.031 C 
ATOM     46  C   UNL A   1      38.156  31.047  29.564  1.00  0.00     0.029 A 
ATOM     47  C   UNL A   1      38.443  31.542  30.909  1.00  0.00     0.049 A 
ATOM     48  H   UNL A   1      39.942  30.881  32.197  1.00  0.00     0.167 HD
ATOM     49  C   UNL A   1      42.932  29.190  34.925  1.00  0.00     0.037 A 
ATOM     50  C   UNL A   1      37.780  32.533  31.541  1.00  0.00     0.037 A 
ATOM     51  C   UNL A   1      42.356  30.300  35.635  1.00  0.00     0.049 A 
ATOM     52  C   UNL A   1      38.195  32.920  32.940  1.00  0.00     0.074 A 
ATOM     53  C   UNL A   1      42.705  30.801  36.877  1.00  0.00     0.029 A 
ATOM     54  N   UNL A   1      41.304  31.078  35.171  1.00  0.00    -0.354 N 
ATOM     55  N   UNL A   1      39.153  32.419  33.685  1.00  0.00    -0.248 NA
ATOM     56  C   UNL A   1      37.441  34.005  33.585  1.00  0.00     0.031 C 
ATOM     57  C   UNL A   1      41.828  31.845  37.188  1.00  0.00     0.029 A 
ATOM     58  C   UNL A   1      40.972  32.036  36.115  1.00  0.00     0.049 A 
ATOM     59  H   UNL A   1      40.859  30.965  34.300  1.00  0.00     0.167 HD
ATOM     60  C   UNL A   1      39.136  33.147  34.872  1.00  0.00     0.074 A 
ATOM     61  C   UNL A   1      38.079  34.129  34.741  1.00  0.00     0.031 C 
ATOM     62  C   UNL A   1      39.923  33.015  35.967  1.00  0.00     0.037 A 
BRANCH  49  63
ATOM     63  C   UNL A   1      44.022  28.397  35.593  1.00  0.00     0.058 A 
ATOM     64  C   UNL A   1      43.736  27.334  36.463  1.00  0.00     0.135 A 
ATOM     65  C   UNL A   1      45.371  28.697  35.347  1.00  0.00     0.135 A 
ATOM     66  F   UNL A   1      42.462  27.018  36.750  1.00  0.00    -0.206 F 
ATOM     67  C   UNL A   1      44.747  26.614  37.090  1.00  0.00     0.059 A 
ATOM     68  C   UNL A   1      46.400  27.971  35.937  1.00  0.00     0.059 A 
ATOM     69  F   UNL A   1      45.702  29.707  34.527  1.00  0.00    -0.206 F 
ATOM     70  C   UNL A   1      46.077  26.941  36.820  1.00  0.00     0.060 A 
BRANCH  70  71
ATOM     71  S   UNL A   1      47.380  25.999  37.641  1.00  0.00     0.124 S 
ATOM     72  O   UNL A   1      46.853  25.898  39.000  1.00  0.00    -0.237 OA
ATOM     73  O   UNL A   1      47.390  24.754  36.874  1.00  0.00    -0.237 OA
ATOM     74  O   UNL A   1      48.558  26.836  37.484  1.00  0.00    -0.744 OA
ENDBRANCH  70  71
ENDBRANCH  49  63
BRANCH  50  75
ATOM     75  C   UNL A   1      36.650  33.233  30.867  1.00  0.00     0.058 A 
ATOM     76  C   UNL A   1      35.321  33.000  31.250  1.00  0.00     0.135 A 
ATOM     77  C   UNL A   1      36.874  34.139  29.817  1.00  0.00     0.135 A 
ATOM     78  F   UNL A   1      35.051  32.131  32.237  1.00  0.00    -0.206 F 
ATOM     79  C   UNL A   1      34.254  33.623  30.610  1.00  0.00     0.059 A 
ATOM     80  C   UNL A   1      35.824  34.796  29.178  1.00  0.00     0.059 A 
ATOM     81  F   UNL A   1      38.125  34.404  29.411  1.00  0.00    -0.206 F 
ATOM     82  C   UNL A   1      34.517  34.524  29.577  1.00  0.00     0.060 A 
BRANCH  82  83
ATOM     83  S   UNL A   1      33.125  35.361  28.785  1.00  0.00     0.124 S 
ATOM     84  O   UNL A   1      32.516  34.272  28.030  1.00  0.00    -0.237 OA
ATOM     85  O   UNL A   1      32.365  35.845  29.933  1.00  0.00    -0.237 OA
ATOM     86  O   UNL A   1      33.769  36.400  27.985  1.00  0.00    -0.744 OA
ENDBRANCH  82  83
ENDBRANCH  50  75
BRANCH  62  87
ATOM     87  C   UNL A   1      39.707  33.974  37.108  1.00  0.00     0.058 A 
ATOM     88  C   UNL A   1      38.959  33.621  38.241  1.00  0.00     0.135 A 
ATOM     89  C   UNL A   1      40.326  35.236  37.100  1.00  0.00     0.135 A 
ATOM     90  F   UNL A   1      38.341  32.430  38.298  1.00  0.00    -0.206 F 
ATOM     91  C   UNL A   1      38.820  34.489  39.319  1.00  0.00     0.059 A 
ATOM     92  C   UNL A   1      40.226  36.107  38.179  1.00  0.00     0.059 A 
ATOM     93  F   UNL A   1      41.063  35.622  36.046  1.00  0.00    -0.206 F 
ATOM     94  C   UNL A   1      39.463  35.727  39.283  1.00  0.00     0.060 A 
BRANCH  94  95
ATOM     95  S   UNL A   1      39.318  36.820  40.713  1.00  0.00     0.124 S 
ATOM     96  O   UNL A   1      38.802  38.040  40.101  1.00  0.00    -0.237 OA
ATOM     97  O   UNL A   1      38.382  36.094  41.566  1.00  0.00    -0.237 OA
ATOM     98  O   UNL A   1      40.684  36.903  41.219  1.00  0.00    -0.744 OA
ENDBRANCH  94  95
ENDBRANCH  62  87
ENDBRANCH  36  37
ENDBRANCH  28  31
ENDBRANCH  26  27
ENDBRANCH   1  26
TORSDOF 16
ENDMDL
