MODEL 1
REMARK VINA RESULT:     -11.6      0.000      0.000
REMARK SMILES C[C@@H](CCC(=O)NCCCNC(=O)c1ccc(-c2c3nc(c(-c4c(F)cc(S(=O)(=O)[O-])cc4F)c4ccc([nH]4)c(-c4c(F)cc(S(=O)(=O)[O-])cc4F)c4nc(c(-c5c(F)cc(S(=O)(=O)[O-])cc5F)c5ccc2[nH]5)C=C4)C=C3)cc1)NC(=O)Nc1ccc(Cl)c(Br)c1
REMARK SMILES IDX 8 1 7 2 5 3 6 4 4 6 3 7 2 8 1 9 80 10 81 11 82 13 83 14
REMARK SMILES IDX 84 16 85 17 91 18 86 19 89 20 87 21 90 22 88 23 9 24 10 25
REMARK SMILES IDX 11 26 12 27 13 29 14 30 15 31 79 32 16 33 78 34 17 35 18 36
REMARK SMILES IDX 19 37 72 38 20 39 77 40 71 41 73 42 21 43 76 44 70 45 69 46
REMARK SMILES IDX 22 48 56 49 35 50 55 51 36 52 39 53 54 54 74 55 37 56 38 57
REMARK SMILES IDX 53 59 75 60 40 61 23 62 24 63 33 64 25 65 26 66 32 67 34 68
REMARK SMILES IDX 27 69 28 70 29 71 30 72 31 73 57 74 58 75 67 76 59 77 60 78
REMARK SMILES IDX 66 79 68 80 61 81 62 82 63 83 64 84 65 85 41 86 42 87 51 88
REMARK SMILES IDX 43 89 44 90 50 91 52 92 45 93 46 94 47 95 48 96 49 97
REMARK H PARENT 7 5 80 12 83 15 11 28 73 47 39 58
REMARK Flexibility Score: inf
ROOT
ATOM      1  C   UNL A   1      33.952  29.921  26.828  1.00  0.00     0.117 C 
ENDROOT
BRANCH   1   2
ATOM      2  N   UNL A   1      32.846  29.291  27.532  1.00  0.00    -0.356 N 
ATOM      3  C   UNL A   1      32.069  28.223  27.211  1.00  0.00     0.220 C 
ATOM      4  O   UNL A   1      31.226  27.850  28.029  1.00  0.00    -0.275 OA
ATOM      5  H   UNL A   1      32.620  29.712  28.392  1.00  0.00     0.163 HD
BRANCH   3   6
ATOM      6  C   UNL A   1      32.169  27.553  25.861  1.00  0.00     0.102 C 
BRANCH   6   7
ATOM      7  C   UNL A   1      32.197  26.025  25.982  1.00  0.00     0.034 C 
BRANCH   7   8
ATOM      8  C   UNL A   1      30.940  25.261  25.515  1.00  0.00     0.081 C 
ATOM      9  C   UNL A   1      29.968  26.170  24.757  1.00  0.00     0.031 C 
BRANCH   8  10
ATOM     10  N   UNL A   1      30.341  24.490  26.614  1.00  0.00    -0.335 N 
ATOM     11  C   UNL A   1      30.265  23.186  26.947  1.00  0.00     0.319 C 
ATOM     12  H   UNL A   1      29.883  25.069  27.266  1.00  0.00     0.165 HD
ATOM     13  O   UNL A   1      29.427  22.874  27.797  1.00  0.00    -0.248 OA
ATOM     14  N   UNL A   1      30.940  22.209  26.310  1.00  0.00    -0.308 N 
ATOM     15  H   UNL A   1      30.517  21.322  26.375  1.00  0.00     0.171 HD
BRANCH  14  16
ATOM     16  C   UNL A   1      32.128  22.221  25.576  1.00  0.00     0.044 A 
ATOM     17  C   UNL A   1      32.053  21.930  24.215  1.00  0.00     0.028 A 
ATOM     18  C   UNL A   1      33.360  22.522  26.152  1.00  0.00     0.043 A 
ATOM     19  C   UNL A   1      33.172  22.126  23.402  1.00  0.00     0.024 A 
ATOM     20  C   UNL A   1      34.480  22.732  25.342  1.00  0.00     0.038 A 
ATOM     21  C   UNL A   1      34.377  22.567  23.957  1.00  0.00     0.055 A 
ATOM     22  Br  UNL A   1      36.072  23.320  26.195  1.00  0.00    -0.049 Br
ATOM     23  Cl  UNL A   1      35.677  22.921  22.878  1.00  0.00    -0.083 Cl
ENDBRANCH  14  16
ENDBRANCH   8  10
ENDBRANCH   7   8
ENDBRANCH   6   7
ENDBRANCH   3   6
ENDBRANCH   1   2
BRANCH   1  24
ATOM     24  C   UNL A   1      34.963  30.600  27.751  1.00  0.00     0.042 C 
BRANCH  24  25
ATOM     25  C   UNL A   1      35.527  29.717  28.859  1.00  0.00     0.118 C 
BRANCH  25  26
ATOM     26  N   UNL A   1      35.622  30.445  30.110  1.00  0.00    -0.352 N 
ATOM     27  C   UNL A   1      36.695  30.583  30.955  1.00  0.00     0.251 C 
ATOM     28  H   UNL A   1      34.800  30.906  30.394  1.00  0.00     0.163 HD
ATOM     29  O   UNL A   1      36.488  30.974  32.103  1.00  0.00    -0.269 OA
BRANCH  27  30
ATOM     30  C   UNL A   1      38.085  30.281  30.519  1.00  0.00     0.039 A 
ATOM     31  C   UNL A   1      38.476  30.691  29.239  1.00  0.00     0.014 A 
ATOM     32  C   UNL A   1      38.965  29.511  31.289  1.00  0.00     0.014 A 
ATOM     33  C   UNL A   1      39.729  30.329  28.733  1.00  0.00     0.010 A 
ATOM     34  C   UNL A   1      40.238  29.191  30.801  1.00  0.00     0.010 A 
ATOM     35  C   UNL A   1      40.623  29.572  29.507  1.00  0.00    -0.014 A 
BRANCH  35  36
ATOM     36  C   UNL A   1      41.937  29.161  28.939  1.00  0.00     0.031 A 
ATOM     37  C   UNL A   1      43.082  30.137  28.860  1.00  0.00     0.074 A 
ATOM     38  C   UNL A   1      42.108  27.896  28.506  1.00  0.00     0.049 A 
ATOM     39  N   UNL A   1      44.315  29.933  28.468  1.00  0.00    -0.248 NA
ATOM     40  C   UNL A   1      42.805  31.525  29.260  1.00  0.00     0.031 C 
ATOM     41  C   UNL A   1      41.070  26.863  28.487  1.00  0.00     0.029 A 
ATOM     42  N   UNL A   1      43.218  27.261  28.008  1.00  0.00    -0.354 N 
ATOM     43  C   UNL A   1      44.959  31.161  28.573  1.00  0.00     0.074 A 
ATOM     44  C   UNL A   1      43.968  32.115  29.021  1.00  0.00     0.031 C 
ATOM     45  C   UNL A   1      41.600  25.718  28.028  1.00  0.00     0.029 A 
ATOM     46  C   UNL A   1      43.008  25.937  27.704  1.00  0.00     0.049 A 
ATOM     47  H   UNL A   1      44.084  27.712  27.880  1.00  0.00     0.167 HD
ATOM     48  C   UNL A   1      46.261  31.464  28.341  1.00  0.00     0.037 A 
ATOM     49  C   UNL A   1      43.853  25.001  27.230  1.00  0.00     0.037 A 
ATOM     50  C   UNL A   1      47.253  30.512  27.908  1.00  0.00     0.049 A 
ATOM     51  C   UNL A   1      45.297  25.352  27.002  1.00  0.00     0.074 A 
ATOM     52  C   UNL A   1      48.605  30.714  27.690  1.00  0.00     0.029 A 
ATOM     53  N   UNL A   1      47.001  29.178  27.622  1.00  0.00    -0.354 N 
ATOM     54  N   UNL A   1      45.901  26.504  27.173  1.00  0.00    -0.248 NA
ATOM     55  C   UNL A   1      46.176  24.274  26.533  1.00  0.00     0.031 C 
ATOM     56  C   UNL A   1      49.164  29.512  27.240  1.00  0.00     0.029 A 
ATOM     57  C   UNL A   1      48.169  28.550  27.218  1.00  0.00     0.049 A 
ATOM     58  H   UNL A   1      46.122  28.742  27.695  1.00  0.00     0.167 HD
ATOM     59  C   UNL A   1      47.237  26.282  26.855  1.00  0.00     0.074 A 
ATOM     60  C   UNL A   1      47.354  24.883  26.498  1.00  0.00     0.031 C 
ATOM     61  C   UNL A   1      48.273  27.157  26.860  1.00  0.00     0.037 A 
BRANCH  48  62
ATOM     62  C   UNL A   1      46.693  32.890  28.555  1.00  0.00     0.058 A 
ATOM     63  C   UNL A   1      47.165  33.335  29.801  1.00  0.00     0.135 A 
ATOM     64  C   UNL A   1      46.677  33.812  27.496  1.00  0.00     0.135 A 
ATOM     65  F   UNL A   1      47.192  32.500  30.852  1.00  0.00    -0.206 F 
ATOM     66  C   UNL A   1      47.578  34.650  29.996  1.00  0.00     0.059 A 
ATOM     67  C   UNL A   1      47.109  35.125  27.662  1.00  0.00     0.059 A 
ATOM     68  F   UNL A   1      46.239  33.440  26.283  1.00  0.00    -0.206 F 
ATOM     69  C   UNL A   1      47.544  35.538  28.921  1.00  0.00     0.060 A 
BRANCH  69  70
ATOM     70  S   UNL A   1      48.087  37.241  29.185  1.00  0.00     0.124 S 
ATOM     71  O   UNL A   1      47.300  37.617  30.357  1.00  0.00    -0.237 OA
ATOM     72  O   UNL A   1      49.522  37.078  29.416  1.00  0.00    -0.237 OA
ATOM     73  O   UNL A   1      47.727  37.910  27.945  1.00  0.00    -0.744 OA
ENDBRANCH  69  70
ENDBRANCH  48  62
BRANCH  49  74
ATOM     74  C   UNL A   1      43.358  23.621  26.980  1.00  0.00     0.058 A 
ATOM     75  C   UNL A   1      43.087  23.174  25.678  1.00  0.00     0.135 A 
ATOM     76  C   UNL A   1      43.165  22.718  28.037  1.00  0.00     0.135 A 
ATOM     77  F   UNL A   1      43.252  24.004  24.637  1.00  0.00    -0.206 F 
ATOM     78  C   UNL A   1      42.632  21.884  25.431  1.00  0.00     0.059 A 
ATOM     79  C   UNL A   1      42.732  21.415  27.813  1.00  0.00     0.059 A 
ATOM     80  F   UNL A   1      43.428  23.091  29.298  1.00  0.00    -0.206 F 
ATOM     81  C   UNL A   1      42.461  21.010  26.506  1.00  0.00     0.060 A 
BRANCH  81  82
ATOM     82  S   UNL A   1      41.936  19.314  26.173  1.00  0.00     0.124 S 
ATOM     83  O   UNL A   1      42.235  18.660  27.441  1.00  0.00    -0.237 OA
ATOM     84  O   UNL A   1      40.521  19.487  25.860  1.00  0.00    -0.237 OA
ATOM     85  O   UNL A   1      42.774  18.923  25.044  1.00  0.00    -0.744 OA
ENDBRANCH  81  82
ENDBRANCH  49  74
BRANCH  61  86
ATOM     86  C   UNL A   1      49.628  26.617  26.492  1.00  0.00     0.058 A 
ATOM     87  C   UNL A   1      50.479  26.043  27.450  1.00  0.00     0.135 A 
ATOM     88  C   UNL A   1      50.078  26.669  25.163  1.00  0.00     0.135 A 
ATOM     89  F   UNL A   1      50.099  25.973  28.736  1.00  0.00    -0.206 F 
ATOM     90  C   UNL A   1      51.745  25.577  27.111  1.00  0.00     0.059 A 
ATOM     91  C   UNL A   1      51.331  26.185  24.796  1.00  0.00     0.059 A 
ATOM     92  F   UNL A   1      49.299  27.196  24.205  1.00  0.00    -0.206 F 
ATOM     93  C   UNL A   1      52.166  25.660  25.782  1.00  0.00     0.060 A 
BRANCH  93  94
ATOM     94  S   UNL A   1      53.814  25.060  25.352  1.00  0.00     0.124 S 
ATOM     95  O   UNL A   1      53.617  23.614  25.389  1.00  0.00    -0.237 OA
ATOM     96  O   UNL A   1      54.026  25.636  24.028  1.00  0.00    -0.237 OA
ATOM     97  O   UNL A   1      54.659  25.607  26.410  1.00  0.00    -0.744 OA
ENDBRANCH  93  94
ENDBRANCH  61  86
ENDBRANCH  35  36
ENDBRANCH  27  30
ENDBRANCH  25  26
ENDBRANCH  24  25
ENDBRANCH   1  24
TORSDOF 17
ENDMDL
MODEL 2
REMARK VINA RESULT:     -11.6      2.575      8.857
REMARK SMILES C[C@@H](CCC(=O)NCCCNC(=O)c1ccc(-c2c3nc(c(-c4c(F)cc(S(=O)(=O)[O-])cc4F)c4ccc([nH]4)c(-c4c(F)cc(S(=O)(=O)[O-])cc4F)c4nc(c(-c5c(F)cc(S(=O)(=O)[O-])cc5F)c5ccc2[nH]5)C=C4)C=C3)cc1)NC(=O)Nc1ccc(Cl)c(Br)c1
REMARK SMILES IDX 8 1 7 2 5 3 6 4 4 6 3 7 2 8 1 9 80 10 81 11 82 13 83 14
REMARK SMILES IDX 84 16 85 17 91 18 86 19 89 20 87 21 90 22 88 23 9 24 10 25
REMARK SMILES IDX 11 26 12 27 13 29 14 30 15 31 79 32 16 33 78 34 17 35 18 36
REMARK SMILES IDX 19 37 72 38 20 39 77 40 71 41 73 42 21 43 76 44 70 45 69 46
REMARK SMILES IDX 22 48 56 49 35 50 55 51 36 52 39 53 54 54 74 55 37 56 38 57
REMARK SMILES IDX 53 59 75 60 40 61 23 62 24 63 33 64 25 65 26 66 32 67 34 68
REMARK SMILES IDX 27 69 28 70 29 71 30 72 31 73 57 74 58 75 67 76 59 77 60 78
REMARK SMILES IDX 66 79 68 80 61 81 62 82 63 83 64 84 65 85 41 86 42 87 51 88
REMARK SMILES IDX 43 89 44 90 50 91 52 92 45 93 46 94 47 95 48 96 49 97
REMARK H PARENT 7 5 80 12 83 15 11 28 73 47 39 58
REMARK Flexibility Score: inf
ROOT
ATOM      1  C   UNL A   1      36.856  20.717  25.007  1.00  0.00     0.117 C 
ENDROOT
BRANCH   1   2
ATOM      2  N   UNL A   1      35.628  19.940  25.072  1.00  0.00    -0.356 N 
ATOM      3  C   UNL A   1      34.354  20.241  24.707  1.00  0.00     0.220 C 
ATOM      4  O   UNL A   1      33.496  19.363  24.811  1.00  0.00    -0.275 OA
ATOM      5  H   UNL A   1      35.739  19.036  25.445  1.00  0.00     0.163 HD
BRANCH   3   6
ATOM      6  C   UNL A   1      33.970  21.633  24.263  1.00  0.00     0.102 C 
BRANCH   6   7
ATOM      7  C   UNL A   1      32.495  21.938  24.549  1.00  0.00     0.034 C 
BRANCH   7   8
ATOM      8  C   UNL A   1      32.190  22.872  25.739  1.00  0.00     0.081 C 
ATOM      9  C   UNL A   1      33.385  22.996  26.689  1.00  0.00     0.031 C 
BRANCH   8  10
ATOM     10  N   UNL A   1      30.918  22.521  26.385  1.00  0.00    -0.335 N 
ATOM     11  C   UNL A   1      29.889  23.206  26.924  1.00  0.00     0.319 C 
ATOM     12  H   UNL A   1      30.784  21.546  26.437  1.00  0.00     0.165 HD
ATOM     13  O   UNL A   1      29.111  22.572  27.643  1.00  0.00    -0.248 OA
ATOM     14  N   UNL A   1      29.752  24.544  26.838  1.00  0.00    -0.308 N 
ATOM     15  H   UNL A   1      29.220  24.939  27.567  1.00  0.00     0.171 HD
BRANCH  14  16
ATOM     16  C   UNL A   1      30.224  25.472  25.908  1.00  0.00     0.044 A 
ATOM     17  C   UNL A   1      29.632  25.484  24.646  1.00  0.00     0.028 A 
ATOM     18  C   UNL A   1      31.239  26.378  26.205  1.00  0.00     0.043 A 
ATOM     19  C   UNL A   1      29.925  26.518  23.753  1.00  0.00     0.024 A 
ATOM     20  C   UNL A   1      31.527  27.423  25.321  1.00  0.00     0.038 A 
ATOM     21  C   UNL A   1      30.842  27.512  24.105  1.00  0.00     0.055 A 
ATOM     22  Br  UNL A   1      32.796  28.716  25.889  1.00  0.00    -0.049 Br
ATOM     23  Cl  UNL A   1      31.052  28.834  23.015  1.00  0.00    -0.083 Cl
ENDBRANCH  14  16
ENDBRANCH   8  10
ENDBRANCH   7   8
ENDBRANCH   6   7
ENDBRANCH   3   6
ENDBRANCH   1   2
BRANCH   1  24
ATOM     24  C   UNL A   1      38.124  19.864  24.967  1.00  0.00     0.042 C 
BRANCH  24  25
ATOM     25  C   UNL A   1      39.277  20.372  25.826  1.00  0.00     0.118 C 
BRANCH  25  26
ATOM     26  N   UNL A   1      40.278  19.341  26.019  1.00  0.00    -0.352 N 
ATOM     27  C   UNL A   1      41.644  19.459  26.088  1.00  0.00     0.251 C 
ATOM     28  H   UNL A   1      39.929  18.426  26.114  1.00  0.00     0.163 HD
ATOM     29  O   UNL A   1      42.326  18.445  25.945  1.00  0.00    -0.269 OA
BRANCH  27  30
ATOM     30  C   UNL A   1      42.311  20.766  26.334  1.00  0.00     0.039 A 
ATOM     31  C   UNL A   1      42.435  21.200  27.659  1.00  0.00     0.014 A 
ATOM     32  C   UNL A   1      42.708  21.616  25.295  1.00  0.00     0.014 A 
ATOM     33  C   UNL A   1      42.944  22.473  27.941  1.00  0.00     0.010 A 
ATOM     34  C   UNL A   1      43.264  22.870  25.580  1.00  0.00     0.010 A 
ATOM     35  C   UNL A   1      43.361  23.323  26.904  1.00  0.00    -0.014 A 
BRANCH  35  36
ATOM     36  C   UNL A   1      43.863  24.690  27.217  1.00  0.00     0.031 A 
ATOM     37  C   UNL A   1      45.317  25.040  27.025  1.00  0.00     0.074 A 
ATOM     38  C   UNL A   1      43.005  25.628  27.663  1.00  0.00     0.049 A 
ATOM     39  N   UNL A   1      45.913  26.197  27.173  1.00  0.00    -0.248 NA
ATOM     40  C   UNL A   1      46.219  23.948  26.627  1.00  0.00     0.031 C 
ATOM     41  C   UNL A   1      41.583  25.410  27.933  1.00  0.00     0.029 A 
ATOM     42  N   UNL A   1      43.200  26.954  27.958  1.00  0.00    -0.354 N 
ATOM     43  C   UNL A   1      47.257  25.974  26.888  1.00  0.00     0.074 A 
ATOM     44  C   UNL A   1      47.395  24.562  26.604  1.00  0.00     0.031 C 
ATOM     45  C   UNL A   1      41.029  26.567  28.328  1.00  0.00     0.029 A 
ATOM     46  C   UNL A   1      42.057  27.605  28.357  1.00  0.00     0.049 A 
ATOM     47  H   UNL A   1      44.077  27.397  27.892  1.00  0.00     0.167 HD
ATOM     48  C   UNL A   1      48.278  26.865  26.844  1.00  0.00     0.037 A 
ATOM     49  C   UNL A   1      41.854  28.894  28.694  1.00  0.00     0.037 A 
ATOM     50  C   UNL A   1      48.140  28.275  27.114  1.00  0.00     0.049 A 
ATOM     51  C   UNL A   1      42.995  29.870  28.616  1.00  0.00     0.074 A 
ATOM     52  C   UNL A   1      49.107  29.264  27.050  1.00  0.00     0.029 A 
ATOM     53  N   UNL A   1      46.962  28.896  27.502  1.00  0.00    -0.354 N 
ATOM     54  N   UNL A   1      44.243  29.652  28.278  1.00  0.00    -0.248 NA
ATOM     55  C   UNL A   1      42.696  31.268  28.947  1.00  0.00     0.031 C 
ATOM     56  C   UNL A   1      48.522  30.477  27.432  1.00  0.00     0.029 A 
ATOM     57  C   UNL A   1      47.181  30.252  27.694  1.00  0.00     0.049 A 
ATOM     58  H   UNL A   1      46.098  28.442  27.624  1.00  0.00     0.167 HD
ATOM     59  C   UNL A   1      44.873  30.891  28.334  1.00  0.00     0.074 A 
ATOM     60  C   UNL A   1      43.864  31.855  28.721  1.00  0.00     0.031 C 
ATOM     61  C   UNL A   1      46.170  31.202  28.085  1.00  0.00     0.037 A 
BRANCH  48  62
ATOM     62  C   UNL A   1      49.644  26.343  26.487  1.00  0.00     0.058 A 
ATOM     63  C   UNL A   1      50.138  26.418  25.173  1.00  0.00     0.135 A 
ATOM     64  C   UNL A   1      50.486  25.800  27.470  1.00  0.00     0.135 A 
ATOM     65  F   UNL A   1      49.372  26.918  24.190  1.00  0.00    -0.206 F 
ATOM     66  C   UNL A   1      51.406  25.948  24.844  1.00  0.00     0.059 A 
ATOM     67  C   UNL A   1      51.768  25.347  27.169  1.00  0.00     0.059 A 
ATOM     68  F   UNL A   1      50.066  25.707  28.742  1.00  0.00    -0.206 F 
ATOM     69  C   UNL A   1      52.212  25.412  25.848  1.00  0.00     0.060 A 
BRANCH  69  70
ATOM     70  S   UNL A   1      53.858  24.809  25.410  1.00  0.00     0.124 S 
ATOM     71  O   UNL A   1      54.592  25.047  26.651  1.00  0.00    -0.237 OA
ATOM     72  O   UNL A   1      53.601  23.406  25.089  1.00  0.00    -0.237 OA
ATOM     73  O   UNL A   1      54.240  25.647  24.284  1.00  0.00    -0.744 OA
ENDBRANCH  69  70
ENDBRANCH  48  62
BRANCH  49  74
ATOM     74  C   UNL A   1      40.495  29.344  29.097  1.00  0.00     0.058 A 
ATOM     75  C   UNL A   1      40.179  29.572  30.445  1.00  0.00     0.135 A 
ATOM     76  C   UNL A   1      39.494  29.573  28.141  1.00  0.00     0.135 A 
ATOM     77  F   UNL A   1      41.103  29.360  31.396  1.00  0.00    -0.206 F 
ATOM     78  C   UNL A   1      38.915  30.000  30.834  1.00  0.00     0.059 A 
ATOM     79  C   UNL A   1      38.229  30.024  28.503  1.00  0.00     0.059 A 
ATOM     80  F   UNL A   1      39.753  29.388  26.838  1.00  0.00    -0.206 F 
ATOM     81  C   UNL A   1      37.947  30.228  29.855  1.00  0.00     0.060 A 
BRANCH  81  82
ATOM     82  S   UNL A   1      36.329  30.851  30.359  1.00  0.00     0.124 S 
ATOM     83  O   UNL A   1      36.643  32.228  30.719  1.00  0.00    -0.237 OA
ATOM     84  O   UNL A   1      35.539  30.671  29.144  1.00  0.00    -0.237 OA
ATOM     85  O   UNL A   1      35.965  29.972  31.466  1.00  0.00    -0.744 OA
ENDBRANCH  81  82
ENDBRANCH  49  74
BRANCH  61  86
ATOM     86  C   UNL A   1      46.561  32.650  28.200  1.00  0.00     0.058 A 
ATOM     87  C   UNL A   1      46.407  33.544  27.129  1.00  0.00     0.135 A 
ATOM     88  C   UNL A   1      47.091  33.151  29.401  1.00  0.00     0.135 A 
ATOM     89  F   UNL A   1      45.910  33.116  25.958  1.00  0.00    -0.206 F 
ATOM     90  C   UNL A   1      46.803  34.874  27.229  1.00  0.00     0.059 A 
ATOM     91  C   UNL A   1      47.469  34.484  29.532  1.00  0.00     0.059 A 
ATOM     92  F   UNL A   1      47.246  32.342  30.461  1.00  0.00    -0.206 F 
ATOM     93  C   UNL A   1      47.342  35.333  28.433  1.00  0.00     0.060 A 
BRANCH  93  94
ATOM     94  S   UNL A   1      47.860  37.058  28.553  1.00  0.00     0.124 S 
ATOM     95  O   UNL A   1      47.026  37.685  27.532  1.00  0.00    -0.237 OA
ATOM     96  O   UNL A   1      47.531  37.394  29.934  1.00  0.00    -0.237 OA
ATOM     97  O   UNL A   1      49.288  37.003  28.251  1.00  0.00    -0.744 OA
ENDBRANCH  93  94
ENDBRANCH  61  86
ENDBRANCH  35  36
ENDBRANCH  27  30
ENDBRANCH  25  26
ENDBRANCH  24  25
ENDBRANCH   1  24
TORSDOF 17
ENDMDL
MODEL 3
REMARK VINA RESULT:     -11.6      6.712     12.058
REMARK SMILES C[C@@H](CCC(=O)NCCCNC(=O)c1ccc(-c2c3nc(c(-c4c(F)cc(S(=O)(=O)[O-])cc4F)c4ccc([nH]4)c(-c4c(F)cc(S(=O)(=O)[O-])cc4F)c4nc(c(-c5c(F)cc(S(=O)(=O)[O-])cc5F)c5ccc2[nH]5)C=C4)C=C3)cc1)NC(=O)Nc1ccc(Cl)c(Br)c1
REMARK SMILES IDX 8 1 7 2 5 3 6 4 4 6 3 7 2 8 1 9 80 10 81 11 82 13 83 14
REMARK SMILES IDX 84 16 85 17 91 18 86 19 89 20 87 21 90 22 88 23 9 24 10 25
REMARK SMILES IDX 11 26 12 27 13 29 14 30 15 31 79 32 16 33 78 34 17 35 18 36
REMARK SMILES IDX 19 37 72 38 20 39 77 40 71 41 73 42 21 43 76 44 70 45 69 46
REMARK SMILES IDX 22 48 56 49 35 50 55 51 36 52 39 53 54 54 74 55 37 56 38 57
REMARK SMILES IDX 53 59 75 60 40 61 23 62 24 63 33 64 25 65 26 66 32 67 34 68
REMARK SMILES IDX 27 69 28 70 29 71 30 72 31 73 57 74 58 75 67 76 59 77 60 78
REMARK SMILES IDX 66 79 68 80 61 81 62 82 63 83 64 84 65 85 41 86 42 87 51 88
REMARK SMILES IDX 43 89 44 90 50 91 52 92 45 93 46 94 47 95 48 96 49 97
REMARK H PARENT 7 5 80 12 83 15 11 28 73 47 39 58
REMARK Flexibility Score: inf
ROOT
ATOM      1  C   UNL A   1      39.720  22.153  26.300  1.00  0.00     0.117 C 
ENDROOT
BRANCH   1   2
ATOM      2  N   UNL A   1      38.637  23.101  26.088  1.00  0.00    -0.356 N 
ATOM      3  C   UNL A   1      37.469  22.991  25.402  1.00  0.00     0.220 C 
ATOM      4  O   UNL A   1      36.684  23.940  25.433  1.00  0.00    -0.275 OA
ATOM      5  H   UNL A   1      38.774  23.976  26.516  1.00  0.00     0.163 HD
BRANCH   3   6
ATOM      6  C   UNL A   1      37.164  21.778  24.555  1.00  0.00     0.102 C 
BRANCH   6   7
ATOM      7  C   UNL A   1      36.325  20.745  25.318  1.00  0.00     0.034 C 
BRANCH   7   8
ATOM      8  C   UNL A   1      34.854  21.113  25.607  1.00  0.00     0.081 C 
ATOM      9  C   UNL A   1      34.685  21.751  26.988  1.00  0.00     0.031 C 
BRANCH   8  10
ATOM     10  N   UNL A   1      33.954  19.984  25.330  1.00  0.00    -0.335 N 
ATOM     11  C   UNL A   1      32.673  19.848  24.935  1.00  0.00     0.319 C 
ATOM     12  H   UNL A   1      34.396  19.115  25.467  1.00  0.00     0.165 HD
ATOM     13  O   UNL A   1      32.157  18.736  25.085  1.00  0.00    -0.248 OA
ATOM     14  N   UNL A   1      31.899  20.874  24.530  1.00  0.00    -0.308 N 
ATOM     15  H   UNL A   1      30.933  20.720  24.651  1.00  0.00     0.171 HD
BRANCH  14  16
ATOM     16  C   UNL A   1      32.213  22.114  23.970  1.00  0.00     0.044 A 
ATOM     17  C   UNL A   1      32.883  22.124  22.747  1.00  0.00     0.028 A 
ATOM     18  C   UNL A   1      31.870  23.318  24.580  1.00  0.00     0.043 A 
ATOM     19  C   UNL A   1      33.039  23.325  22.052  1.00  0.00     0.024 A 
ATOM     20  C   UNL A   1      32.012  24.523  23.883  1.00  0.00     0.038 A 
ATOM     21  C   UNL A   1      32.568  24.521  22.600  1.00  0.00     0.055 A 
ATOM     22  Br  UNL A   1      31.349  26.094  24.719  1.00  0.00    -0.049 Br
ATOM     23  Cl  UNL A   1      32.668  25.945  21.628  1.00  0.00    -0.083 Cl
ENDBRANCH  14  16
ENDBRANCH   8  10
ENDBRANCH   7   8
ENDBRANCH   6   7
ENDBRANCH   3   6
ENDBRANCH   1   2
BRANCH   1  24
ATOM     24  C   UNL A   1      40.571  22.457  27.534  1.00  0.00     0.042 C 
BRANCH  24  25
ATOM     25  C   UNL A   1      41.954  23.029  27.245  1.00  0.00     0.118 C 
BRANCH  25  26
ATOM     26  N   UNL A   1      41.913  23.957  26.130  1.00  0.00    -0.352 N 
ATOM     27  C   UNL A   1      41.529  25.275  26.111  1.00  0.00     0.251 C 
ATOM     28  H   UNL A   1      42.201  23.589  25.264  1.00  0.00     0.163 HD
ATOM     29  O   UNL A   1      41.272  25.792  25.025  1.00  0.00    -0.269 OA
BRANCH  27  30
ATOM     30  C   UNL A   1      41.425  26.083  27.355  1.00  0.00     0.039 A 
ATOM     31  C   UNL A   1      40.280  25.928  28.145  1.00  0.00     0.014 A 
ATOM     32  C   UNL A   1      42.364  27.063  27.697  1.00  0.00     0.014 A 
ATOM     33  C   UNL A   1      40.074  26.748  29.260  1.00  0.00     0.010 A 
ATOM     34  C   UNL A   1      42.181  27.850  28.842  1.00  0.00     0.010 A 
ATOM     35  C   UNL A   1      41.021  27.720  29.619  1.00  0.00    -0.014 A 
BRANCH  35  36
ATOM     36  C   UNL A   1      40.768  28.612  30.785  1.00  0.00     0.031 A 
ATOM     37  C   UNL A   1      41.601  28.499  32.036  1.00  0.00     0.074 A 
ATOM     38  C   UNL A   1      39.795  29.541  30.714  1.00  0.00     0.049 A 
ATOM     39  N   UNL A   1      41.572  29.241  33.116  1.00  0.00    -0.248 NA
ATOM     40  C   UNL A   1      42.583  27.406  32.088  1.00  0.00     0.031 C 
ATOM     41  C   UNL A   1      38.889  29.728  29.578  1.00  0.00     0.029 A 
ATOM     42  N   UNL A   1      39.410  30.507  31.608  1.00  0.00    -0.354 N 
ATOM     43  C   UNL A   1      42.529  28.706  33.973  1.00  0.00     0.074 A 
ATOM     44  C   UNL A   1      43.086  27.549  33.307  1.00  0.00     0.031 C 
ATOM     45  C   UNL A   1      38.072  30.762  29.835  1.00  0.00     0.029 A 
ATOM     46  C   UNL A   1      38.383  31.302  31.156  1.00  0.00     0.049 A 
ATOM     47  H   UNL A   1      39.829  30.621  32.492  1.00  0.00     0.167 HD
ATOM     48  C   UNL A   1      42.923  29.150  35.193  1.00  0.00     0.037 A 
ATOM     49  C   UNL A   1      37.769  32.354  31.732  1.00  0.00     0.037 A 
ATOM     50  C   UNL A   1      42.377  30.310  35.852  1.00  0.00     0.049 A 
ATOM     51  C   UNL A   1      38.238  32.843  33.075  1.00  0.00     0.074 A 
ATOM     52  C   UNL A   1      42.744  30.863  37.068  1.00  0.00     0.029 A 
ATOM     53  N   UNL A   1      41.348  31.094  35.355  1.00  0.00    -0.354 N 
ATOM     54  N   UNL A   1      39.190  32.364  33.839  1.00  0.00    -0.248 NA
ATOM     55  C   UNL A   1      37.561  34.024  33.624  1.00  0.00     0.031 C 
ATOM     56  C   UNL A   1      41.913  31.961  37.320  1.00  0.00     0.029 A 
ATOM     57  C   UNL A   1      41.057  32.118  36.244  1.00  0.00     0.049 A 
ATOM     58  H   UNL A   1      40.889  30.945  34.497  1.00  0.00     0.167 HD
ATOM     59  C   UNL A   1      39.242  33.200  34.949  1.00  0.00     0.074 A 
ATOM     60  C   UNL A   1      38.237  34.224  34.747  1.00  0.00     0.031 C 
ATOM     61  C   UNL A   1      40.051  33.128  36.036  1.00  0.00     0.037 A 
BRANCH  48  62
ATOM     62  C   UNL A   1      44.004  28.376  35.899  1.00  0.00     0.058 A 
ATOM     63  C   UNL A   1      43.702  27.294  36.742  1.00  0.00     0.135 A 
ATOM     64  C   UNL A   1      45.358  28.690  35.700  1.00  0.00     0.135 A 
ATOM     65  F   UNL A   1      42.425  26.957  36.978  1.00  0.00    -0.206 F 
ATOM     66  C   UNL A   1      44.702  26.570  37.384  1.00  0.00     0.059 A 
ATOM     67  C   UNL A   1      46.376  27.963  36.311  1.00  0.00     0.059 A 
ATOM     68  F   UNL A   1      45.704  29.712  34.901  1.00  0.00    -0.206 F 
ATOM     69  C   UNL A   1      46.036  26.914  37.165  1.00  0.00     0.060 A 
BRANCH  69  70
ATOM     70  S   UNL A   1      47.326  25.963  38.000  1.00  0.00     0.124 S 
ATOM     71  O   UNL A   1      47.139  26.379  39.388  1.00  0.00    -0.237 OA
ATOM     72  O   UNL A   1      46.942  24.585  37.698  1.00  0.00    -0.237 OA
ATOM     73  O   UNL A   1      48.552  26.422  37.366  1.00  0.00    -0.744 OA
ENDBRANCH  69  70
ENDBRANCH  48  62
BRANCH  49  74
ATOM     74  C   UNL A   1      36.665  33.045  31.015  1.00  0.00     0.058 A 
ATOM     75  C   UNL A   1      35.334  32.914  31.438  1.00  0.00     0.135 A 
ATOM     76  C   UNL A   1      36.923  33.865  29.906  1.00  0.00     0.135 A 
ATOM     77  F   UNL A   1      35.038  32.136  32.491  1.00  0.00    -0.206 F 
ATOM     78  C   UNL A   1      34.294  33.562  30.780  1.00  0.00     0.059 A 
ATOM     79  C   UNL A   1      35.902  34.541  29.245  1.00  0.00     0.059 A 
ATOM     80  F   UNL A   1      38.182  34.038  29.474  1.00  0.00    -0.206 F 
ATOM     81  C   UNL A   1      34.589  34.377  29.686  1.00  0.00     0.060 A 
BRANCH  81  82
ATOM     82  S   UNL A   1      33.244  35.271  28.879  1.00  0.00     0.124 S 
ATOM     83  O   UNL A   1      32.502  35.783  30.025  1.00  0.00    -0.237 OA
ATOM     84  O   UNL A   1      33.965  36.263  28.088  1.00  0.00    -0.237 OA
ATOM     85  O   UNL A   1      32.574  34.231  28.102  1.00  0.00    -0.744 OA
ENDBRANCH  81  82
ENDBRANCH  49  74
BRANCH  61  86
ATOM     86  C   UNL A   1      39.895  34.202  37.078  1.00  0.00     0.058 A 
ATOM     87  C   UNL A   1      40.486  35.467  36.927  1.00  0.00     0.135 A 
ATOM     88  C   UNL A   1      39.141  33.965  38.238  1.00  0.00     0.135 A 
ATOM     89  F   UNL A   1      41.221  35.744  35.839  1.00  0.00    -0.206 F 
ATOM     90  C   UNL A   1      40.369  36.445  37.910  1.00  0.00     0.059 A 
ATOM     91  C   UNL A   1      38.989  34.938  39.222  1.00  0.00     0.059 A 
ATOM     92  F   UNL A   1      38.543  32.777  38.425  1.00  0.00    -0.206 F 
ATOM     93  C   UNL A   1      39.624  36.168  39.058  1.00  0.00     0.060 A 
BRANCH  93  94
ATOM     94  S   UNL A   1      39.484  37.440  40.332  1.00  0.00     0.124 S 
ATOM     95  O   UNL A   1      40.887  37.719  40.622  1.00  0.00    -0.237 OA
ATOM     96  O   UNL A   1      38.756  38.501  39.643  1.00  0.00    -0.237 OA
ATOM     97  O   UNL A   1      38.744  36.771  41.398  1.00  0.00    -0.744 OA
ENDBRANCH  93  94
ENDBRANCH  61  86
ENDBRANCH  35  36
ENDBRANCH  27  30
ENDBRANCH  25  26
ENDBRANCH  24  25
ENDBRANCH   1  24
TORSDOF 17
ENDMDL
