MODEL 1
REMARK VINA RESULT:     -12.0      0.000      0.000
REMARK SMILES CC(C)(C)c1n[nH]c2c1CC[C@@H](C(=O)NCCCNC(=O)c1ccc(-c3c4nc(c(-c5c(F)cc(S(=O)(=O)[O-])cc5F)c5ccc([nH]5)c(-c5c(F)cc(S(=O)(=O)[O-])cc5F)c5nc(c(-c6c(F)cc(S(=O)(=O)[O-])cc6F)c6ccc3[nH]6)C=C5)C=C4)cc1)C2
REMARK SMILES IDX 18 1 17 2 16 3 15 4 13 5 14 6 12 8 5 9 6 10 9 11 7 12 8 13
REMARK SMILES IDX 10 14 88 16 11 17 2 18 1 19 3 20 4 21 19 22 20 23 21 25
REMARK SMILES IDX 22 26 23 27 87 28 24 29 86 30 25 31 26 32 27 33 80 34 28 35
REMARK SMILES IDX 85 36 79 37 81 38 29 39 84 40 78 41 77 42 30 44 64 45 43 46
REMARK SMILES IDX 63 47 44 48 47 49 62 50 82 51 45 52 46 53 61 55 83 56 48 57
REMARK SMILES IDX 31 58 32 59 41 60 33 61 34 62 40 63 42 64 35 65 36 66 37 67
REMARK SMILES IDX 38 68 39 69 65 70 66 71 75 72 67 73 68 74 74 75 76 76 69 77
REMARK SMILES IDX 70 78 71 79 72 80 73 81 49 82 50 83 59 84 51 85 52 86 58 87
REMARK SMILES IDX 60 88 53 89 54 90 55 91 56 92 57 93
REMARK H PARENT 15 7 7 15 19 24 81 43 47 54
REMARK Flexibility Score: inf
ROOT
ATOM      1  C   UNL A   1      33.547  28.304  27.269  1.00  0.00     0.118 C 
ENDROOT
BRANCH   1   2
ATOM      2  C   UNL A   1      33.595  27.950  25.787  1.00  0.00     0.042 C 
BRANCH   2   3
ATOM      3  C   UNL A   1      33.555  26.445  25.557  1.00  0.00     0.117 C 
BRANCH   3   4
ATOM      4  N   UNL A   1      32.546  25.803  26.378  1.00  0.00    -0.356 N 
ATOM      5  C   UNL A   1      32.033  24.557  26.464  1.00  0.00     0.223 C 
ATOM      6  O   UNL A   1      31.089  24.433  27.258  1.00  0.00    -0.275 OA
ATOM      7  H   UNL A   1      32.137  26.423  27.024  1.00  0.00     0.163 HD
BRANCH   5   8
ATOM      8  C   UNL A   1      32.546  23.314  25.742  1.00  0.00     0.084 C 
ATOM      9  C   UNL A   1      33.845  19.393  24.647  1.00  0.00     0.071 A 
ATOM     10  N   UNL A   1      35.159  19.523  24.900  1.00  0.00    -0.180 NA
ATOM     11  C   UNL A   1      33.151  20.596  24.964  1.00  0.00    -0.003 A 
ATOM     12  N   UNL A   1      35.302  20.763  25.385  1.00  0.00    -0.282 N 
ATOM     13  C   UNL A   1      34.124  21.428  25.464  1.00  0.00     0.039 A 
ATOM     14  C   UNL A   1      31.727  21.023  24.879  1.00  0.00     0.040 C 
ATOM     15  H   UNL A   1      36.167  21.148  25.656  1.00  0.00     0.190 HD
ATOM     16  C   UNL A   1      33.909  22.733  26.128  1.00  0.00     0.069 C 
ATOM     17  C   UNL A   1      31.443  22.221  25.812  1.00  0.00     0.019 C 
BRANCH   9  18
ATOM     18  C   UNL A   1      33.309  18.081  24.094  1.00  0.00     0.006 C 
ATOM     19  C   UNL A   1      32.447  17.349  25.143  1.00  0.00     0.017 C 
ATOM     20  C   UNL A   1      34.455  17.115  23.705  1.00  0.00     0.017 C 
ATOM     21  C   UNL A   1      32.468  18.353  22.835  1.00  0.00     0.017 C 
ENDBRANCH   9  18
ENDBRANCH   5   8
ENDBRANCH   3   4
ENDBRANCH   2   3
ENDBRANCH   1   2
BRANCH   1  22
ATOM     22  N   UNL A   1      33.587  29.747  27.470  1.00  0.00    -0.352 N 
ATOM     23  C   UNL A   1      34.519  30.532  28.096  1.00  0.00     0.251 C 
ATOM     24  H   UNL A   1      32.821  30.238  27.093  1.00  0.00     0.163 HD
ATOM     25  O   UNL A   1      34.197  31.656  28.469  1.00  0.00    -0.269 OA
BRANCH  23  26
ATOM     26  C   UNL A   1      35.900  30.046  28.294  1.00  0.00     0.039 A 
ATOM     27  C   UNL A   1      36.279  29.568  29.551  1.00  0.00     0.014 A 
ATOM     28  C   UNL A   1      36.847  30.151  27.273  1.00  0.00     0.014 A 
ATOM     29  C   UNL A   1      37.603  29.188  29.776  1.00  0.00     0.010 A 
ATOM     30  C   UNL A   1      38.136  29.676  27.465  1.00  0.00     0.010 A 
ATOM     31  C   UNL A   1      38.539  29.234  28.731  1.00  0.00    -0.014 A 
BRANCH  31  32
ATOM     32  C   UNL A   1      39.966  28.910  28.958  1.00  0.00     0.031 A 
ATOM     33  C   UNL A   1      40.880  29.955  29.546  1.00  0.00     0.074 A 
ATOM     34  C   UNL A   1      40.445  27.708  28.588  1.00  0.00     0.049 A 
ATOM     35  N   UNL A   1      42.169  29.905  29.756  1.00  0.00    -0.248 NA
ATOM     36  C   UNL A   1      40.268  31.246  29.908  1.00  0.00     0.031 C 
ATOM     37  C   UNL A   1      39.664  26.644  27.952  1.00  0.00     0.029 A 
ATOM     38  N   UNL A   1      41.705  27.181  28.688  1.00  0.00    -0.354 N 
ATOM     39  C   UNL A   1      42.523  31.159  30.242  1.00  0.00     0.074 A 
ATOM     40  C   UNL A   1      41.327  31.970  30.238  1.00  0.00     0.031 C 
ATOM     41  C   UNL A   1      40.457  25.579  27.750  1.00  0.00     0.029 A 
ATOM     42  C   UNL A   1      41.804  25.895  28.214  1.00  0.00     0.049 A 
ATOM     43  H   UNL A   1      42.468  27.676  29.065  1.00  0.00     0.167 HD
ATOM     44  C   UNL A   1      43.730  31.587  30.682  1.00  0.00     0.037 A 
ATOM     45  C   UNL A   1      42.863  25.065  28.171  1.00  0.00     0.037 A 
ATOM     46  C   UNL A   1      44.900  30.752  30.734  1.00  0.00     0.049 A 
ATOM     47  C   UNL A   1      44.175  25.537  28.734  1.00  0.00     0.074 A 
ATOM     48  C   UNL A   1      46.162  31.058  31.209  1.00  0.00     0.029 A 
ATOM     49  N   UNL A   1      44.941  29.430  30.309  1.00  0.00    -0.354 N 
ATOM     50  N   UNL A   1      44.484  26.712  29.231  1.00  0.00    -0.248 NA
ATOM     51  C   UNL A   1      45.276  24.566  28.751  1.00  0.00     0.031 C 
ATOM     52  C   UNL A   1      46.973  29.928  31.054  1.00  0.00     0.029 A 
ATOM     53  C   UNL A   1      46.205  28.906  30.517  1.00  0.00     0.049 A 
ATOM     54  H   UNL A   1      44.184  28.939  29.918  1.00  0.00     0.167 HD
ATOM     55  C   UNL A   1      45.805  26.612  29.651  1.00  0.00     0.074 A 
ATOM     56  C   UNL A   1      46.231  25.257  29.357  1.00  0.00     0.031 C 
ATOM     57  C   UNL A   1      46.595  27.549  30.231  1.00  0.00     0.037 A 
BRANCH  44  58
ATOM     58  C   UNL A   1      43.833  33.011  31.158  1.00  0.00     0.058 A 
ATOM     59  C   UNL A   1      44.232  34.048  30.300  1.00  0.00     0.135 A 
ATOM     60  C   UNL A   1      43.520  33.346  32.486  1.00  0.00     0.135 A 
ATOM     61  F   UNL A   1      44.562  33.782  29.026  1.00  0.00    -0.206 F 
ATOM     62  C   UNL A   1      44.354  35.360  30.748  1.00  0.00     0.059 A 
ATOM     63  C   UNL A   1      43.606  34.658  32.948  1.00  0.00     0.059 A 
ATOM     64  F   UNL A   1      43.134  32.396  33.351  1.00  0.00    -0.206 F 
ATOM     65  C   UNL A   1      44.042  35.654  32.075  1.00  0.00     0.060 A 
BRANCH  65  66
ATOM     66  S   UNL A   1      44.206  37.360  32.643  1.00  0.00     0.124 S 
ATOM     67  O   UNL A   1      43.922  38.101  31.418  1.00  0.00    -0.237 OA
ATOM     68  O   UNL A   1      43.187  37.444  33.684  1.00  0.00    -0.237 OA
ATOM     69  O   UNL A   1      45.585  37.429  33.114  1.00  0.00    -0.744 OA
ENDBRANCH  65  66
ENDBRANCH  44  58
BRANCH  45  70
ATOM     70  C   UNL A   1      42.705  23.690  27.632  1.00  0.00     0.058 A 
ATOM     71  C   UNL A   1      42.455  22.608  28.489  1.00  0.00     0.135 A 
ATOM     72  C   UNL A   1      42.777  23.431  26.255  1.00  0.00     0.135 A 
ATOM     73  F   UNL A   1      42.376  22.807  29.813  1.00  0.00    -0.206 F 
ATOM     74  C   UNL A   1      42.304  21.313  28.003  1.00  0.00     0.059 A 
ATOM     75  C   UNL A   1      42.606  22.148  25.743  1.00  0.00     0.059 A 
ATOM     76  F   UNL A   1      42.989  24.437  25.392  1.00  0.00    -0.206 F 
ATOM     77  C   UNL A   1      42.382  21.094  26.627  1.00  0.00     0.060 A 
BRANCH  77  78
ATOM     78  S   UNL A   1      42.138  19.417  26.002  1.00  0.00     0.124 S 
ATOM     79  O   UNL A   1      40.694  19.388  25.800  1.00  0.00    -0.237 OA
ATOM     80  O   UNL A   1      42.953  19.418  24.791  1.00  0.00    -0.237 OA
ATOM     81  O   UNL A   1      42.643  18.580  27.086  1.00  0.00    -0.744 OA
ENDBRANCH  77  78
ENDBRANCH  45  70
BRANCH  57  82
ATOM     82  C   UNL A   1      47.977  27.123  30.631  1.00  0.00     0.058 A 
ATOM     83  C   UNL A   1      49.078  27.286  29.777  1.00  0.00     0.135 A 
ATOM     84  C   UNL A   1      48.204  26.566  31.900  1.00  0.00     0.135 A 
ATOM     85  F   UNL A   1      48.911  27.811  28.553  1.00  0.00    -0.206 F 
ATOM     86  C   UNL A   1      50.353  26.876  30.152  1.00  0.00     0.059 A 
ATOM     87  C   UNL A   1      49.474  26.173  32.306  1.00  0.00     0.059 A 
ATOM     88  F   UNL A   1      47.185  26.402  32.759  1.00  0.00    -0.206 F 
ATOM     89  C   UNL A   1      50.539  26.316  31.418  1.00  0.00     0.060 A 
BRANCH  89  90
ATOM     90  S   UNL A   1      52.197  25.790  31.899  1.00  0.00     0.124 S 
ATOM     91  O   UNL A   1      51.984  24.374  32.179  1.00  0.00    -0.237 OA
ATOM     92  O   UNL A   1      52.982  26.090  30.706  1.00  0.00    -0.237 OA
ATOM     93  O   UNL A   1      52.492  26.624  33.060  1.00  0.00    -0.744 OA
ENDBRANCH  89  90
ENDBRANCH  57  82
ENDBRANCH  31  32
ENDBRANCH  23  26
ENDBRANCH   1  22
TORSDOF 14
ENDMDL
MODEL 2
REMARK VINA RESULT:     -11.7      4.185     10.791
REMARK SMILES CC(C)(C)c1n[nH]c2c1CC[C@@H](C(=O)NCCCNC(=O)c1ccc(-c3c4nc(c(-c5c(F)cc(S(=O)(=O)[O-])cc5F)c5ccc([nH]5)c(-c5c(F)cc(S(=O)(=O)[O-])cc5F)c5nc(c(-c6c(F)cc(S(=O)(=O)[O-])cc6F)c6ccc3[nH]6)C=C5)C=C4)cc1)C2
REMARK SMILES IDX 18 1 17 2 16 3 15 4 13 5 14 6 12 8 5 9 6 10 9 11 7 12 8 13
REMARK SMILES IDX 10 14 88 16 11 17 2 18 1 19 3 20 4 21 19 22 20 23 21 25
REMARK SMILES IDX 22 26 23 27 87 28 24 29 86 30 25 31 26 32 27 33 80 34 28 35
REMARK SMILES IDX 85 36 79 37 81 38 29 39 84 40 78 41 77 42 30 44 64 45 43 46
REMARK SMILES IDX 63 47 44 48 47 49 62 50 82 51 45 52 46 53 61 55 83 56 48 57
REMARK SMILES IDX 31 58 32 59 41 60 33 61 34 62 40 63 42 64 35 65 36 66 37 67
REMARK SMILES IDX 38 68 39 69 65 70 66 71 75 72 67 73 68 74 74 75 76 76 69 77
REMARK SMILES IDX 70 78 71 79 72 80 73 81 49 82 50 83 59 84 51 85 52 86 58 87
REMARK SMILES IDX 60 88 53 89 54 90 55 91 56 92 57 93
REMARK H PARENT 15 7 7 15 19 24 81 43 47 54
REMARK Flexibility Score: inf
ROOT
ATOM      1  C   UNL A   1      40.347  21.376  27.013  1.00  0.00     0.118 C 
ENDROOT
BRANCH   1   2
ATOM      2  C   UNL A   1      40.747  19.996  26.505  1.00  0.00     0.042 C 
BRANCH   2   3
ATOM      3  C   UNL A   1      42.251  19.878  26.297  1.00  0.00     0.117 C 
BRANCH   3   4
ATOM      4  N   UNL A   1      42.747  20.883  25.376  1.00  0.00    -0.356 N 
ATOM      5  C   UNL A   1      43.425  22.045  25.500  1.00  0.00     0.223 C 
ATOM      6  O   UNL A   1      43.582  22.676  24.445  1.00  0.00    -0.275 OA
ATOM      7  H   UNL A   1      42.538  20.669  24.438  1.00  0.00     0.163 HD
BRANCH   5   8
ATOM      8  C   UNL A   1      44.055  22.593  26.778  1.00  0.00     0.084 C 
ATOM      9  C   UNL A   1      45.511  25.039  29.965  1.00  0.00     0.071 A 
ATOM     10  N   UNL A   1      46.758  25.261  29.513  1.00  0.00    -0.180 NA
ATOM     11  C   UNL A   1      44.777  24.241  29.041  1.00  0.00    -0.003 A 
ATOM     12  N   UNL A   1      46.817  24.644  28.327  1.00  0.00    -0.282 N 
ATOM     13  C   UNL A   1      45.647  24.044  27.996  1.00  0.00     0.039 A 
ATOM     14  C   UNL A   1      43.395  23.689  29.021  1.00  0.00     0.040 C 
ATOM     15  H   UNL A   1      47.620  24.628  27.758  1.00  0.00     0.190 HD
ATOM     16  C   UNL A   1      45.322  23.448  26.682  1.00  0.00     0.069 C 
ATOM     17  C   UNL A   1      42.952  23.336  27.583  1.00  0.00     0.019 C 
BRANCH   9  18
ATOM     18  C   UNL A   1      45.078  25.621  31.302  1.00  0.00     0.006 C 
ATOM     19  C   UNL A   1      44.529  24.520  32.234  1.00  0.00     0.017 C 
ATOM     20  C   UNL A   1      43.948  26.665  31.132  1.00  0.00     0.017 C 
ATOM     21  C   UNL A   1      46.272  26.317  31.976  1.00  0.00     0.017 C 
ENDBRANCH   9  18
ENDBRANCH   5   8
ENDBRANCH   3   4
ENDBRANCH   2   3
ENDBRANCH   1   2
BRANCH   1  22
ATOM     22  N   UNL A   1      39.142  21.856  26.346  1.00  0.00    -0.352 N 
ATOM     23  C   UNL A   1      38.509  23.069  26.419  1.00  0.00     0.251 C 
ATOM     24  H   UNL A   1      38.714  21.203  25.747  1.00  0.00     0.163 HD
ATOM     25  O   UNL A   1      37.335  23.149  26.072  1.00  0.00    -0.269 OA
BRANCH  23  26
ATOM     26  C   UNL A   1      39.237  24.270  26.877  1.00  0.00     0.039 A 
ATOM     27  C   UNL A   1      39.163  24.637  28.223  1.00  0.00     0.014 A 
ATOM     28  C   UNL A   1      39.910  25.088  25.967  1.00  0.00     0.014 A 
ATOM     29  C   UNL A   1      39.773  25.817  28.653  1.00  0.00     0.010 A 
ATOM     30  C   UNL A   1      40.603  26.204  26.412  1.00  0.00     0.010 A 
ATOM     31  C   UNL A   1      40.503  26.604  27.750  1.00  0.00    -0.014 A 
BRANCH  31  32
ATOM     32  C   UNL A   1      41.096  27.899  28.158  1.00  0.00     0.031 A 
ATOM     33  C   UNL A   1      42.575  28.127  27.979  1.00  0.00     0.074 A 
ATOM     34  C   UNL A   1      40.320  28.835  28.735  1.00  0.00     0.049 A 
ATOM     35  N   UNL A   1      43.304  29.152  28.336  1.00  0.00    -0.248 NA
ATOM     36  C   UNL A   1      43.345  27.039  27.350  1.00  0.00     0.031 C 
ATOM     37  C   UNL A   1      38.889  28.697  29.015  1.00  0.00     0.029 A 
ATOM     38  N   UNL A   1      40.628  30.089  29.195  1.00  0.00    -0.354 N 
ATOM     39  C   UNL A   1      44.614  28.818  28.005  1.00  0.00     0.074 A 
ATOM     40  C   UNL A   1      44.589  27.474  27.475  1.00  0.00     0.031 C 
ATOM     41  C   UNL A   1      38.437  29.834  29.568  1.00  0.00     0.029 A 
ATOM     42  C   UNL A   1      39.550  30.768  29.707  1.00  0.00     0.049 A 
ATOM     43  H   UNL A   1      41.537  30.467  29.160  1.00  0.00     0.167 HD
ATOM     44  C   UNL A   1      45.731  29.577  28.103  1.00  0.00     0.037 A 
ATOM     45  C   UNL A   1      39.471  32.010  30.221  1.00  0.00     0.037 A 
ATOM     46  C   UNL A   1      45.732  30.935  28.578  1.00  0.00     0.049 A 
ATOM     47  C   UNL A   1      40.711  32.860  30.251  1.00  0.00     0.074 A 
ATOM     48  C   UNL A   1      46.791  31.818  28.671  1.00  0.00     0.029 A 
ATOM     49  N   UNL A   1      44.605  31.612  29.022  1.00  0.00    -0.354 N 
ATOM     50  N   UNL A   1      41.935  32.547  29.894  1.00  0.00    -0.248 NA
ATOM     51  C   UNL A   1      40.558  34.238  30.733  1.00  0.00     0.031 C 
ATOM     52  C   UNL A   1      46.310  33.025  29.191  1.00  0.00     0.029 A 
ATOM     53  C   UNL A   1      44.942  32.904  29.386  1.00  0.00     0.049 A 
ATOM     54  H   UNL A   1      43.699  31.230  29.072  1.00  0.00     0.167 HD
ATOM     55  C   UNL A   1      42.691  33.698  30.075  1.00  0.00     0.074 A 
ATOM     56  C   UNL A   1      41.782  34.717  30.565  1.00  0.00     0.031 C 
ATOM     57  C   UNL A   1      44.013  33.901  29.853  1.00  0.00     0.037 A 
BRANCH  44  58
ATOM     58  C   UNL A   1      47.033  28.958  27.668  1.00  0.00     0.058 A 
ATOM     59  C   UNL A   1      47.394  28.876  26.313  1.00  0.00     0.135 A 
ATOM     60  C   UNL A   1      47.934  28.448  28.617  1.00  0.00     0.135 A 
ATOM     61  F   UNL A   1      46.561  29.330  25.363  1.00  0.00    -0.206 F 
ATOM     62  C   UNL A   1      48.584  28.279  25.911  1.00  0.00     0.059 A 
ATOM     63  C   UNL A   1      49.145  27.873  28.238  1.00  0.00     0.059 A 
ATOM     64  F   UNL A   1      47.641  28.498  29.925  1.00  0.00    -0.206 F 
ATOM     65  C   UNL A   1      49.451  27.777  26.881  1.00  0.00     0.060 A 
BRANCH  65  66
ATOM     66  S   UNL A   1      50.992  27.002  26.344  1.00  0.00     0.124 S 
ATOM     67  O   UNL A   1      51.677  28.127  25.715  1.00  0.00    -0.237 OA
ATOM     68  O   UNL A   1      51.564  26.536  27.603  1.00  0.00    -0.237 OA
ATOM     69  O   UNL A   1      50.545  25.951  25.436  1.00  0.00    -0.744 OA
ENDBRANCH  65  66
ENDBRANCH  44  58
BRANCH  45  70
ATOM     70  C   UNL A   1      38.163  32.538  30.687  1.00  0.00     0.058 A 
ATOM     71  C   UNL A   1      37.753  32.366  32.018  1.00  0.00     0.135 A 
ATOM     72  C   UNL A   1      37.309  33.241  29.825  1.00  0.00     0.135 A 
ATOM     73  F   UNL A   1      38.537  31.701  32.880  1.00  0.00    -0.206 F 
ATOM     74  C   UNL A   1      36.533  32.853  32.473  1.00  0.00     0.059 A 
ATOM     75  C   UNL A   1      36.094  33.758  30.263  1.00  0.00     0.059 A 
ATOM     76  F   UNL A   1      37.668  33.454  28.549  1.00  0.00    -0.206 F 
ATOM     77  C   UNL A   1      35.709  33.548  31.586  1.00  0.00     0.060 A 
BRANCH  77  78
ATOM     78  S   UNL A   1      34.146  34.218  32.198  1.00  0.00     0.124 S 
ATOM     79  O   UNL A   1      33.468  34.559  30.954  1.00  0.00    -0.237 OA
ATOM     80  O   UNL A   1      33.595  33.086  32.937  1.00  0.00    -0.237 OA
ATOM     81  O   UNL A   1      34.567  35.348  33.021  1.00  0.00    -0.744 OA
ENDBRANCH  77  78
ENDBRANCH  45  70
BRANCH  57  82
ATOM     82  C   UNL A   1      44.539  35.287  30.090  1.00  0.00     0.058 A 
ATOM     83  C   UNL A   1      45.059  35.679  31.333  1.00  0.00     0.135 A 
ATOM     84  C   UNL A   1      44.546  36.226  29.046  1.00  0.00     0.135 A 
ATOM     85  F   UNL A   1      45.072  34.817  32.362  1.00  0.00    -0.206 F 
ATOM     86  C   UNL A   1      45.533  36.969  31.545  1.00  0.00     0.059 A 
ATOM     87  C   UNL A   1      45.038  37.513  29.228  1.00  0.00     0.059 A 
ATOM     88  F   UNL A   1      44.073  35.894  27.834  1.00  0.00    -0.206 F 
ATOM     89  C   UNL A   1      45.513  37.881  30.487  1.00  0.00     0.060 A 
BRANCH  89  90
ATOM     90  S   UNL A   1      46.133  39.551  30.769  1.00  0.00     0.124 S 
ATOM     91  O   UNL A   1      45.980  40.147  29.446  1.00  0.00    -0.237 OA
ATOM     92  O   UNL A   1      45.230  40.053  31.799  1.00  0.00    -0.237 OA
ATOM     93  O   UNL A   1      47.509  39.332  31.206  1.00  0.00    -0.744 OA
ENDBRANCH  89  90
ENDBRANCH  57  82
ENDBRANCH  31  32
ENDBRANCH  23  26
ENDBRANCH   1  22
TORSDOF 14
ENDMDL
MODEL 3
REMARK VINA RESULT:     -11.7      5.140     10.707
REMARK SMILES CC(C)(C)c1n[nH]c2c1CC[C@@H](C(=O)NCCCNC(=O)c1ccc(-c3c4nc(c(-c5c(F)cc(S(=O)(=O)[O-])cc5F)c5ccc([nH]5)c(-c5c(F)cc(S(=O)(=O)[O-])cc5F)c5nc(c(-c6c(F)cc(S(=O)(=O)[O-])cc6F)c6ccc3[nH]6)C=C5)C=C4)cc1)C2
REMARK SMILES IDX 18 1 17 2 16 3 15 4 13 5 14 6 12 8 5 9 6 10 9 11 7 12 8 13
REMARK SMILES IDX 10 14 88 16 11 17 2 18 1 19 3 20 4 21 19 22 20 23 21 25
REMARK SMILES IDX 22 26 23 27 87 28 24 29 86 30 25 31 26 32 27 33 80 34 28 35
REMARK SMILES IDX 85 36 79 37 81 38 29 39 84 40 78 41 77 42 30 44 64 45 43 46
REMARK SMILES IDX 63 47 44 48 47 49 62 50 82 51 45 52 46 53 61 55 83 56 48 57
REMARK SMILES IDX 31 58 32 59 41 60 33 61 34 62 40 63 42 64 35 65 36 66 37 67
REMARK SMILES IDX 38 68 39 69 65 70 66 71 75 72 67 73 68 74 74 75 76 76 69 77
REMARK SMILES IDX 70 78 71 79 72 80 73 81 49 82 50 83 59 84 51 85 52 86 58 87
REMARK SMILES IDX 60 88 53 89 54 90 55 91 56 92 57 93
REMARK H PARENT 15 7 7 15 19 24 81 43 47 54
REMARK Flexibility Score: inf
ROOT
ATOM      1  C   UNL A   1      40.207  23.320  27.117  1.00  0.00     0.118 C 
ENDROOT
BRANCH   1   2
ATOM      2  C   UNL A   1      39.304  22.315  26.413  1.00  0.00     0.042 C 
BRANCH   2   3
ATOM      3  C   UNL A   1      38.047  22.969  25.854  1.00  0.00     0.117 C 
BRANCH   3   4
ATOM      4  N   UNL A   1      36.856  22.207  26.179  1.00  0.00    -0.356 N 
ATOM      5  C   UNL A   1      35.527  22.451  26.158  1.00  0.00     0.223 C 
ATOM      6  O   UNL A   1      34.820  21.541  26.614  1.00  0.00    -0.275 OA
ATOM      7  H   UNL A   1      37.065  21.297  26.490  1.00  0.00     0.163 HD
BRANCH   5   8
ATOM      8  C   UNL A   1      34.843  23.684  25.575  1.00  0.00     0.084 C 
ATOM      9  C   UNL A   1      32.208  26.445  23.653  1.00  0.00     0.071 A 
ATOM     10  N   UNL A   1      32.734  26.419  22.415  1.00  0.00    -0.180 NA
ATOM     11  C   UNL A   1      32.911  25.558  24.517  1.00  0.00    -0.003 A 
ATOM     12  N   UNL A   1      33.731  25.528  22.477  1.00  0.00    -0.282 N 
ATOM     13  C   UNL A   1      33.855  24.972  23.706  1.00  0.00     0.039 A 
ATOM     14  C   UNL A   1      32.784  25.195  25.955  1.00  0.00     0.040 C 
ATOM     15  H   UNL A   1      34.309  25.301  21.713  1.00  0.00     0.190 HD
ATOM     16  C   UNL A   1      34.722  23.825  24.054  1.00  0.00     0.069 C 
ATOM     17  C   UNL A   1      33.451  23.834  26.252  1.00  0.00     0.019 C 
BRANCH   9  18
ATOM     18  C   UNL A   1      31.022  27.350  23.950  1.00  0.00     0.006 C 
ATOM     19  C   UNL A   1      29.805  26.530  24.428  1.00  0.00     0.017 C 
ATOM     20  C   UNL A   1      30.567  28.127  22.690  1.00  0.00     0.017 C 
ATOM     21  C   UNL A   1      31.408  28.376  25.028  1.00  0.00     0.017 C 
ENDBRANCH   9  18
ENDBRANCH   5   8
ENDBRANCH   3   4
ENDBRANCH   2   3
ENDBRANCH   1   2
BRANCH   1  22
ATOM     22  N   UNL A   1      40.970  24.108  26.156  1.00  0.00    -0.352 N 
ATOM     23  C   UNL A   1      41.222  25.454  26.111  1.00  0.00     0.251 C 
ATOM     24  H   UNL A   1      41.369  23.590  25.420  1.00  0.00     0.163 HD
ATOM     25  O   UNL A   1      41.570  25.960  25.048  1.00  0.00    -0.269 OA
BRANCH  23  26
ATOM     26  C   UNL A   1      41.109  26.281  27.330  1.00  0.00     0.039 A 
ATOM     27  C   UNL A   1      40.072  26.025  28.231  1.00  0.00     0.014 A 
ATOM     28  C   UNL A   1      41.961  27.368  27.537  1.00  0.00     0.014 A 
ATOM     29  C   UNL A   1      39.900  26.853  29.341  1.00  0.00     0.010 A 
ATOM     30  C   UNL A   1      41.855  28.127  28.694  1.00  0.00     0.010 A 
ATOM     31  C   UNL A   1      40.796  27.906  29.583  1.00  0.00    -0.014 A 
BRANCH  31  32
ATOM     32  C   UNL A   1      40.595  28.848  30.709  1.00  0.00     0.031 A 
ATOM     33  C   UNL A   1      41.449  28.720  31.944  1.00  0.00     0.074 A 
ATOM     34  C   UNL A   1      39.618  29.770  30.640  1.00  0.00     0.049 A 
ATOM     35  N   UNL A   1      41.389  29.388  33.066  1.00  0.00    -0.248 NA
ATOM     36  C   UNL A   1      42.485  27.672  31.932  1.00  0.00     0.031 C 
ATOM     37  C   UNL A   1      38.690  29.943  29.520  1.00  0.00     0.029 A 
ATOM     38  N   UNL A   1      39.238  30.735  31.537  1.00  0.00    -0.354 N 
ATOM     39  C   UNL A   1      42.350  28.823  33.896  1.00  0.00     0.074 A 
ATOM     40  C   UNL A   1      42.939  27.718  33.175  1.00  0.00     0.031 C 
ATOM     41  C   UNL A   1      37.870  30.973  29.782  1.00  0.00     0.029 A 
ATOM     42  C   UNL A   1      38.196  31.514  31.098  1.00  0.00     0.049 A 
ATOM     43  H   UNL A   1      39.672  30.858  32.412  1.00  0.00     0.167 HD
ATOM     44  C   UNL A   1      42.732  29.210  35.137  1.00  0.00     0.037 A 
ATOM     45  C   UNL A   1      37.581  32.555  31.691  1.00  0.00     0.037 A 
ATOM     46  C   UNL A   1      42.177  30.348  35.821  1.00  0.00     0.049 A 
ATOM     47  C   UNL A   1      38.071  33.013  33.037  1.00  0.00     0.074 A 
ATOM     48  C   UNL A   1      42.521  30.868  37.055  1.00  0.00     0.029 A 
ATOM     49  N   UNL A   1      41.170  31.156  35.312  1.00  0.00    -0.354 N 
ATOM     50  N   UNL A   1      39.011  32.495  33.792  1.00  0.00    -0.248 NA
ATOM     51  C   UNL A   1      37.434  34.209  33.602  1.00  0.00     0.031 C 
ATOM     52  C   UNL A   1      41.708  31.979  37.303  1.00  0.00     0.029 A 
ATOM     53  C   UNL A   1      40.884  32.174  36.204  1.00  0.00     0.049 A 
ATOM     54  H   UNL A   1      40.724  31.025  34.444  1.00  0.00     0.167 HD
ATOM     55  C   UNL A   1      39.103  33.321  34.906  1.00  0.00     0.074 A 
ATOM     56  C   UNL A   1      38.127  34.377  34.719  1.00  0.00     0.031 C 
ATOM     57  C   UNL A   1      39.920  33.221  35.984  1.00  0.00     0.037 A 
BRANCH  44  58
ATOM     58  C   UNL A   1      43.809  28.408  35.816  1.00  0.00     0.058 A 
ATOM     59  C   UNL A   1      43.502  27.342  36.678  1.00  0.00     0.135 A 
ATOM     60  C   UNL A   1      45.165  28.701  35.597  1.00  0.00     0.135 A 
ATOM     61  F   UNL A   1      42.222  27.031  36.938  1.00  0.00    -0.206 F 
ATOM     62  C   UNL A   1      44.497  26.620  37.327  1.00  0.00     0.059 A 
ATOM     63  C   UNL A   1      46.178  27.971  36.214  1.00  0.00     0.059 A 
ATOM     64  F   UNL A   1      45.517  29.709  34.785  1.00  0.00    -0.206 F 
ATOM     65  C   UNL A   1      45.833  26.944  37.091  1.00  0.00     0.060 A 
BRANCH  65  66
ATOM     66  S   UNL A   1      47.115  25.998  37.942  1.00  0.00     0.124 S 
ATOM     67  O   UNL A   1      48.169  26.999  38.079  1.00  0.00    -0.237 OA
ATOM     68  O   UNL A   1      46.448  25.609  39.181  1.00  0.00    -0.237 OA
ATOM     69  O   UNL A   1      47.401  24.906  37.018  1.00  0.00    -0.744 OA
ENDBRANCH  65  66
ENDBRANCH  44  58
BRANCH  45  70
ATOM     70  C   UNL A   1      36.482  33.266  30.988  1.00  0.00     0.058 A 
ATOM     71  C   UNL A   1      35.154  33.144  31.423  1.00  0.00     0.135 A 
ATOM     72  C   UNL A   1      36.736  34.096  29.886  1.00  0.00     0.135 A 
ATOM     73  F   UNL A   1      34.863  32.363  32.474  1.00  0.00    -0.206 F 
ATOM     74  C   UNL A   1      34.112  33.802  30.779  1.00  0.00     0.059 A 
ATOM     75  C   UNL A   1      35.713  34.783  29.238  1.00  0.00     0.059 A 
ATOM     76  F   UNL A   1      37.993  34.265  29.446  1.00  0.00    -0.206 F 
ATOM     77  C   UNL A   1      34.403  34.620  29.685  1.00  0.00     0.060 A 
BRANCH  77  78
ATOM     78  S   UNL A   1      33.049  35.507  28.883  1.00  0.00     0.124 S 
ATOM     79  O   UNL A   1      32.290  35.983  30.033  1.00  0.00    -0.237 OA
ATOM     80  O   UNL A   1      33.760  36.527  28.119  1.00  0.00    -0.237 OA
ATOM     81  O   UNL A   1      32.402  34.473  28.080  1.00  0.00    -0.744 OA
ENDBRANCH  77  78
ENDBRANCH  45  70
BRANCH  57  82
ATOM     82  C   UNL A   1      39.826  34.310  37.013  1.00  0.00     0.058 A 
ATOM     83  C   UNL A   1      40.507  35.528  36.865  1.00  0.00     0.135 A 
ATOM     84  C   UNL A   1      39.021  34.138  38.149  1.00  0.00     0.135 A 
ATOM     85  F   UNL A   1      41.291  35.738  35.796  1.00  0.00    -0.206 F 
ATOM     86  C   UNL A   1      40.424  36.525  37.830  1.00  0.00     0.059 A 
ATOM     87  C   UNL A   1      38.902  35.131  39.115  1.00  0.00     0.059 A 
ATOM     88  F   UNL A   1      38.338  32.995  38.329  1.00  0.00    -0.206 F 
ATOM     89  C   UNL A   1      39.622  36.315  38.955  1.00  0.00     0.060 A 
BRANCH  89  90
ATOM     90  S   UNL A   1      39.516  37.615  40.201  1.00  0.00     0.124 S 
ATOM     91  O   UNL A   1      38.580  38.543  39.575  1.00  0.00    -0.237 OA
ATOM     92  O   UNL A   1      39.011  36.896  41.366  1.00  0.00    -0.237 OA
ATOM     93  O   UNL A   1      40.892  38.089  40.314  1.00  0.00    -0.744 OA
ENDBRANCH  89  90
ENDBRANCH  57  82
ENDBRANCH  31  32
ENDBRANCH  23  26
ENDBRANCH   1  22
TORSDOF 14
ENDMDL
