MODEL 1
REMARK VINA RESULT:     -11.5      0.000      0.000
REMARK SMILES CC(C)[C@@H](CNC(=O)[C@@H]1CC[C@@H]2CCCC[C@@H]2[NH2+]1)C(=O)NCCCNC(=O)c1ccc(-c2c3nc(c(-c4c(F)cc(S(=O)(=O)[O-])cc4F)c4ccc([nH]4)c(-c4c(F)cc(S(=O)(=O)[O-])cc4F)c4nc(c(-c5c(F)cc(S(=O)(=O)[O-])cc5F)c5ccc2[nH]5)C=C4)C=C3)cc1
REMARK SMILES IDX 23 1 22 2 21 3 19 4 20 5 4 7 2 8 1 9 3 10 5 11 6 12 7 13
REMARK SMILES IDX 8 15 9 16 10 17 18 18 11 19 17 20 12 23 16 24 13 25 15 26
REMARK SMILES IDX 14 27 24 28 25 29 26 30 27 32 28 33 29 34 93 35 30 36 92 37
REMARK SMILES IDX 31 38 32 39 33 40 86 41 34 42 91 43 85 44 87 45 35 46 90 47
REMARK SMILES IDX 84 48 83 49 36 51 70 52 49 53 69 54 50 55 53 56 68 57 88 58
REMARK SMILES IDX 51 59 52 60 67 62 89 63 54 64 37 65 38 66 47 67 39 68 40 69
REMARK SMILES IDX 46 70 48 71 41 72 42 73 43 74 44 75 45 76 71 77 72 78 81 79
REMARK SMILES IDX 73 80 74 81 80 82 82 83 75 84 76 85 77 86 78 87 79 88 55 89
REMARK SMILES IDX 56 90 65 91 57 92 58 93 64 94 66 95 59 96 60 97 61 98 62 99
REMARK SMILES IDX 63 100
REMARK H PARENT 21 6 6 14 18 21 18 22 25 31 87 50 53 61
REMARK Flexibility Score: inf
ROOT
ATOM      1  C   UNL A   1      35.943  23.283  24.239  1.00  0.00     0.042 C 
ENDROOT
BRANCH   1   2
ATOM      2  C   UNL A   1      35.486  21.872  24.561  1.00  0.00     0.117 C 
BRANCH   2   3
ATOM      3  N   UNL A   1      34.208  21.835  25.249  1.00  0.00    -0.356 N 
ATOM      4  C   UNL A   1      33.045  21.213  24.923  1.00  0.00     0.225 C 
ATOM      5  O   UNL A   1      32.144  21.202  25.767  1.00  0.00    -0.275 OA
ATOM      6  H   UNL A   1      34.179  22.343  26.091  1.00  0.00     0.163 HD
BRANCH   4   7
ATOM      7  C   UNL A   1      32.833  20.533  23.575  1.00  0.00     0.100 C 
BRANCH   7   8
ATOM      8  C   UNL A   1      32.609  18.998  23.709  1.00  0.00    -0.003 C 
ATOM      9  C   UNL A   1      32.333  18.308  22.374  1.00  0.00     0.008 C 
ATOM     10  C   UNL A   1      33.830  18.336  24.377  1.00  0.00     0.008 C 
ENDBRANCH   7   8
BRANCH   7  11
ATOM     11  C   UNL A   1      31.910  21.368  22.654  1.00  0.00     0.129 C 
BRANCH  11  12
ATOM     12  N   UNL A   1      32.345  22.711  22.321  1.00  0.00    -0.350 N 
ATOM     13  C   UNL A   1      31.969  23.941  22.774  1.00  0.00     0.278 C 
ATOM     14  H   UNL A   1      33.048  22.741  21.633  1.00  0.00     0.163 HD
ATOM     15  O   UNL A   1      32.718  24.869  22.433  1.00  0.00    -0.268 OA
BRANCH  13  16
ATOM     16  C   UNL A   1      30.783  24.196  23.760  1.00  0.00     0.272 C 
ATOM     17  C   UNL A   1      29.963  25.481  23.644  1.00  0.00     0.076 C 
ATOM     18  N   UNL A   1      31.223  23.970  25.170  1.00  0.00    -0.333 N 
ATOM     19  C   UNL A   1      30.607  26.691  24.303  1.00  0.00     0.016 C 
ATOM     20  C   UNL A   1      31.796  25.134  25.877  1.00  0.00     0.186 C 
ATOM     21  H   UNL A   1      31.929  23.235  25.161  1.00  0.00     0.347 HD
ATOM     22  H   UNL A   1      30.373  23.735  25.684  1.00  0.00     0.347 HD
ATOM     23  C   UNL A   1      30.910  26.388  25.770  1.00  0.00     0.048 C 
ATOM     24  C   UNL A   1      33.254  25.404  25.480  1.00  0.00     0.065 C 
ATOM     25  C   UNL A   1      31.544  27.593  26.484  1.00  0.00     0.010 C 
ATOM     26  C   UNL A   1      33.844  26.641  26.141  1.00  0.00     0.006 C 
ATOM     27  C   UNL A   1      32.957  27.876  26.000  1.00  0.00     0.001 C 
ENDBRANCH  13  16
ENDBRANCH  11  12
ENDBRANCH   7  11
ENDBRANCH   4   7
ENDBRANCH   2   3
ENDBRANCH   1   2
BRANCH   1  28
ATOM     28  C   UNL A   1      36.969  23.825  25.221  1.00  0.00     0.118 C 
BRANCH  28  29
ATOM     29  N   UNL A   1      38.114  22.939  25.381  1.00  0.00    -0.352 N 
ATOM     30  C   UNL A   1      39.284  23.096  26.077  1.00  0.00     0.251 C 
ATOM     31  H   UNL A   1      38.035  22.079  24.906  1.00  0.00     0.163 HD
ATOM     32  O   UNL A   1      40.149  22.234  26.086  1.00  0.00    -0.269 OA
BRANCH  30  33
ATOM     33  C   UNL A   1      39.539  24.344  26.784  1.00  0.00     0.039 A 
ATOM     34  C   UNL A   1      38.997  24.480  28.064  1.00  0.00     0.014 A 
ATOM     35  C   UNL A   1      40.317  25.341  26.201  1.00  0.00     0.014 A 
ATOM     36  C   UNL A   1      39.299  25.610  28.802  1.00  0.00     0.010 A 
ATOM     37  C   UNL A   1      40.706  26.412  26.976  1.00  0.00     0.010 A 
ATOM     38  C   UNL A   1      40.193  26.552  28.275  1.00  0.00    -0.014 A 
BRANCH  38  39
ATOM     39  C   UNL A   1      40.608  27.715  29.069  1.00  0.00     0.031 A 
ATOM     40  C   UNL A   1      41.913  27.661  29.798  1.00  0.00     0.074 A 
ATOM     41  C   UNL A   1      39.758  28.751  29.179  1.00  0.00     0.049 A 
ATOM     42  N   UNL A   1      42.414  28.512  30.648  1.00  0.00    -0.248 NA
ATOM     43  C   UNL A   1      42.748  26.465  29.575  1.00  0.00     0.031 C 
ATOM     44  C   UNL A   1      38.444  28.843  28.531  1.00  0.00     0.029 A 
ATOM     45  N   UNL A   1      39.864  29.919  29.880  1.00  0.00    -0.354 N 
ATOM     46  C   UNL A   1      43.606  27.948  31.079  1.00  0.00     0.074 A 
ATOM     47  C   UNL A   1      43.725  26.654  30.449  1.00  0.00     0.031 C 
ATOM     48  C   UNL A   1      37.878  30.018  28.847  1.00  0.00     0.029 A 
ATOM     49  C   UNL A   1      38.764  30.735  29.753  1.00  0.00     0.049 A 
ATOM     50  H   UNL A   1      40.650  30.154  30.423  1.00  0.00     0.167 HD
ATOM     51  C   UNL A   1      44.527  28.486  31.909  1.00  0.00     0.037 A 
ATOM     52  C   UNL A   1      38.508  31.925  30.325  1.00  0.00     0.037 A 
ATOM     53  C   UNL A   1      44.382  29.792  32.492  1.00  0.00     0.049 A 
ATOM     54  C   UNL A   1      39.554  32.506  31.234  1.00  0.00     0.074 A 
ATOM     55  C   UNL A   1      45.263  30.476  33.306  1.00  0.00     0.029 A 
ATOM     56  N   UNL A   1      43.273  30.612  32.316  1.00  0.00    -0.354 N 
ATOM     57  N   UNL A   1      40.708  31.991  31.593  1.00  0.00    -0.248 NA
ATOM     58  C   UNL A   1      39.275  33.825  31.808  1.00  0.00     0.031 C 
ATOM     59  C   UNL A   1      44.667  31.690  33.661  1.00  0.00     0.029 A 
ATOM     60  C   UNL A   1      43.439  31.790  33.022  1.00  0.00     0.049 A 
ATOM     61  H   UNL A   1      42.485  30.388  31.770  1.00  0.00     0.167 HD
ATOM     62  C   UNL A   1      41.306  32.935  32.417  1.00  0.00     0.074 A 
ATOM     63  C   UNL A   1      40.389  34.058  32.487  1.00  0.00     0.031 C 
ATOM     64  C   UNL A   1      42.499  32.884  33.059  1.00  0.00     0.037 A 
BRANCH  51  65
ATOM     65  C   UNL A   1      45.748  27.668  32.222  1.00  0.00     0.058 A 
ATOM     66  C   UNL A   1      46.922  27.764  31.456  1.00  0.00     0.135 A 
ATOM     67  C   UNL A   1      45.750  26.779  33.309  1.00  0.00     0.135 A 
ATOM     68  F   UNL A   1      46.970  28.578  30.389  1.00  0.00    -0.206 F 
ATOM     69  C   UNL A   1      48.043  26.989  31.738  1.00  0.00     0.059 A 
ATOM     70  C   UNL A   1      46.872  26.018  33.630  1.00  0.00     0.059 A 
ATOM     71  F   UNL A   1      44.652  26.637  34.068  1.00  0.00    -0.206 F 
ATOM     72  C   UNL A   1      48.008  26.122  32.831  1.00  0.00     0.060 A 
BRANCH  72  73
ATOM     73  S   UNL A   1      49.478  25.139  33.193  1.00  0.00     0.124 S 
ATOM     74  O   UNL A   1      50.250  26.062  34.019  1.00  0.00    -0.237 OA
ATOM     75  O   UNL A   1      48.916  23.986  33.888  1.00  0.00    -0.237 OA
ATOM     76  O   UNL A   1      50.036  24.862  31.873  1.00  0.00    -0.744 OA
ENDBRANCH  72  73
ENDBRANCH  51  65
BRANCH  52  77
ATOM     77  C   UNL A   1      37.236  32.634  30.030  1.00  0.00     0.058 A 
ATOM     78  C   UNL A   1      37.178  33.632  29.047  1.00  0.00     0.135 A 
ATOM     79  C   UNL A   1      36.044  32.304  30.696  1.00  0.00     0.135 A 
ATOM     80  F   UNL A   1      38.289  33.980  28.377  1.00  0.00    -0.206 F 
ATOM     81  C   UNL A   1      35.992  34.295  28.748  1.00  0.00     0.059 A 
ATOM     82  C   UNL A   1      34.840  32.934  30.396  1.00  0.00     0.059 A 
ATOM     83  F   UNL A   1      36.037  31.337  31.626  1.00  0.00    -0.206 F 
ATOM     84  C   UNL A   1      34.826  33.937  29.428  1.00  0.00     0.060 A 
BRANCH  84  85
ATOM     85  S   UNL A   1      33.286  34.778  29.006  1.00  0.00     0.124 S 
ATOM     86  O   UNL A   1      33.779  36.034  28.452  1.00  0.00    -0.237 OA
ATOM     87  O   UNL A   1      32.683  33.852  28.054  1.00  0.00    -0.237 OA
ATOM     88  O   UNL A   1      32.597  34.883  30.290  1.00  0.00    -0.744 OA
ENDBRANCH  84  85
ENDBRANCH  52  77
BRANCH  64  89
ATOM     89  C   UNL A   1      42.890  34.092  33.861  1.00  0.00     0.058 A 
ATOM     90  C   UNL A   1      42.616  34.184  35.234  1.00  0.00     0.135 A 
ATOM     91  C   UNL A   1      43.598  35.142  33.256  1.00  0.00     0.135 A 
ATOM     92  F   UNL A   1      41.934  33.208  35.855  1.00  0.00    -0.206 F 
ATOM     93  C   UNL A   1      43.008  35.290  35.975  1.00  0.00     0.059 A 
ATOM     94  C   UNL A   1      44.030  36.242  33.986  1.00  0.00     0.059 A 
ATOM     95  F   UNL A   1      43.895  35.093  31.948  1.00  0.00    -0.206 F 
ATOM     96  C   UNL A   1      43.719  36.313  35.343  1.00  0.00     0.060 A 
BRANCH  96  97
ATOM     97  S   UNL A   1      44.255  37.725  36.327  1.00  0.00     0.124 S 
ATOM     98  O   UNL A   1      43.372  37.629  37.483  1.00  0.00    -0.237 OA
ATOM     99  O   UNL A   1      45.661  37.416  36.574  1.00  0.00    -0.237 OA
ATOM    100  O   UNL A   1      44.016  38.864  35.446  1.00  0.00    -0.744 OA
ENDBRANCH  96  97
ENDBRANCH  64  89
ENDBRANCH  38  39
ENDBRANCH  30  33
ENDBRANCH  28  29
ENDBRANCH   1  28
TORSDOF 17
ENDMDL
MODEL 2
REMARK VINA RESULT:     -11.4      3.076      9.312
REMARK SMILES CC(C)[C@@H](CNC(=O)[C@@H]1CC[C@@H]2CCCC[C@@H]2[NH2+]1)C(=O)NCCCNC(=O)c1ccc(-c2c3nc(c(-c4c(F)cc(S(=O)(=O)[O-])cc4F)c4ccc([nH]4)c(-c4c(F)cc(S(=O)(=O)[O-])cc4F)c4nc(c(-c5c(F)cc(S(=O)(=O)[O-])cc5F)c5ccc2[nH]5)C=C4)C=C3)cc1
REMARK SMILES IDX 23 1 22 2 21 3 19 4 20 5 4 7 2 8 1 9 3 10 5 11 6 12 7 13
REMARK SMILES IDX 8 15 9 16 10 17 18 18 11 19 17 20 12 23 16 24 13 25 15 26
REMARK SMILES IDX 14 27 24 28 25 29 26 30 27 32 28 33 29 34 93 35 30 36 92 37
REMARK SMILES IDX 31 38 32 39 33 40 86 41 34 42 91 43 85 44 87 45 35 46 90 47
REMARK SMILES IDX 84 48 83 49 36 51 70 52 49 53 69 54 50 55 53 56 68 57 88 58
REMARK SMILES IDX 51 59 52 60 67 62 89 63 54 64 37 65 38 66 47 67 39 68 40 69
REMARK SMILES IDX 46 70 48 71 41 72 42 73 43 74 44 75 45 76 71 77 72 78 81 79
REMARK SMILES IDX 73 80 74 81 80 82 82 83 75 84 76 85 77 86 78 87 79 88 55 89
REMARK SMILES IDX 56 90 65 91 57 92 58 93 64 94 66 95 59 96 60 97 61 98 62 99
REMARK SMILES IDX 63 100
REMARK H PARENT 21 6 6 14 18 21 18 22 25 31 87 50 53 61
REMARK Flexibility Score: inf
ROOT
ATOM      1  C   UNL A   1      33.818  28.631  25.519  1.00  0.00     0.042 C 
ENDROOT
BRANCH   1   2
ATOM      2  C   UNL A   1      32.432  28.660  24.900  1.00  0.00     0.117 C 
BRANCH   2   3
ATOM      3  N   UNL A   1      31.518  27.716  25.517  1.00  0.00    -0.356 N 
ATOM      4  C   UNL A   1      30.531  26.956  24.974  1.00  0.00     0.225 C 
ATOM      5  O   UNL A   1      30.000  26.105  25.694  1.00  0.00    -0.275 OA
ATOM      6  H   UNL A   1      31.631  27.609  26.488  1.00  0.00     0.163 HD
BRANCH   4   7
ATOM      7  C   UNL A   1      30.080  27.116  23.526  1.00  0.00     0.100 C 
BRANCH   7   8
ATOM      8  C   UNL A   1      29.588  28.558  23.210  1.00  0.00    -0.003 C 
ATOM      9  C   UNL A   1      30.283  29.184  22.003  1.00  0.00     0.008 C 
ATOM     10  C   UNL A   1      28.065  28.563  22.974  1.00  0.00     0.008 C 
ENDBRANCH   7   8
BRANCH   7  11
ATOM     11  C   UNL A   1      31.042  26.398  22.548  1.00  0.00     0.129 C 
BRANCH  11  12
ATOM     12  N   UNL A   1      31.074  24.949  22.591  1.00  0.00    -0.350 N 
ATOM     13  C   UNL A   1      32.057  24.057  22.898  1.00  0.00     0.278 C 
ATOM     14  H   UNL A   1      30.218  24.527  22.351  1.00  0.00     0.163 HD
ATOM     15  O   UNL A   1      31.668  22.891  23.057  1.00  0.00    -0.268 OA
BRANCH  13  16
ATOM     16  C   UNL A   1      33.546  24.443  23.179  1.00  0.00     0.272 C 
ATOM     17  C   UNL A   1      34.638  23.378  23.079  1.00  0.00     0.076 C 
ATOM     18  N   UNL A   1      33.653  25.196  24.466  1.00  0.00    -0.333 N 
ATOM     19  C   UNL A   1      34.765  22.498  24.313  1.00  0.00     0.016 C 
ATOM     20  C   UNL A   1      33.843  24.389  25.689  1.00  0.00     0.186 C 
ATOM     21  H   UNL A   1      32.796  25.736  24.581  1.00  0.00     0.347 HD
ATOM     22  H   UNL A   1      34.501  25.758  24.381  1.00  0.00     0.347 HD
ATOM     23  C   UNL A   1      34.985  23.365  25.552  1.00  0.00     0.048 C 
ATOM     24  C   UNL A   1      32.535  23.754  26.184  1.00  0.00     0.065 C 
ATOM     25  C   UNL A   1      35.139  22.515  26.824  1.00  0.00     0.010 C 
ATOM     26  C   UNL A   1      32.719  22.859  27.401  1.00  0.00     0.006 C 
ATOM     27  C   UNL A   1      33.840  21.839  27.231  1.00  0.00     0.001 C 
ENDBRANCH  13  16
ENDBRANCH  11  12
ENDBRANCH   7  11
ENDBRANCH   4   7
ENDBRANCH   2   3
ENDBRANCH   1   2
BRANCH   1  28
ATOM     28  C   UNL A   1      33.801  28.522  27.034  1.00  0.00     0.118 C 
BRANCH  28  29
ATOM     29  N   UNL A   1      33.690  29.819  27.689  1.00  0.00    -0.352 N 
ATOM     30  C   UNL A   1      34.617  30.568  28.366  1.00  0.00     0.251 C 
ATOM     31  H   UNL A   1      32.795  30.227  27.636  1.00  0.00     0.163 HD
ATOM     32  O   UNL A   1      34.333  31.645  28.865  1.00  0.00    -0.269 OA
BRANCH  30  33
ATOM     33  C   UNL A   1      35.966  30.050  28.550  1.00  0.00     0.039 A 
ATOM     34  C   UNL A   1      36.827  30.097  27.451  1.00  0.00     0.014 A 
ATOM     35  C   UNL A   1      36.371  29.556  29.787  1.00  0.00     0.014 A 
ATOM     36  C   UNL A   1      38.143  29.704  27.616  1.00  0.00     0.010 A 
ATOM     37  C   UNL A   1      37.706  29.270  29.978  1.00  0.00     0.010 A 
ATOM     38  C   UNL A   1      38.592  29.337  28.892  1.00  0.00    -0.014 A 
BRANCH  38  39
ATOM     39  C   UNL A   1      40.005  29.005  29.120  1.00  0.00     0.031 A 
ATOM     40  C   UNL A   1      40.919  30.067  29.642  1.00  0.00     0.074 A 
ATOM     41  C   UNL A   1      40.438  27.781  28.771  1.00  0.00     0.049 A 
ATOM     42  N   UNL A   1      42.212  30.033  29.798  1.00  0.00    -0.248 NA
ATOM     43  C   UNL A   1      40.301  31.360  29.994  1.00  0.00     0.031 C 
ATOM     44  C   UNL A   1      39.604  26.713  28.207  1.00  0.00     0.029 A 
ATOM     45  N   UNL A   1      41.688  27.230  28.826  1.00  0.00    -0.354 N 
ATOM     46  C   UNL A   1      42.566  31.299  30.242  1.00  0.00     0.074 A 
ATOM     47  C   UNL A   1      41.365  32.100  30.269  1.00  0.00     0.031 C 
ATOM     48  C   UNL A   1      40.362  25.627  27.993  1.00  0.00     0.029 A 
ATOM     49  C   UNL A   1      41.738  25.939  28.357  1.00  0.00     0.049 A 
ATOM     50  H   UNL A   1      42.476  27.710  29.168  1.00  0.00     0.167 HD
ATOM     51  C   UNL A   1      43.788  31.735  30.617  1.00  0.00     0.037 A 
ATOM     52  C   UNL A   1      42.791  25.112  28.228  1.00  0.00     0.037 A 
ATOM     53  C   UNL A   1      44.955  30.894  30.602  1.00  0.00     0.049 A 
ATOM     54  C   UNL A   1      44.137  25.619  28.664  1.00  0.00     0.074 A 
ATOM     55  C   UNL A   1      46.241  31.196  31.005  1.00  0.00     0.029 A 
ATOM     56  N   UNL A   1      44.968  29.578  30.156  1.00  0.00    -0.354 N 
ATOM     57  N   UNL A   1      44.455  26.802  29.137  1.00  0.00    -0.248 NA
ATOM     58  C   UNL A   1      45.262  24.686  28.559  1.00  0.00     0.031 C 
ATOM     59  C   UNL A   1      47.042  30.076  30.759  1.00  0.00     0.029 A 
ATOM     60  C   UNL A   1      46.246  29.057  30.257  1.00  0.00     0.049 A 
ATOM     61  H   UNL A   1      44.184  29.088  29.818  1.00  0.00     0.167 HD
ATOM     62  C   UNL A   1      45.815  26.748  29.411  1.00  0.00     0.074 A 
ATOM     63  C   UNL A   1      46.252  25.409  29.064  1.00  0.00     0.031 C 
ATOM     64  C   UNL A   1      46.633  27.713  29.902  1.00  0.00     0.037 A 
BRANCH  51  65
ATOM     65  C   UNL A   1      43.913  33.164  31.066  1.00  0.00     0.058 A 
ATOM     66  C   UNL A   1      43.798  33.529  32.418  1.00  0.00     0.135 A 
ATOM     67  C   UNL A   1      44.158  34.185  30.134  1.00  0.00     0.135 A 
ATOM     68  F   UNL A   1      43.538  32.599  33.351  1.00  0.00    -0.206 F 
ATOM     69  C   UNL A   1      43.895  34.856  32.826  1.00  0.00     0.059 A 
ATOM     70  C   UNL A   1      44.291  35.515  30.524  1.00  0.00     0.059 A 
ATOM     71  F   UNL A   1      44.264  33.896  28.828  1.00  0.00    -0.206 F 
ATOM     72  C   UNL A   1      44.145  35.841  31.871  1.00  0.00     0.060 A 
BRANCH  72  73
ATOM     73  S   UNL A   1      44.285  37.554  32.421  1.00  0.00     0.124 S 
ATOM     74  O   UNL A   1      45.694  37.626  32.795  1.00  0.00    -0.237 OA
ATOM     75  O   UNL A   1      43.910  38.297  31.222  1.00  0.00    -0.237 OA
ATOM     76  O   UNL A   1      43.337  37.634  33.528  1.00  0.00    -0.744 OA
ENDBRANCH  72  73
ENDBRANCH  51  65
BRANCH  52  77
ATOM     77  C   UNL A   1      42.599  23.739  27.694  1.00  0.00     0.058 A 
ATOM     78  C   UNL A   1      42.604  23.496  26.313  1.00  0.00     0.135 A 
ATOM     79  C   UNL A   1      42.447  22.637  28.550  1.00  0.00     0.135 A 
ATOM     80  F   UNL A   1      42.753  24.516  25.453  1.00  0.00    -0.206 F 
ATOM     81  C   UNL A   1      42.442  22.214  25.796  1.00  0.00     0.059 A 
ATOM     82  C   UNL A   1      42.309  21.342  28.059  1.00  0.00     0.059 A 
ATOM     83  F   UNL A   1      42.463  22.809  29.881  1.00  0.00    -0.206 F 
ATOM     84  C   UNL A   1      42.296  21.142  26.679  1.00  0.00     0.060 A 
BRANCH  84  85
ATOM     85  S   UNL A   1      42.124  19.479  25.998  1.00  0.00     0.124 S 
ATOM     86  O   UNL A   1      40.700  19.437  25.685  1.00  0.00    -0.237 OA
ATOM     87  O   UNL A   1      43.029  19.521  24.855  1.00  0.00    -0.237 OA
ATOM     88  O   UNL A   1      42.553  18.620  27.098  1.00  0.00    -0.744 OA
ENDBRANCH  84  85
ENDBRANCH  52  77
BRANCH  64  89
ATOM     89  C   UNL A   1      48.069  27.337  30.123  1.00  0.00     0.058 A 
ATOM     90  C   UNL A   1      49.048  27.563  29.144  1.00  0.00     0.135 A 
ATOM     91  C   UNL A   1      48.476  26.795  31.353  1.00  0.00     0.135 A 
ATOM     92  F   UNL A   1      48.706  28.072  27.949  1.00  0.00    -0.206 F 
ATOM     93  C   UNL A   1      50.380  27.241  29.368  1.00  0.00     0.059 A 
ATOM     94  C   UNL A   1      49.809  26.499  31.610  1.00  0.00     0.059 A 
ATOM     95  F   UNL A   1      47.578  26.573  32.325  1.00  0.00    -0.206 F 
ATOM     96  C   UNL A   1      50.751  26.713  30.606  1.00  0.00     0.060 A 
BRANCH  96  97
ATOM     97  S   UNL A   1      52.491  26.336  30.896  1.00  0.00     0.124 S 
ATOM     98  O   UNL A   1      52.999  26.232  29.533  1.00  0.00    -0.237 OA
ATOM     99  O   UNL A   1      52.939  27.501  31.654  1.00  0.00    -0.237 OA
ATOM    100  O   UNL A   1      52.447  25.085  31.647  1.00  0.00    -0.744 OA
ENDBRANCH  96  97
ENDBRANCH  64  89
ENDBRANCH  38  39
ENDBRANCH  30  33
ENDBRANCH  28  29
ENDBRANCH   1  28
TORSDOF 17
ENDMDL
MODEL 3
REMARK VINA RESULT:     -11.2      4.862     11.623
REMARK SMILES CC(C)[C@@H](CNC(=O)[C@@H]1CC[C@@H]2CCCC[C@@H]2[NH2+]1)C(=O)NCCCNC(=O)c1ccc(-c2c3nc(c(-c4c(F)cc(S(=O)(=O)[O-])cc4F)c4ccc([nH]4)c(-c4c(F)cc(S(=O)(=O)[O-])cc4F)c4nc(c(-c5c(F)cc(S(=O)(=O)[O-])cc5F)c5ccc2[nH]5)C=C4)C=C3)cc1
REMARK SMILES IDX 23 1 22 2 21 3 19 4 20 5 4 7 2 8 1 9 3 10 5 11 6 12 7 13
REMARK SMILES IDX 8 15 9 16 10 17 18 18 11 19 17 20 12 23 16 24 13 25 15 26
REMARK SMILES IDX 14 27 24 28 25 29 26 30 27 32 28 33 29 34 93 35 30 36 92 37
REMARK SMILES IDX 31 38 32 39 33 40 86 41 34 42 91 43 85 44 87 45 35 46 90 47
REMARK SMILES IDX 84 48 83 49 36 51 70 52 49 53 69 54 50 55 53 56 68 57 88 58
REMARK SMILES IDX 51 59 52 60 67 62 89 63 54 64 37 65 38 66 47 67 39 68 40 69
REMARK SMILES IDX 46 70 48 71 41 72 42 73 43 74 44 75 45 76 71 77 72 78 81 79
REMARK SMILES IDX 73 80 74 81 80 82 82 83 75 84 76 85 77 86 78 87 79 88 55 89
REMARK SMILES IDX 56 90 65 91 57 92 58 93 64 94 66 95 59 96 60 97 61 98 62 99
REMARK SMILES IDX 63 100
REMARK H PARENT 21 6 6 14 18 21 18 22 25 31 87 50 53 61
REMARK Flexibility Score: inf
ROOT
ATOM      1  C   UNL A   1      34.746  34.329  27.930  1.00  0.00     0.042 C 
ENDROOT
BRANCH   1   2
ATOM      2  C   UNL A   1      33.871  34.769  29.090  1.00  0.00     0.117 C 
BRANCH   2   3
ATOM      3  N   UNL A   1      33.877  33.826  30.193  1.00  0.00    -0.356 N 
ATOM      4  C   UNL A   1      34.118  34.013  31.517  1.00  0.00     0.225 C 
ATOM      5  O   UNL A   1      33.899  33.067  32.280  1.00  0.00    -0.275 OA
ATOM      6  H   UNL A   1      33.672  32.896  29.941  1.00  0.00     0.163 HD
BRANCH   4   7
ATOM      7  C   UNL A   1      34.631  35.336  32.074  1.00  0.00     0.100 C 
BRANCH   7   8
ATOM      8  C   UNL A   1      33.479  36.281  32.523  1.00  0.00    -0.003 C 
ATOM      9  C   UNL A   1      33.736  36.951  33.872  1.00  0.00     0.008 C 
ATOM     10  C   UNL A   1      33.233  37.368  31.458  1.00  0.00     0.008 C 
ENDBRANCH   7   8
BRANCH   7  11
ATOM     11  C   UNL A   1      35.860  35.129  32.993  1.00  0.00     0.129 C 
BRANCH  11  12
ATOM     12  N   UNL A   1      37.135  34.879  32.349  1.00  0.00    -0.350 N 
ATOM     13  C   UNL A   1      38.324  34.400  32.813  1.00  0.00     0.278 C 
ATOM     14  H   UNL A   1      37.144  35.098  31.390  1.00  0.00     0.163 HD
ATOM     15  O   UNL A   1      39.140  34.097  31.931  1.00  0.00    -0.268 OA
BRANCH  13  16
ATOM     16  C   UNL A   1      38.632  34.105  34.318  1.00  0.00     0.272 C 
ATOM     17  C   UNL A   1      40.082  33.971  34.783  1.00  0.00     0.076 C 
ATOM     18  N   UNL A   1      37.809  32.953  34.799  1.00  0.00    -0.333 N 
ATOM     19  C   UNL A   1      40.697  32.605  34.518  1.00  0.00     0.016 C 
ATOM     20  C   UNL A   1      38.392  31.607  34.624  1.00  0.00     0.186 C 
ATOM     21  H   UNL A   1      36.923  32.974  34.297  1.00  0.00     0.347 HD
ATOM     22  H   UNL A   1      37.729  33.082  35.808  1.00  0.00     0.347 HD
ATOM     23  C   UNL A   1      39.835  31.513  35.152  1.00  0.00     0.048 C 
ATOM     24  C   UNL A   1      38.253  31.088  33.186  1.00  0.00     0.065 C 
ATOM     25  C   UNL A   1      40.431  30.113  34.927  1.00  0.00     0.010 C 
ATOM     26  C   UNL A   1      38.910  29.734  32.964  1.00  0.00     0.006 C 
ATOM     27  C   UNL A   1      40.347  29.674  33.475  1.00  0.00     0.001 C 
ENDBRANCH  13  16
ENDBRANCH  11  12
ENDBRANCH   7  11
ENDBRANCH   4   7
ENDBRANCH   2   3
ENDBRANCH   1   2
BRANCH   1  28
ATOM     28  C   UNL A   1      35.386  32.967  28.139  1.00  0.00     0.118 C 
BRANCH  28  29
ATOM     29  N   UNL A   1      34.470  31.869  27.857  1.00  0.00    -0.352 N 
ATOM     30  C   UNL A   1      34.664  30.512  27.858  1.00  0.00     0.251 C 
ATOM     31  H   UNL A   1      33.555  32.150  27.625  1.00  0.00     0.163 HD
ATOM     32  O   UNL A   1      33.766  29.734  27.580  1.00  0.00    -0.269 OA
BRANCH  30  33
ATOM     33  C   UNL A   1      35.988  29.974  28.142  1.00  0.00     0.039 A 
ATOM     34  C   UNL A   1      36.923  29.990  27.104  1.00  0.00     0.014 A 
ATOM     35  C   UNL A   1      36.299  29.493  29.411  1.00  0.00     0.014 A 
ATOM     36  C   UNL A   1      38.217  29.577  27.365  1.00  0.00     0.010 A 
ATOM     37  C   UNL A   1      37.612  29.188  29.697  1.00  0.00     0.010 A 
ATOM     38  C   UNL A   1      38.571  29.223  28.673  1.00  0.00    -0.014 A 
BRANCH  38  39
ATOM     39  C   UNL A   1      39.959  28.871  29.003  1.00  0.00     0.031 A 
ATOM     40  C   UNL A   1      40.843  29.916  29.606  1.00  0.00     0.074 A 
ATOM     41  C   UNL A   1      40.404  27.646  28.671  1.00  0.00     0.049 A 
ATOM     42  N   UNL A   1      42.120  29.863  29.858  1.00  0.00    -0.248 NA
ATOM     43  C   UNL A   1      40.215  31.211  29.928  1.00  0.00     0.031 C 
ATOM     44  C   UNL A   1      39.602  26.596  28.032  1.00  0.00     0.029 A 
ATOM     45  N   UNL A   1      41.639  27.079  28.813  1.00  0.00    -0.354 N 
ATOM     46  C   UNL A   1      42.454  31.119  30.344  1.00  0.00     0.074 A 
ATOM     47  C   UNL A   1      41.263  31.935  30.291  1.00  0.00     0.031 C 
ATOM     48  C   UNL A   1      40.362  25.503  27.862  1.00  0.00     0.029 A 
ATOM     49  C   UNL A   1      41.710  25.794  28.332  1.00  0.00     0.049 A 
ATOM     50  H   UNL A   1      42.404  27.546  29.220  1.00  0.00     0.167 HD
ATOM     51  C   UNL A   1      43.650  31.536  30.815  1.00  0.00     0.037 A 
ATOM     52  C   UNL A   1      42.760  24.956  28.271  1.00  0.00     0.037 A 
ATOM     53  C   UNL A   1      44.804  30.681  30.877  1.00  0.00     0.049 A 
ATOM     54  C   UNL A   1      44.075  25.441  28.814  1.00  0.00     0.074 A 
ATOM     55  C   UNL A   1      46.059  30.962  31.380  1.00  0.00     0.029 A 
ATOM     56  N   UNL A   1      44.837  29.370  30.416  1.00  0.00    -0.354 N 
ATOM     57  N   UNL A   1      44.370  26.614  29.325  1.00  0.00    -0.248 NA
ATOM     58  C   UNL A   1      45.194  24.495  28.781  1.00  0.00     0.031 C 
ATOM     59  C   UNL A   1      46.864  29.836  31.180  1.00  0.00     0.029 A 
ATOM     60  C   UNL A   1      46.097  28.833  30.605  1.00  0.00     0.049 A 
ATOM     61  H   UNL A   1      44.074  28.894  30.013  1.00  0.00     0.167 HD
ATOM     62  C   UNL A   1      45.705  26.540  29.700  1.00  0.00     0.074 A 
ATOM     63  C   UNL A   1      46.151  25.200  29.369  1.00  0.00     0.031 C 
ATOM     64  C   UNL A   1      46.494  27.489  30.263  1.00  0.00     0.037 A 
BRANCH  51  65
ATOM     65  C   UNL A   1      43.756  32.958  31.291  1.00  0.00     0.058 A 
ATOM     66  C   UNL A   1      43.780  33.282  32.658  1.00  0.00     0.135 A 
ATOM     67  C   UNL A   1      43.843  34.013  30.369  1.00  0.00     0.135 A 
ATOM     68  F   UNL A   1      43.675  32.317  33.586  1.00  0.00    -0.206 F 
ATOM     69  C   UNL A   1      43.859  34.601  33.094  1.00  0.00     0.059 A 
ATOM     70  C   UNL A   1      43.955  35.338  30.783  1.00  0.00     0.059 A 
ATOM     71  F   UNL A   1      43.811  33.763  29.051  1.00  0.00    -0.206 F 
ATOM     72  C   UNL A   1      43.950  35.622  32.147  1.00  0.00     0.060 A 
BRANCH  72  73
ATOM     73  S   UNL A   1      44.070  37.326  32.730  1.00  0.00     0.124 S 
ATOM     74  O   UNL A   1      42.938  37.401  33.648  1.00  0.00    -0.237 OA
ATOM     75  O   UNL A   1      45.390  37.349  33.349  1.00  0.00    -0.237 OA
ATOM     76  O   UNL A   1      43.939  38.113  31.508  1.00  0.00    -0.744 OA
ENDBRANCH  72  73
ENDBRANCH  51  65
BRANCH  52  77
ATOM     77  C   UNL A   1      42.594  23.592  27.706  1.00  0.00     0.058 A 
ATOM     78  C   UNL A   1      42.678  23.369  26.324  1.00  0.00     0.135 A 
ATOM     79  C   UNL A   1      42.387  22.477  28.535  1.00  0.00     0.135 A 
ATOM     80  F   UNL A   1      42.881  24.401  25.489  1.00  0.00    -0.206 F 
ATOM     81  C   UNL A   1      42.540  22.096  25.780  1.00  0.00     0.059 A 
ATOM     82  C   UNL A   1      42.273  21.191  28.018  1.00  0.00     0.059 A 
ATOM     83  F   UNL A   1      42.328  22.630  29.867  1.00  0.00    -0.206 F 
ATOM     84  C   UNL A   1      42.339  21.012  26.636  1.00  0.00     0.060 A 
BRANCH  84  85
ATOM     85  S   UNL A   1      42.199  19.360  25.922  1.00  0.00     0.124 S 
ATOM     86  O   UNL A   1      42.718  18.529  27.001  1.00  0.00    -0.237 OA
ATOM     87  O   UNL A   1      40.765  19.257  25.669  1.00  0.00    -0.237 OA
ATOM     88  O   UNL A   1      43.035  19.438  24.727  1.00  0.00    -0.744 OA
ENDBRANCH  84  85
ENDBRANCH  52  77
BRANCH  64  89
ATOM     89  C   UNL A   1      47.906  27.092  30.586  1.00  0.00     0.058 A 
ATOM     90  C   UNL A   1      48.964  27.355  29.705  1.00  0.00     0.135 A 
ATOM     91  C   UNL A   1      48.206  26.493  31.820  1.00  0.00     0.135 A 
ATOM     92  F   UNL A   1      48.726  27.919  28.509  1.00  0.00    -0.206 F 
ATOM     93  C   UNL A   1      50.272  27.014  30.024  1.00  0.00     0.059 A 
ATOM     94  C   UNL A   1      49.511  26.175  32.175  1.00  0.00     0.059 A 
ATOM     95  F   UNL A   1      47.228  26.234  32.703  1.00  0.00    -0.206 F 
ATOM     96  C   UNL A   1      50.536  26.428  31.264  1.00  0.00     0.060 A 
BRANCH  96  97
ATOM     97  S   UNL A   1      52.243  26.025  31.681  1.00  0.00     0.124 S 
ATOM     98  O   UNL A   1      52.557  27.059  32.660  1.00  0.00    -0.237 OA
ATOM     99  O   UNL A   1      52.123  24.667  32.207  1.00  0.00    -0.237 OA
ATOM    100  O   UNL A   1      52.940  26.136  30.403  1.00  0.00    -0.744 OA
ENDBRANCH  96  97
ENDBRANCH  64  89
ENDBRANCH  38  39
ENDBRANCH  30  33
ENDBRANCH  28  29
ENDBRANCH   1  28
TORSDOF 17
ENDMDL
