MODEL 1
REMARK VINA RESULT:     -11.5      0.000      0.000
REMARK SMILES O=C(NCCCNC(=O)[C@@H]1C=C[C@@H](NC(=O)[C@@H]2CCS(=O)(=O)C2)C1)c1ccc(-c2c3nc(c(-c4c(F)cc(S(=O)(=O)[O-])cc4F)c4ccc([nH]4)c(-c4c(F)cc(S(=O)(=O)[O-])cc4F)c4nc(c(-c5c(F)cc(S(=O)(=O)[O-])cc5F)c5ccc2[nH]5)C=C4)C=C3)cc1
REMARK SMILES IDX 4 1 3 2 1 3 2 4 25 6 26 7 90 8 27 9 89 10 28 11 29 12 30 13
REMARK SMILES IDX 83 14 31 15 88 16 82 17 84 18 32 19 87 20 81 21 80 22 33 24
REMARK SMILES IDX 67 25 46 26 66 27 47 28 50 29 65 30 85 31 48 32 49 33 64 35
REMARK SMILES IDX 86 36 51 37 34 38 35 39 44 40 36 41 37 42 43 43 45 44 38 45
REMARK SMILES IDX 39 46 40 47 41 48 42 49 68 50 69 51 78 52 70 53 71 54 77 55
REMARK SMILES IDX 79 56 72 57 73 58 74 59 75 60 76 61 52 62 53 63 62 64 54 65
REMARK SMILES IDX 55 66 61 67 63 68 56 69 57 70 58 71 59 72 60 73 5 74 6 75
REMARK SMILES IDX 7 76 8 77 9 79 10 80 11 81 24 82 12 83 13 84 14 85 15 86
REMARK SMILES IDX 16 88 17 89 18 90 23 91 19 92 20 93 21 94 22 95
REMARK H PARENT 3 5 84 23 50 34 7 78 14 87
REMARK Flexibility Score: inf
ROOT
ATOM      1  C   UNL A   1      34.589  32.319  28.961  1.00  0.00     0.118 C 
ENDROOT
BRANCH   1   2
ATOM      2  N   UNL A   1      34.072  31.073  28.411  1.00  0.00    -0.352 N 
ATOM      3  O   UNL A   1      34.121  29.059  27.413  1.00  0.00    -0.269 OA
ATOM      4  C   UNL A   1      34.730  29.927  28.031  1.00  0.00     0.251 C 
ATOM      5  H   UNL A   1      33.095  31.047  28.291  1.00  0.00     0.163 HD
BRANCH   4   6
ATOM      6  C   UNL A   1      36.167  29.752  28.340  1.00  0.00     0.039 A 
ATOM      7  C   UNL A   1      37.142  30.035  27.383  1.00  0.00     0.014 A 
ATOM      8  C   UNL A   1      36.548  29.300  29.606  1.00  0.00     0.014 A 
ATOM      9  C   UNL A   1      38.463  29.682  27.618  1.00  0.00     0.010 A 
ATOM     10  C   UNL A   1      37.899  29.056  29.881  1.00  0.00     0.010 A 
ATOM     11  C   UNL A   1      38.864  29.197  28.873  1.00  0.00    -0.014 A 
BRANCH  11  12
ATOM     12  C   UNL A   1      40.299  28.879  29.101  1.00  0.00     0.031 A 
ATOM     13  C   UNL A   1      40.884  27.557  28.678  1.00  0.00     0.074 A 
ATOM     14  C   UNL A   1      41.091  29.821  29.652  1.00  0.00     0.049 A 
ATOM     15  N   UNL A   1      42.124  27.143  28.752  1.00  0.00    -0.248 NA
ATOM     16  C   UNL A   1      39.960  26.564  28.108  1.00  0.00     0.031 C 
ATOM     17  C   UNL A   1      40.638  31.137  30.115  1.00  0.00     0.029 A 
ATOM     18  N   UNL A   1      42.441  29.835  29.895  1.00  0.00    -0.354 N 
ATOM     19  C   UNL A   1      42.127  25.842  28.264  1.00  0.00     0.074 A 
ATOM     20  C   UNL A   1      40.759  25.521  27.921  1.00  0.00     0.031 C 
ATOM     21  C   UNL A   1      41.697  31.849  30.524  1.00  0.00     0.029 A 
ATOM     22  C   UNL A   1      42.892  31.022  30.424  1.00  0.00     0.049 A 
ATOM     23  H   UNL A   1      43.031  29.070  29.708  1.00  0.00     0.167 HD
ATOM     24  C   UNL A   1      43.176  24.996  28.107  1.00  0.00     0.037 A 
ATOM     25  C   UNL A   1      44.128  31.401  30.800  1.00  0.00     0.037 A 
ATOM     26  C   UNL A   1      44.539  25.332  28.436  1.00  0.00     0.049 A 
ATOM     27  C   UNL A   1      45.268  30.438  30.631  1.00  0.00     0.074 A 
ATOM     28  C   UNL A   1      45.678  24.561  28.273  1.00  0.00     0.029 A 
ATOM     29  N   UNL A   1      44.950  26.532  28.999  1.00  0.00    -0.354 N 
ATOM     30  N   UNL A   1      45.255  29.227  30.128  1.00  0.00    -0.248 NA
ATOM     31  C   UNL A   1      46.590  30.894  31.079  1.00  0.00     0.031 C 
ATOM     32  C   UNL A   1      46.766  25.269  28.793  1.00  0.00     0.029 A 
ATOM     33  C   UNL A   1      46.319  26.510  29.217  1.00  0.00     0.049 A 
ATOM     34  H   UNL A   1      44.357  27.287  29.215  1.00  0.00     0.167 HD
ATOM     35  C   UNL A   1      46.573  28.786  30.171  1.00  0.00     0.074 A 
ATOM     36  C   UNL A   1      47.356  29.868  30.735  1.00  0.00     0.031 C 
ATOM     37  C   UNL A   1      47.089  27.596  29.775  1.00  0.00     0.037 A 
BRANCH  24  38
ATOM     38  C   UNL A   1      42.893  23.612  27.581  1.00  0.00     0.058 A 
ATOM     39  C   UNL A   1      42.933  23.311  26.210  1.00  0.00     0.135 A 
ATOM     40  C   UNL A   1      42.619  22.559  28.471  1.00  0.00     0.135 A 
ATOM     41  F   UNL A   1      43.176  24.278  25.312  1.00  0.00    -0.206 F 
ATOM     42  C   UNL A   1      42.683  22.025  25.739  1.00  0.00     0.059 A 
ATOM     43  C   UNL A   1      42.396  21.260  28.024  1.00  0.00     0.059 A 
ATOM     44  F   UNL A   1      42.571  22.785  29.793  1.00  0.00    -0.206 F 
ATOM     45  C   UNL A   1      42.413  21.006  26.654  1.00  0.00     0.060 A 
BRANCH  45  46
ATOM     46  S   UNL A   1      42.085  19.346  26.025  1.00  0.00     0.124 S 
ATOM     47  O   UNL A   1      42.960  19.301  24.856  1.00  0.00    -0.237 OA
ATOM     48  O   UNL A   1      42.486  18.502  27.147  1.00  0.00    -0.237 OA
ATOM     49  O   UNL A   1      40.655  19.366  25.737  1.00  0.00    -0.744 OA
ENDBRANCH  45  46
ENDBRANCH  24  38
BRANCH  25  50
ATOM     50  C   UNL A   1      44.345  32.760  31.365  1.00  0.00     0.058 A 
ATOM     51  C   UNL A   1      44.682  33.842  30.538  1.00  0.00     0.135 A 
ATOM     52  C   UNL A   1      44.205  33.007  32.740  1.00  0.00     0.135 A 
ATOM     53  F   UNL A   1      44.830  33.659  29.218  1.00  0.00    -0.206 F 
ATOM     54  C   UNL A   1      44.889  35.116  31.057  1.00  0.00     0.059 A 
ATOM     55  C   UNL A   1      44.376  34.277  33.277  1.00  0.00     0.059 A 
ATOM     56  F   UNL A   1      43.866  32.008  33.571  1.00  0.00    -0.206 F 
ATOM     57  C   UNL A   1      44.730  35.325  32.427  1.00  0.00     0.060 A 
BRANCH  57  58
ATOM     58  S   UNL A   1      44.959  36.990  33.083  1.00  0.00     0.124 S 
ATOM     59  O   UNL A   1      43.870  37.713  32.436  1.00  0.00    -0.237 OA
ATOM     60  O   UNL A   1      44.820  36.775  34.520  1.00  0.00    -0.237 OA
ATOM     61  O   UNL A   1      46.304  37.345  32.637  1.00  0.00    -0.744 OA
ENDBRANCH  57  58
ENDBRANCH  25  50
BRANCH  37  62
ATOM     62  C   UNL A   1      48.579  27.419  29.889  1.00  0.00     0.058 A 
ATOM     63  C   UNL A   1      49.452  27.758  28.843  1.00  0.00     0.135 A 
ATOM     64  C   UNL A   1      49.143  26.924  31.077  1.00  0.00     0.135 A 
ATOM     65  F   UNL A   1      48.967  28.229  27.683  1.00  0.00    -0.206 F 
ATOM     66  C   UNL A   1      50.826  27.574  28.956  1.00  0.00     0.059 A 
ATOM     67  C   UNL A   1      50.516  26.764  31.224  1.00  0.00     0.059 A 
ATOM     68  F   UNL A   1      48.355  26.595  32.114  1.00  0.00    -0.206 F 
ATOM     69  C   UNL A   1      51.349  27.076  30.151  1.00  0.00     0.060 A 
BRANCH  69  70
ATOM     70  S   UNL A   1      53.134  26.854  30.290  1.00  0.00     0.124 S 
ATOM     71  O   UNL A   1      53.493  26.496  28.921  1.00  0.00    -0.237 OA
ATOM     72  O   UNL A   1      53.579  28.169  30.739  1.00  0.00    -0.237 OA
ATOM     73  O   UNL A   1      53.269  25.784  31.274  1.00  0.00    -0.744 OA
ENDBRANCH  69  70
ENDBRANCH  37  62
ENDBRANCH  11  12
ENDBRANCH   4   6
ENDBRANCH   1   2
BRANCH   1  74
ATOM     74  C   UNL A   1      34.454  33.490  27.997  1.00  0.00     0.042 C 
BRANCH  74  75
ATOM     75  C   UNL A   1      33.149  34.263  28.159  1.00  0.00     0.117 C 
BRANCH  75  76
ATOM     76  N   UNL A   1      33.395  35.666  28.444  1.00  0.00    -0.356 N 
ATOM     77  C   UNL A   1      33.165  36.360  29.596  1.00  0.00     0.227 C 
ATOM     78  H   UNL A   1      33.780  36.188  27.703  1.00  0.00     0.163 HD
ATOM     79  O   UNL A   1      33.320  37.582  29.584  1.00  0.00    -0.274 OA
BRANCH  77  80
ATOM     80  C   UNL A   1      32.764  35.590  30.858  1.00  0.00     0.103 C 
ATOM     81  C   UNL A   1      32.260  36.502  31.938  1.00  0.00    -0.016 C 
ATOM     82  C   UNL A   1      33.975  34.928  31.535  1.00  0.00     0.047 C 
ATOM     83  C   UNL A   1      33.142  36.647  32.932  1.00  0.00    -0.006 C 
ATOM     84  C   UNL A   1      34.380  35.859  32.689  1.00  0.00     0.106 C 
BRANCH  84  85
ATOM     85  N   UNL A   1      34.669  35.096  33.882  1.00  0.00    -0.350 N 
ATOM     86  C   UNL A   1      35.757  34.349  34.195  1.00  0.00     0.224 C 
ATOM     87  H   UNL A   1      33.968  35.122  34.574  1.00  0.00     0.164 HD
ATOM     88  O   UNL A   1      35.685  33.580  35.152  1.00  0.00    -0.275 OA
BRANCH  86  89
ATOM     89  C   UNL A   1      37.047  34.531  33.413  1.00  0.00     0.094 C 
ATOM     90  C   UNL A   1      37.089  33.655  32.154  1.00  0.00     0.030 C 
ATOM     91  C   UNL A   1      38.233  34.114  34.283  1.00  0.00     0.150 C 
ATOM     92  C   UNL A   1      37.389  32.221  32.579  1.00  0.00     0.138 C 
ATOM     93  S   UNL A   1      38.468  32.364  33.991  1.00  0.00     0.151 S 
ATOM     94  O   UNL A   1      37.910  31.615  35.097  1.00  0.00    -0.229 OA
ATOM     95  O   UNL A   1      39.829  32.159  33.538  1.00  0.00    -0.229 OA
ENDBRANCH  86  89
ENDBRANCH  84  85
ENDBRANCH  77  80
ENDBRANCH  75  76
ENDBRANCH  74  75
ENDBRANCH   1  74
TORSDOF 15
ENDMDL
MODEL 2
REMARK VINA RESULT:     -11.2      5.385     11.524
REMARK SMILES O=C(NCCCNC(=O)[C@@H]1C=C[C@@H](NC(=O)[C@@H]2CCS(=O)(=O)C2)C1)c1ccc(-c2c3nc(c(-c4c(F)cc(S(=O)(=O)[O-])cc4F)c4ccc([nH]4)c(-c4c(F)cc(S(=O)(=O)[O-])cc4F)c4nc(c(-c5c(F)cc(S(=O)(=O)[O-])cc5F)c5ccc2[nH]5)C=C4)C=C3)cc1
REMARK SMILES IDX 4 1 3 2 1 3 2 4 25 6 26 7 90 8 27 9 89 10 28 11 29 12 30 13
REMARK SMILES IDX 83 14 31 15 88 16 82 17 84 18 32 19 87 20 81 21 80 22 33 24
REMARK SMILES IDX 67 25 46 26 66 27 47 28 50 29 65 30 85 31 48 32 49 33 64 35
REMARK SMILES IDX 86 36 51 37 34 38 35 39 44 40 36 41 37 42 43 43 45 44 38 45
REMARK SMILES IDX 39 46 40 47 41 48 42 49 68 50 69 51 78 52 70 53 71 54 77 55
REMARK SMILES IDX 79 56 72 57 73 58 74 59 75 60 76 61 52 62 53 63 62 64 54 65
REMARK SMILES IDX 55 66 61 67 63 68 56 69 57 70 58 71 59 72 60 73 5 74 6 75
REMARK SMILES IDX 7 76 8 77 9 79 10 80 11 81 24 82 12 83 13 84 14 85 15 86
REMARK SMILES IDX 16 88 17 89 18 90 23 91 19 92 20 93 21 94 22 95
REMARK H PARENT 3 5 84 23 50 34 7 78 14 87
REMARK Flexibility Score: inf
ROOT
ATOM      1  C   UNL A   1      40.491  23.214  27.114  1.00  0.00     0.118 C 
ENDROOT
BRANCH   1   2
ATOM      2  N   UNL A   1      41.293  23.920  26.124  1.00  0.00    -0.352 N 
ATOM      3  O   UNL A   1      42.147  25.672  25.004  1.00  0.00    -0.269 OA
ATOM      4  C   UNL A   1      41.612  25.254  26.026  1.00  0.00     0.251 C 
ATOM      5  H   UNL A   1      41.665  23.353  25.411  1.00  0.00     0.163 HD
BRANCH   4   6
ATOM      6  C   UNL A   1      41.289  26.185  27.131  1.00  0.00     0.039 A 
ATOM      7  C   UNL A   1      41.983  27.387  27.278  1.00  0.00     0.014 A 
ATOM      8  C   UNL A   1      40.275  25.854  28.034  1.00  0.00     0.014 A 
ATOM      9  C   UNL A   1      41.805  28.151  28.423  1.00  0.00     0.010 A 
ATOM     10  C   UNL A   1      40.016  26.689  29.127  1.00  0.00     0.010 A 
ATOM     11  C   UNL A   1      40.813  27.820  29.359  1.00  0.00    -0.014 A 
BRANCH  11  12
ATOM     12  C   UNL A   1      40.619  28.695  30.547  1.00  0.00     0.031 A 
ATOM     13  C   UNL A   1      41.514  28.584  31.753  1.00  0.00     0.074 A 
ATOM     14  C   UNL A   1      39.651  29.633  30.509  1.00  0.00     0.049 A 
ATOM     15  N   UNL A   1      41.517  29.307  32.846  1.00  0.00    -0.248 NA
ATOM     16  C   UNL A   1      42.532  27.523  31.741  1.00  0.00     0.031 C 
ATOM     17  C   UNL A   1      38.712  29.829  29.401  1.00  0.00     0.029 A 
ATOM     18  N   UNL A   1      39.310  30.613  31.406  1.00  0.00    -0.354 N 
ATOM     19  C   UNL A   1      42.513  28.776  33.657  1.00  0.00     0.074 A 
ATOM     20  C   UNL A   1      43.077  27.650  32.944  1.00  0.00     0.031 C 
ATOM     21  C   UNL A   1      37.947  30.900  29.655  1.00  0.00     0.029 A 
ATOM     22  C   UNL A   1      38.287  31.423  30.971  1.00  0.00     0.049 A 
ATOM     23  H   UNL A   1      39.755  30.726  32.277  1.00  0.00     0.167 HD
ATOM     24  C   UNL A   1      42.925  29.193  34.880  1.00  0.00     0.037 A 
ATOM     25  C   UNL A   1      37.679  32.466  31.569  1.00  0.00     0.037 A 
ATOM     26  C   UNL A   1      42.367  30.328  35.574  1.00  0.00     0.049 A 
ATOM     27  C   UNL A   1      38.145  32.896  32.931  1.00  0.00     0.074 A 
ATOM     28  C   UNL A   1      42.744  30.858  36.797  1.00  0.00     0.029 A 
ATOM     29  N   UNL A   1      41.311  31.102  35.116  1.00  0.00    -0.354 N 
ATOM     30  N   UNL A   1      39.116  32.406  33.662  1.00  0.00    -0.248 NA
ATOM     31  C   UNL A   1      37.432  34.023  33.547  1.00  0.00     0.031 C 
ATOM     32  C   UNL A   1      41.880  31.913  37.105  1.00  0.00     0.029 A 
ATOM     33  C   UNL A   1      41.006  32.087  36.043  1.00  0.00     0.049 A 
ATOM     34  H   UNL A   1      40.846  30.971  34.258  1.00  0.00     0.167 HD
ATOM     35  C   UNL A   1      39.152  33.185  34.814  1.00  0.00     0.074 A 
ATOM     36  C   UNL A   1      38.113  34.186  34.671  1.00  0.00     0.031 C 
ATOM     37  C   UNL A   1      39.972  33.082  35.889  1.00  0.00     0.037 A 
BRANCH  24  38
ATOM     38  C   UNL A   1      44.015  28.408  35.563  1.00  0.00     0.058 A 
ATOM     39  C   UNL A   1      45.377  28.677  35.349  1.00  0.00     0.135 A 
ATOM     40  C   UNL A   1      43.688  27.397  36.483  1.00  0.00     0.135 A 
ATOM     41  F   UNL A   1      45.749  29.622  34.472  1.00  0.00    -0.206 F 
ATOM     42  C   UNL A   1      46.373  27.952  35.997  1.00  0.00     0.059 A 
ATOM     43  C   UNL A   1      44.667  26.680  37.165  1.00  0.00     0.059 A 
ATOM     44  F   UNL A   1      42.404  27.097  36.731  1.00  0.00    -0.206 F 
ATOM     45  C   UNL A   1      46.008  26.954  36.903  1.00  0.00     0.060 A 
BRANCH  45  46
ATOM     46  S   UNL A   1      47.314  26.021  37.730  1.00  0.00     0.124 S 
ATOM     47  O   UNL A   1      48.486  26.410  36.952  1.00  0.00    -0.237 OA
ATOM     48  O   UNL A   1      47.256  26.544  39.091  1.00  0.00    -0.237 OA
ATOM     49  O   UNL A   1      46.891  24.633  37.575  1.00  0.00    -0.744 OA
ENDBRANCH  45  46
ENDBRANCH  24  38
BRANCH  25  50
ATOM     50  C   UNL A   1      36.571  33.174  30.874  1.00  0.00     0.058 A 
ATOM     51  C   UNL A   1      35.239  33.007  31.281  1.00  0.00     0.135 A 
ATOM     52  C   UNL A   1      36.822  34.044  29.801  1.00  0.00     0.135 A 
ATOM     53  F   UNL A   1      34.945  32.185  32.300  1.00  0.00    -0.206 F 
ATOM     54  C   UNL A   1      34.194  33.663  30.638  1.00  0.00     0.059 A 
ATOM     55  C   UNL A   1      35.799  34.734  29.163  1.00  0.00     0.059 A 
ATOM     56  F   UNL A   1      38.082  34.251  29.385  1.00  0.00    -0.206 F 
ATOM     57  C   UNL A   1      34.485  34.527  29.582  1.00  0.00     0.060 A 
BRANCH  57  58
ATOM     58  S   UNL A   1      33.126  35.405  28.782  1.00  0.00     0.124 S 
ATOM     59  O   UNL A   1      32.378  35.898  29.932  1.00  0.00    -0.237 OA
ATOM     60  O   UNL A   1      33.833  36.414  27.999  1.00  0.00    -0.237 OA
ATOM     61  O   UNL A   1      32.467  34.364  27.999  1.00  0.00    -0.744 OA
ENDBRANCH  57  58
ENDBRANCH  25  50
BRANCH  37  62
ATOM     62  C   UNL A   1      39.816  34.111  36.974  1.00  0.00     0.058 A 
ATOM     63  C   UNL A   1      39.003  33.892  38.098  1.00  0.00     0.135 A 
ATOM     64  C   UNL A   1      40.511  35.330  36.898  1.00  0.00     0.135 A 
ATOM     65  F   UNL A   1      38.310  32.749  38.219  1.00  0.00    -0.206 F 
ATOM     66  C   UNL A   1      38.854  34.860  39.086  1.00  0.00     0.059 A 
ATOM     67  C   UNL A   1      40.404  36.297  37.891  1.00  0.00     0.059 A 
ATOM     68  F   UNL A   1      41.312  35.587  35.851  1.00  0.00    -0.206 F 
ATOM     69  C   UNL A   1      39.559  36.060  38.974  1.00  0.00     0.060 A 
BRANCH  69  70
ATOM     70  S   UNL A   1      39.367  37.302  40.269  1.00  0.00     0.124 S 
ATOM     71  O   UNL A   1      38.725  36.527  41.326  1.00  0.00    -0.237 OA
ATOM     72  O   UNL A   1      40.747  37.703  40.525  1.00  0.00    -0.237 OA
ATOM     73  O   UNL A   1      38.531  38.322  39.642  1.00  0.00    -0.744 OA
ENDBRANCH  69  70
ENDBRANCH  37  62
ENDBRANCH  11  12
ENDBRANCH   4   6
ENDBRANCH   1   2
BRANCH   1  74
ATOM     74  C   UNL A   1      39.303  22.486  26.500  1.00  0.00     0.042 C 
BRANCH  74  75
ATOM     75  C   UNL A   1      38.117  23.398  26.208  1.00  0.00     0.117 C 
BRANCH  75  76
ATOM     76  N   UNL A   1      37.795  23.414  24.791  1.00  0.00    -0.356 N 
ATOM     77  C   UNL A   1      36.659  22.989  24.165  1.00  0.00     0.227 C 
ATOM     78  H   UNL A   1      38.493  23.782  24.202  1.00  0.00     0.163 HD
ATOM     79  O   UNL A   1      36.643  22.967  22.934  1.00  0.00    -0.274 OA
BRANCH  77  80
ATOM     80  C   UNL A   1      35.447  22.596  25.015  1.00  0.00     0.103 C 
ATOM     81  C   UNL A   1      34.388  21.910  24.203  1.00  0.00    -0.016 C 
ATOM     82  C   UNL A   1      34.696  23.828  25.548  1.00  0.00     0.047 C 
ATOM     83  C   UNL A   1      33.329  22.695  23.983  1.00  0.00    -0.006 C 
ATOM     84  C   UNL A   1      33.496  24.034  24.610  1.00  0.00     0.106 C 
BRANCH  84  85
ATOM     85  N   UNL A   1      32.301  24.329  25.368  1.00  0.00    -0.350 N 
ATOM     86  C   UNL A   1      31.771  25.525  25.726  1.00  0.00     0.224 C 
ATOM     87  H   UNL A   1      31.795  23.540  25.671  1.00  0.00     0.164 HD
ATOM     88  O   UNL A   1      30.891  25.543  26.585  1.00  0.00    -0.275 OA
BRANCH  86  89
ATOM     89  C   UNL A   1      32.217  26.791  25.014  1.00  0.00     0.094 C 
ATOM     90  C   UNL A   1      33.610  27.248  25.465  1.00  0.00     0.030 C 
ATOM     91  C   UNL A   1      31.249  27.928  25.343  1.00  0.00     0.150 C 
ATOM     92  C   UNL A   1      33.478  27.903  26.836  1.00  0.00     0.138 C 
ATOM     93  S   UNL A   1      31.885  28.705  26.824  1.00  0.00     0.151 S 
ATOM     94  O   UNL A   1      31.116  28.259  27.967  1.00  0.00    -0.229 OA
ATOM     95  O   UNL A   1      32.094  30.111  26.546  1.00  0.00    -0.229 OA
ENDBRANCH  86  89
ENDBRANCH  84  85
ENDBRANCH  77  80
ENDBRANCH  75  76
ENDBRANCH  74  75
ENDBRANCH   1  74
TORSDOF 15
ENDMDL
MODEL 3
REMARK VINA RESULT:     -11.1      5.442     11.745
REMARK SMILES O=C(NCCCNC(=O)[C@@H]1C=C[C@@H](NC(=O)[C@@H]2CCS(=O)(=O)C2)C1)c1ccc(-c2c3nc(c(-c4c(F)cc(S(=O)(=O)[O-])cc4F)c4ccc([nH]4)c(-c4c(F)cc(S(=O)(=O)[O-])cc4F)c4nc(c(-c5c(F)cc(S(=O)(=O)[O-])cc5F)c5ccc2[nH]5)C=C4)C=C3)cc1
REMARK SMILES IDX 4 1 3 2 1 3 2 4 25 6 26 7 90 8 27 9 89 10 28 11 29 12 30 13
REMARK SMILES IDX 83 14 31 15 88 16 82 17 84 18 32 19 87 20 81 21 80 22 33 24
REMARK SMILES IDX 67 25 46 26 66 27 47 28 50 29 65 30 85 31 48 32 49 33 64 35
REMARK SMILES IDX 86 36 51 37 34 38 35 39 44 40 36 41 37 42 43 43 45 44 38 45
REMARK SMILES IDX 39 46 40 47 41 48 42 49 68 50 69 51 78 52 70 53 71 54 77 55
REMARK SMILES IDX 79 56 72 57 73 58 74 59 75 60 76 61 52 62 53 63 62 64 54 65
REMARK SMILES IDX 55 66 61 67 63 68 56 69 57 70 58 71 59 72 60 73 5 74 6 75
REMARK SMILES IDX 7 76 8 77 9 79 10 80 11 81 24 82 12 83 13 84 14 85 15 86
REMARK SMILES IDX 16 88 17 89 18 90 23 91 19 92 20 93 21 94 22 95
REMARK H PARENT 3 5 84 23 50 34 7 78 14 87
REMARK Flexibility Score: inf
ROOT
ATOM      1  C   UNL A   1      40.324  23.232  27.069  1.00  0.00     0.118 C 
ENDROOT
BRANCH   1   2
ATOM      2  N   UNL A   1      41.175  23.917  26.105  1.00  0.00    -0.352 N 
ATOM      3  O   UNL A   1      42.119  25.645  25.020  1.00  0.00    -0.269 OA
ATOM      4  C   UNL A   1      41.544  25.239  26.025  1.00  0.00     0.251 C 
ATOM      5  H   UNL A   1      41.546  23.341  25.397  1.00  0.00     0.163 HD
BRANCH   4   6
ATOM      6  C   UNL A   1      41.225  26.173  27.128  1.00  0.00     0.039 A 
ATOM      7  C   UNL A   1      41.918  27.376  27.267  1.00  0.00     0.014 A 
ATOM      8  C   UNL A   1      40.216  25.843  28.038  1.00  0.00     0.014 A 
ATOM      9  C   UNL A   1      41.745  28.144  28.410  1.00  0.00     0.010 A 
ATOM     10  C   UNL A   1      39.962  26.682  29.129  1.00  0.00     0.010 A 
ATOM     11  C   UNL A   1      40.758  27.815  29.354  1.00  0.00    -0.014 A 
BRANCH  11  12
ATOM     12  C   UNL A   1      40.570  28.694  30.539  1.00  0.00     0.031 A 
ATOM     13  C   UNL A   1      41.464  28.580  31.746  1.00  0.00     0.074 A 
ATOM     14  C   UNL A   1      39.608  29.638  30.499  1.00  0.00     0.049 A 
ATOM     15  N   UNL A   1      41.471  29.305  32.837  1.00  0.00    -0.248 NA
ATOM     16  C   UNL A   1      42.475  27.512  31.736  1.00  0.00     0.031 C 
ATOM     17  C   UNL A   1      38.670  29.838  29.389  1.00  0.00     0.029 A 
ATOM     18  N   UNL A   1      39.273  30.622  31.393  1.00  0.00    -0.354 N 
ATOM     19  C   UNL A   1      42.463  28.770  33.650  1.00  0.00     0.074 A 
ATOM     20  C   UNL A   1      43.020  27.639  32.939  1.00  0.00     0.031 C 
ATOM     21  C   UNL A   1      37.912  30.914  29.641  1.00  0.00     0.029 A 
ATOM     22  C   UNL A   1      38.255  31.438  30.956  1.00  0.00     0.049 A 
ATOM     23  H   UNL A   1      39.718  30.735  32.264  1.00  0.00     0.167 HD
ATOM     24  C   UNL A   1      42.877  29.187  34.872  1.00  0.00     0.037 A 
ATOM     25  C   UNL A   1      37.654  32.486  31.551  1.00  0.00     0.037 A 
ATOM     26  C   UNL A   1      42.326  30.327  35.563  1.00  0.00     0.049 A 
ATOM     27  C   UNL A   1      38.122  32.917  32.912  1.00  0.00     0.074 A 
ATOM     28  C   UNL A   1      42.707  30.857  36.785  1.00  0.00     0.029 A 
ATOM     29  N   UNL A   1      41.276  31.107  35.103  1.00  0.00    -0.354 N 
ATOM     30  N   UNL A   1      39.089  32.421  33.646  1.00  0.00    -0.248 NA
ATOM     31  C   UNL A   1      37.416  34.049  33.525  1.00  0.00     0.031 C 
ATOM     32  C   UNL A   1      41.849  31.919  37.090  1.00  0.00     0.029 A 
ATOM     33  C   UNL A   1      40.977  32.095  36.028  1.00  0.00     0.049 A 
ATOM     34  H   UNL A   1      40.810  30.977  34.245  1.00  0.00     0.167 HD
ATOM     35  C   UNL A   1      39.130  33.203  34.795  1.00  0.00     0.074 A 
ATOM     36  C   UNL A   1      38.098  34.210  34.650  1.00  0.00     0.031 C 
ATOM     37  C   UNL A   1      39.949  33.097  35.870  1.00  0.00     0.037 A 
BRANCH  24  38
ATOM     38  C   UNL A   1      43.962  28.397  35.557  1.00  0.00     0.058 A 
ATOM     39  C   UNL A   1      45.325  28.621  35.303  1.00  0.00     0.135 A 
ATOM     40  C   UNL A   1      43.630  27.427  36.519  1.00  0.00     0.135 A 
ATOM     41  F   UNL A   1      45.701  29.524  34.385  1.00  0.00    -0.206 F 
ATOM     42  C   UNL A   1      46.317  27.892  35.953  1.00  0.00     0.059 A 
ATOM     43  C   UNL A   1      44.606  26.708  37.203  1.00  0.00     0.059 A 
ATOM     44  F   UNL A   1      42.344  27.172  36.807  1.00  0.00    -0.206 F 
ATOM     45  C   UNL A   1      45.947  26.936  36.901  1.00  0.00     0.060 A 
BRANCH  45  46
ATOM     46  S   UNL A   1      47.247  25.996  37.731  1.00  0.00     0.124 S 
ATOM     47  O   UNL A   1      46.873  26.161  39.133  1.00  0.00    -0.237 OA
ATOM     48  O   UNL A   1      47.062  24.656  37.181  1.00  0.00    -0.237 OA
ATOM     49  O   UNL A   1      48.472  26.675  37.324  1.00  0.00    -0.744 OA
ENDBRANCH  45  46
ENDBRANCH  24  38
BRANCH  25  50
ATOM     50  C   UNL A   1      36.551  33.199  30.855  1.00  0.00     0.058 A 
ATOM     51  C   UNL A   1      35.218  33.052  31.269  1.00  0.00     0.135 A 
ATOM     52  C   UNL A   1      36.807  34.055  29.772  1.00  0.00     0.135 A 
ATOM     53  F   UNL A   1      34.920  32.245  32.299  1.00  0.00    -0.206 F 
ATOM     54  C   UNL A   1      34.178  33.713  30.624  1.00  0.00     0.059 A 
ATOM     55  C   UNL A   1      35.788  34.751  29.131  1.00  0.00     0.059 A 
ATOM     56  F   UNL A   1      38.066  34.244  29.347  1.00  0.00    -0.206 F 
ATOM     57  C   UNL A   1      34.474  34.563  29.558  1.00  0.00     0.060 A 
BRANCH  57  58
ATOM     58  S   UNL A   1      33.122  35.449  28.756  1.00  0.00     0.124 S 
ATOM     59  O   UNL A   1      33.843  36.468  28.003  1.00  0.00    -0.237 OA
ATOM     60  O   UNL A   1      32.492  34.395  27.965  1.00  0.00    -0.237 OA
ATOM     61  O   UNL A   1      32.327  35.939  29.879  1.00  0.00    -0.744 OA
ENDBRANCH  57  58
ENDBRANCH  25  50
BRANCH  37  62
ATOM     62  C   UNL A   1      39.799  34.130  36.954  1.00  0.00     0.058 A 
ATOM     63  C   UNL A   1      38.979  33.921  38.075  1.00  0.00     0.135 A 
ATOM     64  C   UNL A   1      40.508  35.341  36.879  1.00  0.00     0.135 A 
ATOM     65  F   UNL A   1      38.274  32.785  38.194  1.00  0.00    -0.206 F 
ATOM     66  C   UNL A   1      38.836  34.892  39.061  1.00  0.00     0.059 A 
ATOM     67  C   UNL A   1      40.406  36.311  37.870  1.00  0.00     0.059 A 
ATOM     68  F   UNL A   1      41.315  35.588  35.835  1.00  0.00    -0.206 F 
ATOM     69  C   UNL A   1      39.554  36.085  38.949  1.00  0.00     0.060 A 
BRANCH  69  70
ATOM     70  S   UNL A   1      39.370  37.331  40.241  1.00  0.00     0.124 S 
ATOM     71  O   UNL A   1      38.767  36.550  41.318  1.00  0.00    -0.237 OA
ATOM     72  O   UNL A   1      40.747  37.759  40.462  1.00  0.00    -0.237 OA
ATOM     73  O   UNL A   1      38.500  38.331  39.629  1.00  0.00    -0.744 OA
ENDBRANCH  69  70
ENDBRANCH  37  62
ENDBRANCH  11  12
ENDBRANCH   4   6
ENDBRANCH   1   2
BRANCH   1  74
ATOM     74  C   UNL A   1      39.273  22.351  26.406  1.00  0.00     0.042 C 
BRANCH  74  75
ATOM     75  C   UNL A   1      37.963  23.078  26.121  1.00  0.00     0.117 C 
BRANCH  75  76
ATOM     76  N   UNL A   1      37.759  23.264  24.695  1.00  0.00    -0.356 N 
ATOM     77  C   UNL A   1      36.605  23.163  23.973  1.00  0.00     0.227 C 
ATOM     78  H   UNL A   1      38.564  23.497  24.178  1.00  0.00     0.163 HD
ATOM     79  O   UNL A   1      36.675  23.228  22.745  1.00  0.00    -0.274 OA
BRANCH  77  80
ATOM     80  C   UNL A   1      35.276  23.010  24.719  1.00  0.00     0.103 C 
ATOM     81  C   UNL A   1      34.173  22.544  23.815  1.00  0.00    -0.016 C 
ATOM     82  C   UNL A   1      34.737  24.362  25.214  1.00  0.00     0.047 C 
ATOM     83  C   UNL A   1      33.306  23.520  23.527  1.00  0.00    -0.006 C 
ATOM     84  C   UNL A   1      33.678  24.799  24.189  1.00  0.00     0.106 C 
BRANCH  84  85
ATOM     85  N   UNL A   1      32.506  25.318  24.857  1.00  0.00    -0.350 N 
ATOM     86  C   UNL A   1      31.946  26.552  24.798  1.00  0.00     0.224 C 
ATOM     87  H   UNL A   1      32.043  24.677  25.444  1.00  0.00     0.164 HD
ATOM     88  O   UNL A   1      31.103  26.854  25.642  1.00  0.00    -0.275 OA
BRANCH  86  89
ATOM     89  C   UNL A   1      32.313  27.495  23.665  1.00  0.00     0.094 C 
ATOM     90  C   UNL A   1      32.183  28.968  24.071  1.00  0.00     0.030 C 
ATOM     91  C   UNL A   1      31.362  27.273  22.489  1.00  0.00     0.150 C 
ATOM     92  C   UNL A   1      30.703  29.334  24.075  1.00  0.00     0.138 C 
ATOM     93  S   UNL A   1      29.975  28.371  22.763  1.00  0.00     0.151 S 
ATOM     94  O   UNL A   1      28.860  27.611  23.288  1.00  0.00    -0.229 OA
ATOM     95  O   UNL A   1      29.838  29.226  21.602  1.00  0.00    -0.229 OA
ENDBRANCH  86  89
ENDBRANCH  84  85
ENDBRANCH  77  80
ENDBRANCH  75  76
ENDBRANCH  74  75
ENDBRANCH   1  74
TORSDOF 15
ENDMDL
