MODEL 1
REMARK VINA RESULT:     -12.3      0.000      0.000
REMARK SMILES CC(C)(C)OC(=O)N1CCC[C@](Cc2ccccc2)(C(=O)NCCCNC(=O)c2ccc(-c3c4nc(c(-c5c(F)cc(S(=O)(=O)[O-])cc5F)c5ccc([nH]5)c(-c5c(F)cc(S(=O)(=O)[O-])cc5F)c5nc(c(-c6c(F)cc(S(=O)(=O)[O-])cc6F)c6ccc3[nH]6)C=C5)C=C4)cc2)C1
REMARK SMILES IDX 24 1 23 2 22 3 20 4 21 5 12 7 8 8 9 9 95 10 10 11 11 12 6 13
REMARK SMILES IDX 7 14 5 15 2 16 1 17 3 18 4 19 13 20 14 21 15 22 19 23 16 24
REMARK SMILES IDX 18 25 17 26 25 27 26 28 27 29 28 31 29 32 30 33 94 34 31 35
REMARK SMILES IDX 93 36 32 37 33 38 34 39 87 40 35 41 92 42 86 43 88 44 36 45
REMARK SMILES IDX 91 46 85 47 84 48 37 50 71 51 50 52 70 53 51 54 54 55 69 56
REMARK SMILES IDX 89 57 52 58 53 59 68 61 90 62 55 63 38 64 39 65 48 66 40 67
REMARK SMILES IDX 41 68 47 69 49 70 42 71 43 72 44 73 45 74 46 75 72 76 73 77
REMARK SMILES IDX 82 78 74 79 75 80 81 81 83 82 76 83 77 84 78 85 79 86 80 87
REMARK SMILES IDX 56 88 57 89 66 90 58 91 59 92 65 93 67 94 60 95 61 96 62 97
REMARK SMILES IDX 63 98 64 99
REMARK H PARENT 22 6 26 30 88 49 54 60
REMARK Flexibility Score: inf
ROOT
ATOM      1  C   UNL A   1      37.587  24.042  25.882  1.00  0.00     0.042 C 
ENDROOT
BRANCH   1   2
ATOM      2  C   UNL A   1      37.254  22.890  24.942  1.00  0.00     0.117 C 
BRANCH   2   3
ATOM      3  N   UNL A   1      36.346  23.295  23.878  1.00  0.00    -0.355 N 
ATOM      4  C   UNL A   1      35.047  23.646  23.739  1.00  0.00     0.228 C 
ATOM      5  O   UNL A   1      34.747  23.856  22.556  1.00  0.00    -0.274 OA
ATOM      6  H   UNL A   1      36.812  23.321  23.011  1.00  0.00     0.163 HD
BRANCH   4   7
ATOM      7  C   UNL A   1      33.976  23.805  24.864  1.00  0.00     0.071 C 
ATOM      8  N   UNL A   1      33.481  21.335  25.084  1.00  0.00    -0.307 N 
ATOM      9  C   UNL A   1      32.155  21.464  24.508  1.00  0.00     0.123 C 
ATOM     10  C   UNL A   1      34.037  22.522  25.736  1.00  0.00     0.140 C 
ATOM     11  C   UNL A   1      32.062  22.634  23.545  1.00  0.00     0.023 C 
ATOM     12  C   UNL A   1      32.583  23.929  24.175  1.00  0.00     0.021 C 
BRANCH   8  13
ATOM     13  C   UNL A   1      34.105  20.097  25.066  1.00  0.00     0.410 C 
ATOM     14  O   UNL A   1      35.292  19.945  24.812  1.00  0.00    -0.224 OA
BRANCH  13  15
ATOM     15  O   UNL A   1      33.231  19.079  25.289  1.00  0.00    -0.444 OA
BRANCH  15  16
ATOM     16  C   UNL A   1      33.299  17.830  24.545  1.00  0.00     0.106 C 
ATOM     17  C   UNL A   1      32.609  18.131  23.206  1.00  0.00     0.056 C 
ATOM     18  C   UNL A   1      32.497  16.769  25.301  1.00  0.00     0.056 C 
ATOM     19  C   UNL A   1      34.722  17.342  24.239  1.00  0.00     0.056 C 
ENDBRANCH  15  16
ENDBRANCH  13  15
ENDBRANCH   8  13
BRANCH   7  20
ATOM     20  C   UNL A   1      34.226  25.071  25.718  1.00  0.00     0.054 C 
BRANCH  20  21
ATOM     21  C   UNL A   1      33.500  26.378  25.478  1.00  0.00    -0.047 A 
ATOM     22  C   UNL A   1      32.449  26.750  26.335  1.00  0.00     0.004 A 
ATOM     23  C   UNL A   1      33.743  27.159  24.342  1.00  0.00     0.004 A 
ATOM     24  C   UNL A   1      31.663  27.870  26.061  1.00  0.00     0.000 A 
ATOM     25  C   UNL A   1      32.968  28.291  24.080  1.00  0.00     0.000 A 
ATOM     26  C   UNL A   1      31.925  28.644  24.934  1.00  0.00     0.000 A 
ENDBRANCH  20  21
ENDBRANCH   7  20
ENDBRANCH   4   7
ENDBRANCH   2   3
ENDBRANCH   1   2
BRANCH   1  27
ATOM     27  C   UNL A   1      38.733  23.720  26.837  1.00  0.00     0.118 C 
BRANCH  27  28
ATOM     28  N   UNL A   1      40.037  23.892  26.203  1.00  0.00    -0.352 N 
ATOM     29  C   UNL A   1      40.960  24.899  26.326  1.00  0.00     0.251 C 
ATOM     30  H   UNL A   1      40.296  23.168  25.589  1.00  0.00     0.163 HD
ATOM     31  O   UNL A   1      41.866  24.985  25.502  1.00  0.00    -0.269 OA
BRANCH  29  32
ATOM     32  C   UNL A   1      40.874  25.869  27.438  1.00  0.00     0.039 A 
ATOM     33  C   UNL A   1      41.811  26.906  27.507  1.00  0.00     0.014 A 
ATOM     34  C   UNL A   1      39.912  25.728  28.441  1.00  0.00     0.014 A 
ATOM     35  C   UNL A   1      41.747  27.827  28.555  1.00  0.00     0.010 A 
ATOM     36  C   UNL A   1      39.802  26.689  29.440  1.00  0.00     0.010 A 
ATOM     37  C   UNL A   1      40.725  27.742  29.514  1.00  0.00    -0.014 A 
BRANCH  37  38
ATOM     38  C   UNL A   1      40.608  28.734  30.611  1.00  0.00     0.031 A 
ATOM     39  C   UNL A   1      41.475  28.609  31.834  1.00  0.00     0.074 A 
ATOM     40  C   UNL A   1      39.670  29.698  30.537  1.00  0.00     0.049 A 
ATOM     41  N   UNL A   1      41.458  29.316  32.934  1.00  0.00    -0.248 NA
ATOM     42  C   UNL A   1      42.474  27.527  31.832  1.00  0.00     0.031 C 
ATOM     43  C   UNL A   1      38.736  29.886  29.423  1.00  0.00     0.029 A 
ATOM     44  N   UNL A   1      39.337  30.693  31.420  1.00  0.00    -0.354 N 
ATOM     45  C   UNL A   1      42.424  28.754  33.761  1.00  0.00     0.074 A 
ATOM     46  C   UNL A   1      42.975  27.617  33.055  1.00  0.00     0.031 C 
ATOM     47  C   UNL A   1      37.949  30.942  29.684  1.00  0.00     0.029 A 
ATOM     48  C   UNL A   1      38.296  31.484  30.993  1.00  0.00     0.049 A 
ATOM     49  H   UNL A   1      39.798  30.828  32.278  1.00  0.00     0.167 HD
ATOM     50  C   UNL A   1      42.829  29.161  34.988  1.00  0.00     0.037 A 
ATOM     51  C   UNL A   1      37.687  32.525  31.594  1.00  0.00     0.037 A 
ATOM     52  C   UNL A   1      42.300  30.314  35.667  1.00  0.00     0.049 A 
ATOM     53  C   UNL A   1      38.171  32.972  32.945  1.00  0.00     0.074 A 
ATOM     54  C   UNL A   1      42.684  30.849  36.884  1.00  0.00     0.029 A 
ATOM     55  N   UNL A   1      41.273  31.113  35.185  1.00  0.00    -0.354 N 
ATOM     56  N   UNL A   1      39.124  32.464  33.689  1.00  0.00    -0.248 NA
ATOM     57  C   UNL A   1      37.503  34.139  33.537  1.00  0.00     0.031 C 
ATOM     58  C   UNL A   1      41.867  31.953  37.153  1.00  0.00     0.029 A 
ATOM     59  C   UNL A   1      41.001  32.130  36.085  1.00  0.00     0.049 A 
ATOM     60  H   UNL A   1      40.806  30.977  34.329  1.00  0.00     0.167 HD
ATOM     61  C   UNL A   1      39.187  33.262  34.825  1.00  0.00     0.074 A 
ATOM     62  C   UNL A   1      38.183  34.295  34.664  1.00  0.00     0.031 C 
ATOM     63  C   UNL A   1      40.002  33.152  35.903  1.00  0.00     0.037 A 
BRANCH  50  64
ATOM     64  C   UNL A   1      43.904  28.357  35.669  1.00  0.00     0.058 A 
ATOM     65  C   UNL A   1      45.266  28.608  35.441  1.00  0.00     0.135 A 
ATOM     66  C   UNL A   1      43.570  27.344  36.581  1.00  0.00     0.135 A 
ATOM     67  F   UNL A   1      45.641  29.556  34.567  1.00  0.00    -0.206 F 
ATOM     68  C   UNL A   1      46.259  27.862  36.067  1.00  0.00     0.059 A 
ATOM     69  C   UNL A   1      44.546  26.602  37.239  1.00  0.00     0.059 A 
ATOM     70  F   UNL A   1      42.282  27.061  36.836  1.00  0.00    -0.206 F 
ATOM     71  C   UNL A   1      45.889  26.858  36.963  1.00  0.00     0.060 A 
BRANCH  71  72
ATOM     72  S   UNL A   1      47.189  25.898  37.768  1.00  0.00     0.124 S 
ATOM     73  O   UNL A   1      46.547  25.540  39.029  1.00  0.00    -0.237 OA
ATOM     74  O   UNL A   1      47.395  24.800  36.828  1.00  0.00    -0.237 OA
ATOM     75  O   UNL A   1      48.296  26.845  37.872  1.00  0.00    -0.744 OA
ENDBRANCH  71  72
ENDBRANCH  50  64
BRANCH  51  76
ATOM     76  C   UNL A   1      36.574  33.228  30.906  1.00  0.00     0.058 A 
ATOM     77  C   UNL A   1      35.249  33.071  31.337  1.00  0.00     0.135 A 
ATOM     78  C   UNL A   1      36.812  34.089  29.823  1.00  0.00     0.135 A 
ATOM     79  F   UNL A   1      34.971  32.256  32.366  1.00  0.00    -0.206 F 
ATOM     80  C   UNL A   1      34.196  33.729  30.711  1.00  0.00     0.059 A 
ATOM     81  C   UNL A   1      35.778  34.776  29.195  1.00  0.00     0.059 A 
ATOM     82  F   UNL A   1      38.066  34.289  29.386  1.00  0.00    -0.206 F 
ATOM     83  C   UNL A   1      34.471  34.583  29.641  1.00  0.00     0.060 A 
BRANCH  83  84
ATOM     84  S   UNL A   1      33.104  35.475  28.870  1.00  0.00     0.124 S 
ATOM     85  O   UNL A   1      33.813  36.489  28.099  1.00  0.00    -0.237 OA
ATOM     86  O   UNL A   1      32.449  34.425  28.095  1.00  0.00    -0.237 OA
ATOM     87  O   UNL A   1      32.339  35.967  30.012  1.00  0.00    -0.744 OA
ENDBRANCH  83  84
ENDBRANCH  51  76
BRANCH  63  88
ATOM     88  C   UNL A   1      39.864  34.191  36.979  1.00  0.00     0.058 A 
ATOM     89  C   UNL A   1      40.471  35.451  36.867  1.00  0.00     0.135 A 
ATOM     90  C   UNL A   1      39.076  33.940  38.113  1.00  0.00     0.135 A 
ATOM     91  F   UNL A   1      41.242  35.738  35.805  1.00  0.00    -0.206 F 
ATOM     92  C   UNL A   1      40.318  36.420  37.852  1.00  0.00     0.059 A 
ATOM     93  C   UNL A   1      38.888  34.903  39.098  1.00  0.00     0.059 A 
ATOM     94  F   UNL A   1      38.465  32.753  38.263  1.00  0.00    -0.206 F 
ATOM     95  C   UNL A   1      39.523  36.137  38.964  1.00  0.00     0.060 A 
BRANCH  95  96
ATOM     96  S   UNL A   1      39.303  37.414  40.221  1.00  0.00     0.124 S 
ATOM     97  O   UNL A   1      40.676  37.863  40.426  1.00  0.00    -0.237 OA
ATOM     98  O   UNL A   1      38.419  38.364  39.552  1.00  0.00    -0.237 OA
ATOM     99  O   UNL A   1      38.704  36.691  41.339  1.00  0.00    -0.744 OA
ENDBRANCH  95  96
ENDBRANCH  63  88
ENDBRANCH  37  38
ENDBRANCH  29  32
ENDBRANCH  27  28
ENDBRANCH   1  27
TORSDOF 18
ENDMDL
MODEL 2
REMARK VINA RESULT:     -12.2      1.230      3.890
REMARK SMILES CC(C)(C)OC(=O)N1CCC[C@](Cc2ccccc2)(C(=O)NCCCNC(=O)c2ccc(-c3c4nc(c(-c5c(F)cc(S(=O)(=O)[O-])cc5F)c5ccc([nH]5)c(-c5c(F)cc(S(=O)(=O)[O-])cc5F)c5nc(c(-c6c(F)cc(S(=O)(=O)[O-])cc6F)c6ccc3[nH]6)C=C5)C=C4)cc2)C1
REMARK SMILES IDX 24 1 23 2 22 3 20 4 21 5 12 7 8 8 9 9 95 10 10 11 11 12 6 13
REMARK SMILES IDX 7 14 5 15 2 16 1 17 3 18 4 19 13 20 14 21 15 22 19 23 16 24
REMARK SMILES IDX 18 25 17 26 25 27 26 28 27 29 28 31 29 32 30 33 94 34 31 35
REMARK SMILES IDX 93 36 32 37 33 38 34 39 87 40 35 41 92 42 86 43 88 44 36 45
REMARK SMILES IDX 91 46 85 47 84 48 37 50 71 51 50 52 70 53 51 54 54 55 69 56
REMARK SMILES IDX 89 57 52 58 53 59 68 61 90 62 55 63 38 64 39 65 48 66 40 67
REMARK SMILES IDX 41 68 47 69 49 70 42 71 43 72 44 73 45 74 46 75 72 76 73 77
REMARK SMILES IDX 82 78 74 79 75 80 81 81 83 82 76 83 77 84 78 85 79 86 80 87
REMARK SMILES IDX 56 88 57 89 66 90 58 91 59 92 65 93 67 94 60 95 61 96 62 97
REMARK SMILES IDX 63 98 64 99
REMARK H PARENT 22 6 26 30 88 49 54 60
REMARK Flexibility Score: inf
ROOT
ATOM      1  C   UNL A   1      37.231  23.437  25.561  1.00  0.00     0.042 C 
ENDROOT
BRANCH   1   2
ATOM      2  C   UNL A   1      35.749  23.695  25.796  1.00  0.00     0.117 C 
BRANCH   2   3
ATOM      3  N   UNL A   1      35.167  24.533  24.757  1.00  0.00    -0.355 N 
ATOM      4  C   UNL A   1      34.031  24.590  24.024  1.00  0.00     0.228 C 
ATOM      5  O   UNL A   1      34.055  25.513  23.199  1.00  0.00    -0.274 OA
ATOM      6  H   UNL A   1      35.774  25.271  24.519  1.00  0.00     0.163 HD
BRANCH   4   7
ATOM      7  C   UNL A   1      32.779  23.662  24.131  1.00  0.00     0.071 C 
ATOM      8  N   UNL A   1      31.153  25.509  24.713  1.00  0.00    -0.307 N 
ATOM      9  C   UNL A   1      30.982  25.040  26.077  1.00  0.00     0.123 C 
ATOM     10  C   UNL A   1      31.546  24.510  23.716  1.00  0.00     0.140 C 
ATOM     11  C   UNL A   1      32.208  24.305  26.586  1.00  0.00     0.023 C 
ATOM     12  C   UNL A   1      32.654  23.207  25.616  1.00  0.00     0.021 C 
BRANCH   8  13
ATOM     13  C   UNL A   1      30.857  26.829  24.413  1.00  0.00     0.410 C 
ATOM     14  O   UNL A   1      30.754  27.253  23.270  1.00  0.00    -0.224 OA
BRANCH  13  15
ATOM     15  O   UNL A   1      30.768  27.602  25.529  1.00  0.00    -0.444 OA
BRANCH  15  16
ATOM     16  C   UNL A   1      31.848  28.486  25.940  1.00  0.00     0.106 C 
ATOM     17  C   UNL A   1      31.741  28.552  27.471  1.00  0.00     0.056 C 
ATOM     18  C   UNL A   1      31.590  29.875  25.353  1.00  0.00     0.056 C 
ATOM     19  C   UNL A   1      33.256  27.985  25.591  1.00  0.00     0.056 C 
ENDBRANCH  15  16
ENDBRANCH  13  15
ENDBRANCH   8  13
BRANCH   7  20
ATOM     20  C   UNL A   1      32.917  22.408  23.234  1.00  0.00     0.054 C 
BRANCH  20  21
ATOM     21  C   UNL A   1      33.186  21.026  23.791  1.00  0.00    -0.047 A 
ATOM     22  C   UNL A   1      34.382  20.786  24.492  1.00  0.00     0.004 A 
ATOM     23  C   UNL A   1      32.353  19.940  23.503  1.00  0.00     0.004 A 
ATOM     24  C   UNL A   1      34.732  19.496  24.892  1.00  0.00     0.000 A 
ATOM     25  C   UNL A   1      32.695  18.652  23.921  1.00  0.00     0.000 A 
ATOM     26  C   UNL A   1      33.886  18.428  24.609  1.00  0.00     0.000 A 
ENDBRANCH  20  21
ENDBRANCH   7  20
ENDBRANCH   4   7
ENDBRANCH   2   3
ENDBRANCH   1   2
BRANCH   1  27
ATOM     27  C   UNL A   1      38.132  24.224  26.508  1.00  0.00     0.118 C 
BRANCH  27  28
ATOM     28  N   UNL A   1      39.547  24.011  26.219  1.00  0.00    -0.352 N 
ATOM     29  C   UNL A   1      40.648  24.749  26.570  1.00  0.00     0.251 C 
ATOM     30  H   UNL A   1      39.742  23.208  25.686  1.00  0.00     0.163 HD
ATOM     31  O   UNL A   1      41.714  24.544  25.998  1.00  0.00    -0.269 OA
BRANCH  29  32
ATOM     32  C   UNL A   1      40.560  25.776  27.630  1.00  0.00     0.039 A 
ATOM     33  C   UNL A   1      39.599  25.634  28.635  1.00  0.00     0.014 A 
ATOM     34  C   UNL A   1      41.383  26.906  27.603  1.00  0.00     0.014 A 
ATOM     35  C   UNL A   1      39.500  26.599  29.640  1.00  0.00     0.010 A 
ATOM     36  C   UNL A   1      41.335  27.825  28.645  1.00  0.00     0.010 A 
ATOM     37  C   UNL A   1      40.386  27.688  29.668  1.00  0.00    -0.014 A 
BRANCH  37  38
ATOM     38  C   UNL A   1      40.331  28.703  30.749  1.00  0.00     0.031 A 
ATOM     39  C   UNL A   1      41.229  28.575  31.949  1.00  0.00     0.074 A 
ATOM     40  C   UNL A   1      39.420  29.694  30.682  1.00  0.00     0.049 A 
ATOM     41  N   UNL A   1      41.265  29.303  33.035  1.00  0.00    -0.248 NA
ATOM     42  C   UNL A   1      42.194  27.463  31.940  1.00  0.00     0.031 C 
ATOM     43  C   UNL A   1      38.460  29.889  29.592  1.00  0.00     0.029 A 
ATOM     44  N   UNL A   1      39.142  30.714  31.554  1.00  0.00    -0.354 N 
ATOM     45  C   UNL A   1      42.236  28.727  33.845  1.00  0.00     0.074 A 
ATOM     46  C   UNL A   1      42.733  27.561  33.146  1.00  0.00     0.031 C 
ATOM     47  C   UNL A   1      37.712  30.973  29.854  1.00  0.00     0.029 A 
ATOM     48  C   UNL A   1      38.114  31.528  31.142  1.00  0.00     0.049 A 
ATOM     49  H   UNL A   1      39.632  30.852  32.397  1.00  0.00     0.167 HD
ATOM     50  C   UNL A   1      42.689  29.145  35.052  1.00  0.00     0.037 A 
ATOM     51  C   UNL A   1      37.554  32.599  31.739  1.00  0.00     0.037 A 
ATOM     52  C   UNL A   1      42.214  30.326  35.723  1.00  0.00     0.049 A 
ATOM     53  C   UNL A   1      38.089  33.057  33.067  1.00  0.00     0.074 A 
ATOM     54  C   UNL A   1      42.649  30.872  36.918  1.00  0.00     0.029 A 
ATOM     55  N   UNL A   1      41.198  31.146  35.255  1.00  0.00    -0.354 N 
ATOM     56  N   UNL A   1      39.047  32.533  33.794  1.00  0.00    -0.248 NA
ATOM     57  C   UNL A   1      37.473  34.255  33.654  1.00  0.00     0.031 C 
ATOM     58  C   UNL A   1      41.874  32.005  37.188  1.00  0.00     0.029 A 
ATOM     59  C   UNL A   1      40.982  32.188  36.142  1.00  0.00     0.049 A 
ATOM     60  H   UNL A   1      40.702  31.009  34.415  1.00  0.00     0.167 HD
ATOM     61  C   UNL A   1      39.167  33.351  34.912  1.00  0.00     0.074 A 
ATOM     62  C   UNL A   1      38.190  34.410  34.759  1.00  0.00     0.031 C 
ATOM     63  C   UNL A   1      40.009  33.236  35.968  1.00  0.00     0.037 A 
BRANCH  50  64
ATOM     64  C   UNL A   1      43.758  28.322  35.718  1.00  0.00     0.058 A 
ATOM     65  C   UNL A   1      43.441  27.300  36.627  1.00  0.00     0.135 A 
ATOM     66  C   UNL A   1      45.114  28.537  35.424  1.00  0.00     0.135 A 
ATOM     67  F   UNL A   1      42.161  27.061  36.955  1.00  0.00    -0.206 F 
ATOM     68  C   UNL A   1      44.429  26.543  37.246  1.00  0.00     0.059 A 
ATOM     69  C   UNL A   1      46.119  27.775  36.012  1.00  0.00     0.059 A 
ATOM     70  F   UNL A   1      45.475  29.502  34.563  1.00  0.00    -0.206 F 
ATOM     71  C   UNL A   1      45.768  26.790  36.934  1.00  0.00     0.060 A 
BRANCH  71  72
ATOM     72  S   UNL A   1      47.040  25.799  37.746  1.00  0.00     0.124 S 
ATOM     73  O   UNL A   1      47.966  26.832  38.199  1.00  0.00    -0.237 OA
ATOM     74  O   UNL A   1      46.286  25.120  38.795  1.00  0.00    -0.237 OA
ATOM     75  O   UNL A   1      47.534  24.937  36.676  1.00  0.00    -0.744 OA
ENDBRANCH  71  72
ENDBRANCH  50  64
BRANCH  51  76
ATOM     76  C   UNL A   1      36.442  33.323  31.069  1.00  0.00     0.058 A 
ATOM     77  C   UNL A   1      36.673  34.078  29.910  1.00  0.00     0.135 A 
ATOM     78  C   UNL A   1      35.128  33.254  31.555  1.00  0.00     0.135 A 
ATOM     79  F   UNL A   1      37.914  34.175  29.410  1.00  0.00    -0.206 F 
ATOM     80  C   UNL A   1      35.643  34.754  29.264  1.00  0.00     0.059 A 
ATOM     81  C   UNL A   1      34.077  33.903  30.914  1.00  0.00     0.059 A 
ATOM     82  F   UNL A   1      34.852  32.527  32.650  1.00  0.00    -0.206 F 
ATOM     83  C   UNL A   1      34.347  34.659  29.773  1.00  0.00     0.060 A 
BRANCH  83  84
ATOM     84  S   UNL A   1      33.008  35.495  28.896  1.00  0.00     0.124 S 
ATOM     85  O   UNL A   1      33.736  36.519  28.157  1.00  0.00    -0.237 OA
ATOM     86  O   UNL A   1      32.439  34.412  28.099  1.00  0.00    -0.237 OA
ATOM     87  O   UNL A   1      32.153  35.980  29.976  1.00  0.00    -0.744 OA
ENDBRANCH  83  84
ENDBRANCH  51  76
BRANCH  63  88
ATOM     88  C   UNL A   1      39.934  34.300  37.027  1.00  0.00     0.058 A 
ATOM     89  C   UNL A   1      40.612  35.521  36.893  1.00  0.00     0.135 A 
ATOM     90  C   UNL A   1      39.135  34.112  38.165  1.00  0.00     0.135 A 
ATOM     91  F   UNL A   1      41.395  35.745  35.826  1.00  0.00    -0.206 F 
ATOM     92  C   UNL A   1      40.516  36.513  37.862  1.00  0.00     0.059 A 
ATOM     93  C   UNL A   1      39.005  35.101  39.135  1.00  0.00     0.059 A 
ATOM     94  F   UNL A   1      38.458  32.965  38.336  1.00  0.00    -0.206 F 
ATOM     95  C   UNL A   1      39.709  36.294  38.980  1.00  0.00     0.060 A 
BRANCH  95  96
ATOM     96  S   UNL A   1      39.565  37.602  40.215  1.00  0.00     0.124 S 
ATOM     97  O   UNL A   1      40.941  38.079  40.299  1.00  0.00    -0.237 OA
ATOM     98  O   UNL A   1      38.613  38.518  39.594  1.00  0.00    -0.237 OA
ATOM     99  O   UNL A   1      39.070  36.901  41.396  1.00  0.00    -0.744 OA
ENDBRANCH  95  96
ENDBRANCH  63  88
ENDBRANCH  37  38
ENDBRANCH  29  32
ENDBRANCH  27  28
ENDBRANCH   1  27
TORSDOF 18
ENDMDL
MODEL 3
REMARK VINA RESULT:     -11.6      0.974      8.247
REMARK SMILES CC(C)(C)OC(=O)N1CCC[C@](Cc2ccccc2)(C(=O)NCCCNC(=O)c2ccc(-c3c4nc(c(-c5c(F)cc(S(=O)(=O)[O-])cc5F)c5ccc([nH]5)c(-c5c(F)cc(S(=O)(=O)[O-])cc5F)c5nc(c(-c6c(F)cc(S(=O)(=O)[O-])cc6F)c6ccc3[nH]6)C=C5)C=C4)cc2)C1
REMARK SMILES IDX 24 1 23 2 22 3 20 4 21 5 12 7 8 8 9 9 95 10 10 11 11 12 6 13
REMARK SMILES IDX 7 14 5 15 2 16 1 17 3 18 4 19 13 20 14 21 15 22 19 23 16 24
REMARK SMILES IDX 18 25 17 26 25 27 26 28 27 29 28 31 29 32 30 33 94 34 31 35
REMARK SMILES IDX 93 36 32 37 33 38 34 39 87 40 35 41 92 42 86 43 88 44 36 45
REMARK SMILES IDX 91 46 85 47 84 48 37 50 71 51 50 52 70 53 51 54 54 55 69 56
REMARK SMILES IDX 89 57 52 58 53 59 68 61 90 62 55 63 38 64 39 65 48 66 40 67
REMARK SMILES IDX 41 68 47 69 49 70 42 71 43 72 44 73 45 74 46 75 72 76 73 77
REMARK SMILES IDX 82 78 74 79 75 80 81 81 83 82 76 83 77 84 78 85 79 86 80 87
REMARK SMILES IDX 56 88 57 89 66 90 58 91 59 92 65 93 67 94 60 95 61 96 62 97
REMARK SMILES IDX 63 98 64 99
REMARK H PARENT 22 6 26 30 88 49 54 60
REMARK Flexibility Score: inf
ROOT
ATOM      1  C   UNL A   1      37.800  24.096  26.327  1.00  0.00     0.042 C 
ENDROOT
BRANCH   1   2
ATOM      2  C   UNL A   1      37.329  23.021  25.356  1.00  0.00     0.117 C 
BRANCH   2   3
ATOM      3  N   UNL A   1      36.217  22.248  25.891  1.00  0.00    -0.355 N 
ATOM      4  C   UNL A   1      34.871  22.351  25.991  1.00  0.00     0.228 C 
ATOM      5  O   UNL A   1      34.377  21.401  26.613  1.00  0.00    -0.274 OA
ATOM      6  H   UNL A   1      36.535  21.409  26.296  1.00  0.00     0.163 HD
BRANCH   4   7
ATOM      7  C   UNL A   1      33.956  23.480  25.419  1.00  0.00     0.071 C 
ATOM      8  N   UNL A   1      32.893  22.049  23.625  1.00  0.00    -0.307 N 
ATOM      9  C   UNL A   1      33.566  22.753  22.548  1.00  0.00     0.123 C 
ATOM     10  C   UNL A   1      32.677  22.793  24.867  1.00  0.00     0.140 C 
ATOM     11  C   UNL A   1      34.891  23.346  22.994  1.00  0.00     0.023 C 
ATOM     12  C   UNL A   1      34.736  24.183  24.268  1.00  0.00     0.021 C 
BRANCH   8  13
ATOM     13  C   UNL A   1      32.421  20.765  23.398  1.00  0.00     0.410 C 
ATOM     14  O   UNL A   1      31.935  20.405  22.335  1.00  0.00    -0.224 OA
BRANCH  13  15
ATOM     15  O   UNL A   1      32.498  19.987  24.510  1.00  0.00    -0.444 OA
BRANCH  15  16
ATOM     16  C   UNL A   1      33.143  18.682  24.494  1.00  0.00     0.106 C 
ATOM     17  C   UNL A   1      32.681  17.999  25.790  1.00  0.00     0.056 C 
ATOM     18  C   UNL A   1      34.658  18.887  24.539  1.00  0.00     0.056 C 
ATOM     19  C   UNL A   1      32.736  17.781  23.319  1.00  0.00     0.056 C 
ENDBRANCH  15  16
ENDBRANCH  13  15
ENDBRANCH   8  13
BRANCH   7  20
ATOM     20  C   UNL A   1      33.601  24.531  26.498  1.00  0.00     0.054 C 
BRANCH  20  21
ATOM     21  C   UNL A   1      33.014  25.886  26.161  1.00  0.00    -0.047 A 
ATOM     22  C   UNL A   1      33.872  26.989  26.003  1.00  0.00     0.004 A 
ATOM     23  C   UNL A   1      31.632  26.108  26.149  1.00  0.00     0.004 A 
ATOM     24  C   UNL A   1      33.360  28.277  25.839  1.00  0.00     0.000 A 
ATOM     25  C   UNL A   1      31.122  27.395  25.965  1.00  0.00     0.000 A 
ATOM     26  C   UNL A   1      31.984  28.480  25.816  1.00  0.00     0.000 A 
ENDBRANCH  20  21
ENDBRANCH   7  20
ENDBRANCH   4   7
ENDBRANCH   2   3
ENDBRANCH   1   2
BRANCH   1  27
ATOM     27  C   UNL A   1      39.160  23.785  26.947  1.00  0.00     0.118 C 
BRANCH  27  28
ATOM     28  N   UNL A   1      40.259  24.318  26.147  1.00  0.00    -0.352 N 
ATOM     29  C   UNL A   1      40.901  25.528  26.211  1.00  0.00     0.251 C 
ATOM     30  H   UNL A   1      40.593  23.711  25.449  1.00  0.00     0.163 HD
ATOM     31  O   UNL A   1      41.613  25.879  25.275  1.00  0.00    -0.269 OA
BRANCH  29  32
ATOM     32  C   UNL A   1      40.748  26.401  27.395  1.00  0.00     0.039 A 
ATOM     33  C   UNL A   1      39.853  26.027  28.402  1.00  0.00     0.014 A 
ATOM     34  C   UNL A   1      41.440  27.612  27.487  1.00  0.00     0.014 A 
ATOM     35  C   UNL A   1      39.694  26.844  29.524  1.00  0.00     0.010 A 
ATOM     36  C   UNL A   1      41.337  28.385  28.638  1.00  0.00     0.010 A 
ATOM     37  C   UNL A   1      40.455  28.016  29.663  1.00  0.00    -0.014 A 
BRANCH  37  38
ATOM     38  C   UNL A   1      40.336  28.878  30.865  1.00  0.00     0.031 A 
ATOM     39  C   UNL A   1      39.313  29.980  30.903  1.00  0.00     0.074 A 
ATOM     40  C   UNL A   1      41.200  28.715  31.886  1.00  0.00     0.049 A 
ATOM     41  N   UNL A   1      39.117  30.894  31.817  1.00  0.00    -0.248 NA
ATOM     42  C   UNL A   1      38.410  30.087  29.745  1.00  0.00     0.031 C 
ATOM     43  C   UNL A   1      42.269  27.713  31.939  1.00  0.00     0.029 A 
ATOM     44  N   UNL A   1      41.326  29.395  33.069  1.00  0.00    -0.354 N 
ATOM     45  C   UNL A   1      38.088  31.695  31.338  1.00  0.00     0.074 A 
ATOM     46  C   UNL A   1      37.732  31.189  30.031  1.00  0.00     0.031 C 
ATOM     47  C   UNL A   1      42.928  27.836  33.102  1.00  0.00     0.029 A 
ATOM     48  C   UNL A   1      42.354  28.942  33.861  1.00  0.00     0.049 A 
ATOM     49  H   UNL A   1      40.736  30.140  33.328  1.00  0.00     0.167 HD
ATOM     50  C   UNL A   1      37.479  32.744  31.943  1.00  0.00     0.037 A 
ATOM     51  C   UNL A   1      42.790  29.374  35.060  1.00  0.00     0.037 A 
ATOM     52  C   UNL A   1      37.817  33.218  33.259  1.00  0.00     0.049 A 
ATOM     53  C   UNL A   1      42.083  30.525  35.722  1.00  0.00     0.074 A 
ATOM     54  C   UNL A   1      37.221  34.232  33.989  1.00  0.00     0.029 A 
ATOM     55  N   UNL A   1      38.839  32.707  34.046  1.00  0.00    -0.354 N 
ATOM     56  N   UNL A   1      41.074  31.235  35.279  1.00  0.00    -0.248 NA
ATOM     57  C   UNL A   1      42.569  30.928  37.048  1.00  0.00     0.031 C 
ATOM     58  C   UNL A   1      37.904  34.355  35.204  1.00  0.00     0.029 A 
ATOM     59  C   UNL A   1      38.900  33.392  35.248  1.00  0.00     0.049 A 
ATOM     60  H   UNL A   1      39.434  31.966  33.788  1.00  0.00     0.167 HD
ATOM     61  C   UNL A   1      40.787  32.155  36.282  1.00  0.00     0.074 A 
ATOM     62  C   UNL A   1      41.723  31.901  37.359  1.00  0.00     0.031 C 
ATOM     63  C   UNL A   1      39.835  33.120  36.310  1.00  0.00     0.037 A 
BRANCH  50  64
ATOM     64  C   UNL A   1      36.381  33.442  31.188  1.00  0.00     0.058 A 
ATOM     65  C   UNL A   1      35.037  33.337  31.579  1.00  0.00     0.135 A 
ATOM     66  C   UNL A   1      36.677  34.249  30.078  1.00  0.00     0.135 A 
ATOM     67  F   UNL A   1      34.696  32.566  32.625  1.00  0.00    -0.206 F 
ATOM     68  C   UNL A   1      34.022  33.978  30.878  1.00  0.00     0.059 A 
ATOM     69  C   UNL A   1      35.681  34.922  29.377  1.00  0.00     0.059 A 
ATOM     70  F   UNL A   1      37.946  34.385  29.660  1.00  0.00    -0.206 F 
ATOM     71  C   UNL A   1      34.353  34.768  29.776  1.00  0.00     0.060 A 
BRANCH  71  72
ATOM     72  S   UNL A   1      33.025  35.595  28.876  1.00  0.00     0.124 S 
ATOM     73  O   UNL A   1      33.773  36.562  28.078  1.00  0.00    -0.237 OA
ATOM     74  O   UNL A   1      32.418  34.495  28.132  1.00  0.00    -0.237 OA
ATOM     75  O   UNL A   1      32.197  36.161  29.936  1.00  0.00    -0.744 OA
ENDBRANCH  71  72
ENDBRANCH  50  64
BRANCH  51  76
ATOM     76  C   UNL A   1      43.935  28.695  35.721  1.00  0.00     0.058 A 
ATOM     77  C   UNL A   1      43.723  27.632  36.611  1.00  0.00     0.135 A 
ATOM     78  C   UNL A   1      45.260  29.075  35.458  1.00  0.00     0.135 A 
ATOM     79  F   UNL A   1      42.473  27.235  36.896  1.00  0.00    -0.206 F 
ATOM     80  C   UNL A   1      44.783  26.978  37.230  1.00  0.00     0.059 A 
ATOM     81  C   UNL A   1      46.338  28.422  36.048  1.00  0.00     0.059 A 
ATOM     82  F   UNL A   1      45.516  30.073  34.597  1.00  0.00    -0.206 F 
ATOM     83  C   UNL A   1      46.088  27.379  36.940  1.00  0.00     0.060 A 
BRANCH  83  84
ATOM     84  S   UNL A   1      47.460  26.489  37.707  1.00  0.00     0.124 S 
ATOM     85  O   UNL A   1      47.114  26.580  39.121  1.00  0.00    -0.237 OA
ATOM     86  O   UNL A   1      47.342  25.165  37.104  1.00  0.00    -0.237 OA
ATOM     87  O   UNL A   1      48.630  27.256  37.291  1.00  0.00    -0.744 OA
ENDBRANCH  83  84
ENDBRANCH  51  76
BRANCH  63  88
ATOM     88  C   UNL A   1      39.737  33.954  37.556  1.00  0.00     0.058 A 
ATOM     89  C   UNL A   1      38.925  33.571  38.635  1.00  0.00     0.135 A 
ATOM     90  C   UNL A   1      40.502  35.123  37.690  1.00  0.00     0.135 A 
ATOM     91  F   UNL A   1      38.169  32.465  38.552  1.00  0.00    -0.206 F 
ATOM     92  C   UNL A   1      38.859  34.331  39.797  1.00  0.00     0.059 A 
ATOM     93  C   UNL A   1      40.470  35.885  38.853  1.00  0.00     0.059 A 
ATOM     94  F   UNL A   1      41.302  35.526  36.690  1.00  0.00    -0.206 F 
ATOM     95  C   UNL A   1      39.636  35.487  39.897  1.00  0.00     0.060 A 
BRANCH  95  96
ATOM     96  S   UNL A   1      39.569  36.447  41.424  1.00  0.00     0.124 S 
ATOM     97  O   UNL A   1      40.946  36.344  41.895  1.00  0.00    -0.237 OA
ATOM     98  O   UNL A   1      39.160  37.766  40.948  1.00  0.00    -0.237 OA
ATOM     99  O   UNL A   1      38.575  35.742  42.226  1.00  0.00    -0.744 OA
ENDBRANCH  95  96
ENDBRANCH  63  88
ENDBRANCH  37  38
ENDBRANCH  29  32
ENDBRANCH  27  28
ENDBRANCH   1  27
TORSDOF 18
ENDMDL
