MODEL 1
REMARK VINA RESULT:     -12.2      0.000      0.000
REMARK SMILES C[N@@H+]1CCC[C@@H](C(=O)N[C@H](C(=O)NCCCNC(=O)c2ccc(-c3c4nc(c(-c5c(F)cc(S(=O)(=O)[O-])cc5F)c5ccc([nH]5)c(-c5c(F)cc(S(=O)(=O)[O-])cc5F)c5nc(c(-c6c(F)cc(S(=O)(=O)[O-])cc6F)c6ccc3[nH]6)C=C5)C=C4)cc2)c2ccccc2)C1
REMARK SMILES IDX 15 1 14 2 13 3 11 4 12 5 10 7 9 8 7 9 8 10 6 12 1 13 2 14
REMARK SMILES IDX 3 15 92 16 4 18 5 19 86 20 87 21 91 22 88 23 90 24 89 25
REMARK SMILES IDX 16 26 17 27 18 28 19 30 20 31 21 32 85 33 22 34 84 35 23 36
REMARK SMILES IDX 24 37 25 38 78 39 26 40 83 41 77 42 79 43 27 44 82 45 76 46
REMARK SMILES IDX 75 47 28 49 62 50 41 51 61 52 42 53 45 54 60 55 80 56 43 57
REMARK SMILES IDX 44 58 59 60 81 61 46 62 29 63 30 64 39 65 31 66 32 67 38 68
REMARK SMILES IDX 40 69 33 70 34 71 35 72 36 73 37 74 63 75 64 76 73 77 65 78
REMARK SMILES IDX 66 79 72 80 74 81 67 82 68 83 69 84 70 85 71 86 47 87 48 88
REMARK SMILES IDX 57 89 49 90 50 91 56 92 58 93 51 94 52 95 53 96 54 97 55 98
REMARK H PARENT 13 6 9 11 2 17 17 29 79 48 45 59
REMARK Flexibility Score: inf
ROOT
ATOM      1  C   UNL A   1      35.055  29.622  27.696  1.00  0.00     0.042 C 
ENDROOT
BRANCH   1   2
ATOM      2  C   UNL A   1      33.744  29.727  26.919  1.00  0.00     0.117 C 
BRANCH   2   3
ATOM      3  N   UNL A   1      32.599  29.179  27.642  1.00  0.00    -0.354 N 
ATOM      4  C   UNL A   1      31.787  28.114  27.332  1.00  0.00     0.247 C 
ATOM      5  O   UNL A   1      30.840  27.876  28.089  1.00  0.00    -0.272 OA
ATOM      6  H   UNL A   1      32.376  29.643  28.481  1.00  0.00     0.163 HD
BRANCH   4   7
ATOM      7  C   UNL A   1      32.067  27.269  26.063  1.00  0.00     0.202 C 
BRANCH   7   8
ATOM      8  N   UNL A   1      32.144  25.851  26.399  1.00  0.00    -0.340 N 
ATOM      9  C   UNL A   1      33.030  24.877  26.087  1.00  0.00     0.229 C 
ATOM     10  O   UNL A   1      32.809  23.764  26.588  1.00  0.00    -0.275 OA
ATOM     11  H   UNL A   1      31.403  25.542  26.968  1.00  0.00     0.164 HD
BRANCH   9  12
ATOM     12  C   UNL A   1      34.288  25.036  25.211  1.00  0.00     0.133 C 
ATOM     13  C   UNL A   1      36.708  22.102  25.347  1.00  0.00     0.332 C 
ATOM     14  N   UNL A   1      35.571  22.908  24.918  1.00  0.00    -0.337 N 
ATOM     15  C   UNL A   1      35.484  23.005  23.459  1.00  0.00     0.262 C 
ATOM     16  C   UNL A   1      35.534  24.219  25.567  1.00  0.00     0.275 C 
ATOM     17  H   UNL A   1      34.734  22.413  25.228  1.00  0.00     0.347 HD
ATOM     18  C   UNL A   1      34.198  23.714  23.024  1.00  0.00     0.062 C 
ATOM     19  C   UNL A   1      34.005  25.061  23.708  1.00  0.00     0.025 C 
ENDBRANCH   9  12
ENDBRANCH   7   8
BRANCH   7  20
ATOM     20  C   UNL A   1      31.131  27.529  24.889  1.00  0.00    -0.016 A 
ATOM     21  C   UNL A   1      30.141  26.626  24.480  1.00  0.00     0.006 A 
ATOM     22  C   UNL A   1      31.150  28.790  24.268  1.00  0.00     0.006 A 
ATOM     23  C   UNL A   1      29.124  27.023  23.605  1.00  0.00     0.000 A 
ATOM     24  C   UNL A   1      30.147  29.186  23.384  1.00  0.00     0.000 A 
ATOM     25  C   UNL A   1      29.112  28.312  23.081  1.00  0.00     0.000 A 
ENDBRANCH   7  20
ENDBRANCH   4   7
ENDBRANCH   2   3
ENDBRANCH   1   2
BRANCH   1  26
ATOM     26  C   UNL A   1      35.530  30.926  28.322  1.00  0.00     0.118 C 
BRANCH  26  27
ATOM     27  N   UNL A   1      35.469  30.901  29.774  1.00  0.00    -0.352 N 
ATOM     28  C   UNL A   1      36.413  30.480  30.683  1.00  0.00     0.251 C 
ATOM     29  H   UNL A   1      34.629  31.235  30.165  1.00  0.00     0.163 HD
ATOM     30  O   UNL A   1      36.095  30.356  31.861  1.00  0.00    -0.269 OA
BRANCH  28  31
ATOM     31  C   UNL A   1      37.794  30.150  30.250  1.00  0.00     0.039 A 
ATOM     32  C   UNL A   1      38.681  29.604  31.184  1.00  0.00     0.014 A 
ATOM     33  C   UNL A   1      38.235  30.399  28.947  1.00  0.00     0.014 A 
ATOM     34  C   UNL A   1      39.980  29.256  30.796  1.00  0.00     0.010 A 
ATOM     35  C   UNL A   1      39.501  29.975  28.541  1.00  0.00     0.010 A 
ATOM     36  C   UNL A   1      40.393  29.408  29.462  1.00  0.00    -0.014 A 
BRANCH  36  37
ATOM     37  C   UNL A   1      41.754  28.994  29.021  1.00  0.00     0.031 A 
ATOM     38  C   UNL A   1      42.879  29.997  28.979  1.00  0.00     0.074 A 
ATOM     39  C   UNL A   1      41.971  27.729  28.605  1.00  0.00     0.049 A 
ATOM     40  N   UNL A   1      44.111  29.842  28.565  1.00  0.00    -0.248 NA
ATOM     41  C   UNL A   1      42.570  31.361  29.437  1.00  0.00     0.031 C 
ATOM     42  C   UNL A   1      40.960  26.670  28.551  1.00  0.00     0.029 A 
ATOM     43  N   UNL A   1      43.111  27.120  28.141  1.00  0.00    -0.354 N 
ATOM     44  C   UNL A   1      44.717  31.086  28.698  1.00  0.00     0.074 A 
ATOM     45  C   UNL A   1      43.702  31.999  29.179  1.00  0.00     0.031 C 
ATOM     46  C   UNL A   1      41.530  25.540  28.104  1.00  0.00     0.029 A 
ATOM     47  C   UNL A   1      42.935  25.798  27.803  1.00  0.00     0.049 A 
ATOM     48  H   UNL A   1      43.975  27.586  28.057  1.00  0.00     0.167 HD
ATOM     49  C   UNL A   1      46.006  31.434  28.466  1.00  0.00     0.037 A 
ATOM     50  C   UNL A   1      43.803  24.896  27.304  1.00  0.00     0.037 A 
ATOM     51  C   UNL A   1      47.022  30.519  28.017  1.00  0.00     0.049 A 
ATOM     52  C   UNL A   1      45.231  25.304  27.055  1.00  0.00     0.074 A 
ATOM     53  C   UNL A   1      48.370  30.763  27.810  1.00  0.00     0.029 A 
ATOM     54  N   UNL A   1      46.807  29.183  27.707  1.00  0.00    -0.354 N 
ATOM     55  N   UNL A   1      45.798  26.471  27.244  1.00  0.00    -0.248 NA
ATOM     56  C   UNL A   1      46.137  24.272  26.532  1.00  0.00     0.031 C 
ATOM     57  C   UNL A   1      48.960  29.587  27.334  1.00  0.00     0.029 A 
ATOM     58  C   UNL A   1      47.992  28.597  27.291  1.00  0.00     0.049 A 
ATOM     59  H   UNL A   1      45.940  28.723  27.771  1.00  0.00     0.167 HD
ATOM     60  C   UNL A   1      47.133  26.307  26.889  1.00  0.00     0.074 A 
ATOM     61  C   UNL A   1      47.290  24.924  26.484  1.00  0.00     0.031 C 
ATOM     62  C   UNL A   1      48.137  27.217  26.899  1.00  0.00     0.037 A 
BRANCH  49  63
ATOM     63  C   UNL A   1      46.393  32.870  28.701  1.00  0.00     0.058 A 
ATOM     64  C   UNL A   1      46.853  33.314  29.952  1.00  0.00     0.135 A 
ATOM     65  C   UNL A   1      46.335  33.807  27.656  1.00  0.00     0.135 A 
ATOM     66  F   UNL A   1      46.917  32.464  30.989  1.00  0.00    -0.206 F 
ATOM     67  C   UNL A   1      47.207  34.641  30.167  1.00  0.00     0.059 A 
ATOM     68  C   UNL A   1      46.712  35.134  27.843  1.00  0.00     0.059 A 
ATOM     69  F   UNL A   1      45.906  33.438  26.440  1.00  0.00    -0.206 F 
ATOM     70  C   UNL A   1      47.131  35.545  29.106  1.00  0.00     0.060 A 
BRANCH  70  71
ATOM     71  S   UNL A   1      47.592  37.265  29.406  1.00  0.00     0.124 S 
ATOM     72  O   UNL A   1      47.899  37.239  30.832  1.00  0.00    -0.237 OA
ATOM     73  O   UNL A   1      48.735  37.443  28.516  1.00  0.00    -0.237 OA
ATOM     74  O   UNL A   1      46.391  38.008  29.036  1.00  0.00    -0.744 OA
ENDBRANCH  70  71
ENDBRANCH  49  63
BRANCH  50  75
ATOM     75  C   UNL A   1      43.351  23.506  27.026  1.00  0.00     0.058 A 
ATOM     76  C   UNL A   1      43.108  23.076  25.713  1.00  0.00     0.135 A 
ATOM     77  C   UNL A   1      43.168  22.577  28.062  1.00  0.00     0.135 A 
ATOM     78  F   UNL A   1      43.262  23.929  24.689  1.00  0.00    -0.206 F 
ATOM     79  C   UNL A   1      42.686  21.779  25.436  1.00  0.00     0.059 A 
ATOM     80  C   UNL A   1      42.771  21.268  27.808  1.00  0.00     0.059 A 
ATOM     81  F   UNL A   1      43.403  22.933  29.334  1.00  0.00    -0.206 F 
ATOM     82  C   UNL A   1      42.523  20.881  26.492  1.00  0.00     0.060 A 
BRANCH  82  83
ATOM     83  S   UNL A   1      42.030  19.184  26.118  1.00  0.00     0.124 S 
ATOM     84  O   UNL A   1      42.407  18.491  27.345  1.00  0.00    -0.237 OA
ATOM     85  O   UNL A   1      40.597  19.326  25.879  1.00  0.00    -0.237 OA
ATOM     86  O   UNL A   1      42.824  18.858  24.938  1.00  0.00    -0.744 OA
ENDBRANCH  82  83
ENDBRANCH  50  75
BRANCH  62  87
ATOM     87  C   UNL A   1      49.507  26.746  26.493  1.00  0.00     0.058 A 
ATOM     88  C   UNL A   1      50.360  26.091  27.395  1.00  0.00     0.135 A 
ATOM     89  C   UNL A   1      49.950  26.908  25.170  1.00  0.00     0.135 A 
ATOM     90  F   UNL A   1      49.987  25.918  28.673  1.00  0.00    -0.206 F 
ATOM     91  C   UNL A   1      51.614  25.632  27.005  1.00  0.00     0.059 A 
ATOM     92  C   UNL A   1      51.189  26.432  24.752  1.00  0.00     0.059 A 
ATOM     93  F   UNL A   1      49.170  27.518  24.265  1.00  0.00    -0.206 F 
ATOM     94  C   UNL A   1      52.019  25.804  25.680  1.00  0.00     0.060 A 
BRANCH  94  95
ATOM     95  S   UNL A   1      53.633  25.172  25.177  1.00  0.00     0.124 S 
ATOM     96  O   UNL A   1      54.514  25.806  26.153  1.00  0.00    -0.237 OA
ATOM     97  O   UNL A   1      53.463  23.730  25.320  1.00  0.00    -0.237 OA
ATOM     98  O   UNL A   1      53.772  25.647  23.803  1.00  0.00    -0.744 OA
ENDBRANCH  94  95
ENDBRANCH  62  87
ENDBRANCH  36  37
ENDBRANCH  28  31
ENDBRANCH  26  27
ENDBRANCH   1  26
TORSDOF 16
ENDMDL
MODEL 2
REMARK VINA RESULT:     -12.0      6.453     11.981
REMARK SMILES C[N@@H+]1CCC[C@@H](C(=O)N[C@H](C(=O)NCCCNC(=O)c2ccc(-c3c4nc(c(-c5c(F)cc(S(=O)(=O)[O-])cc5F)c5ccc([nH]5)c(-c5c(F)cc(S(=O)(=O)[O-])cc5F)c5nc(c(-c6c(F)cc(S(=O)(=O)[O-])cc6F)c6ccc3[nH]6)C=C5)C=C4)cc2)c2ccccc2)C1
REMARK SMILES IDX 15 1 14 2 13 3 11 4 12 5 10 7 9 8 7 9 8 10 6 12 1 13 2 14
REMARK SMILES IDX 3 15 92 16 4 18 5 19 86 20 87 21 91 22 88 23 90 24 89 25
REMARK SMILES IDX 16 26 17 27 18 28 19 30 20 31 21 32 85 33 22 34 84 35 23 36
REMARK SMILES IDX 24 37 25 38 78 39 26 40 83 41 77 42 79 43 27 44 82 45 76 46
REMARK SMILES IDX 75 47 28 49 62 50 41 51 61 52 42 53 45 54 60 55 80 56 43 57
REMARK SMILES IDX 44 58 59 60 81 61 46 62 29 63 30 64 39 65 31 66 32 67 38 68
REMARK SMILES IDX 40 69 33 70 34 71 35 72 36 73 37 74 63 75 64 76 73 77 65 78
REMARK SMILES IDX 66 79 72 80 74 81 67 82 68 83 69 84 70 85 71 86 47 87 48 88
REMARK SMILES IDX 57 89 49 90 50 91 56 92 58 93 51 94 52 95 53 96 54 97 55 98
REMARK H PARENT 13 6 9 11 2 17 17 29 79 48 45 59
REMARK Flexibility Score: inf
ROOT
ATOM      1  C   UNL A   1      38.328  23.966  26.513  1.00  0.00     0.042 C 
ENDROOT
BRANCH   1   2
ATOM      2  C   UNL A   1      37.385  22.917  25.926  1.00  0.00     0.117 C 
BRANCH   2   3
ATOM      3  N   UNL A   1      37.381  22.897  24.466  1.00  0.00    -0.354 N 
ATOM      4  C   UNL A   1      36.341  23.068  23.583  1.00  0.00     0.247 C 
ATOM      5  O   UNL A   1      36.588  22.955  22.378  1.00  0.00    -0.272 OA
ATOM      6  H   UNL A   1      38.259  22.739  24.050  1.00  0.00     0.163 HD
BRANCH   4   7
ATOM      7  C   UNL A   1      34.918  23.377  24.113  1.00  0.00     0.202 C 
BRANCH   7   8
ATOM      8  N   UNL A   1      34.358  24.539  23.429  1.00  0.00    -0.340 N 
ATOM      9  C   UNL A   1      33.821  25.698  23.872  1.00  0.00     0.229 C 
ATOM     10  O   UNL A   1      33.474  26.504  22.995  1.00  0.00    -0.275 OA
ATOM     11  H   UNL A   1      34.376  24.462  22.447  1.00  0.00     0.164 HD
BRANCH   9  12
ATOM     12  C   UNL A   1      33.643  26.116  25.345  1.00  0.00     0.133 C 
ATOM     13  C   UNL A   1      32.486  29.705  25.857  1.00  0.00     0.332 C 
ATOM     14  N   UNL A   1      32.397  28.268  25.625  1.00  0.00    -0.337 N 
ATOM     15  C   UNL A   1      31.401  27.630  26.488  1.00  0.00     0.262 C 
ATOM     16  C   UNL A   1      33.701  27.606  25.694  1.00  0.00     0.275 C 
ATOM     17  H   UNL A   1      32.070  28.151  24.665  1.00  0.00     0.347 HD
ATOM     18  C   UNL A   1      31.206  26.157  26.119  1.00  0.00     0.062 C 
ATOM     19  C   UNL A   1      32.515  25.380  26.071  1.00  0.00     0.025 C 
ENDBRANCH   9  12
ENDBRANCH   7   8
BRANCH   7  20
ATOM     20  C   UNL A   1      33.955  22.196  24.117  1.00  0.00    -0.016 A 
ATOM     21  C   UNL A   1      32.832  22.117  23.283  1.00  0.00     0.006 A 
ATOM     22  C   UNL A   1      34.273  21.059  24.880  1.00  0.00     0.006 A 
ATOM     23  C   UNL A   1      32.153  20.907  23.106  1.00  0.00     0.000 A 
ATOM     24  C   UNL A   1      33.591  19.854  24.718  1.00  0.00     0.000 A 
ATOM     25  C   UNL A   1      32.552  19.769  23.801  1.00  0.00     0.000 A 
ENDBRANCH   7  20
ENDBRANCH   4   7
ENDBRANCH   2   3
ENDBRANCH   1   2
BRANCH   1  26
ATOM     26  C   UNL A   1      39.679  23.426  26.961  1.00  0.00     0.118 C 
BRANCH  26  27
ATOM     27  N   UNL A   1      40.771  23.890  26.122  1.00  0.00    -0.352 N 
ATOM     28  C   UNL A   1      41.503  25.053  26.200  1.00  0.00     0.251 C 
ATOM     29  H   UNL A   1      41.024  23.283  25.389  1.00  0.00     0.163 HD
ATOM     30  O   UNL A   1      42.254  25.350  25.276  1.00  0.00    -0.269 OA
BRANCH  28  31
ATOM     31  C   UNL A   1      41.373  25.958  27.370  1.00  0.00     0.039 A 
ATOM     32  C   UNL A   1      42.209  27.076  27.452  1.00  0.00     0.014 A 
ATOM     33  C   UNL A   1      40.461  25.703  28.398  1.00  0.00     0.014 A 
ATOM     34  C   UNL A   1      42.088  27.963  28.529  1.00  0.00     0.010 A 
ATOM     35  C   UNL A   1      40.285  26.630  29.425  1.00  0.00     0.010 A 
ATOM     36  C   UNL A   1      41.102  27.767  29.509  1.00  0.00    -0.014 A 
BRANCH  36  37
ATOM     37  C   UNL A   1      40.925  28.728  30.633  1.00  0.00     0.031 A 
ATOM     38  C   UNL A   1      41.781  28.620  31.870  1.00  0.00     0.074 A 
ATOM     39  C   UNL A   1      39.959  29.668  30.569  1.00  0.00     0.049 A 
ATOM     40  N   UNL A   1      41.732  29.322  32.973  1.00  0.00    -0.248 NA
ATOM     41  C   UNL A   1      42.808  27.567  31.877  1.00  0.00     0.031 C 
ATOM     42  C   UNL A   1      39.031  29.853  29.451  1.00  0.00     0.029 A 
ATOM     43  N   UNL A   1      39.591  30.639  31.467  1.00  0.00    -0.354 N 
ATOM     44  C   UNL A   1      42.707  28.788  33.808  1.00  0.00     0.074 A 
ATOM     45  C   UNL A   1      43.294  27.668  33.105  1.00  0.00     0.031 C 
ATOM     46  C   UNL A   1      38.219  30.888  29.720  1.00  0.00     0.029 A 
ATOM     47  C   UNL A   1      38.538  31.418  31.042  1.00  0.00     0.049 A 
ATOM     48  H   UNL A   1      40.038  30.767  32.335  1.00  0.00     0.167 HD
ATOM     49  C   UNL A   1      43.097  29.204  35.037  1.00  0.00     0.037 A 
ATOM     50  C   UNL A   1      37.900  32.438  31.647  1.00  0.00     0.037 A 
ATOM     51  C   UNL A   1      42.533  30.338  35.723  1.00  0.00     0.049 A 
ATOM     52  C   UNL A   1      38.351  32.885  33.012  1.00  0.00     0.074 A 
ATOM     53  C   UNL A   1      42.902  30.875  36.946  1.00  0.00     0.029 A 
ATOM     54  N   UNL A   1      41.484  31.112  35.249  1.00  0.00    -0.354 N 
ATOM     55  N   UNL A   1      39.315  32.404  33.759  1.00  0.00    -0.248 NA
ATOM     56  C   UNL A   1      37.633  34.019  33.612  1.00  0.00     0.031 C 
ATOM     57  C   UNL A   1      42.048  31.946  37.229  1.00  0.00     0.029 A 
ATOM     58  C   UNL A   1      41.179  32.108  36.162  1.00  0.00     0.049 A 
ATOM     59  H   UNL A   1      41.023  30.972  34.390  1.00  0.00     0.167 HD
ATOM     60  C   UNL A   1      39.337  33.192  34.906  1.00  0.00     0.074 A 
ATOM     61  C   UNL A   1      38.296  34.188  34.748  1.00  0.00     0.031 C 
ATOM     62  C   UNL A   1      40.146  33.100  35.989  1.00  0.00     0.037 A 
BRANCH  49  63
ATOM     63  C   UNL A   1      44.194  28.432  35.719  1.00  0.00     0.058 A 
ATOM     64  C   UNL A   1      43.914  27.362  36.585  1.00  0.00     0.135 A 
ATOM     65  C   UNL A   1      45.543  28.743  35.482  1.00  0.00     0.135 A 
ATOM     66  F   UNL A   1      42.643  27.029  36.858  1.00  0.00    -0.206 F 
ATOM     67  C   UNL A   1      44.929  26.652  37.216  1.00  0.00     0.059 A 
ATOM     68  C   UNL A   1      46.575  28.027  36.080  1.00  0.00     0.059 A 
ATOM     69  F   UNL A   1      45.869  29.755  34.662  1.00  0.00    -0.206 F 
ATOM     70  C   UNL A   1      46.258  26.994  36.959  1.00  0.00     0.060 A 
BRANCH  70  71
ATOM     71  S   UNL A   1      47.563  26.063  37.791  1.00  0.00     0.124 S 
ATOM     72  O   UNL A   1      48.761  26.709  37.264  1.00  0.00    -0.237 OA
ATOM     73  O   UNL A   1      47.277  26.312  39.199  1.00  0.00    -0.237 OA
ATOM     74  O   UNL A   1      47.341  24.692  37.341  1.00  0.00    -0.744 OA
ENDBRANCH  70  71
ENDBRANCH  49  63
BRANCH  50  75
ATOM     75  C   UNL A   1      36.777  33.125  30.956  1.00  0.00     0.058 A 
ATOM     76  C   UNL A   1      37.018  34.019  29.901  1.00  0.00     0.135 A 
ATOM     77  C   UNL A   1      35.442  32.893  31.323  1.00  0.00     0.135 A 
ATOM     78  F   UNL A   1      38.277  34.279  29.518  1.00  0.00    -0.206 F 
ATOM     79  C   UNL A   1      35.978  34.669  29.243  1.00  0.00     0.059 A 
ATOM     80  C   UNL A   1      34.384  33.512  30.663  1.00  0.00     0.059 A 
ATOM     81  F   UNL A   1      35.156  32.035  32.314  1.00  0.00    -0.206 F 
ATOM     82  C   UNL A   1      34.663  34.405  29.631  1.00  0.00     0.060 A 
BRANCH  82  83
ATOM     83  S   UNL A   1      33.318  35.210  28.733  1.00  0.00     0.124 S 
ATOM     84  O   UNL A   1      34.044  36.187  27.930  1.00  0.00    -0.237 OA
ATOM     85  O   UNL A   1      32.726  34.094  28.001  1.00  0.00    -0.237 OA
ATOM     86  O   UNL A   1      32.486  35.759  29.799  1.00  0.00    -0.744 OA
ENDBRANCH  82  83
ENDBRANCH  50  75
BRANCH  62  87
ATOM     87  C   UNL A   1      39.967  34.120  37.080  1.00  0.00     0.058 A 
ATOM     88  C   UNL A   1      40.620  35.362  37.043  1.00  0.00     0.135 A 
ATOM     89  C   UNL A   1      39.091  33.871  38.149  1.00  0.00     0.135 A 
ATOM     90  F   UNL A   1      41.473  35.648  36.047  1.00  0.00    -0.206 F 
ATOM     91  C   UNL A   1      40.427  36.313  38.040  1.00  0.00     0.059 A 
ATOM     92  C   UNL A   1      38.863  34.818  39.142  1.00  0.00     0.059 A 
ATOM     93  F   UNL A   1      38.434  32.703  38.227  1.00  0.00    -0.206 F 
ATOM     94  C   UNL A   1      39.544  36.034  39.084  1.00  0.00     0.060 A 
BRANCH  94  95
ATOM     95  S   UNL A   1      39.274  37.290  40.352  1.00  0.00     0.124 S 
ATOM     96  O   UNL A   1      40.644  37.655  40.699  1.00  0.00    -0.237 OA
ATOM     97  O   UNL A   1      38.512  38.304  39.630  1.00  0.00    -0.237 OA
ATOM     98  O   UNL A   1      38.532  36.576  41.387  1.00  0.00    -0.744 OA
ENDBRANCH  94  95
ENDBRANCH  62  87
ENDBRANCH  36  37
ENDBRANCH  28  31
ENDBRANCH  26  27
ENDBRANCH   1  26
TORSDOF 16
ENDMDL
MODEL 3
REMARK VINA RESULT:     -12.0      6.688     12.198
REMARK SMILES C[N@@H+]1CCC[C@@H](C(=O)N[C@H](C(=O)NCCCNC(=O)c2ccc(-c3c4nc(c(-c5c(F)cc(S(=O)(=O)[O-])cc5F)c5ccc([nH]5)c(-c5c(F)cc(S(=O)(=O)[O-])cc5F)c5nc(c(-c6c(F)cc(S(=O)(=O)[O-])cc6F)c6ccc3[nH]6)C=C5)C=C4)cc2)c2ccccc2)C1
REMARK SMILES IDX 15 1 14 2 13 3 11 4 12 5 10 7 9 8 7 9 8 10 6 12 1 13 2 14
REMARK SMILES IDX 3 15 92 16 4 18 5 19 86 20 87 21 91 22 88 23 90 24 89 25
REMARK SMILES IDX 16 26 17 27 18 28 19 30 20 31 21 32 85 33 22 34 84 35 23 36
REMARK SMILES IDX 24 37 25 38 78 39 26 40 83 41 77 42 79 43 27 44 82 45 76 46
REMARK SMILES IDX 75 47 28 49 62 50 41 51 61 52 42 53 45 54 60 55 80 56 43 57
REMARK SMILES IDX 44 58 59 60 81 61 46 62 29 63 30 64 39 65 31 66 32 67 38 68
REMARK SMILES IDX 40 69 33 70 34 71 35 72 36 73 37 74 63 75 64 76 73 77 65 78
REMARK SMILES IDX 66 79 72 80 74 81 67 82 68 83 69 84 70 85 71 86 47 87 48 88
REMARK SMILES IDX 57 89 49 90 50 91 56 92 58 93 51 94 52 95 53 96 54 97 55 98
REMARK H PARENT 13 6 9 11 2 17 17 29 79 48 45 59
REMARK Flexibility Score: inf
ROOT
ATOM      1  C   UNL A   1      37.331  23.658  25.347  1.00  0.00     0.042 C 
ENDROOT
BRANCH   1   2
ATOM      2  C   UNL A   1      36.783  22.232  25.365  1.00  0.00     0.117 C 
BRANCH   2   3
ATOM      3  N   UNL A   1      35.890  21.972  26.491  1.00  0.00    -0.354 N 
ATOM      4  C   UNL A   1      34.558  21.629  26.501  1.00  0.00     0.247 C 
ATOM      5  O   UNL A   1      34.005  21.511  27.598  1.00  0.00    -0.272 OA
ATOM      6  H   UNL A   1      36.305  22.054  27.379  1.00  0.00     0.163 HD
BRANCH   4   7
ATOM      7  C   UNL A   1      33.803  21.418  25.164  1.00  0.00     0.202 C 
BRANCH   7   8
ATOM      8  N   UNL A   1      34.379  22.252  24.113  1.00  0.00    -0.340 N 
ATOM      9  C   UNL A   1      34.079  23.486  23.650  1.00  0.00     0.229 C 
ATOM     10  O   UNL A   1      34.818  23.922  22.753  1.00  0.00    -0.275 OA
ATOM     11  H   UNL A   1      35.139  21.830  23.650  1.00  0.00     0.164 HD
BRANCH   9  12
ATOM     12  C   UNL A   1      32.946  24.400  24.156  1.00  0.00     0.133 C 
ATOM     13  C   UNL A   1      33.721  28.124  24.031  1.00  0.00     0.332 C 
ATOM     14  N   UNL A   1      33.278  26.812  23.575  1.00  0.00    -0.337 N 
ATOM     15  C   UNL A   1      31.980  26.872  22.899  1.00  0.00     0.262 C 
ATOM     16  C   UNL A   1      33.304  25.808  24.641  1.00  0.00     0.275 C 
ATOM     17  H   UNL A   1      33.957  26.503  22.878  1.00  0.00     0.347 HD
ATOM     18  C   UNL A   1      31.608  25.519  22.287  1.00  0.00     0.062 C 
ATOM     19  C   UNL A   1      31.687  24.374  23.288  1.00  0.00     0.025 C 
ENDBRANCH   9  12
ENDBRANCH   7   8
BRANCH   7  20
ATOM     20  C   UNL A   1      33.653  19.966  24.724  1.00  0.00    -0.016 A 
ATOM     21  C   UNL A   1      32.529  19.481  24.043  1.00  0.00     0.006 A 
ATOM     22  C   UNL A   1      34.744  19.093  24.872  1.00  0.00     0.006 A 
ATOM     23  C   UNL A   1      32.559  18.236  23.405  1.00  0.00     0.000 A 
ATOM     24  C   UNL A   1      34.773  17.845  24.251  1.00  0.00     0.000 A 
ATOM     25  C   UNL A   1      33.692  17.432  23.485  1.00  0.00     0.000 A 
ENDBRANCH   7  20
ENDBRANCH   4   7
ENDBRANCH   2   3
ENDBRANCH   1   2
BRANCH   1  26
ATOM     26  C   UNL A   1      38.270  23.993  26.498  1.00  0.00     0.118 C 
BRANCH  26  27
ATOM     27  N   UNL A   1      39.670  23.878  26.126  1.00  0.00    -0.352 N 
ATOM     28  C   UNL A   1      40.737  24.674  26.474  1.00  0.00     0.251 C 
ATOM     29  H   UNL A   1      39.886  23.118  25.538  1.00  0.00     0.163 HD
ATOM     30  O   UNL A   1      41.809  24.523  25.896  1.00  0.00    -0.269 OA
BRANCH  28  31
ATOM     31  C   UNL A   1      40.597  25.725  27.513  1.00  0.00     0.039 A 
ATOM     32  C   UNL A   1      39.612  25.575  28.494  1.00  0.00     0.014 A 
ATOM     33  C   UNL A   1      41.402  26.867  27.515  1.00  0.00     0.014 A 
ATOM     34  C   UNL A   1      39.477  26.535  29.504  1.00  0.00     0.010 A 
ATOM     35  C   UNL A   1      41.322  27.780  28.568  1.00  0.00     0.010 A 
ATOM     36  C   UNL A   1      40.352  27.631  29.570  1.00  0.00    -0.014 A 
BRANCH  36  37
ATOM     37  C   UNL A   1      40.256  28.634  30.666  1.00  0.00     0.031 A 
ATOM     38  C   UNL A   1      41.128  28.511  31.890  1.00  0.00     0.074 A 
ATOM     39  C   UNL A   1      39.347  29.629  30.591  1.00  0.00     0.049 A 
ATOM     40  N   UNL A   1      41.145  29.247  32.972  1.00  0.00    -0.248 NA
ATOM     41  C   UNL A   1      42.090  27.397  31.910  1.00  0.00     0.031 C 
ATOM     42  C   UNL A   1      38.410  29.837  29.485  1.00  0.00     0.029 A 
ATOM     43  N   UNL A   1      39.057  30.647  31.466  1.00  0.00    -0.354 N 
ATOM     44  C   UNL A   1      42.101  28.678  33.805  1.00  0.00     0.074 A 
ATOM     45  C   UNL A   1      42.606  27.504  33.126  1.00  0.00     0.031 C 
ATOM     46  C   UNL A   1      37.668  30.927  29.737  1.00  0.00     0.029 A 
ATOM     47  C   UNL A   1      38.045  31.476  31.036  1.00  0.00     0.049 A 
ATOM     48  H   UNL A   1      39.528  30.773  32.321  1.00  0.00     0.167 HD
ATOM     49  C   UNL A   1      42.540  29.107  35.014  1.00  0.00     0.037 A 
ATOM     50  C   UNL A   1      37.482  32.551  31.621  1.00  0.00     0.037 A 
ATOM     51  C   UNL A   1      42.061  30.292  35.674  1.00  0.00     0.049 A 
ATOM     52  C   UNL A   1      37.987  33.009  32.963  1.00  0.00     0.074 A 
ATOM     53  C   UNL A   1      42.485  30.841  36.873  1.00  0.00     0.029 A 
ATOM     54  N   UNL A   1      41.051  31.115  35.196  1.00  0.00    -0.354 N 
ATOM     55  N   UNL A   1      38.935  32.493  33.707  1.00  0.00    -0.248 NA
ATOM     56  C   UNL A   1      37.351  34.202  33.541  1.00  0.00     0.031 C 
ATOM     57  C   UNL A   1      41.704  31.971  37.139  1.00  0.00     0.029 A 
ATOM     58  C   UNL A   1      40.825  32.154  36.083  1.00  0.00     0.049 A 
ATOM     59  H   UNL A   1      40.566  30.978  34.350  1.00  0.00     0.167 HD
ATOM     60  C   UNL A   1      39.028  33.311  34.828  1.00  0.00     0.074 A 
ATOM     61  C   UNL A   1      38.046  34.363  34.659  1.00  0.00     0.031 C 
ATOM     62  C   UNL A   1      39.851  33.201  35.900  1.00  0.00     0.037 A 
BRANCH  49  63
ATOM     63  C   UNL A   1      43.602  28.289  35.699  1.00  0.00     0.058 A 
ATOM     64  C   UNL A   1      44.969  28.508  35.461  1.00  0.00     0.135 A 
ATOM     65  C   UNL A   1      43.253  27.296  36.629  1.00  0.00     0.135 A 
ATOM     66  F   UNL A   1      45.361  29.436  34.574  1.00  0.00    -0.206 F 
ATOM     67  C   UNL A   1      45.948  27.750  36.093  1.00  0.00     0.059 A 
ATOM     68  C   UNL A   1      44.217  26.545  37.294  1.00  0.00     0.059 A 
ATOM     69  F   UNL A   1      41.962  27.046  36.897  1.00  0.00    -0.206 F 
ATOM     70  C   UNL A   1      45.562  26.768  37.007  1.00  0.00     0.060 A 
BRANCH  70  71
ATOM     71  S   UNL A   1      46.847  25.790  37.816  1.00  0.00     0.124 S 
ATOM     72  O   UNL A   1      47.917  26.774  37.952  1.00  0.00    -0.237 OA
ATOM     73  O   UNL A   1      46.198  25.386  39.058  1.00  0.00    -0.237 OA
ATOM     74  O   UNL A   1      47.103  24.713  36.865  1.00  0.00    -0.744 OA
ENDBRANCH  70  71
ENDBRANCH  49  63
BRANCH  50  75
ATOM     75  C   UNL A   1      36.389  33.284  30.930  1.00  0.00     0.058 A 
ATOM     76  C   UNL A   1      35.062  33.191  31.377  1.00  0.00     0.135 A 
ATOM     77  C   UNL A   1      36.647  34.103  29.819  1.00  0.00     0.135 A 
ATOM     78  F   UNL A   1      34.763  32.415  32.430  1.00  0.00    -0.206 F 
ATOM     79  C   UNL A   1      34.028  33.872  30.742  1.00  0.00     0.059 A 
ATOM     80  C   UNL A   1      35.634  34.814  29.183  1.00  0.00     0.059 A 
ATOM     81  F   UNL A   1      37.901  34.240  29.361  1.00  0.00    -0.206 F 
ATOM     82  C   UNL A   1      34.326  34.684  29.646  1.00  0.00     0.060 A 
BRANCH  82  83
ATOM     83  S   UNL A   1      32.986  35.608  28.864  1.00  0.00     0.124 S 
ATOM     84  O   UNL A   1      32.204  36.029  30.021  1.00  0.00    -0.237 OA
ATOM     85  O   UNL A   1      33.709  36.665  28.163  1.00  0.00    -0.237 OA
ATOM     86  O   UNL A   1      32.353  34.615  28.001  1.00  0.00    -0.744 OA
ENDBRANCH  82  83
ENDBRANCH  50  75
BRANCH  62  87
ATOM     87  C   UNL A   1      39.756  34.262  36.961  1.00  0.00     0.058 A 
ATOM     88  C   UNL A   1      40.405  35.500  36.828  1.00  0.00     0.135 A 
ATOM     89  C   UNL A   1      38.964  34.056  38.102  1.00  0.00     0.135 A 
ATOM     90  F   UNL A   1      41.180  35.745  35.759  1.00  0.00    -0.206 F 
ATOM     91  C   UNL A   1      40.289  36.489  37.800  1.00  0.00     0.059 A 
ATOM     92  C   UNL A   1      38.812  35.041  39.073  1.00  0.00     0.059 A 
ATOM     93  F   UNL A   1      38.314  32.895  38.274  1.00  0.00    -0.206 F 
ATOM     94  C   UNL A   1      39.488  36.251  38.918  1.00  0.00     0.060 A 
BRANCH  94  95
ATOM     95  S   UNL A   1      39.316  37.555  40.155  1.00  0.00     0.124 S 
ATOM     96  O   UNL A   1      40.629  38.189  40.097  1.00  0.00    -0.237 OA
ATOM     97  O   UNL A   1      38.208  38.344  39.626  1.00  0.00    -0.237 OA
ATOM     98  O   UNL A   1      39.025  36.823  41.384  1.00  0.00    -0.744 OA
ENDBRANCH  94  95
ENDBRANCH  62  87
ENDBRANCH  36  37
ENDBRANCH  28  31
ENDBRANCH  26  27
ENDBRANCH   1  26
TORSDOF 16
ENDMDL
