MODEL 1
REMARK VINA RESULT:     -12.1      0.000      0.000
REMARK SMILES O=C(COc1nc(NCc2cccc(Cl)c2)nc2c1CCC2)NCCCNC(=O)c1ccc(-c2c3nc(c(-c4c(F)cc(S(=O)(=O)[O-])cc4F)c4ccc([nH]4)c(-c4c(F)cc(S(=O)(=O)[O-])cc4F)c4nc(c(-c5c(F)cc(S(=O)(=O)[O-])cc5F)c5ccc2[nH]5)C=C4)C=C3)cc1
REMARK SMILES IDX 24 1 23 2 1 3 2 4 3 6 4 7 5 8 6 9 19 10 7 11 18 12 20 13
REMARK SMILES IDX 17 14 22 15 21 16 8 17 9 19 10 20 11 21 16 22 12 23 14 24
REMARK SMILES IDX 13 25 15 26 25 27 26 28 27 29 28 30 29 32 30 33 31 34 95 35
REMARK SMILES IDX 32 36 94 37 33 38 34 39 35 40 88 41 36 42 93 43 87 44 89 45
REMARK SMILES IDX 37 46 92 47 86 48 85 49 38 51 72 52 51 53 71 54 52 55 55 56
REMARK SMILES IDX 70 57 90 58 53 59 54 60 69 62 91 63 56 64 39 65 40 66 49 67
REMARK SMILES IDX 41 68 42 69 48 70 50 71 43 72 44 73 45 74 46 75 47 76 73 77
REMARK SMILES IDX 74 78 83 79 75 80 76 81 82 82 84 83 77 84 78 85 79 86 80 87
REMARK SMILES IDX 81 88 57 89 58 90 67 91 59 92 60 93 66 94 68 95 61 96 62 97
REMARK SMILES IDX 63 98 64 99 65 100
REMARK H PARENT 23 5 8 18 27 31 89 50 55 61
REMARK Flexibility Score: inf
ROOT
ATOM      1  C   UNL A   1      40.116  21.612  26.077  1.00  0.00     0.117 C 
ENDROOT
BRANCH   1   2
ATOM      2  N   UNL A   1      38.699  21.403  25.872  1.00  0.00    -0.353 N 
ATOM      3  O   UNL A   1      38.119  23.625  25.913  1.00  0.00    -0.271 OA
ATOM      4  C   UNL A   1      37.813  22.449  25.731  1.00  0.00     0.258 C 
ATOM      5  H   UNL A   1      38.356  20.481  25.832  1.00  0.00     0.163 HD
BRANCH   4   6
ATOM      6  C   UNL A   1      36.371  22.031  25.399  1.00  0.00     0.331 C 
BRANCH   6   7
ATOM      7  O   UNL A   1      36.107  20.678  25.044  1.00  0.00    -0.467 OA
BRANCH   7   8
ATOM      8  C   UNL A   1      34.765  20.385  25.111  1.00  0.00     0.222 A 
ATOM      9  N   UNL A   1      33.922  21.353  25.502  1.00  0.00    -0.177 NA
ATOM     10  C   UNL A   1      34.329  19.173  24.679  1.00  0.00     0.036 A 
ATOM     11  C   UNL A   1      32.606  21.083  25.484  1.00  0.00     0.226 A 
ATOM     12  C   UNL A   1      32.970  18.984  24.718  1.00  0.00     0.053 A 
ATOM     13  C   UNL A   1      35.053  17.956  24.237  1.00  0.00     0.043 C 
ATOM     14  N   UNL A   1      32.083  19.906  25.109  1.00  0.00    -0.218 NA
ATOM     15  C   UNL A   1      32.615  17.580  24.322  1.00  0.00     0.057 C 
ATOM     16  C   UNL A   1      33.905  17.143  23.613  1.00  0.00     0.011 C 
BRANCH  11  17
ATOM     17  N   UNL A   1      31.800  22.108  25.880  1.00  0.00    -0.350 N 
ATOM     18  H   UNL A   1      30.880  22.138  25.528  1.00  0.00     0.164 HD
BRANCH  17  19
ATOM     19  C   UNL A   1      32.213  23.143  26.780  1.00  0.00     0.152 C 
BRANCH  19  20
ATOM     20  C   UNL A   1      31.923  24.490  26.162  1.00  0.00    -0.027 A 
ATOM     21  C   UNL A   1      30.749  24.682  25.417  1.00  0.00     0.005 A 
ATOM     22  C   UNL A   1      32.794  25.572  26.352  1.00  0.00     0.026 A 
ATOM     23  C   UNL A   1      30.462  25.926  24.852  1.00  0.00     0.002 A 
ATOM     24  C   UNL A   1      32.501  26.812  25.785  1.00  0.00     0.041 A 
ATOM     25  C   UNL A   1      31.341  26.993  25.033  1.00  0.00     0.020 A 
ATOM     26  Cl  UNL A   1      33.582  28.132  26.010  1.00  0.00    -0.084 Cl
ENDBRANCH  19  20
ENDBRANCH  17  19
ENDBRANCH  11  17
ENDBRANCH   7   8
ENDBRANCH   6   7
ENDBRANCH   4   6
ENDBRANCH   1   2
BRANCH   1  27
ATOM     27  C   UNL A   1      40.480  21.878  27.531  1.00  0.00     0.042 C 
BRANCH  27  28
ATOM     28  C   UNL A   1      41.412  23.069  27.735  1.00  0.00     0.118 C 
BRANCH  28  29
ATOM     29  N   UNL A   1      41.718  23.776  26.498  1.00  0.00    -0.352 N 
ATOM     30  C   UNL A   1      41.655  25.113  26.192  1.00  0.00     0.251 C 
ATOM     31  H   UNL A   1      42.021  23.200  25.760  1.00  0.00     0.163 HD
ATOM     32  O   UNL A   1      41.817  25.472  25.027  1.00  0.00    -0.269 OA
BRANCH  30  33
ATOM     33  C   UNL A   1      41.365  26.119  27.239  1.00  0.00     0.039 A 
ATOM     34  C   UNL A   1      40.310  25.879  28.125  1.00  0.00     0.014 A 
ATOM     35  C   UNL A   1      42.105  27.299  27.339  1.00  0.00     0.014 A 
ATOM     36  C   UNL A   1      40.053  26.782  29.159  1.00  0.00     0.010 A 
ATOM     37  C   UNL A   1      41.891  28.166  28.411  1.00  0.00     0.010 A 
ATOM     38  C   UNL A   1      40.868  27.912  29.337  1.00  0.00    -0.014 A 
BRANCH  38  39
ATOM     39  C   UNL A   1      40.677  28.818  30.499  1.00  0.00     0.031 A 
ATOM     40  C   UNL A   1      41.536  28.681  31.724  1.00  0.00     0.074 A 
ATOM     41  C   UNL A   1      39.694  29.739  30.464  1.00  0.00     0.049 A 
ATOM     42  N   UNL A   1      41.487  29.358  32.843  1.00  0.00    -0.248 NA
ATOM     43  C   UNL A   1      42.571  27.636  31.699  1.00  0.00     0.031 C 
ATOM     44  C   UNL A   1      38.766  29.944  29.347  1.00  0.00     0.029 A 
ATOM     45  N   UNL A   1      39.308  30.677  31.389  1.00  0.00    -0.354 N 
ATOM     46  C   UNL A   1      42.480  28.822  33.655  1.00  0.00     0.074 A 
ATOM     47  C   UNL A   1      43.082  27.731  32.920  1.00  0.00     0.031 C 
ATOM     48  C   UNL A   1      37.943  30.964  29.640  1.00  0.00     0.029 A 
ATOM     49  C   UNL A   1      38.258  31.464  30.975  1.00  0.00     0.049 A 
ATOM     50  H   UNL A   1      39.741  30.775  32.267  1.00  0.00     0.167 HD
ATOM     51  C   UNL A   1      42.872  29.221  34.888  1.00  0.00     0.037 A 
ATOM     52  C   UNL A   1      37.623  32.476  31.597  1.00  0.00     0.037 A 
ATOM     53  C   UNL A   1      42.289  30.322  35.608  1.00  0.00     0.049 A 
ATOM     54  C   UNL A   1      38.065  32.888  32.973  1.00  0.00     0.074 A 
ATOM     55  C   UNL A   1      42.650  30.830  36.844  1.00  0.00     0.029 A 
ATOM     56  N   UNL A   1      41.223  31.087  35.158  1.00  0.00    -0.354 N 
ATOM     57  N   UNL A   1      39.037  32.399  33.705  1.00  0.00    -0.248 NA
ATOM     58  C   UNL A   1      37.325  33.986  33.610  1.00  0.00     0.031 C 
ATOM     59  C   UNL A   1      41.783  31.883  37.155  1.00  0.00     0.029 A 
ATOM     60  C   UNL A   1      40.902  32.051  36.099  1.00  0.00     0.049 A 
ATOM     61  H   UNL A   1      40.761  30.962  34.297  1.00  0.00     0.167 HD
ATOM     62  C   UNL A   1      39.036  33.140  34.881  1.00  0.00     0.074 A 
ATOM     63  C   UNL A   1      37.973  34.117  34.760  1.00  0.00     0.031 C 
ATOM     64  C   UNL A   1      39.843  33.019  35.964  1.00  0.00     0.037 A 
BRANCH  51  65
ATOM     65  C   UNL A   1      44.005  28.472  35.531  1.00  0.00     0.058 A 
ATOM     66  C   UNL A   1      45.340  28.853  35.327  1.00  0.00     0.135 A 
ATOM     67  C   UNL A   1      43.755  27.391  36.392  1.00  0.00     0.135 A 
ATOM     68  F   UNL A   1      45.634  29.871  34.502  1.00  0.00    -0.206 F 
ATOM     69  C   UNL A   1      46.391  28.175  35.933  1.00  0.00     0.059 A 
ATOM     70  C   UNL A   1      44.791  26.712  37.029  1.00  0.00     0.059 A 
ATOM     71  F   UNL A   1      42.497  26.987  36.622  1.00  0.00    -0.206 F 
ATOM     72  C   UNL A   1      46.107  27.103  36.781  1.00  0.00     0.060 A 
BRANCH  72  73
ATOM     73  S   UNL A   1      47.483  26.235  37.563  1.00  0.00     0.124 S 
ATOM     74  O   UNL A   1      47.460  26.805  38.906  1.00  0.00    -0.237 OA
ATOM     75  O   UNL A   1      47.070  24.839  37.459  1.00  0.00    -0.237 OA
ATOM     76  O   UNL A   1      48.631  26.608  36.743  1.00  0.00    -0.744 OA
ENDBRANCH  72  73
ENDBRANCH  51  65
BRANCH  52  77
ATOM     77  C   UNL A   1      36.521  33.192  30.904  1.00  0.00     0.058 A 
ATOM     78  C   UNL A   1      35.196  33.056  31.342  1.00  0.00     0.135 A 
ATOM     79  C   UNL A   1      36.770  34.046  29.819  1.00  0.00     0.135 A 
ATOM     80  F   UNL A   1      34.909  32.244  32.371  1.00  0.00    -0.206 F 
ATOM     81  C   UNL A   1      34.153  33.738  30.726  1.00  0.00     0.059 A 
ATOM     82  C   UNL A   1      35.745  34.755  29.198  1.00  0.00     0.059 A 
ATOM     83  F   UNL A   1      38.024  34.219  29.374  1.00  0.00    -0.206 F 
ATOM     84  C   UNL A   1      34.438  34.590  29.657  1.00  0.00     0.060 A 
BRANCH  84  85
ATOM     85  S   UNL A   1      33.083  35.515  28.904  1.00  0.00     0.124 S 
ATOM     86  O   UNL A   1      33.801  36.590  28.227  1.00  0.00    -0.237 OA
ATOM     87  O   UNL A   1      32.471  34.512  28.037  1.00  0.00    -0.237 OA
ATOM     88  O   UNL A   1      32.274  35.919  30.050  1.00  0.00    -0.744 OA
ENDBRANCH  84  85
ENDBRANCH  52  77
BRANCH  64  89
ATOM     89  C   UNL A   1      39.622  33.967  37.107  1.00  0.00     0.058 A 
ATOM     90  C   UNL A   1      38.817  33.617  38.200  1.00  0.00     0.135 A 
ATOM     91  C   UNL A   1      40.293  35.200  37.150  1.00  0.00     0.135 A 
ATOM     92  F   UNL A   1      38.149  32.453  38.200  1.00  0.00    -0.206 F 
ATOM     93  C   UNL A   1      38.683  34.457  39.301  1.00  0.00     0.059 A 
ATOM     94  C   UNL A   1      40.188  36.047  38.250  1.00  0.00     0.059 A 
ATOM     95  F   UNL A   1      41.080  35.578  36.131  1.00  0.00    -0.206 F 
ATOM     96  C   UNL A   1      39.379  35.667  39.320  1.00  0.00     0.060 A 
BRANCH  96  97
ATOM     97  S   UNL A   1      39.250  36.714  40.784  1.00  0.00     0.124 S 
ATOM     98  O   UNL A   1      38.466  35.873  41.681  1.00  0.00    -0.237 OA
ATOM     99  O   UNL A   1      40.649  36.904  41.156  1.00  0.00    -0.237 OA
ATOM    100  O   UNL A   1      38.571  37.909  40.291  1.00  0.00    -0.744 OA
ENDBRANCH  96  97
ENDBRANCH  64  89
ENDBRANCH  38  39
ENDBRANCH  30  33
ENDBRANCH  28  29
ENDBRANCH  27  28
ENDBRANCH   1  27
TORSDOF 18
ENDMDL
MODEL 2
REMARK VINA RESULT:     -12.1      6.714     12.274
REMARK SMILES O=C(COc1nc(NCc2cccc(Cl)c2)nc2c1CCC2)NCCCNC(=O)c1ccc(-c2c3nc(c(-c4c(F)cc(S(=O)(=O)[O-])cc4F)c4ccc([nH]4)c(-c4c(F)cc(S(=O)(=O)[O-])cc4F)c4nc(c(-c5c(F)cc(S(=O)(=O)[O-])cc5F)c5ccc2[nH]5)C=C4)C=C3)cc1
REMARK SMILES IDX 24 1 23 2 1 3 2 4 3 6 4 7 5 8 6 9 19 10 7 11 18 12 20 13
REMARK SMILES IDX 17 14 22 15 21 16 8 17 9 19 10 20 11 21 16 22 12 23 14 24
REMARK SMILES IDX 13 25 15 26 25 27 26 28 27 29 28 30 29 32 30 33 31 34 95 35
REMARK SMILES IDX 32 36 94 37 33 38 34 39 35 40 88 41 36 42 93 43 87 44 89 45
REMARK SMILES IDX 37 46 92 47 86 48 85 49 38 51 72 52 51 53 71 54 52 55 55 56
REMARK SMILES IDX 70 57 90 58 53 59 54 60 69 62 91 63 56 64 39 65 40 66 49 67
REMARK SMILES IDX 41 68 42 69 48 70 50 71 43 72 44 73 45 74 46 75 47 76 73 77
REMARK SMILES IDX 74 78 83 79 75 80 76 81 82 82 84 83 77 84 78 85 79 86 80 87
REMARK SMILES IDX 81 88 57 89 58 90 67 91 59 92 60 93 66 94 68 95 61 96 62 97
REMARK SMILES IDX 63 98 64 99 65 100
REMARK H PARENT 23 5 8 18 27 31 89 50 55 61
REMARK Flexibility Score: inf
ROOT
ATOM      1  C   UNL A   1      34.893  29.697  27.391  1.00  0.00     0.117 C 
ENDROOT
BRANCH   1   2
ATOM      2  N   UNL A   1      33.663  29.002  27.702  1.00  0.00    -0.353 N 
ATOM      3  O   UNL A   1      32.427  29.926  26.002  1.00  0.00    -0.271 OA
ATOM      4  C   UNL A   1      32.533  29.120  26.923  1.00  0.00     0.258 C 
ATOM      5  H   UNL A   1      33.633  28.424  28.499  1.00  0.00     0.163 HD
BRANCH   4   6
ATOM      6  C   UNL A   1      31.365  28.212  27.342  1.00  0.00     0.331 C 
BRANCH   6   7
ATOM      7  O   UNL A   1      31.399  26.833  26.991  1.00  0.00    -0.467 OA
BRANCH   7   8
ATOM      8  C   UNL A   1      31.569  26.655  25.638  1.00  0.00     0.222 A 
ATOM      9  N   UNL A   1      30.746  27.308  24.802  1.00  0.00    -0.177 NA
ATOM     10  C   UNL A   1      32.621  25.919  25.194  1.00  0.00     0.036 A 
ATOM     11  C   UNL A   1      30.973  27.193  23.483  1.00  0.00     0.226 A 
ATOM     12  C   UNL A   1      32.757  25.843  23.830  1.00  0.00     0.053 A 
ATOM     13  C   UNL A   1      33.629  25.096  25.905  1.00  0.00     0.043 C 
ATOM     14  N   UNL A   1      31.962  26.461  22.950  1.00  0.00    -0.218 NA
ATOM     15  C   UNL A   1      33.882  24.922  23.456  1.00  0.00     0.057 C 
ATOM     16  C   UNL A   1      34.653  24.851  24.783  1.00  0.00     0.011 C 
BRANCH  11  17
ATOM     17  N   UNL A   1      30.113  27.888  22.687  1.00  0.00    -0.350 N 
ATOM     18  H   UNL A   1      30.382  28.065  21.756  1.00  0.00     0.164 HD
BRANCH  17  19
ATOM     19  C   UNL A   1      28.839  28.374  23.125  1.00  0.00     0.152 C 
BRANCH  19  20
ATOM     20  C   UNL A   1      28.742  29.854  22.841  1.00  0.00    -0.027 A 
ATOM     21  C   UNL A   1      29.061  30.783  23.844  1.00  0.00     0.005 A 
ATOM     22  C   UNL A   1      28.373  30.321  21.572  1.00  0.00     0.026 A 
ATOM     23  C   UNL A   1      28.990  32.154  23.590  1.00  0.00     0.002 A 
ATOM     24  C   UNL A   1      28.304  31.692  21.325  1.00  0.00     0.041 A 
ATOM     25  C   UNL A   1      28.607  32.610  22.329  1.00  0.00     0.020 A 
ATOM     26  Cl  UNL A   1      27.835  32.258  19.769  1.00  0.00    -0.084 Cl
ENDBRANCH  19  20
ENDBRANCH  17  19
ENDBRANCH  11  17
ENDBRANCH   7   8
ENDBRANCH   6   7
ENDBRANCH   4   6
ENDBRANCH   1   2
BRANCH   1  27
ATOM     27  C   UNL A   1      34.852  31.178  27.745  1.00  0.00     0.042 C 
BRANCH  27  28
ATOM     28  C   UNL A   1      35.984  31.634  28.661  1.00  0.00     0.118 C 
BRANCH  28  29
ATOM     29  N   UNL A   1      35.821  31.190  30.040  1.00  0.00    -0.352 N 
ATOM     30  C   UNL A   1      36.581  30.337  30.801  1.00  0.00     0.251 C 
ATOM     31  H   UNL A   1      35.036  31.564  30.502  1.00  0.00     0.163 HD
ATOM     32  O   UNL A   1      36.168  29.986  31.905  1.00  0.00    -0.269 OA
BRANCH  30  33
ATOM     33  C   UNL A   1      37.872  29.817  30.299  1.00  0.00     0.039 A 
ATOM     34  C   UNL A   1      38.132  29.878  28.926  1.00  0.00     0.014 A 
ATOM     35  C   UNL A   1      38.815  29.252  31.161  1.00  0.00     0.014 A 
ATOM     36  C   UNL A   1      39.366  29.450  28.432  1.00  0.00     0.010 A 
ATOM     37  C   UNL A   1      40.071  28.886  30.678  1.00  0.00     0.010 A 
ATOM     38  C   UNL A   1      40.362  28.990  29.309  1.00  0.00    -0.014 A 
BRANCH  38  39
ATOM     39  C   UNL A   1      41.717  28.640  28.810  1.00  0.00     0.031 A 
ATOM     40  C   UNL A   1      42.799  29.681  28.739  1.00  0.00     0.074 A 
ATOM     41  C   UNL A   1      41.959  27.386  28.378  1.00  0.00     0.049 A 
ATOM     42  N   UNL A   1      44.025  29.565  28.298  1.00  0.00    -0.248 NA
ATOM     43  C   UNL A   1      42.453  31.033  29.204  1.00  0.00     0.031 C 
ATOM     44  C   UNL A   1      40.980  26.295  28.358  1.00  0.00     0.029 A 
ATOM     45  N   UNL A   1      43.099  26.814  27.873  1.00  0.00    -0.354 N 
ATOM     46  C   UNL A   1      44.598  30.825  28.430  1.00  0.00     0.074 A 
ATOM     47  C   UNL A   1      43.569  31.702  28.944  1.00  0.00     0.031 C 
ATOM     48  C   UNL A   1      41.572  25.181  27.899  1.00  0.00     0.029 A 
ATOM     49  C   UNL A   1      42.959  25.482  27.558  1.00  0.00     0.049 A 
ATOM     50  H   UNL A   1      43.940  27.311  27.746  1.00  0.00     0.167 HD
ATOM     51  C   UNL A   1      45.870  31.207  28.173  1.00  0.00     0.037 A 
ATOM     52  C   UNL A   1      43.846  24.602  27.056  1.00  0.00     0.037 A 
ATOM     53  C   UNL A   1      46.899  30.327  27.684  1.00  0.00     0.049 A 
ATOM     54  C   UNL A   1      45.248  25.055  26.760  1.00  0.00     0.074 A 
ATOM     55  C   UNL A   1      48.230  30.614  27.437  1.00  0.00     0.029 A 
ATOM     56  N   UNL A   1      46.713  28.989  27.370  1.00  0.00    -0.354 N 
ATOM     57  N   UNL A   1      45.783  26.241  26.936  1.00  0.00    -0.248 NA
ATOM     58  C   UNL A   1      46.167  24.057  26.197  1.00  0.00     0.031 C 
ATOM     59  C   UNL A   1      48.843  29.457  26.943  1.00  0.00     0.029 A 
ATOM     60  C   UNL A   1      47.900  28.441  26.913  1.00  0.00     0.049 A 
ATOM     61  H   UNL A   1      45.862  28.501  27.456  1.00  0.00     0.167 HD
ATOM     62  C   UNL A   1      47.104  26.125  26.521  1.00  0.00     0.074 A 
ATOM     63  C   UNL A   1      47.292  24.754  26.094  1.00  0.00     0.031 C 
ATOM     64  C   UNL A   1      48.073  27.073  26.494  1.00  0.00     0.037 A 
BRANCH  51  65
ATOM     65  C   UNL A   1      46.230  32.642  28.436  1.00  0.00     0.058 A 
ATOM     66  C   UNL A   1      46.089  33.623  27.442  1.00  0.00     0.135 A 
ATOM     67  C   UNL A   1      46.678  33.051  29.702  1.00  0.00     0.135 A 
ATOM     68  F   UNL A   1      45.678  33.282  26.210  1.00  0.00    -0.206 F 
ATOM     69  C   UNL A   1      46.404  34.955  27.685  1.00  0.00     0.059 A 
ATOM     70  C   UNL A   1      46.977  34.384  29.975  1.00  0.00     0.059 A 
ATOM     71  F   UNL A   1      46.830  32.154  30.688  1.00  0.00    -0.206 F 
ATOM     72  C   UNL A   1      46.849  35.326  28.954  1.00  0.00     0.060 A 
BRANCH  72  73
ATOM     73  S   UNL A   1      47.251  37.060  29.253  1.00  0.00     0.124 S 
ATOM     74  O   UNL A   1      46.555  37.714  28.149  1.00  0.00    -0.237 OA
ATOM     75  O   UNL A   1      46.688  37.287  30.580  1.00  0.00    -0.237 OA
ATOM     76  O   UNL A   1      48.708  37.090  29.180  1.00  0.00    -0.744 OA
ENDBRANCH  72  73
ENDBRANCH  51  65
BRANCH  52  77
ATOM     77  C   UNL A   1      43.439  23.191  26.833  1.00  0.00     0.058 A 
ATOM     78  C   UNL A   1      43.290  22.688  25.531  1.00  0.00     0.135 A 
ATOM     79  C   UNL A   1      43.223  22.312  27.905  1.00  0.00     0.135 A 
ATOM     80  F   UNL A   1      43.479  23.493  24.476  1.00  0.00    -0.206 F 
ATOM     81  C   UNL A   1      42.937  21.363  25.301  1.00  0.00     0.059 A 
ATOM     82  C   UNL A   1      42.888  20.977  27.698  1.00  0.00     0.059 A 
ATOM     83  F   UNL A   1      43.367  22.743  29.167  1.00  0.00    -0.206 F 
ATOM     84  C   UNL A   1      42.742  20.513  26.391  1.00  0.00     0.060 A 
BRANCH  84  85
ATOM     85  S   UNL A   1      42.343  18.781  26.075  1.00  0.00     0.124 S 
ATOM     86  O   UNL A   1      40.938  18.867  25.693  1.00  0.00    -0.237 OA
ATOM     87  O   UNL A   1      43.276  18.442  25.004  1.00  0.00    -0.237 OA
ATOM     88  O   UNL A   1      42.612  18.135  27.356  1.00  0.00    -0.744 OA
ENDBRANCH  84  85
ENDBRANCH  52  77
BRANCH  64  89
ATOM     89  C   UNL A   1      49.431  26.668  25.997  1.00  0.00     0.058 A 
ATOM     90  C   UNL A   1      49.848  26.964  24.691  1.00  0.00     0.135 A 
ATOM     91  C   UNL A   1      50.354  26.058  26.862  1.00  0.00     0.135 A 
ATOM     92  F   UNL A   1      48.997  27.538  23.826  1.00  0.00    -0.206 F 
ATOM     93  C   UNL A   1      51.136  26.669  24.257  1.00  0.00     0.059 A 
ATOM     94  C   UNL A   1      51.654  25.773  26.455  1.00  0.00     0.059 A 
ATOM     95  F   UNL A   1      50.005  25.760  28.124  1.00  0.00    -0.206 F 
ATOM     96  C   UNL A   1      52.034  26.081  25.149  1.00  0.00     0.060 A 
BRANCH  96  97
ATOM     97  S   UNL A   1      53.723  25.768  24.593  1.00  0.00     0.124 S 
ATOM     98  O   UNL A   1      53.619  26.042  23.164  1.00  0.00    -0.237 OA
ATOM     99  O   UNL A   1      54.491  26.737  25.369  1.00  0.00    -0.237 OA
ATOM    100  O   UNL A   1      53.947  24.370  24.949  1.00  0.00    -0.744 OA
ENDBRANCH  96  97
ENDBRANCH  64  89
ENDBRANCH  38  39
ENDBRANCH  30  33
ENDBRANCH  28  29
ENDBRANCH  27  28
ENDBRANCH   1  27
TORSDOF 18
ENDMDL
MODEL 3
REMARK VINA RESULT:     -11.9      6.553     12.334
REMARK SMILES O=C(COc1nc(NCc2cccc(Cl)c2)nc2c1CCC2)NCCCNC(=O)c1ccc(-c2c3nc(c(-c4c(F)cc(S(=O)(=O)[O-])cc4F)c4ccc([nH]4)c(-c4c(F)cc(S(=O)(=O)[O-])cc4F)c4nc(c(-c5c(F)cc(S(=O)(=O)[O-])cc5F)c5ccc2[nH]5)C=C4)C=C3)cc1
REMARK SMILES IDX 24 1 23 2 1 3 2 4 3 6 4 7 5 8 6 9 19 10 7 11 18 12 20 13
REMARK SMILES IDX 17 14 22 15 21 16 8 17 9 19 10 20 11 21 16 22 12 23 14 24
REMARK SMILES IDX 13 25 15 26 25 27 26 28 27 29 28 30 29 32 30 33 31 34 95 35
REMARK SMILES IDX 32 36 94 37 33 38 34 39 35 40 88 41 36 42 93 43 87 44 89 45
REMARK SMILES IDX 37 46 92 47 86 48 85 49 38 51 72 52 51 53 71 54 52 55 55 56
REMARK SMILES IDX 70 57 90 58 53 59 54 60 69 62 91 63 56 64 39 65 40 66 49 67
REMARK SMILES IDX 41 68 42 69 48 70 50 71 43 72 44 73 45 74 46 75 47 76 73 77
REMARK SMILES IDX 74 78 83 79 75 80 76 81 82 82 84 83 77 84 78 85 79 86 80 87
REMARK SMILES IDX 81 88 57 89 58 90 67 91 59 92 60 93 66 94 68 95 61 96 62 97
REMARK SMILES IDX 63 98 64 99 65 100
REMARK H PARENT 23 5 8 18 27 31 89 50 55 61
REMARK Flexibility Score: inf
ROOT
ATOM      1  C   UNL A   1      33.994  31.115  27.759  1.00  0.00     0.117 C 
ENDROOT
BRANCH   1   2
ATOM      2  N   UNL A   1      33.787  30.097  26.752  1.00  0.00    -0.353 N 
ATOM      3  O   UNL A   1      31.693  30.800  26.124  1.00  0.00    -0.271 OA
ATOM      4  C   UNL A   1      32.665  30.068  25.953  1.00  0.00     0.258 C 
ATOM      5  H   UNL A   1      34.473  29.401  26.633  1.00  0.00     0.163 HD
BRANCH   4   6
ATOM      6  C   UNL A   1      32.680  28.987  24.861  1.00  0.00     0.331 C 
BRANCH   6   7
ATOM      7  O   UNL A   1      31.933  29.197  23.668  1.00  0.00    -0.467 OA
BRANCH   7   8
ATOM      8  C   UNL A   1      30.816  28.398  23.618  1.00  0.00     0.222 A 
ATOM      9  N   UNL A   1      30.947  27.099  23.930  1.00  0.00    -0.177 NA
ATOM     10  C   UNL A   1      29.607  28.964  23.363  1.00  0.00     0.036 A 
ATOM     11  C   UNL A   1      29.836  26.345  23.960  1.00  0.00     0.226 A 
ATOM     12  C   UNL A   1      28.533  28.109  23.395  1.00  0.00     0.053 A 
ATOM     13  C   UNL A   1      29.217  30.341  22.970  1.00  0.00     0.043 C 
ATOM     14  N   UNL A   1      28.606  26.806  23.688  1.00  0.00    -0.218 NA
ATOM     15  C   UNL A   1      27.273  28.820  22.996  1.00  0.00     0.057 C 
ATOM     16  C   UNL A   1      27.694  30.285  23.182  1.00  0.00     0.011 C 
BRANCH  11  17
ATOM     17  N   UNL A   1      30.032  25.039  24.295  1.00  0.00    -0.350 N 
ATOM     18  H   UNL A   1      29.593  24.698  25.108  1.00  0.00     0.164 HD
BRANCH  17  19
ATOM     19  C   UNL A   1      30.839  24.135  23.532  1.00  0.00     0.152 C 
BRANCH  19  20
ATOM     20  C   UNL A   1      32.157  23.923  24.237  1.00  0.00    -0.027 A 
ATOM     21  C   UNL A   1      32.223  23.988  25.637  1.00  0.00     0.005 A 
ATOM     22  C   UNL A   1      33.320  23.622  23.514  1.00  0.00     0.026 A 
ATOM     23  C   UNL A   1      33.433  23.780  26.302  1.00  0.00     0.002 A 
ATOM     24  C   UNL A   1      34.525  23.415  24.184  1.00  0.00     0.041 A 
ATOM     25  C   UNL A   1      34.588  23.496  25.575  1.00  0.00     0.020 A 
ATOM     26  Cl  UNL A   1      35.952  23.061  23.289  1.00  0.00    -0.084 Cl
ENDBRANCH  19  20
ENDBRANCH  17  19
ENDBRANCH  11  17
ENDBRANCH   7   8
ENDBRANCH   6   7
ENDBRANCH   4   6
ENDBRANCH   1   2
BRANCH   1  27
ATOM     27  C   UNL A   1      35.394  31.712  27.731  1.00  0.00     0.042 C 
BRANCH  27  28
ATOM     28  C   UNL A   1      35.880  32.231  29.082  1.00  0.00     0.118 C 
BRANCH  28  29
ATOM     29  N   UNL A   1      35.642  31.297  30.175  1.00  0.00    -0.352 N 
ATOM     30  C   UNL A   1      36.411  30.265  30.654  1.00  0.00     0.251 C 
ATOM     31  H   UNL A   1      34.789  31.427  30.649  1.00  0.00     0.163 HD
ATOM     32  O   UNL A   1      35.940  29.505  31.498  1.00  0.00    -0.269 OA
BRANCH  30  33
ATOM     33  C   UNL A   1      37.784  30.042  30.148  1.00  0.00     0.039 A 
ATOM     34  C   UNL A   1      38.831  29.946  31.069  1.00  0.00     0.014 A 
ATOM     35  C   UNL A   1      38.049  29.950  28.780  1.00  0.00     0.014 A 
ATOM     36  C   UNL A   1      40.127  29.676  30.623  1.00  0.00     0.010 A 
ATOM     37  C   UNL A   1      39.329  29.614  28.340  1.00  0.00     0.010 A 
ATOM     38  C   UNL A   1      40.380  29.464  29.258  1.00  0.00    -0.014 A 
BRANCH  38  39
ATOM     39  C   UNL A   1      41.729  29.064  28.783  1.00  0.00     0.031 A 
ATOM     40  C   UNL A   1      42.841  30.071  28.703  1.00  0.00     0.074 A 
ATOM     41  C   UNL A   1      41.939  27.795  28.381  1.00  0.00     0.049 A 
ATOM     42  N   UNL A   1      44.069  29.911  28.279  1.00  0.00    -0.248 NA
ATOM     43  C   UNL A   1      42.531  31.443  29.135  1.00  0.00     0.031 C 
ATOM     44  C   UNL A   1      40.929  26.733  28.372  1.00  0.00     0.029 A 
ATOM     45  N   UNL A   1      43.068  27.179  27.901  1.00  0.00    -0.354 N 
ATOM     46  C   UNL A   1      44.676  31.156  28.391  1.00  0.00     0.074 A 
ATOM     47  C   UNL A   1      43.668  32.074  28.874  1.00  0.00     0.031 C 
ATOM     48  C   UNL A   1      41.493  25.592  27.943  1.00  0.00     0.029 A 
ATOM     49  C   UNL A   1      42.892  25.846  27.613  1.00  0.00     0.049 A 
ATOM     50  H   UNL A   1      43.924  27.649  27.774  1.00  0.00     0.167 HD
ATOM     51  C   UNL A   1      45.962  31.496  28.141  1.00  0.00     0.037 A 
ATOM     52  C   UNL A   1      43.758  24.930  27.140  1.00  0.00     0.037 A 
ATOM     53  C   UNL A   1      46.970  30.576  27.682  1.00  0.00     0.049 A 
ATOM     54  C   UNL A   1      45.176  25.336  26.851  1.00  0.00     0.074 A 
ATOM     55  C   UNL A   1      48.312  30.818  27.445  1.00  0.00     0.029 A 
ATOM     56  N   UNL A   1      46.749  29.238  27.395  1.00  0.00    -0.354 N 
ATOM     57  N   UNL A   1      45.744  26.508  27.008  1.00  0.00    -0.248 NA
ATOM     58  C   UNL A   1      46.072  24.300  26.320  1.00  0.00     0.031 C 
ATOM     59  C   UNL A   1      48.896  29.634  26.984  1.00  0.00     0.029 A 
ATOM     60  C   UNL A   1      47.925  28.646  26.964  1.00  0.00     0.049 A 
ATOM     61  H   UNL A   1      45.883  28.776  27.481  1.00  0.00     0.167 HD
ATOM     62  C   UNL A   1      47.066  26.346  26.611  1.00  0.00     0.074 A 
ATOM     63  C   UNL A   1      47.218  24.961  26.216  1.00  0.00     0.031 C 
ATOM     64  C   UNL A   1      48.062  27.265  26.576  1.00  0.00     0.037 A 
BRANCH  51  65
ATOM     65  C   UNL A   1      46.361  32.925  28.377  1.00  0.00     0.058 A 
ATOM     66  C   UNL A   1      46.897  33.339  29.607  1.00  0.00     0.135 A 
ATOM     67  C   UNL A   1      46.245  33.882  27.357  1.00  0.00     0.135 A 
ATOM     68  F   UNL A   1      47.015  32.466  30.620  1.00  0.00    -0.206 F 
ATOM     69  C   UNL A   1      47.283  34.656  29.826  1.00  0.00     0.059 A 
ATOM     70  C   UNL A   1      46.647  35.202  27.546  1.00  0.00     0.059 A 
ATOM     71  F   UNL A   1      45.739  33.540  26.162  1.00  0.00    -0.206 F 
ATOM     72  C   UNL A   1      47.152  35.582  28.790  1.00  0.00     0.060 A 
BRANCH  72  73
ATOM     73  S   UNL A   1      47.660  37.288  29.090  1.00  0.00     0.124 S 
ATOM     74  O   UNL A   1      46.785  38.016  28.177  1.00  0.00    -0.237 OA
ATOM     75  O   UNL A   1      47.372  37.453  30.512  1.00  0.00    -0.237 OA
ATOM     76  O   UNL A   1      49.076  37.289  28.736  1.00  0.00    -0.744 OA
ENDBRANCH  72  73
ENDBRANCH  51  65
BRANCH  52  77
ATOM     77  C   UNL A   1      43.313  23.526  26.942  1.00  0.00     0.058 A 
ATOM     78  C   UNL A   1      43.063  23.032  25.653  1.00  0.00     0.135 A 
ATOM     79  C   UNL A   1      43.160  22.646  28.024  1.00  0.00     0.135 A 
ATOM     80  F   UNL A   1      43.189  23.839  24.589  1.00  0.00    -0.206 F 
ATOM     81  C   UNL A   1      42.672  21.714  25.443  1.00  0.00     0.059 A 
ATOM     82  C   UNL A   1      42.789  21.318  27.837  1.00  0.00     0.059 A 
ATOM     83  F   UNL A   1      43.402  23.070  29.274  1.00  0.00    -0.206 F 
ATOM     84  C   UNL A   1      42.542  20.862  26.542  1.00  0.00     0.060 A 
BRANCH  84  85
ATOM     85  S   UNL A   1      42.092  19.138  26.250  1.00  0.00     0.124 S 
ATOM     86  O   UNL A   1      40.695  19.263  25.849  1.00  0.00    -0.237 OA
ATOM     87  O   UNL A   1      43.026  18.753  25.196  1.00  0.00    -0.237 OA
ATOM     88  O   UNL A   1      42.324  18.507  27.545  1.00  0.00    -0.744 OA
ENDBRANCH  84  85
ENDBRANCH  52  77
BRANCH  64  89
ATOM     89  C   UNL A   1      49.413  26.809  26.104  1.00  0.00     0.058 A 
ATOM     90  C   UNL A   1      49.869  27.101  24.810  1.00  0.00     0.135 A 
ATOM     91  C   UNL A   1      50.292  26.155  26.982  1.00  0.00     0.135 A 
ATOM     92  F   UNL A   1      49.062  27.717  23.933  1.00  0.00    -0.206 F 
ATOM     93  C   UNL A   1      51.154  26.759  24.401  1.00  0.00     0.059 A 
ATOM     94  C   UNL A   1      51.588  25.821  26.599  1.00  0.00     0.059 A 
ATOM     95  F   UNL A   1      49.904  25.859  28.232  1.00  0.00    -0.206 F 
ATOM     96  C   UNL A   1      52.009  26.126  25.305  1.00  0.00     0.060 A 
BRANCH  96  97
ATOM     97  S   UNL A   1      53.695  25.751  24.781  1.00  0.00     0.124 S 
ATOM     98  O   UNL A   1      54.457  26.781  25.478  1.00  0.00    -0.237 OA
ATOM     99  O   UNL A   1      53.878  24.388  25.271  1.00  0.00    -0.237 OA
ATOM    100  O   UNL A   1      53.639  25.886  23.329  1.00  0.00    -0.744 OA
ENDBRANCH  96  97
ENDBRANCH  64  89
ENDBRANCH  38  39
ENDBRANCH  30  33
ENDBRANCH  28  29
ENDBRANCH  27  28
ENDBRANCH   1  27
TORSDOF 18
ENDMDL
