MODEL 1
REMARK VINA RESULT:     -12.6      0.000      0.000
REMARK SMILES CC(C)(C)OC(=O)N1CCC[C@H]1C(=O)N1CCC[C@H]1C(=O)N1CCC[C@@H]1C(=O)NCCCNC(=O)c1ccc(-c2c3nc(c(-c4c(F)cc(S(=O)(=O)[O-])cc4F)c4ccc([nH]4)c(-c4c(F)cc(S(=O)(=O)[O-])cc4F)c4nc(c(-c5c(F)cc(S(=O)(=O)[O-])cc5F)c5ccc2[nH]5)C=C4)C=C3)cc1
REMARK SMILES IDX 27 1 28 2 29 3 26 5 22 6 23 7 24 8 25 9 20 10 21 11 19 12
REMARK SMILES IDX 15 13 16 14 17 15 18 16 13 17 14 18 12 19 8 20 9 21 10 22
REMARK SMILES IDX 11 23 6 24 7 25 5 26 2 27 1 28 3 29 4 30 30 31 31 32 32 33
REMARK SMILES IDX 33 34 34 35 35 37 36 38 37 39 101 40 38 41 100 42 39 43
REMARK SMILES IDX 40 44 41 45 94 46 42 47 99 48 93 49 95 50 43 51 98 52 92 53
REMARK SMILES IDX 91 54 44 56 78 57 57 58 77 59 58 60 61 61 76 62 96 63 59 64
REMARK SMILES IDX 60 65 75 67 97 68 62 69 45 70 46 71 55 72 47 73 48 74 54 75
REMARK SMILES IDX 56 76 49 77 50 78 51 79 52 80 53 81 79 82 80 83 89 84 81 85
REMARK SMILES IDX 82 86 88 87 90 88 83 89 84 90 85 91 86 92 87 93 63 94 64 95
REMARK SMILES IDX 73 96 65 97 66 98 72 99 74 100 67 101 68 102 69 103 70 104
REMARK SMILES IDX 71 105
REMARK H PARENT 29 4 33 36 95 55 61 66
REMARK Flexibility Score: inf
ROOT
ATOM      1  C   UNL A   1      34.852  21.865  26.467  1.00  0.00     0.242 C 
ATOM      2  O   UNL A   1      34.335  21.393  27.486  1.00  0.00    -0.273 OA
ATOM      3  N   UNL A   1      36.181  22.166  26.527  1.00  0.00    -0.354 N 
ATOM      4  H   UNL A   1      36.628  21.879  27.356  1.00  0.00     0.163 HD
ENDROOT
BRANCH   1   5
ATOM      5  C   UNL A   1      33.967  22.287  25.272  1.00  0.00     0.174 C 
ATOM      6  N   UNL A   1      32.611  22.678  25.638  1.00  0.00    -0.329 N 
ATOM      7  C   UNL A   1      31.622  22.033  24.799  1.00  0.00     0.120 C 
ATOM      8  C   UNL A   1      32.309  20.786  24.271  1.00  0.00     0.024 C 
ATOM      9  C   UNL A   1      33.800  21.124  24.283  1.00  0.00     0.037 C 
BRANCH   6  10
ATOM     10  C   UNL A   1      32.386  23.809  26.408  1.00  0.00     0.246 C 
ATOM     11  O   UNL A   1      31.924  23.750  27.546  1.00  0.00    -0.272 OA
BRANCH  10  12
ATOM     12  C   UNL A   1      32.706  25.144  25.696  1.00  0.00     0.174 C 
ATOM     13  N   UNL A   1      31.689  26.194  25.858  1.00  0.00    -0.329 N 
ATOM     14  C   UNL A   1      32.251  27.366  26.494  1.00  0.00     0.120 C 
ATOM     15  C   UNL A   1      33.728  27.276  26.160  1.00  0.00     0.024 C 
ATOM     16  C   UNL A   1      34.005  25.777  26.203  1.00  0.00     0.037 C 
BRANCH  13  17
ATOM     17  C   UNL A   1      30.461  26.071  25.231  1.00  0.00     0.246 C 
ATOM     18  O   UNL A   1      29.460  25.720  25.858  1.00  0.00    -0.272 OA
BRANCH  17  19
ATOM     19  C   UNL A   1      30.417  26.315  23.702  1.00  0.00     0.178 C 
ATOM     20  N   UNL A   1      31.198  27.486  23.307  1.00  0.00    -0.296 N 
ATOM     21  C   UNL A   1      32.267  27.149  22.395  1.00  0.00     0.124 C 
ATOM     22  C   UNL A   1      31.762  25.877  21.742  1.00  0.00     0.024 C 
ATOM     23  C   UNL A   1      31.019  25.172  22.880  1.00  0.00     0.037 C 
BRANCH  20  24
ATOM     24  C   UNL A   1      30.837  28.744  23.707  1.00  0.00     0.410 C 
ATOM     25  O   UNL A   1      31.663  29.591  24.029  1.00  0.00    -0.224 OA
BRANCH  24  26
ATOM     26  O   UNL A   1      29.486  28.911  23.722  1.00  0.00    -0.444 OA
BRANCH  26  27
ATOM     27  C   UNL A   1      28.882  29.981  22.951  1.00  0.00     0.106 C 
ATOM     28  C   UNL A   1      29.020  31.267  23.778  1.00  0.00     0.056 C 
ATOM     29  C   UNL A   1      27.391  29.674  22.801  1.00  0.00     0.056 C 
ATOM     30  C   UNL A   1      29.607  30.233  21.625  1.00  0.00     0.056 C 
ENDBRANCH  26  27
ENDBRANCH  24  26
ENDBRANCH  20  24
ENDBRANCH  17  19
ENDBRANCH  13  17
ENDBRANCH  10  12
ENDBRANCH   6  10
ENDBRANCH   1   5
BRANCH   3  31
ATOM     31  C   UNL A   1      37.045  22.835  25.581  1.00  0.00     0.117 C 
BRANCH  31  32
ATOM     32  C   UNL A   1      37.679  24.093  26.158  1.00  0.00     0.042 C 
BRANCH  32  33
ATOM     33  C   UNL A   1      39.053  23.822  26.741  1.00  0.00     0.118 C 
BRANCH  33  34
ATOM     34  N   UNL A   1      40.083  24.505  25.970  1.00  0.00    -0.352 N 
ATOM     35  C   UNL A   1      40.736  25.684  26.186  1.00  0.00     0.251 C 
ATOM     36  H   UNL A   1      40.358  24.033  25.151  1.00  0.00     0.163 HD
ATOM     37  O   UNL A   1      41.298  26.221  25.232  1.00  0.00    -0.269 OA
BRANCH  35  38
ATOM     38  C   UNL A   1      40.807  26.313  27.523  1.00  0.00     0.039 A 
ATOM     39  C   UNL A   1      41.912  27.134  27.782  1.00  0.00     0.014 A 
ATOM     40  C   UNL A   1      39.859  26.097  28.528  1.00  0.00     0.014 A 
ATOM     41  C   UNL A   1      42.001  27.824  28.984  1.00  0.00     0.010 A 
ATOM     42  C   UNL A   1      39.903  26.838  29.697  1.00  0.00     0.010 A 
ATOM     43  C   UNL A   1      40.951  27.737  29.906  1.00  0.00    -0.014 A 
BRANCH  43  44
ATOM     44  C   UNL A   1      40.825  28.727  30.988  1.00  0.00     0.031 A 
ATOM     45  C   UNL A   1      41.629  28.610  32.239  1.00  0.00     0.074 A 
ATOM     46  C   UNL A   1      39.856  29.652  30.846  1.00  0.00     0.049 A 
ATOM     47  N   UNL A   1      41.615  29.381  33.292  1.00  0.00    -0.248 NA
ATOM     48  C   UNL A   1      42.542  27.461  32.338  1.00  0.00     0.031 C 
ATOM     49  C   UNL A   1      38.949  29.748  29.695  1.00  0.00     0.029 A 
ATOM     50  N   UNL A   1      39.452  30.666  31.668  1.00  0.00    -0.354 N 
ATOM     51  C   UNL A   1      42.518  28.815  34.182  1.00  0.00     0.074 A 
ATOM     52  C   UNL A   1      43.019  27.605  33.566  1.00  0.00     0.031 C 
ATOM     53  C   UNL A   1      38.112  30.779  29.875  1.00  0.00     0.029 A 
ATOM     54  C   UNL A   1      38.403  31.394  31.162  1.00  0.00     0.049 A 
ATOM     55  H   UNL A   1      39.873  30.856  32.537  1.00  0.00     0.167 HD
ATOM     56  C   UNL A   1      42.896  29.286  35.394  1.00  0.00     0.037 A 
ATOM     57  C   UNL A   1      37.748  32.446  31.684  1.00  0.00     0.037 A 
ATOM     58  C   UNL A   1      42.354  30.487  35.975  1.00  0.00     0.049 A 
ATOM     59  C   UNL A   1      38.215  32.974  33.005  1.00  0.00     0.074 A 
ATOM     60  C   UNL A   1      42.703  31.109  37.160  1.00  0.00     0.029 A 
ATOM     61  N   UNL A   1      41.331  31.243  35.415  1.00  0.00    -0.354 N 
ATOM     62  N   UNL A   1      39.155  32.503  33.790  1.00  0.00    -0.248 NA
ATOM     63  C   UNL A   1      37.552  34.181  33.507  1.00  0.00     0.031 C 
ATOM     64  C   UNL A   1      41.860  32.213  37.337  1.00  0.00     0.029 A 
ATOM     65  C   UNL A   1      41.017  32.311  36.239  1.00  0.00     0.049 A 
ATOM     66  H   UNL A   1      40.891  31.047  34.555  1.00  0.00     0.167 HD
ATOM     67  C   UNL A   1      39.211  33.364  34.875  1.00  0.00     0.074 A 
ATOM     68  C   UNL A   1      38.218  34.395  34.634  1.00  0.00     0.031 C 
ATOM     69  C   UNL A   1      40.010  33.311  35.971  1.00  0.00     0.037 A 
BRANCH  56  70
ATOM     70  C   UNL A   1      43.928  28.495  36.152  1.00  0.00     0.058 A 
ATOM     71  C   UNL A   1      43.569  27.410  36.971  1.00  0.00     0.135 A 
ATOM     72  C   UNL A   1      45.290  28.825  36.072  1.00  0.00     0.135 A 
ATOM     73  F   UNL A   1      42.280  27.056  37.098  1.00  0.00    -0.206 F 
ATOM     74  C   UNL A   1      44.514  26.713  37.717  1.00  0.00     0.059 A 
ATOM     75  C   UNL A   1      46.257  28.122  36.787  1.00  0.00     0.059 A 
ATOM     76  F   UNL A   1      45.693  29.850  35.306  1.00  0.00    -0.206 F 
ATOM     77  C   UNL A   1      45.856  27.082  37.625  1.00  0.00     0.060 A 
BRANCH  77  78
ATOM     78  S   UNL A   1      47.067  26.188  38.623  1.00  0.00     0.124 S 
ATOM     79  O   UNL A   1      47.522  27.235  39.531  1.00  0.00    -0.237 OA
ATOM     80  O   UNL A   1      46.258  25.134  39.227  1.00  0.00    -0.237 OA
ATOM     81  O   UNL A   1      48.049  25.737  37.642  1.00  0.00    -0.744 OA
ENDBRANCH  77  78
ENDBRANCH  56  70
BRANCH  57  82
ATOM     82  C   UNL A   1      36.646  33.072  30.911  1.00  0.00     0.058 A 
ATOM     83  C   UNL A   1      35.307  32.835  31.249  1.00  0.00     0.135 A 
ATOM     84  C   UNL A   1      36.910  33.999  29.890  1.00  0.00     0.135 A 
ATOM     85  F   UNL A   1      35.006  31.965  32.225  1.00  0.00    -0.206 F 
ATOM     86  C   UNL A   1      34.266  33.491  30.602  1.00  0.00     0.059 A 
ATOM     87  C   UNL A   1      35.887  34.684  29.243  1.00  0.00     0.059 A 
ATOM     88  F   UNL A   1      38.177  34.287  29.554  1.00  0.00    -0.206 F 
ATOM     89  C   UNL A   1      34.566  34.421  29.604  1.00  0.00     0.060 A 
BRANCH  89  90
ATOM     90  S   UNL A   1      33.209  35.326  28.829  1.00  0.00     0.124 S 
ATOM     91  O   UNL A   1      33.929  36.298  28.015  1.00  0.00    -0.237 OA
ATOM     92  O   UNL A   1      32.515  34.271  28.098  1.00  0.00    -0.237 OA
ATOM     93  O   UNL A   1      32.476  35.873  29.967  1.00  0.00    -0.744 OA
ENDBRANCH  89  90
ENDBRANCH  57  82
BRANCH  69  94
ATOM     94  C   UNL A   1      39.840  34.409  36.980  1.00  0.00     0.058 A 
ATOM     95  C   UNL A   1      38.968  34.272  38.072  1.00  0.00     0.135 A 
ATOM     96  C   UNL A   1      40.588  35.591  36.874  1.00  0.00     0.135 A 
ATOM     97  F   UNL A   1      38.223  33.164  38.209  1.00  0.00    -0.206 F 
ATOM     98  C   UNL A   1      38.827  35.284  39.014  1.00  0.00     0.059 A 
ATOM     99  C   UNL A   1      40.483  36.604  37.821  1.00  0.00     0.059 A 
ATOM    100  F   UNL A   1      41.440  35.764  35.852  1.00  0.00    -0.206 F 
ATOM    101  C   UNL A   1      39.591  36.445  38.881  1.00  0.00     0.060 A 
BRANCH 101 102
ATOM    102  S   UNL A   1      39.424  37.737  40.129  1.00  0.00     0.124 S 
ATOM    103  O   UNL A   1      38.231  38.438  39.667  1.00  0.00    -0.237 OA
ATOM    104  O   UNL A   1      39.269  36.964  41.358  1.00  0.00    -0.237 OA
ATOM    105  O   UNL A   1      40.675  38.481  40.016  1.00  0.00    -0.744 OA
ENDBRANCH 101 102
ENDBRANCH  69  94
ENDBRANCH  43  44
ENDBRANCH  35  38
ENDBRANCH  33  34
ENDBRANCH  32  33
ENDBRANCH  31  32
ENDBRANCH   3  31
TORSDOF 20
ENDMDL
MODEL 2
REMARK VINA RESULT:     -12.3      0.941      2.181
REMARK SMILES CC(C)(C)OC(=O)N1CCC[C@H]1C(=O)N1CCC[C@H]1C(=O)N1CCC[C@@H]1C(=O)NCCCNC(=O)c1ccc(-c2c3nc(c(-c4c(F)cc(S(=O)(=O)[O-])cc4F)c4ccc([nH]4)c(-c4c(F)cc(S(=O)(=O)[O-])cc4F)c4nc(c(-c5c(F)cc(S(=O)(=O)[O-])cc5F)c5ccc2[nH]5)C=C4)C=C3)cc1
REMARK SMILES IDX 27 1 28 2 29 3 26 5 22 6 23 7 24 8 25 9 20 10 21 11 19 12
REMARK SMILES IDX 15 13 16 14 17 15 18 16 13 17 14 18 12 19 8 20 9 21 10 22
REMARK SMILES IDX 11 23 6 24 7 25 5 26 2 27 1 28 3 29 4 30 30 31 31 32 32 33
REMARK SMILES IDX 33 34 34 35 35 37 36 38 37 39 101 40 38 41 100 42 39 43
REMARK SMILES IDX 40 44 41 45 94 46 42 47 99 48 93 49 95 50 43 51 98 52 92 53
REMARK SMILES IDX 91 54 44 56 78 57 57 58 77 59 58 60 61 61 76 62 96 63 59 64
REMARK SMILES IDX 60 65 75 67 97 68 62 69 45 70 46 71 55 72 47 73 48 74 54 75
REMARK SMILES IDX 56 76 49 77 50 78 51 79 52 80 53 81 79 82 80 83 89 84 81 85
REMARK SMILES IDX 82 86 88 87 90 88 83 89 84 90 85 91 86 92 87 93 63 94 64 95
REMARK SMILES IDX 73 96 65 97 66 98 72 99 74 100 67 101 68 102 69 103 70 104
REMARK SMILES IDX 71 105
REMARK H PARENT 29 4 33 36 95 55 61 66
REMARK Flexibility Score: inf
ROOT
ATOM      1  C   UNL A   1      34.729  21.383  26.414  1.00  0.00     0.242 C 
ATOM      2  O   UNL A   1      34.042  21.215  27.428  1.00  0.00    -0.273 OA
ATOM      3  N   UNL A   1      35.863  22.129  26.548  1.00  0.00    -0.354 N 
ATOM      4  H   UNL A   1      36.081  22.381  27.475  1.00  0.00     0.163 HD
ENDROOT
BRANCH   1   5
ATOM      5  C   UNL A   1      34.193  20.944  25.032  1.00  0.00     0.174 C 
ATOM      6  N   UNL A   1      32.746  20.776  24.976  1.00  0.00    -0.329 N 
ATOM      7  C   UNL A   1      32.376  19.519  24.356  1.00  0.00     0.120 C 
ATOM      8  C   UNL A   1      33.589  18.623  24.535  1.00  0.00     0.024 C 
ATOM      9  C   UNL A   1      34.776  19.581  24.632  1.00  0.00     0.037 C 
BRANCH   6  10
ATOM     10  C   UNL A   1      31.901  21.863  25.134  1.00  0.00     0.246 C 
ATOM     11  O   UNL A   1      31.014  21.890  25.985  1.00  0.00    -0.272 OA
BRANCH  10  12
ATOM     12  C   UNL A   1      32.129  23.007  24.118  1.00  0.00     0.174 C 
ATOM     13  N   UNL A   1      33.310  23.843  24.379  1.00  0.00    -0.329 N 
ATOM     14  C   UNL A   1      34.232  23.799  23.264  1.00  0.00     0.120 C 
ATOM     15  C   UNL A   1      33.347  23.445  22.085  1.00  0.00     0.024 C 
ATOM     16  C   UNL A   1      32.326  22.487  22.691  1.00  0.00     0.037 C 
BRANCH  13  17
ATOM     17  C   UNL A   1      33.323  24.705  25.461  1.00  0.00     0.246 C 
ATOM     18  O   UNL A   1      33.407  24.278  26.614  1.00  0.00    -0.272 OA
BRANCH  17  19
ATOM     19  C   UNL A   1      33.146  26.216  25.168  1.00  0.00     0.178 C 
ATOM     20  N   UNL A   1      32.083  26.815  25.974  1.00  0.00    -0.296 N 
ATOM     21  C   UNL A   1      32.572  27.874  26.826  1.00  0.00     0.124 C 
ATOM     22  C   UNL A   1      33.813  28.347  26.095  1.00  0.00     0.024 C 
ATOM     23  C   UNL A   1      34.383  27.055  25.503  1.00  0.00     0.037 C 
BRANCH  20  24
ATOM     24  C   UNL A   1      30.777  26.441  25.811  1.00  0.00     0.410 C 
ATOM     25  O   UNL A   1      30.333  25.396  26.276  1.00  0.00    -0.224 OA
BRANCH  24  26
ATOM     26  O   UNL A   1      30.073  27.338  25.068  1.00  0.00    -0.444 OA
BRANCH  26  27
ATOM     27  C   UNL A   1      29.597  26.968  23.748  1.00  0.00     0.106 C 
ATOM     28  C   UNL A   1      29.752  28.204  22.851  1.00  0.00     0.056 C 
ATOM     29  C   UNL A   1      28.107  26.645  23.854  1.00  0.00     0.056 C 
ATOM     30  C   UNL A   1      30.437  25.856  23.111  1.00  0.00     0.056 C 
ENDBRANCH  26  27
ENDBRANCH  24  26
ENDBRANCH  20  24
ENDBRANCH  17  19
ENDBRANCH  13  17
ENDBRANCH  10  12
ENDBRANCH   6  10
ENDBRANCH   1   5
BRANCH   3  31
ATOM     31  C   UNL A   1      36.801  22.615  25.561  1.00  0.00     0.117 C 
BRANCH  31  32
ATOM     32  C   UNL A   1      37.258  24.040  25.841  1.00  0.00     0.042 C 
BRANCH  32  33
ATOM     33  C   UNL A   1      38.490  24.078  26.725  1.00  0.00     0.118 C 
BRANCH  33  34
ATOM     34  N   UNL A   1      39.641  24.577  25.983  1.00  0.00    -0.352 N 
ATOM     35  C   UNL A   1      40.460  25.646  26.202  1.00  0.00     0.251 C 
ATOM     36  H   UNL A   1      39.868  24.048  25.184  1.00  0.00     0.163 HD
ATOM     37  O   UNL A   1      41.132  26.067  25.261  1.00  0.00    -0.269 OA
BRANCH  35  38
ATOM     38  C   UNL A   1      40.579  26.288  27.530  1.00  0.00     0.039 A 
ATOM     39  C   UNL A   1      41.656  27.164  27.718  1.00  0.00     0.014 A 
ATOM     40  C   UNL A   1      39.703  26.036  28.590  1.00  0.00     0.014 A 
ATOM     41  C   UNL A   1      41.782  27.868  28.909  1.00  0.00     0.010 A 
ATOM     42  C   UNL A   1      39.780  26.788  29.751  1.00  0.00     0.010 A 
ATOM     43  C   UNL A   1      40.794  27.738  29.892  1.00  0.00    -0.014 A 
BRANCH  43  44
ATOM     44  C   UNL A   1      40.684  28.729  30.975  1.00  0.00     0.031 A 
ATOM     45  C   UNL A   1      41.492  28.604  32.222  1.00  0.00     0.074 A 
ATOM     46  C   UNL A   1      39.724  29.666  30.837  1.00  0.00     0.049 A 
ATOM     47  N   UNL A   1      41.492  29.374  33.275  1.00  0.00    -0.248 NA
ATOM     48  C   UNL A   1      42.392  27.444  32.317  1.00  0.00     0.031 C 
ATOM     49  C   UNL A   1      38.814  29.772  29.689  1.00  0.00     0.029 A 
ATOM     50  N   UNL A   1      39.336  30.684  31.659  1.00  0.00    -0.354 N 
ATOM     51  C   UNL A   1      42.391  28.798  34.161  1.00  0.00     0.074 A 
ATOM     52  C   UNL A   1      42.876  27.583  33.543  1.00  0.00     0.031 C 
ATOM     53  C   UNL A   1      37.990  30.812  29.872  1.00  0.00     0.029 A 
ATOM     54  C   UNL A   1      38.293  31.424  31.158  1.00  0.00     0.049 A 
ATOM     55  H   UNL A   1      39.763  30.870  32.527  1.00  0.00     0.167 HD
ATOM     56  C   UNL A   1      42.780  29.265  35.371  1.00  0.00     0.037 A 
ATOM     57  C   UNL A   1      37.653  32.483  31.682  1.00  0.00     0.037 A 
ATOM     58  C   UNL A   1      42.255  30.473  35.955  1.00  0.00     0.049 A 
ATOM     59  C   UNL A   1      38.131  33.007  33.002  1.00  0.00     0.074 A 
ATOM     60  C   UNL A   1      42.616  31.090  37.138  1.00  0.00     0.029 A 
ATOM     61  N   UNL A   1      41.237  31.240  35.398  1.00  0.00    -0.354 N 
ATOM     62  N   UNL A   1      39.070  32.525  33.782  1.00  0.00    -0.248 NA
ATOM     63  C   UNL A   1      37.485  34.221  33.505  1.00  0.00     0.031 C 
ATOM     64  C   UNL A   1      41.786  32.204  37.318  1.00  0.00     0.029 A 
ATOM     65  C   UNL A   1      40.940  32.312  36.223  1.00  0.00     0.049 A 
ATOM     66  H   UNL A   1      40.792  31.049  34.541  1.00  0.00     0.167 HD
ATOM     67  C   UNL A   1      39.141  33.386  34.867  1.00  0.00     0.074 A 
ATOM     68  C   UNL A   1      38.158  34.428  34.630  1.00  0.00     0.031 C 
ATOM     69  C   UNL A   1      39.943  33.323  35.959  1.00  0.00     0.037 A 
BRANCH  56  70
ATOM     70  C   UNL A   1      43.806  28.462  36.125  1.00  0.00     0.058 A 
ATOM     71  C   UNL A   1      45.179  28.755  36.039  1.00  0.00     0.135 A 
ATOM     72  C   UNL A   1      43.422  27.384  36.937  1.00  0.00     0.135 A 
ATOM     73  F   UNL A   1      45.607  29.767  35.267  1.00  0.00    -0.206 F 
ATOM     74  C   UNL A   1      46.134  27.981  36.690  1.00  0.00     0.059 A 
ATOM     75  C   UNL A   1      44.359  26.613  37.622  1.00  0.00     0.059 A 
ATOM     76  F   UNL A   1      42.127  27.057  37.059  1.00  0.00    -0.206 F 
ATOM     77  C   UNL A   1      45.714  26.905  37.473  1.00  0.00     0.060 A 
BRANCH  77  78
ATOM     78  S   UNL A   1      46.967  25.890  38.286  1.00  0.00     0.124 S 
ATOM     79  O   UNL A   1      46.998  24.718  37.418  1.00  0.00    -0.237 OA
ATOM     80  O   UNL A   1      48.147  26.748  38.233  1.00  0.00    -0.237 OA
ATOM     81  O   UNL A   1      46.414  25.671  39.619  1.00  0.00    -0.744 OA
ENDBRANCH  77  78
ENDBRANCH  56  70
BRANCH  57  82
ATOM     82  C   UNL A   1      36.556  33.123  30.914  1.00  0.00     0.058 A 
ATOM     83  C   UNL A   1      35.214  32.881  31.242  1.00  0.00     0.135 A 
ATOM     84  C   UNL A   1      36.824  34.065  29.909  1.00  0.00     0.135 A 
ATOM     85  F   UNL A   1      34.909  31.996  32.203  1.00  0.00    -0.206 F 
ATOM     86  C   UNL A   1      34.177  33.548  30.600  1.00  0.00     0.059 A 
ATOM     87  C   UNL A   1      35.805  34.760  29.267  1.00  0.00     0.059 A 
ATOM     88  F   UNL A   1      38.093  34.357  29.583  1.00  0.00    -0.206 F 
ATOM     89  C   UNL A   1      34.482  34.492  29.618  1.00  0.00     0.060 A 
BRANCH  89  90
ATOM     90  S   UNL A   1      33.129  35.410  28.851  1.00  0.00     0.124 S 
ATOM     91  O   UNL A   1      32.436  34.357  28.120  1.00  0.00    -0.237 OA
ATOM     92  O   UNL A   1      32.428  35.950  30.011  1.00  0.00    -0.237 OA
ATOM     93  O   UNL A   1      33.818  36.401  28.029  1.00  0.00    -0.744 OA
ENDBRANCH  89  90
ENDBRANCH  57  82
BRANCH  69  94
ATOM     94  C   UNL A   1      39.790  34.424  36.969  1.00  0.00     0.058 A 
ATOM     95  C   UNL A   1      38.922  34.296  38.065  1.00  0.00     0.135 A 
ATOM     96  C   UNL A   1      40.551  35.598  36.859  1.00  0.00     0.135 A 
ATOM     97  F   UNL A   1      38.167  33.196  38.207  1.00  0.00    -0.206 F 
ATOM     98  C   UNL A   1      38.797  35.310  39.008  1.00  0.00     0.059 A 
ATOM     99  C   UNL A   1      40.462  36.611  37.805  1.00  0.00     0.059 A 
ATOM    100  F   UNL A   1      41.399  35.761  35.832  1.00  0.00    -0.206 F 
ATOM    101  C   UNL A   1      39.573  36.463  38.870  1.00  0.00     0.060 A 
BRANCH 101 102
ATOM    102  S   UNL A   1      39.426  37.757  40.119  1.00  0.00     0.124 S 
ATOM    103  O   UNL A   1      40.701  38.452  39.972  1.00  0.00    -0.237 OA
ATOM    104  O   UNL A   1      38.247  38.491  39.671  1.00  0.00    -0.237 OA
ATOM    105  O   UNL A   1      39.257  37.009  41.362  1.00  0.00    -0.744 OA
ENDBRANCH 101 102
ENDBRANCH  69  94
ENDBRANCH  43  44
ENDBRANCH  35  38
ENDBRANCH  33  34
ENDBRANCH  32  33
ENDBRANCH  31  32
ENDBRANCH   3  31
TORSDOF 20
ENDMDL
MODEL 3
REMARK VINA RESULT:     -11.8      6.292      8.387
REMARK SMILES CC(C)(C)OC(=O)N1CCC[C@H]1C(=O)N1CCC[C@H]1C(=O)N1CCC[C@@H]1C(=O)NCCCNC(=O)c1ccc(-c2c3nc(c(-c4c(F)cc(S(=O)(=O)[O-])cc4F)c4ccc([nH]4)c(-c4c(F)cc(S(=O)(=O)[O-])cc4F)c4nc(c(-c5c(F)cc(S(=O)(=O)[O-])cc5F)c5ccc2[nH]5)C=C4)C=C3)cc1
REMARK SMILES IDX 27 1 28 2 29 3 26 5 22 6 23 7 24 8 25 9 20 10 21 11 19 12
REMARK SMILES IDX 15 13 16 14 17 15 18 16 13 17 14 18 12 19 8 20 9 21 10 22
REMARK SMILES IDX 11 23 6 24 7 25 5 26 2 27 1 28 3 29 4 30 30 31 31 32 32 33
REMARK SMILES IDX 33 34 34 35 35 37 36 38 37 39 101 40 38 41 100 42 39 43
REMARK SMILES IDX 40 44 41 45 94 46 42 47 99 48 93 49 95 50 43 51 98 52 92 53
REMARK SMILES IDX 91 54 44 56 78 57 57 58 77 59 58 60 61 61 76 62 96 63 59 64
REMARK SMILES IDX 60 65 75 67 97 68 62 69 45 70 46 71 55 72 47 73 48 74 54 75
REMARK SMILES IDX 56 76 49 77 50 78 51 79 52 80 53 81 79 82 80 83 89 84 81 85
REMARK SMILES IDX 82 86 88 87 90 88 83 89 84 90 85 91 86 92 87 93 63 94 64 95
REMARK SMILES IDX 73 96 65 97 66 98 72 99 74 100 67 101 68 102 69 103 70 104
REMARK SMILES IDX 71 105
REMARK H PARENT 29 4 33 36 95 55 61 66
REMARK Flexibility Score: inf
ROOT
ATOM      1  C   UNL A   1      34.656  21.431  26.349  1.00  0.00     0.242 C 
ATOM      2  O   UNL A   1      33.928  21.384  27.348  1.00  0.00    -0.273 OA
ATOM      3  N   UNL A   1      35.828  22.120  26.467  1.00  0.00    -0.354 N 
ATOM      4  H   UNL A   1      36.030  22.432  27.379  1.00  0.00     0.163 HD
ENDROOT
BRANCH   1   5
ATOM      5  C   UNL A   1      34.139  20.915  24.987  1.00  0.00     0.174 C 
ATOM      6  N   UNL A   1      32.706  20.654  24.950  1.00  0.00    -0.329 N 
ATOM      7  C   UNL A   1      32.411  19.358  24.374  1.00  0.00     0.120 C 
ATOM      8  C   UNL A   1      33.679  18.545  24.571  1.00  0.00     0.024 C 
ATOM      9  C   UNL A   1      34.804  19.578  24.626  1.00  0.00     0.037 C 
BRANCH   6  10
ATOM     10  C   UNL A   1      31.795  21.691  25.080  1.00  0.00     0.246 C 
ATOM     11  O   UNL A   1      30.919  21.694  25.943  1.00  0.00    -0.272 OA
BRANCH  10  12
ATOM     12  C   UNL A   1      31.937  22.808  24.019  1.00  0.00     0.174 C 
ATOM     13  N   UNL A   1      32.911  23.858  24.350  1.00  0.00    -0.329 N 
ATOM     14  C   UNL A   1      33.953  23.932  23.348  1.00  0.00     0.120 C 
ATOM     15  C   UNL A   1      33.293  23.365  22.106  1.00  0.00     0.024 C 
ATOM     16  C   UNL A   1      32.392  22.266  22.661  1.00  0.00     0.037 C 
BRANCH  13  17
ATOM     17  C   UNL A   1      32.640  24.759  25.365  1.00  0.00     0.246 C 
ATOM     18  O   UNL A   1      33.148  24.631  26.481  1.00  0.00    -0.272 OA
BRANCH  17  19
ATOM     19  C   UNL A   1      31.617  25.882  25.065  1.00  0.00     0.178 C 
ATOM     20  N   UNL A   1      32.146  26.877  24.132  1.00  0.00    -0.296 N 
ATOM     21  C   UNL A   1      31.362  26.965  22.922  1.00  0.00     0.124 C 
ATOM     22  C   UNL A   1      29.999  26.474  23.369  1.00  0.00     0.024 C 
ATOM     23  C   UNL A   1      30.338  25.382  24.388  1.00  0.00     0.037 C 
BRANCH  20  24
ATOM     24  C   UNL A   1      33.203  27.675  24.476  1.00  0.00     0.410 C 
ATOM     25  O   UNL A   1      34.014  28.080  23.650  1.00  0.00    -0.224 OA
BRANCH  24  26
ATOM     26  O   UNL A   1      33.244  27.927  25.813  1.00  0.00    -0.444 OA
BRANCH  26  27
ATOM     27  C   UNL A   1      32.547  29.079  26.353  1.00  0.00     0.106 C 
ATOM     28  C   UNL A   1      33.617  30.083  26.804  1.00  0.00     0.056 C 
ATOM     29  C   UNL A   1      31.772  28.627  27.591  1.00  0.00     0.056 C 
ATOM     30  C   UNL A   1      31.691  29.794  25.302  1.00  0.00     0.056 C 
ENDBRANCH  26  27
ENDBRANCH  24  26
ENDBRANCH  20  24
ENDBRANCH  17  19
ENDBRANCH  13  17
ENDBRANCH  10  12
ENDBRANCH   6  10
ENDBRANCH   1   5
BRANCH   3  31
ATOM     31  C   UNL A   1      36.824  22.471  25.480  1.00  0.00     0.117 C 
BRANCH  31  32
ATOM     32  C   UNL A   1      37.872  21.382  25.296  1.00  0.00     0.042 C 
BRANCH  32  33
ATOM     33  C   UNL A   1      39.122  21.653  26.110  1.00  0.00     0.118 C 
BRANCH  33  34
ATOM     34  N   UNL A   1      39.968  20.467  26.166  1.00  0.00    -0.352 N 
ATOM     35  C   UNL A   1      41.323  20.323  26.093  1.00  0.00     0.251 C 
ATOM     36  H   UNL A   1      39.475  19.622  26.277  1.00  0.00     0.163 HD
ATOM     37  O   UNL A   1      41.776  19.214  25.810  1.00  0.00    -0.269 OA
BRANCH  35  38
ATOM     38  C   UNL A   1      42.251  21.443  26.366  1.00  0.00     0.039 A 
ATOM     39  C   UNL A   1      42.744  22.144  25.259  1.00  0.00     0.014 A 
ATOM     40  C   UNL A   1      42.672  21.799  27.651  1.00  0.00     0.014 A 
ATOM     41  C   UNL A   1      43.551  23.260  25.443  1.00  0.00     0.010 A 
ATOM     42  C   UNL A   1      43.415  22.952  27.845  1.00  0.00     0.010 A 
ATOM     43  C   UNL A   1      43.816  23.709  26.742  1.00  0.00    -0.014 A 
BRANCH  43  44
ATOM     44  C   UNL A   1      44.325  25.071  26.971  1.00  0.00     0.031 A 
ATOM     45  C   UNL A   1      45.777  25.385  26.836  1.00  0.00     0.074 A 
ATOM     46  C   UNL A   1      43.440  25.974  27.438  1.00  0.00     0.049 A 
ATOM     47  N   UNL A   1      46.387  26.522  27.028  1.00  0.00    -0.248 NA
ATOM     48  C   UNL A   1      46.667  24.271  26.472  1.00  0.00     0.031 C 
ATOM     49  C   UNL A   1      42.024  25.697  27.708  1.00  0.00     0.029 A 
ATOM     50  N   UNL A   1      43.593  27.284  27.788  1.00  0.00    -0.354 N 
ATOM     51  C   UNL A   1      47.734  26.267  26.807  1.00  0.00     0.074 A 
ATOM     52  C   UNL A   1      47.857  24.854  26.522  1.00  0.00     0.031 C 
ATOM     53  C   UNL A   1      41.433  26.812  28.159  1.00  0.00     0.029 A 
ATOM     54  C   UNL A   1      42.433  27.868  28.239  1.00  0.00     0.049 A 
ATOM     55  H   UNL A   1      44.450  27.765  27.724  1.00  0.00     0.167 HD
ATOM     56  C   UNL A   1      48.761  27.149  26.829  1.00  0.00     0.037 A 
ATOM     57  C   UNL A   1      42.205  29.121  28.668  1.00  0.00     0.037 A 
ATOM     58  C   UNL A   1      48.592  28.546  27.137  1.00  0.00     0.049 A 
ATOM     59  C   UNL A   1      43.347  30.089  28.640  1.00  0.00     0.074 A 
ATOM     60  C   UNL A   1      49.537  29.556  27.123  1.00  0.00     0.029 A 
ATOM     61  N   UNL A   1      47.393  29.127  27.534  1.00  0.00    -0.354 N 
ATOM     62  N   UNL A   1      44.599  29.869  28.312  1.00  0.00    -0.248 NA
ATOM     63  C   UNL A   1      43.051  31.473  29.017  1.00  0.00     0.031 C 
ATOM     64  C   UNL A   1      48.918  30.736  27.555  1.00  0.00     0.029 A 
ATOM     65  C   UNL A   1      47.576  30.476  27.791  1.00  0.00     0.049 A 
ATOM     66  H   UNL A   1      46.536  28.649  27.621  1.00  0.00     0.167 HD
ATOM     67  C   UNL A   1      45.243  31.092  28.429  1.00  0.00     0.074 A 
ATOM     68  C   UNL A   1      44.233  32.050  28.841  1.00  0.00     0.031 C 
ATOM     69  C   UNL A   1      46.547  31.397  28.215  1.00  0.00     0.037 A 
BRANCH  56  70
ATOM     70  C   UNL A   1      50.135  26.619  26.517  1.00  0.00     0.058 A 
ATOM     71  C   UNL A   1      50.595  26.501  25.194  1.00  0.00     0.135 A 
ATOM     72  C   UNL A   1      51.001  26.216  27.545  1.00  0.00     0.135 A 
ATOM     73  F   UNL A   1      49.806  26.859  24.168  1.00  0.00    -0.206 F 
ATOM     74  C   UNL A   1      51.843  25.959  24.900  1.00  0.00     0.059 A 
ATOM     75  C   UNL A   1      52.266  25.698  27.275  1.00  0.00     0.059 A 
ATOM     76  F   UNL A   1      50.617  26.306  28.827  1.00  0.00    -0.206 F 
ATOM     77  C   UNL A   1      52.668  25.552  25.948  1.00  0.00     0.060 A 
BRANCH  77  78
ATOM     78  S   UNL A   1      54.271  24.823  25.550  1.00  0.00     0.124 S 
ATOM     79  O   UNL A   1      54.910  24.794  26.861  1.00  0.00    -0.237 OA
ATOM     80  O   UNL A   1      53.896  23.523  25.001  1.00  0.00    -0.237 OA
ATOM     81  O   UNL A   1      54.844  25.763  24.592  1.00  0.00    -0.744 OA
ENDBRANCH  77  78
ENDBRANCH  56  70
BRANCH  57  82
ATOM     82  C   UNL A   1      40.834  29.507  29.087  1.00  0.00     0.058 A 
ATOM     83  C   UNL A   1      39.805  29.638  28.143  1.00  0.00     0.135 A 
ATOM     84  C   UNL A   1      40.502  29.652  30.443  1.00  0.00     0.135 A 
ATOM     85  F   UNL A   1      40.073  29.498  26.836  1.00  0.00    -0.206 F 
ATOM     86  C   UNL A   1      38.495  29.900  28.528  1.00  0.00     0.059 A 
ATOM     87  C   UNL A   1      39.195  29.894  30.854  1.00  0.00     0.059 A 
ATOM     88  F   UNL A   1      41.445  29.502  31.386  1.00  0.00    -0.206 F 
ATOM     89  C   UNL A   1      38.198  30.019  29.888  1.00  0.00     0.060 A 
BRANCH  89  90
ATOM     90  S   UNL A   1      36.479  30.278  30.377  1.00  0.00     0.124 S 
ATOM     91  O   UNL A   1      36.403  31.732  30.432  1.00  0.00    -0.237 OA
ATOM     92  O   UNL A   1      35.750  29.641  29.284  1.00  0.00    -0.237 OA
ATOM     93  O   UNL A   1      36.387  29.591  31.662  1.00  0.00    -0.744 OA
ENDBRANCH  89  90
ENDBRANCH  57  82
BRANCH  69  94
ATOM     94  C   UNL A   1      46.943  32.831  28.416  1.00  0.00     0.058 A 
ATOM     95  C   UNL A   1      47.439  33.288  29.646  1.00  0.00     0.135 A 
ATOM     96  C   UNL A   1      46.863  33.744  27.353  1.00  0.00     0.135 A 
ATOM     97  F   UNL A   1      47.524  32.454  30.695  1.00  0.00    -0.206 F 
ATOM     98  C   UNL A   1      47.822  34.613  29.823  1.00  0.00     0.059 A 
ATOM     99  C   UNL A   1      47.267  35.066  27.500  1.00  0.00     0.059 A 
ATOM    100  F   UNL A   1      46.402  33.351  26.156  1.00  0.00    -0.206 F 
ATOM    101  C   UNL A   1      47.734  35.493  28.743  1.00  0.00     0.060 A 
BRANCH 101 102
ATOM    102  S   UNL A   1      48.266  37.201  28.976  1.00  0.00     0.124 S 
ATOM    103  O   UNL A   1      47.567  37.877  27.888  1.00  0.00    -0.237 OA
ATOM    104  O   UNL A   1      47.783  37.498  30.321  1.00  0.00    -0.237 OA
ATOM    105  O   UNL A   1      49.717  37.125  28.840  1.00  0.00    -0.744 OA
ENDBRANCH 101 102
ENDBRANCH  69  94
ENDBRANCH  43  44
ENDBRANCH  35  38
ENDBRANCH  33  34
ENDBRANCH  32  33
ENDBRANCH  31  32
ENDBRANCH   3  31
TORSDOF 20
ENDMDL
