MODEL 1
REMARK VINA RESULT:     -12.8      0.000      0.000
REMARK SMILES Cc1sc(NC(=O)[C@@H]2[C@@H](C(=O)NCCCNC(=O)c3ccc(-c4c5nc(c(-c6c(F)cc(S(=O)(=O)[O-])cc6F)c6ccc([nH]6)c(-c6c(F)cc(S(=O)(=O)[O-])cc6F)c6nc(c(-c7c(F)cc(S(=O)(=O)[O-])cc7F)c7ccc4[nH]7)C=C6)C=C5)cc3)[C@@H]3C=C[C@H]2C3)c(C#N)c1C
REMARK SMILES IDX 14 1 13 2 12 3 10 4 11 5 9 7 8 8 88 9 85 10 87 11 89 12
REMARK SMILES IDX 86 13 6 14 5 15 7 17 4 18 1 19 2 20 3 21 93 22 90 23 94 24
REMARK SMILES IDX 91 25 92 26 15 27 16 28 17 29 18 31 19 32 20 33 84 34 21 35
REMARK SMILES IDX 83 36 22 37 23 38 24 39 77 40 25 41 82 42 76 43 78 44 26 45
REMARK SMILES IDX 81 46 75 47 74 48 27 50 61 51 40 52 60 53 41 54 44 55 59 56
REMARK SMILES IDX 79 57 42 58 43 59 58 61 80 62 45 63 28 64 29 65 38 66 30 67
REMARK SMILES IDX 31 68 37 69 39 70 32 71 33 72 34 73 35 74 36 75 62 76 63 77
REMARK SMILES IDX 72 78 64 79 65 80 71 81 73 82 66 83 67 84 68 85 69 86 70 87
REMARK SMILES IDX 46 88 47 89 56 90 48 91 49 92 55 93 57 94 50 95 51 96 52 97
REMARK SMILES IDX 53 98 54 99
REMARK H PARENT 12 6 5 16 16 30 78 49 44 60
REMARK Flexibility Score: inf
ROOT
ATOM      1  C   UNL A   1      37.828  20.397  25.034  1.00  0.00     0.042 C 
ENDROOT
BRANCH   1   2
ATOM      2  C   UNL A   1      36.816  21.491  25.251  1.00  0.00     0.117 C 
BRANCH   2   3
ATOM      3  N   UNL A   1      35.881  21.381  26.344  1.00  0.00    -0.356 N 
ATOM      4  C   UNL A   1      34.515  21.346  26.197  1.00  0.00     0.224 C 
ATOM      5  O   UNL A   1      33.828  21.086  27.183  1.00  0.00    -0.275 OA
ATOM      6  H   UNL A   1      36.246  21.325  27.257  1.00  0.00     0.163 HD
BRANCH   4   7
ATOM      7  C   UNL A   1      33.906  21.731  24.835  1.00  0.00     0.098 C 
ATOM      8  C   UNL A   1      33.563  23.258  24.759  1.00  0.00     0.099 C 
ATOM      9  C   UNL A   1      32.016  23.219  24.476  1.00  0.00     0.025 C 
ATOM     10  C   UNL A   1      32.535  21.079  24.520  1.00  0.00     0.025 C 
ATOM     11  C   UNL A   1      31.802  22.683  23.073  1.00  0.00    -0.027 C 
ATOM     12  C   UNL A   1      31.578  21.992  25.264  1.00  0.00     0.017 C 
ATOM     13  C   UNL A   1      32.184  21.400  23.089  1.00  0.00    -0.027 C 
BRANCH   8  14
ATOM     14  C   UNL A   1      34.181  24.242  23.753  1.00  0.00     0.229 C 
ATOM     15  N   UNL A   1      34.311  25.581  23.975  1.00  0.00    -0.316 N 
ATOM     16  H   UNL A   1      35.227  25.924  23.859  1.00  0.00     0.170 HD
ATOM     17  O   UNL A   1      34.903  23.774  22.858  1.00  0.00    -0.274 OA
BRANCH  15  18
ATOM     18  C   UNL A   1      33.387  26.539  24.332  1.00  0.00     0.113 A 
ATOM     19  C   UNL A   1      31.812  29.389  26.472  1.00  0.00     0.057 C 
ATOM     20  C   UNL A   1      32.135  28.289  25.515  1.00  0.00     0.008 A 
ATOM     21  S   UNL A   1      33.362  27.160  25.913  1.00  0.00    -0.122 S 
ATOM     22  C   UNL A   1      31.536  27.984  24.301  1.00  0.00    -0.017 A 
ATOM     23  C   UNL A   1      32.285  26.961  23.613  1.00  0.00     0.090 A 
ATOM     24  C   UNL A   1      30.305  28.637  23.754  1.00  0.00     0.047 C 
BRANCH  23  25
ATOM     25  C   UNL A   1      31.973  26.474  22.307  1.00  0.00     0.103 C 
ATOM     26  N   UNL A   1      31.720  26.076  21.236  1.00  0.00    -0.192 NA
ENDBRANCH  23  25
ENDBRANCH  15  18
ENDBRANCH   8  14
ENDBRANCH   4   7
ENDBRANCH   2   3
ENDBRANCH   1   2
BRANCH   1  27
ATOM     27  C   UNL A   1      39.106  20.640  25.792  1.00  0.00     0.118 C 
BRANCH  27  28
ATOM     28  N   UNL A   1      40.011  19.484  25.922  1.00  0.00    -0.352 N 
ATOM     29  C   UNL A   1      41.404  19.531  26.019  1.00  0.00     0.251 C 
ATOM     30  H   UNL A   1      39.594  18.593  25.943  1.00  0.00     0.163 HD
ATOM     31  O   UNL A   1      42.102  18.538  25.873  1.00  0.00    -0.269 OA
BRANCH  29  32
ATOM     32  C   UNL A   1      41.989  20.829  26.397  1.00  0.00     0.039 A 
ATOM     33  C   UNL A   1      42.450  21.841  25.550  1.00  0.00     0.014 A 
ATOM     34  C   UNL A   1      41.973  21.057  27.751  1.00  0.00     0.014 A 
ATOM     35  C   UNL A   1      42.788  23.072  26.137  1.00  0.00     0.010 A 
ATOM     36  C   UNL A   1      41.656  22.323  28.078  1.00  0.00     0.010 A 
ATOM     37  C   UNL A   1      42.434  23.269  27.473  1.00  0.00    -0.014 A 
BRANCH  37  38
ATOM     38  C   UNL A   1      42.503  24.461  28.292  1.00  0.00     0.031 A 
ATOM     39  C   UNL A   1      41.296  25.311  28.136  1.00  0.00     0.074 A 
ATOM     40  C   UNL A   1      43.399  24.530  29.316  1.00  0.00     0.049 A 
ATOM     41  N   UNL A   1      41.160  26.301  27.316  1.00  0.00    -0.248 NA
ATOM     42  C   UNL A   1      40.003  24.843  28.683  1.00  0.00     0.031 C 
ATOM     43  C   UNL A   1      44.407  23.540  29.745  1.00  0.00     0.029 A 
ATOM     44  N   UNL A   1      43.576  25.518  30.237  1.00  0.00    -0.354 N 
ATOM     45  C   UNL A   1      39.883  26.793  27.555  1.00  0.00     0.074 A 
ATOM     46  C   UNL A   1      39.147  25.688  28.096  1.00  0.00     0.031 C 
ATOM     47  C   UNL A   1      44.937  23.888  30.944  1.00  0.00     0.029 A 
ATOM     48  C   UNL A   1      44.444  25.202  31.299  1.00  0.00     0.049 A 
ATOM     49  H   UNL A   1      43.128  26.392  30.166  1.00  0.00     0.167 HD
ATOM     50  C   UNL A   1      39.675  28.137  27.662  1.00  0.00     0.037 A 
ATOM     51  C   UNL A   1      44.746  26.010  32.356  1.00  0.00     0.037 A 
ATOM     52  C   UNL A   1      40.874  28.842  27.253  1.00  0.00     0.049 A 
ATOM     53  C   UNL A   1      44.388  27.390  31.924  1.00  0.00     0.074 A 
ATOM     54  C   UNL A   1      41.604  28.940  26.087  1.00  0.00     0.029 A 
ATOM     55  N   UNL A   1      41.722  29.207  28.273  1.00  0.00    -0.354 N 
ATOM     56  N   UNL A   1      44.988  28.001  30.934  1.00  0.00    -0.248 NA
ATOM     57  C   UNL A   1      43.028  27.831  32.193  1.00  0.00     0.031 C 
ATOM     58  C   UNL A   1      42.970  28.945  26.502  1.00  0.00     0.029 A 
ATOM     59  C   UNL A   1      43.019  28.974  27.898  1.00  0.00     0.049 A 
ATOM     60  H   UNL A   1      41.441  29.578  29.141  1.00  0.00     0.167 HD
ATOM     61  C   UNL A   1      43.963  28.572  30.187  1.00  0.00     0.074 A 
ATOM     62  C   UNL A   1      42.780  28.477  31.048  1.00  0.00     0.031 C 
ATOM     63  C   UNL A   1      44.102  28.760  28.838  1.00  0.00     0.037 A 
BRANCH  50  64
ATOM     64  C   UNL A   1      38.644  28.813  28.548  1.00  0.00     0.058 A 
ATOM     65  C   UNL A   1      37.832  29.815  27.973  1.00  0.00     0.135 A 
ATOM     66  C   UNL A   1      38.592  28.737  29.957  1.00  0.00     0.135 A 
ATOM     67  F   UNL A   1      37.772  29.966  26.640  1.00  0.00    -0.206 F 
ATOM     68  C   UNL A   1      37.116  30.736  28.739  1.00  0.00     0.059 A 
ATOM     69  C   UNL A   1      37.851  29.618  30.739  1.00  0.00     0.059 A 
ATOM     70  F   UNL A   1      39.311  27.862  30.668  1.00  0.00    -0.206 F 
ATOM     71  C   UNL A   1      37.148  30.639  30.123  1.00  0.00     0.060 A 
BRANCH  71  72
ATOM     72  S   UNL A   1      36.292  31.873  31.115  1.00  0.00     0.124 S 
ATOM     73  O   UNL A   1      35.062  32.058  30.354  1.00  0.00    -0.237 OA
ATOM     74  O   UNL A   1      36.158  31.185  32.395  1.00  0.00    -0.237 OA
ATOM     75  O   UNL A   1      37.213  33.005  31.112  1.00  0.00    -0.744 OA
ENDBRANCH  71  72
ENDBRANCH  50  64
BRANCH  51  76
ATOM     76  C   UNL A   1      44.949  25.652  33.793  1.00  0.00     0.058 A 
ATOM     77  C   UNL A   1      43.928  25.114  34.605  1.00  0.00     0.135 A 
ATOM     78  C   UNL A   1      46.253  25.559  34.317  1.00  0.00     0.135 A 
ATOM     79  F   UNL A   1      42.658  25.115  34.173  1.00  0.00    -0.206 F 
ATOM     80  C   UNL A   1      44.188  24.513  35.850  1.00  0.00     0.059 A 
ATOM     81  C   UNL A   1      46.538  24.963  35.549  1.00  0.00     0.059 A 
ATOM     82  F   UNL A   1      47.306  25.971  33.593  1.00  0.00    -0.206 F 
ATOM     83  C   UNL A   1      45.503  24.430  36.310  1.00  0.00     0.060 A 
BRANCH  83  84
ATOM     84  S   UNL A   1      45.872  23.549  37.853  1.00  0.00     0.124 S 
ATOM     85  O   UNL A   1      44.900  24.128  38.775  1.00  0.00    -0.237 OA
ATOM     86  O   UNL A   1      45.645  22.157  37.482  1.00  0.00    -0.237 OA
ATOM     87  O   UNL A   1      47.266  23.899  38.118  1.00  0.00    -0.744 OA
ENDBRANCH  83  84
ENDBRANCH  51  76
BRANCH  63  88
ATOM     88  C   UNL A   1      45.485  28.599  28.242  1.00  0.00     0.058 A 
ATOM     89  C   UNL A   1      45.982  27.433  27.628  1.00  0.00     0.135 A 
ATOM     90  C   UNL A   1      46.288  29.744  28.166  1.00  0.00     0.135 A 
ATOM     91  F   UNL A   1      45.243  26.321  27.563  1.00  0.00    -0.206 F 
ATOM     92  C   UNL A   1      47.235  27.398  27.005  1.00  0.00     0.059 A 
ATOM     93  C   UNL A   1      47.525  29.742  27.530  1.00  0.00     0.059 A 
ATOM     94  F   UNL A   1      45.843  30.906  28.671  1.00  0.00    -0.206 F 
ATOM     95  C   UNL A   1      48.002  28.561  26.966  1.00  0.00     0.060 A 
BRANCH  95  96
ATOM     96  S   UNL A   1      49.608  28.542  26.139  1.00  0.00     0.124 S 
ATOM     97  O   UNL A   1      50.368  27.611  26.966  1.00  0.00    -0.237 OA
ATOM     98  O   UNL A   1      49.271  28.069  24.799  1.00  0.00    -0.237 OA
ATOM     99  O   UNL A   1      50.044  29.935  26.207  1.00  0.00    -0.744 OA
ENDBRANCH  95  96
ENDBRANCH  63  88
ENDBRANCH  37  38
ENDBRANCH  29  32
ENDBRANCH  27  28
ENDBRANCH   1  27
TORSDOF 16
ENDMDL
MODEL 2
REMARK VINA RESULT:     -12.7      4.601     10.148
REMARK SMILES Cc1sc(NC(=O)[C@@H]2[C@@H](C(=O)NCCCNC(=O)c3ccc(-c4c5nc(c(-c6c(F)cc(S(=O)(=O)[O-])cc6F)c6ccc([nH]6)c(-c6c(F)cc(S(=O)(=O)[O-])cc6F)c6nc(c(-c7c(F)cc(S(=O)(=O)[O-])cc7F)c7ccc4[nH]7)C=C6)C=C5)cc3)[C@@H]3C=C[C@H]2C3)c(C#N)c1C
REMARK SMILES IDX 14 1 13 2 12 3 10 4 11 5 9 7 8 8 88 9 85 10 87 11 89 12
REMARK SMILES IDX 86 13 6 14 5 15 7 17 4 18 1 19 2 20 3 21 93 22 90 23 94 24
REMARK SMILES IDX 91 25 92 26 15 27 16 28 17 29 18 31 19 32 20 33 84 34 21 35
REMARK SMILES IDX 83 36 22 37 23 38 24 39 77 40 25 41 82 42 76 43 78 44 26 45
REMARK SMILES IDX 81 46 75 47 74 48 27 50 61 51 40 52 60 53 41 54 44 55 59 56
REMARK SMILES IDX 79 57 42 58 43 59 58 61 80 62 45 63 28 64 29 65 38 66 30 67
REMARK SMILES IDX 31 68 37 69 39 70 32 71 33 72 34 73 35 74 36 75 62 76 63 77
REMARK SMILES IDX 72 78 64 79 65 80 71 81 73 82 66 83 67 84 68 85 69 86 70 87
REMARK SMILES IDX 46 88 47 89 56 90 48 91 49 92 55 93 57 94 50 95 51 96 52 97
REMARK SMILES IDX 53 98 54 99
REMARK H PARENT 12 6 5 16 16 30 78 49 44 60
REMARK Flexibility Score: inf
ROOT
ATOM      1  C   UNL A   1      31.786  31.597  26.837  1.00  0.00     0.042 C 
ENDROOT
BRANCH   1   2
ATOM      2  C   UNL A   1      32.206  30.209  26.432  1.00  0.00     0.117 C 
BRANCH   2   3
ATOM      3  N   UNL A   1      32.972  30.028  25.223  1.00  0.00    -0.356 N 
ATOM      4  C   UNL A   1      32.624  29.177  24.202  1.00  0.00     0.224 C 
ATOM      5  O   UNL A   1      33.266  29.229  23.154  1.00  0.00    -0.275 OA
ATOM      6  H   UNL A   1      33.801  30.550  25.123  1.00  0.00     0.163 HD
BRANCH   4   7
ATOM      7  C   UNL A   1      31.517  28.136  24.450  1.00  0.00     0.098 C 
ATOM      8  C   UNL A   1      32.104  26.701  24.681  1.00  0.00     0.099 C 
ATOM      9  C   UNL A   1      31.421  25.891  23.518  1.00  0.00     0.025 C 
ATOM     10  C   UNL A   1      30.556  27.900  23.257  1.00  0.00     0.025 C 
ATOM     11  C   UNL A   1      29.939  25.778  23.824  1.00  0.00    -0.027 C 
ATOM     12  C   UNL A   1      31.350  26.927  22.404  1.00  0.00     0.017 C 
ATOM     13  C   UNL A   1      29.431  27.013  23.731  1.00  0.00    -0.027 C 
BRANCH   8  14
ATOM     14  C   UNL A   1      31.927  25.881  25.968  1.00  0.00     0.229 C 
ATOM     15  N   UNL A   1      32.842  24.987  26.437  1.00  0.00    -0.316 N 
ATOM     16  H   UNL A   1      33.121  25.144  27.368  1.00  0.00     0.170 HD
ATOM     17  O   UNL A   1      31.096  26.284  26.797  1.00  0.00    -0.274 OA
BRANCH  15  18
ATOM     18  C   UNL A   1      33.445  23.902  25.839  1.00  0.00     0.113 A 
ATOM     19  C   UNL A   1      36.360  21.754  24.399  1.00  0.00     0.057 C 
ATOM     20  C   UNL A   1      35.062  22.371  24.803  1.00  0.00     0.008 A 
ATOM     21  S   UNL A   1      35.003  24.042  25.178  1.00  0.00    -0.122 S 
ATOM     22  C   UNL A   1      33.806  21.786  24.885  1.00  0.00    -0.017 A 
ATOM     23  C   UNL A   1      32.868  22.693  25.502  1.00  0.00     0.090 A 
ATOM     24  C   UNL A   1      33.463  20.401  24.431  1.00  0.00     0.047 C 
BRANCH  23  25
ATOM     25  C   UNL A   1      31.509  22.368  25.797  1.00  0.00     0.103 C 
ATOM     26  N   UNL A   1      30.396  22.100  26.043  1.00  0.00    -0.192 NA
ENDBRANCH  23  25
ENDBRANCH  15  18
ENDBRANCH   8  14
ENDBRANCH   4   7
ENDBRANCH   2   3
ENDBRANCH   1   2
BRANCH   1  27
ATOM     27  C   UNL A   1      32.949  32.438  27.291  1.00  0.00     0.118 C 
BRANCH  27  28
ATOM     28  N   UNL A   1      32.652  33.852  27.578  1.00  0.00    -0.352 N 
ATOM     29  C   UNL A   1      33.139  34.597  28.655  1.00  0.00     0.251 C 
ATOM     30  H   UNL A   1      32.052  34.318  26.952  1.00  0.00     0.163 HD
ATOM     31  O   UNL A   1      32.661  35.677  28.971  1.00  0.00    -0.269 OA
BRANCH  29  32
ATOM     32  C   UNL A   1      34.325  34.055  29.342  1.00  0.00     0.039 A 
ATOM     33  C   UNL A   1      34.360  33.179  30.430  1.00  0.00     0.014 A 
ATOM     34  C   UNL A   1      35.507  34.414  28.744  1.00  0.00     0.014 A 
ATOM     35  C   UNL A   1      35.609  32.646  30.792  1.00  0.00     0.010 A 
ATOM     36  C   UNL A   1      36.411  33.418  28.701  1.00  0.00     0.010 A 
ATOM     37  C   UNL A   1      36.675  32.850  29.915  1.00  0.00    -0.014 A 
BRANCH  37  38
ATOM     38  C   UNL A   1      38.016  32.303  29.931  1.00  0.00     0.031 A 
ATOM     39  C   UNL A   1      38.060  30.927  29.375  1.00  0.00     0.074 A 
ATOM     40  C   UNL A   1      39.085  33.132  30.092  1.00  0.00     0.049 A 
ATOM     41  N   UNL A   1      37.976  29.828  30.051  1.00  0.00    -0.248 NA
ATOM     42  C   UNL A   1      37.846  30.723  27.925  1.00  0.00     0.031 C 
ATOM     43  C   UNL A   1      39.113  34.594  30.300  1.00  0.00     0.029 A 
ATOM     44  N   UNL A   1      40.415  32.834  30.067  1.00  0.00    -0.354 N 
ATOM     45  C   UNL A   1      38.092  28.816  29.106  1.00  0.00     0.074 A 
ATOM     46  C   UNL A   1      37.656  29.400  27.871  1.00  0.00     0.031 C 
ATOM     47  C   UNL A   1      40.378  35.068  30.179  1.00  0.00     0.029 A 
ATOM     48  C   UNL A   1      41.279  33.943  30.055  1.00  0.00     0.049 A 
ATOM     49  H   UNL A   1      40.747  31.907  30.058  1.00  0.00     0.167 HD
ATOM     50  C   UNL A   1      38.902  27.745  29.345  1.00  0.00     0.037 A 
ATOM     51  C   UNL A   1      42.643  33.898  29.992  1.00  0.00     0.037 A 
ATOM     52  C   UNL A   1      39.333  27.769  30.728  1.00  0.00     0.049 A 
ATOM     53  C   UNL A   1      43.020  32.521  30.419  1.00  0.00     0.074 A 
ATOM     54  C   UNL A   1      38.703  27.702  31.953  1.00  0.00     0.029 A 
ATOM     55  N   UNL A   1      40.559  28.351  30.955  1.00  0.00    -0.354 N 
ATOM     56  N   UNL A   1      42.788  32.064  31.623  1.00  0.00    -0.248 NA
ATOM     57  C   UNL A   1      43.107  31.510  29.376  1.00  0.00     0.031 C 
ATOM     58  C   UNL A   1      39.400  28.631  32.783  1.00  0.00     0.029 A 
ATOM     59  C   UNL A   1      40.496  29.135  32.077  1.00  0.00     0.049 A 
ATOM     60  H   UNL A   1      41.361  28.225  30.396  1.00  0.00     0.167 HD
ATOM     61  C   UNL A   1      42.268  30.788  31.431  1.00  0.00     0.074 A 
ATOM     62  C   UNL A   1      42.541  30.484  30.023  1.00  0.00     0.031 C 
ATOM     63  C   UNL A   1      41.387  30.250  32.331  1.00  0.00     0.037 A 
BRANCH  50  64
ATOM     64  C   UNL A   1      39.687  26.969  28.302  1.00  0.00     0.058 A 
ATOM     65  C   UNL A   1      39.615  25.559  28.333  1.00  0.00     0.135 A 
ATOM     66  C   UNL A   1      40.699  27.498  27.472  1.00  0.00     0.135 A 
ATOM     67  F   UNL A   1      38.672  24.938  29.061  1.00  0.00    -0.206 F 
ATOM     68  C   UNL A   1      40.539  24.742  27.681  1.00  0.00     0.059 A 
ATOM     69  C   UNL A   1      41.606  26.702  26.779  1.00  0.00     0.059 A 
ATOM     70  F   UNL A   1      40.925  28.809  27.341  1.00  0.00    -0.206 F 
ATOM     71  C   UNL A   1      41.544  25.326  26.921  1.00  0.00     0.060 A 
BRANCH  71  72
ATOM     72  S   UNL A   1      42.786  24.280  26.146  1.00  0.00     0.124 S 
ATOM     73  O   UNL A   1      42.045  23.039  25.956  1.00  0.00    -0.237 OA
ATOM     74  O   UNL A   1      43.098  25.035  24.936  1.00  0.00    -0.237 OA
ATOM     75  O   UNL A   1      43.854  24.233  27.141  1.00  0.00    -0.744 OA
ENDBRANCH  71  72
ENDBRANCH  50  64
BRANCH  51  76
ATOM     76  C   UNL A   1      43.585  34.790  29.250  1.00  0.00     0.058 A 
ATOM     77  C   UNL A   1      43.675  34.815  27.842  1.00  0.00     0.135 A 
ATOM     78  C   UNL A   1      44.214  35.858  29.918  1.00  0.00     0.135 A 
ATOM     79  F   UNL A   1      43.071  33.865  27.114  1.00  0.00    -0.206 F 
ATOM     80  C   UNL A   1      44.338  35.842  27.145  1.00  0.00     0.059 A 
ATOM     81  C   UNL A   1      44.874  36.893  29.248  1.00  0.00     0.059 A 
ATOM     82  F   UNL A   1      44.123  35.971  31.253  1.00  0.00    -0.206 F 
ATOM     83  C   UNL A   1      44.925  36.888  27.858  1.00  0.00     0.060 A 
BRANCH  83  84
ATOM     84  S   UNL A   1      45.675  38.284  26.974  1.00  0.00     0.124 S 
ATOM     85  O   UNL A   1      46.409  38.961  28.038  1.00  0.00    -0.237 OA
ATOM     86  O   UNL A   1      46.491  37.615  25.966  1.00  0.00    -0.237 OA
ATOM     87  O   UNL A   1      44.522  39.013  26.451  1.00  0.00    -0.744 OA
ENDBRANCH  83  84
ENDBRANCH  51  76
BRANCH  63  88
ATOM     88  C   UNL A   1      41.222  30.951  33.662  1.00  0.00     0.058 A 
ATOM     89  C   UNL A   1      40.236  31.912  33.965  1.00  0.00     0.135 A 
ATOM     90  C   UNL A   1      42.020  30.509  34.724  1.00  0.00     0.135 A 
ATOM     91  F   UNL A   1      39.363  32.319  33.038  1.00  0.00    -0.206 F 
ATOM     92  C   UNL A   1      40.082  32.436  35.254  1.00  0.00     0.059 A 
ATOM     93  C   UNL A   1      41.869  30.995  36.019  1.00  0.00     0.059 A 
ATOM     94  F   UNL A   1      42.932  29.545  34.518  1.00  0.00    -0.206 F 
ATOM     95  C   UNL A   1      40.909  31.973  36.275  1.00  0.00     0.060 A 
BRANCH  95  96
ATOM     96  S   UNL A   1      40.703  32.615  37.950  1.00  0.00     0.124 S 
ATOM     97  O   UNL A   1      41.701  31.856  38.695  1.00  0.00    -0.237 OA
ATOM     98  O   UNL A   1      40.983  34.039  37.783  1.00  0.00    -0.237 OA
ATOM     99  O   UNL A   1      39.312  32.297  38.269  1.00  0.00    -0.744 OA
ENDBRANCH  95  96
ENDBRANCH  63  88
ENDBRANCH  37  38
ENDBRANCH  29  32
ENDBRANCH  27  28
ENDBRANCH   1  27
TORSDOF 16
ENDMDL
MODEL 3
REMARK VINA RESULT:     -12.5      3.089      7.965
REMARK SMILES Cc1sc(NC(=O)[C@@H]2[C@@H](C(=O)NCCCNC(=O)c3ccc(-c4c5nc(c(-c6c(F)cc(S(=O)(=O)[O-])cc6F)c6ccc([nH]6)c(-c6c(F)cc(S(=O)(=O)[O-])cc6F)c6nc(c(-c7c(F)cc(S(=O)(=O)[O-])cc7F)c7ccc4[nH]7)C=C6)C=C5)cc3)[C@@H]3C=C[C@H]2C3)c(C#N)c1C
REMARK SMILES IDX 14 1 13 2 12 3 10 4 11 5 9 7 8 8 88 9 85 10 87 11 89 12
REMARK SMILES IDX 86 13 6 14 5 15 7 17 4 18 1 19 2 20 3 21 93 22 90 23 94 24
REMARK SMILES IDX 91 25 92 26 15 27 16 28 17 29 18 31 19 32 20 33 84 34 21 35
REMARK SMILES IDX 83 36 22 37 23 38 24 39 77 40 25 41 82 42 76 43 78 44 26 45
REMARK SMILES IDX 81 46 75 47 74 48 27 50 61 51 40 52 60 53 41 54 44 55 59 56
REMARK SMILES IDX 79 57 42 58 43 59 58 61 80 62 45 63 28 64 29 65 38 66 30 67
REMARK SMILES IDX 31 68 37 69 39 70 32 71 33 72 34 73 35 74 36 75 62 76 63 77
REMARK SMILES IDX 72 78 64 79 65 80 71 81 73 82 66 83 67 84 68 85 69 86 70 87
REMARK SMILES IDX 46 88 47 89 56 90 48 91 49 92 55 93 57 94 50 95 51 96 52 97
REMARK SMILES IDX 53 98 54 99
REMARK H PARENT 12 6 5 16 16 30 78 49 44 60
REMARK Flexibility Score: inf
ROOT
ATOM      1  C   UNL A   1      37.608  21.481  25.028  1.00  0.00     0.042 C 
ENDROOT
BRANCH   1   2
ATOM      2  C   UNL A   1      36.147  21.803  25.207  1.00  0.00     0.117 C 
BRANCH   2   3
ATOM      3  N   UNL A   1      35.617  21.954  26.540  1.00  0.00    -0.356 N 
ATOM      4  C   UNL A   1      34.303  22.237  26.827  1.00  0.00     0.224 C 
ATOM      5  O   UNL A   1      33.936  22.181  27.999  1.00  0.00    -0.275 OA
ATOM      6  H   UNL A   1      36.238  21.847  27.296  1.00  0.00     0.163 HD
BRANCH   4   7
ATOM      7  C   UNL A   1      33.380  22.705  25.686  1.00  0.00     0.098 C 
ATOM      8  C   UNL A   1      33.394  24.264  25.525  1.00  0.00     0.099 C 
ATOM      9  C   UNL A   1      31.877  24.616  25.748  1.00  0.00     0.025 C 
ATOM     10  C   UNL A   1      31.872  22.419  25.901  1.00  0.00     0.025 C 
ATOM     11  C   UNL A   1      31.088  24.092  24.562  1.00  0.00    -0.027 C 
ATOM     12  C   UNL A   1      31.456  23.582  26.783  1.00  0.00     0.017 C 
ATOM     13  C   UNL A   1      31.146  22.756  24.622  1.00  0.00    -0.027 C 
BRANCH   8  14
ATOM     14  C   UNL A   1      33.849  25.008  24.260  1.00  0.00     0.229 C 
ATOM     15  N   UNL A   1      34.028  26.357  24.189  1.00  0.00    -0.316 N 
ATOM     16  H   UNL A   1      34.916  26.631  23.864  1.00  0.00     0.170 HD
ATOM     17  O   UNL A   1      34.409  24.344  23.372  1.00  0.00    -0.274 OA
BRANCH  15  18
ATOM     18  C   UNL A   1      33.186  27.404  24.492  1.00  0.00     0.113 A 
ATOM     19  C   UNL A   1      31.929  30.575  26.378  1.00  0.00     0.057 C 
ATOM     20  C   UNL A   1      32.121  29.354  25.539  1.00  0.00     0.008 A 
ATOM     21  S   UNL A   1      33.312  28.205  25.984  1.00  0.00    -0.122 S 
ATOM     22  C   UNL A   1      31.417  28.948  24.415  1.00  0.00    -0.017 A 
ATOM     23  C   UNL A   1      32.057  27.807  23.804  1.00  0.00     0.090 A 
ATOM     24  C   UNL A   1      30.184  29.608  23.878  1.00  0.00     0.047 C 
BRANCH  23  25
ATOM     25  C   UNL A   1      31.622  27.194  22.590  1.00  0.00     0.103 C 
ATOM     26  N   UNL A   1      31.264  26.694  21.594  1.00  0.00    -0.192 NA
ENDBRANCH  23  25
ENDBRANCH  15  18
ENDBRANCH   8  14
ENDBRANCH   4   7
ENDBRANCH   2   3
ENDBRANCH   1   2
BRANCH   1  27
ATOM     27  C   UNL A   1      38.501  22.452  25.752  1.00  0.00     0.118 C 
BRANCH  27  28
ATOM     28  N   UNL A   1      39.497  21.860  26.662  1.00  0.00    -0.352 N 
ATOM     29  C   UNL A   1      40.508  22.545  27.341  1.00  0.00     0.251 C 
ATOM     30  H   UNL A   1      39.446  20.887  26.807  1.00  0.00     0.163 HD
ATOM     31  O   UNL A   1      41.444  21.966  27.874  1.00  0.00    -0.269 OA
BRANCH  29  32
ATOM     32  C   UNL A   1      40.343  24.004  27.459  1.00  0.00     0.039 A 
ATOM     33  C   UNL A   1      39.178  24.753  27.269  1.00  0.00     0.014 A 
ATOM     34  C   UNL A   1      41.477  24.644  27.896  1.00  0.00     0.014 A 
ATOM     35  C   UNL A   1      39.218  26.112  27.627  1.00  0.00     0.010 A 
ATOM     36  C   UNL A   1      41.230  25.629  28.779  1.00  0.00     0.010 A 
ATOM     37  C   UNL A   1      40.329  26.558  28.344  1.00  0.00    -0.014 A 
BRANCH  37  38
ATOM     38  C   UNL A   1      40.581  27.836  28.978  1.00  0.00     0.031 A 
ATOM     39  C   UNL A   1      41.694  28.569  28.324  1.00  0.00     0.074 A 
ATOM     40  C   UNL A   1      39.642  28.381  29.800  1.00  0.00     0.049 A 
ATOM     41  N   UNL A   1      42.938  28.541  28.677  1.00  0.00    -0.248 NA
ATOM     42  C   UNL A   1      41.500  29.125  26.967  1.00  0.00     0.031 C 
ATOM     43  C   UNL A   1      38.331  27.840  30.213  1.00  0.00     0.029 A 
ATOM     44  N   UNL A   1      39.650  29.588  30.432  1.00  0.00    -0.354 N 
ATOM     45  C   UNL A   1      43.582  29.396  27.792  1.00  0.00     0.074 A 
ATOM     46  C   UNL A   1      42.758  29.417  26.619  1.00  0.00     0.031 C 
ATOM     47  C   UNL A   1      37.602  28.790  30.848  1.00  0.00     0.029 A 
ATOM     48  C   UNL A   1      38.438  29.954  31.046  1.00  0.00     0.049 A 
ATOM     49  H   UNL A   1      40.448  30.164  30.457  1.00  0.00     0.167 HD
ATOM     50  C   UNL A   1      44.494  30.300  28.254  1.00  0.00     0.037 A 
ATOM     51  C   UNL A   1      38.193  31.126  31.702  1.00  0.00     0.037 A 
ATOM     52  C   UNL A   1      44.793  30.012  29.643  1.00  0.00     0.049 A 
ATOM     53  C   UNL A   1      39.531  31.683  32.047  1.00  0.00     0.074 A 
ATOM     54  C   UNL A   1      45.343  28.947  30.326  1.00  0.00     0.029 A 
ATOM     55  N   UNL A   1      44.074  30.736  30.565  1.00  0.00    -0.354 N 
ATOM     56  N   UNL A   1      40.359  31.082  32.863  1.00  0.00    -0.248 NA
ATOM     57  C   UNL A   1      40.151  32.559  31.065  1.00  0.00     0.031 C 
ATOM     58  C   UNL A   1      44.581  28.845  31.529  1.00  0.00     0.029 A 
ATOM     59  C   UNL A   1      43.685  29.916  31.591  1.00  0.00     0.049 A 
ATOM     60  H   UNL A   1      43.869  31.697  30.498  1.00  0.00     0.167 HD
ATOM     61  C   UNL A   1      41.598  31.150  32.234  1.00  0.00     0.074 A 
ATOM     62  C   UNL A   1      41.413  32.122  31.152  1.00  0.00     0.031 C 
ATOM     63  C   UNL A   1      42.541  30.179  32.442  1.00  0.00     0.037 A 
BRANCH  50  64
ATOM     64  C   UNL A   1      44.756  31.678  27.675  1.00  0.00     0.058 A 
ATOM     65  C   UNL A   1      45.944  31.871  26.936  1.00  0.00     0.135 A 
ATOM     66  C   UNL A   1      44.070  32.862  28.024  1.00  0.00     0.135 A 
ATOM     67  F   UNL A   1      46.667  30.820  26.518  1.00  0.00    -0.206 F 
ATOM     68  C   UNL A   1      46.465  33.136  26.663  1.00  0.00     0.059 A 
ATOM     69  C   UNL A   1      44.550  34.134  27.725  1.00  0.00     0.059 A 
ATOM     70  F   UNL A   1      42.942  32.868  28.741  1.00  0.00    -0.206 F 
ATOM     71  C   UNL A   1      45.768  34.263  27.081  1.00  0.00     0.060 A 
BRANCH  71  72
ATOM     72  S   UNL A   1      46.476  35.893  26.803  1.00  0.00     0.124 S 
ATOM     73  O   UNL A   1      45.284  36.687  26.530  1.00  0.00    -0.237 OA
ATOM     74  O   UNL A   1      47.142  36.149  28.076  1.00  0.00    -0.237 OA
ATOM     75  O   UNL A   1      47.368  35.682  25.666  1.00  0.00    -0.744 OA
ENDBRANCH  71  72
ENDBRANCH  50  64
BRANCH  51  76
ATOM     76  C   UNL A   1      36.953  31.962  31.713  1.00  0.00     0.058 A 
ATOM     77  C   UNL A   1      36.319  32.384  32.900  1.00  0.00     0.135 A 
ATOM     78  C   UNL A   1      36.533  32.612  30.536  1.00  0.00     0.135 A 
ATOM     79  F   UNL A   1      36.682  31.855  34.079  1.00  0.00    -0.206 F 
ATOM     80  C   UNL A   1      35.340  33.394  32.918  1.00  0.00     0.059 A 
ATOM     81  C   UNL A   1      35.567  33.622  30.528  1.00  0.00     0.059 A 
ATOM     82  F   UNL A   1      37.126  32.340  29.363  1.00  0.00    -0.206 F 
ATOM     83  C   UNL A   1      34.978  34.019  31.724  1.00  0.00     0.060 A 
BRANCH  83  84
ATOM     84  S   UNL A   1      33.811  35.408  31.743  1.00  0.00     0.124 S 
ATOM     85  O   UNL A   1      34.531  36.403  32.531  1.00  0.00    -0.237 OA
ATOM     86  O   UNL A   1      33.660  35.711  30.324  1.00  0.00    -0.237 OA
ATOM     87  O   UNL A   1      32.625  34.846  32.384  1.00  0.00    -0.744 OA
ENDBRANCH  83  84
ENDBRANCH  51  76
BRANCH  63  88
ATOM     88  C   UNL A   1      42.311  29.204  33.577  1.00  0.00     0.058 A 
ATOM     89  C   UNL A   1      41.659  27.959  33.469  1.00  0.00     0.135 A 
ATOM     90  C   UNL A   1      42.918  29.494  34.805  1.00  0.00     0.135 A 
ATOM     91  F   UNL A   1      41.138  27.554  32.306  1.00  0.00    -0.206 F 
ATOM     92  C   UNL A   1      41.581  27.066  34.544  1.00  0.00     0.059 A 
ATOM     93  C   UNL A   1      42.877  28.611  35.880  1.00  0.00     0.059 A 
ATOM     94  F   UNL A   1      43.614  30.632  34.954  1.00  0.00    -0.206 F 
ATOM     95  C   UNL A   1      42.191  27.405  35.750  1.00  0.00     0.060 A 
BRANCH  95  96
ATOM     96  S   UNL A   1      42.127  26.251  37.137  1.00  0.00     0.124 S 
ATOM     97  O   UNL A   1      43.211  26.731  37.987  1.00  0.00    -0.237 OA
ATOM     98  O   UNL A   1      40.777  26.452  37.657  1.00  0.00    -0.237 OA
ATOM     99  O   UNL A   1      42.355  24.951  36.510  1.00  0.00    -0.744 OA
ENDBRANCH  95  96
ENDBRANCH  63  88
ENDBRANCH  37  38
ENDBRANCH  29  32
ENDBRANCH  27  28
ENDBRANCH   1  27
TORSDOF 16
ENDMDL
