MODEL 1
REMARK VINA RESULT:     -11.3      0.000      0.000
REMARK SMILES Cc1ccc(OCCC[N@H+]2CCCC[C@@H]2C(=O)NCCCNC(=O)c2ccc(-c3c4nc(c(-c5c(F)cc(S(=O)(=O)[O-])cc5F)c5ccc([nH]5)c(-c5c(F)cc(S(=O)(=O)[O-])cc5F)c5nc(c(-c6c(F)cc(S(=O)(=O)[O-])cc6F)c6ccc3[nH]6)C=C5)C=C4)cc2)cc1C
REMARK SMILES IDX 19 1 18 2 16 3 17 4 15 6 10 7 11 8 12 10 14 11 13 12 9 13
REMARK SMILES IDX 8 14 7 15 6 16 5 17 1 18 2 19 3 20 92 21 4 22 91 23 93 24
REMARK SMILES IDX 20 25 21 26 22 27 23 28 24 30 25 31 26 32 90 33 27 34 89 35
REMARK SMILES IDX 28 36 29 37 30 38 83 39 31 40 88 41 82 42 84 43 32 44 87 45
REMARK SMILES IDX 81 46 80 47 33 49 67 50 46 51 66 52 47 53 50 54 65 55 85 56
REMARK SMILES IDX 48 57 49 58 64 60 86 61 51 62 34 63 35 64 44 65 36 66 37 67
REMARK SMILES IDX 43 68 45 69 38 70 39 71 40 72 41 73 42 74 68 75 69 76 78 77
REMARK SMILES IDX 70 78 71 79 77 80 79 81 72 82 73 83 74 84 75 85 76 86 52 87
REMARK SMILES IDX 53 88 62 89 54 90 55 91 61 92 63 93 56 94 57 95 58 96 59 97
REMARK SMILES IDX 60 98
REMARK H PARENT 18 5 10 9 22 29 84 48 50 59
REMARK Flexibility Score: inf
ROOT
ATOM      1  C   UNL A   1      32.468  26.453  26.346  1.00  0.00     0.118 C 
ENDROOT
BRANCH   1   2
ATOM      2  N   UNL A   1      31.355  25.675  26.875  1.00  0.00    -0.351 N 
ATOM      3  C   UNL A   1      31.108  24.335  26.805  1.00  0.00     0.278 C 
ATOM      4  O   UNL A   1      30.033  23.918  27.249  1.00  0.00    -0.268 OA
ATOM      5  H   UNL A   1      30.676  26.199  27.358  1.00  0.00     0.163 HD
BRANCH   3   6
ATOM      6  C   UNL A   1      32.094  23.355  26.138  1.00  0.00     0.274 C 
ATOM      7  N   UNL A   1      31.414  22.456  25.145  1.00  0.00    -0.325 N 
ATOM      8  C   UNL A   1      32.350  21.412  24.673  1.00  0.00     0.262 C 
ATOM      9  H   UNL A   1      30.617  22.018  25.607  1.00  0.00     0.348 HD
ATOM     10  C   UNL A   1      33.057  20.654  25.797  1.00  0.00     0.062 C 
ATOM     11  C   UNL A   1      32.865  22.642  27.260  1.00  0.00     0.076 C 
ATOM     12  C   UNL A   1      33.822  21.609  26.700  1.00  0.00     0.012 C 
BRANCH   7  13
ATOM     13  C   UNL A   1      30.944  23.247  23.974  1.00  0.00     0.266 C 
BRANCH  13  14
ATOM     14  C   UNL A   1      31.763  23.066  22.680  1.00  0.00     0.103 C 
BRANCH  14  15
ATOM     15  C   UNL A   1      32.964  24.010  22.536  1.00  0.00     0.235 C 
BRANCH  15  16
ATOM     16  O   UNL A   1      34.199  23.317  22.252  1.00  0.00    -0.493 OA
BRANCH  16  17
ATOM     17  C   UNL A   1      35.040  23.331  23.333  1.00  0.00     0.119 A 
ATOM     18  C   UNL A   1      37.847  23.741  26.566  1.00  0.00     0.044 C 
ATOM     19  C   UNL A   1      36.846  23.509  25.468  1.00  0.00    -0.048 A 
ATOM     20  C   UNL A   1      35.802  24.435  25.326  1.00  0.00     0.007 A 
ATOM     21  C   UNL A   1      36.897  22.399  24.602  1.00  0.00    -0.045 A 
ATOM     22  C   UNL A   1      34.881  24.319  24.292  1.00  0.00     0.047 A 
ATOM     23  C   UNL A   1      36.000  22.336  23.513  1.00  0.00     0.050 A 
ATOM     24  C   UNL A   1      37.808  21.228  24.861  1.00  0.00     0.045 C 
ENDBRANCH  16  17
ENDBRANCH  15  16
ENDBRANCH  14  15
ENDBRANCH  13  14
ENDBRANCH   7  13
ENDBRANCH   3   6
ENDBRANCH   1   2
BRANCH   1  25
ATOM     25  C   UNL A   1      32.402  27.910  26.775  1.00  0.00     0.042 C 
BRANCH  25  26
ATOM     26  C   UNL A   1      33.777  28.537  26.983  1.00  0.00     0.118 C 
BRANCH  26  27
ATOM     27  N   UNL A   1      33.710  29.884  27.543  1.00  0.00    -0.352 N 
ATOM     28  C   UNL A   1      34.651  30.578  28.271  1.00  0.00     0.251 C 
ATOM     29  H   UNL A   1      32.869  30.367  27.374  1.00  0.00     0.163 HD
ATOM     30  O   UNL A   1      34.362  31.641  28.801  1.00  0.00    -0.269 OA
BRANCH  28  31
ATOM     31  C   UNL A   1      36.007  30.010  28.428  1.00  0.00     0.039 A 
ATOM     32  C   UNL A   1      36.900  30.064  27.355  1.00  0.00     0.014 A 
ATOM     33  C   UNL A   1      36.403  29.460  29.650  1.00  0.00     0.014 A 
ATOM     34  C   UNL A   1      38.222  29.651  27.538  1.00  0.00     0.010 A 
ATOM     35  C   UNL A   1      37.735  29.120  29.851  1.00  0.00     0.010 A 
ATOM     36  C   UNL A   1      38.661  29.223  28.801  1.00  0.00    -0.014 A 
BRANCH  36  37
ATOM     37  C   UNL A   1      40.083  28.886  29.069  1.00  0.00     0.031 A 
ATOM     38  C   UNL A   1      41.014  29.946  29.588  1.00  0.00     0.074 A 
ATOM     39  C   UNL A   1      40.558  27.669  28.736  1.00  0.00     0.049 A 
ATOM     40  N   UNL A   1      42.314  29.911  29.717  1.00  0.00    -0.248 NA
ATOM     41  C   UNL A   1      40.401  31.225  29.982  1.00  0.00     0.031 C 
ATOM     42  C   UNL A   1      39.764  26.571  28.179  1.00  0.00     0.029 A 
ATOM     43  N   UNL A   1      41.831  27.160  28.793  1.00  0.00    -0.354 N 
ATOM     44  C   UNL A   1      42.681  31.172  30.173  1.00  0.00     0.074 A 
ATOM     45  C   UNL A   1      41.468  31.958  30.266  1.00  0.00     0.031 C 
ATOM     46  C   UNL A   1      40.566  25.517  27.955  1.00  0.00     0.029 A 
ATOM     47  C   UNL A   1      41.935  25.876  28.311  1.00  0.00     0.049 A 
ATOM     48  H   UNL A   1      42.598  27.667  29.145  1.00  0.00     0.167 HD
ATOM     49  C   UNL A   1      43.914  31.629  30.496  1.00  0.00     0.037 A 
ATOM     50  C   UNL A   1      43.014  25.085  28.156  1.00  0.00     0.037 A 
ATOM     51  C   UNL A   1      45.108  30.829  30.445  1.00  0.00     0.049 A 
ATOM     52  C   UNL A   1      44.369  25.602  28.552  1.00  0.00     0.074 A 
ATOM     53  C   UNL A   1      46.395  31.180  30.814  1.00  0.00     0.029 A 
ATOM     54  N   UNL A   1      45.161  29.515  30.006  1.00  0.00    -0.354 N 
ATOM     55  N   UNL A   1      44.693  26.783  29.021  1.00  0.00    -0.248 NA
ATOM     56  C   UNL A   1      45.506  24.682  28.400  1.00  0.00     0.031 C 
ATOM     57  C   UNL A   1      47.231  30.084  30.575  1.00  0.00     0.029 A 
ATOM     58  C   UNL A   1      46.459  29.041  30.089  1.00  0.00     0.049 A 
ATOM     59  H   UNL A   1      44.389  28.995  29.683  1.00  0.00     0.167 HD
ATOM     60  C   UNL A   1      46.063  26.741  29.244  1.00  0.00     0.074 A 
ATOM     61  C   UNL A   1      46.510  25.417  28.863  1.00  0.00     0.031 C 
ATOM     62  C   UNL A   1      46.880  27.712  29.722  1.00  0.00     0.037 A 
BRANCH  49  63
ATOM     63  C   UNL A   1      44.027  33.059  30.940  1.00  0.00     0.058 A 
ATOM     64  C   UNL A   1      43.895  33.422  32.289  1.00  0.00     0.135 A 
ATOM     65  C   UNL A   1      44.292  34.077  30.009  1.00  0.00     0.135 A 
ATOM     66  F   UNL A   1      43.625  32.489  33.217  1.00  0.00    -0.206 F 
ATOM     67  C   UNL A   1      43.988  34.748  32.697  1.00  0.00     0.059 A 
ATOM     68  C   UNL A   1      44.413  35.407  30.398  1.00  0.00     0.059 A 
ATOM     69  F   UNL A   1      44.427  33.783  28.706  1.00  0.00    -0.206 F 
ATOM     70  C   UNL A   1      44.242  35.734  31.743  1.00  0.00     0.060 A 
BRANCH  70  71
ATOM     71  S   UNL A   1      44.354  37.453  32.283  1.00  0.00     0.124 S 
ATOM     72  O   UNL A   1      43.464  37.451  33.440  1.00  0.00    -0.237 OA
ATOM     73  O   UNL A   1      45.776  37.599  32.579  1.00  0.00    -0.237 OA
ATOM     74  O   UNL A   1      43.878  38.204  31.126  1.00  0.00    -0.744 OA
ENDBRANCH  70  71
ENDBRANCH  49  63
BRANCH  50  75
ATOM     75  C   UNL A   1      42.852  23.710  27.616  1.00  0.00     0.058 A 
ATOM     76  C   UNL A   1      42.605  22.628  28.473  1.00  0.00     0.135 A 
ATOM     77  C   UNL A   1      42.918  23.453  26.239  1.00  0.00     0.135 A 
ATOM     78  F   UNL A   1      42.540  22.825  29.799  1.00  0.00    -0.206 F 
ATOM     79  C   UNL A   1      42.438  21.335  27.986  1.00  0.00     0.059 A 
ATOM     80  C   UNL A   1      42.734  22.172  25.725  1.00  0.00     0.059 A 
ATOM     81  F   UNL A   1      43.135  24.458  25.376  1.00  0.00    -0.206 F 
ATOM     82  C   UNL A   1      42.504  21.117  26.610  1.00  0.00     0.060 A 
BRANCH  82  83
ATOM     83  S   UNL A   1      42.228  19.447  25.980  1.00  0.00     0.124 S 
ATOM     84  O   UNL A   1      42.722  18.633  27.084  1.00  0.00    -0.237 OA
ATOM     85  O   UNL A   1      40.783  19.430  25.771  1.00  0.00    -0.237 OA
ATOM     86  O   UNL A   1      43.029  19.414  24.760  1.00  0.00    -0.744 OA
ENDBRANCH  82  83
ENDBRANCH  50  75
BRANCH  62  87
ATOM     87  C   UNL A   1      48.331  27.375  29.901  1.00  0.00     0.058 A 
ATOM     88  C   UNL A   1      49.294  27.756  28.956  1.00  0.00     0.135 A 
ATOM     89  C   UNL A   1      48.770  26.737  31.072  1.00  0.00     0.135 A 
ATOM     90  F   UNL A   1      48.921  28.362  27.816  1.00  0.00    -0.206 F 
ATOM     91  C   UNL A   1      50.647  27.513  29.164  1.00  0.00     0.059 A 
ATOM     92  C   UNL A   1      50.120  26.501  31.309  1.00  0.00     0.059 A 
ATOM     93  F   UNL A   1      47.885  26.360  32.008  1.00  0.00    -0.206 F 
ATOM     94  C   UNL A   1      51.051  26.891  30.346  1.00  0.00     0.060 A 
BRANCH  94  95
ATOM     95  S   UNL A   1      52.816  26.638  30.637  1.00  0.00     0.124 S 
ATOM     96  O   UNL A   1      52.798  25.665  31.723  1.00  0.00    -0.237 OA
ATOM     97  O   UNL A   1      53.279  26.140  29.346  1.00  0.00    -0.237 OA
ATOM     98  O   UNL A   1      53.293  27.971  30.995  1.00  0.00    -0.744 OA
ENDBRANCH  94  95
ENDBRANCH  62  87
ENDBRANCH  36  37
ENDBRANCH  28  31
ENDBRANCH  26  27
ENDBRANCH  25  26
ENDBRANCH   1  25
TORSDOF 18
ENDMDL
MODEL 2
REMARK VINA RESULT:     -11.1      2.675      3.492
REMARK SMILES Cc1ccc(OCCC[N@H+]2CCCC[C@@H]2C(=O)NCCCNC(=O)c2ccc(-c3c4nc(c(-c5c(F)cc(S(=O)(=O)[O-])cc5F)c5ccc([nH]5)c(-c5c(F)cc(S(=O)(=O)[O-])cc5F)c5nc(c(-c6c(F)cc(S(=O)(=O)[O-])cc6F)c6ccc3[nH]6)C=C5)C=C4)cc2)cc1C
REMARK SMILES IDX 19 1 18 2 16 3 17 4 15 6 10 7 11 8 12 10 14 11 13 12 9 13
REMARK SMILES IDX 8 14 7 15 6 16 5 17 1 18 2 19 3 20 92 21 4 22 91 23 93 24
REMARK SMILES IDX 20 25 21 26 22 27 23 28 24 30 25 31 26 32 90 33 27 34 89 35
REMARK SMILES IDX 28 36 29 37 30 38 83 39 31 40 88 41 82 42 84 43 32 44 87 45
REMARK SMILES IDX 81 46 80 47 33 49 67 50 46 51 66 52 47 53 50 54 65 55 85 56
REMARK SMILES IDX 48 57 49 58 64 60 86 61 51 62 34 63 35 64 44 65 36 66 37 67
REMARK SMILES IDX 43 68 45 69 38 70 39 71 40 72 41 73 42 74 68 75 69 76 78 77
REMARK SMILES IDX 70 78 71 79 77 80 79 81 72 82 73 83 74 84 75 85 76 86 52 87
REMARK SMILES IDX 53 88 62 89 54 90 55 91 61 92 63 93 56 94 57 95 58 96 59 97
REMARK SMILES IDX 60 98
REMARK H PARENT 18 5 10 9 22 29 84 48 50 59
REMARK Flexibility Score: inf
ROOT
ATOM      1  C   UNL A   1      32.505  26.312  25.972  1.00  0.00     0.118 C 
ENDROOT
BRANCH   1   2
ATOM      2  N   UNL A   1      31.481  25.510  26.628  1.00  0.00    -0.351 N 
ATOM      3  C   UNL A   1      31.355  24.155  26.728  1.00  0.00     0.278 C 
ATOM      4  O   UNL A   1      30.333  23.703  27.255  1.00  0.00    -0.268 OA
ATOM      5  H   UNL A   1      30.768  26.027  27.067  1.00  0.00     0.163 HD
BRANCH   3   6
ATOM      6  C   UNL A   1      32.410  23.190  26.151  1.00  0.00     0.274 C 
ATOM      7  N   UNL A   1      31.810  22.207  25.187  1.00  0.00    -0.325 N 
ATOM      8  C   UNL A   1      32.812  21.186  24.806  1.00  0.00     0.262 C 
ATOM      9  H   UNL A   1      31.019  21.754  25.645  1.00  0.00     0.348 HD
ATOM     10  C   UNL A   1      33.513  20.526  25.994  1.00  0.00     0.062 C 
ATOM     11  C   UNL A   1      33.173  22.578  27.336  1.00  0.00     0.076 C 
ATOM     12  C   UNL A   1      34.198  21.565  26.867  1.00  0.00     0.012 C 
BRANCH   7  13
ATOM     13  C   UNL A   1      31.346  22.908  23.959  1.00  0.00     0.266 C 
BRANCH  13  14
ATOM     14  C   UNL A   1      32.229  22.712  22.709  1.00  0.00     0.103 C 
BRANCH  14  15
ATOM     15  C   UNL A   1      33.335  23.759  22.525  1.00  0.00     0.235 C 
BRANCH  15  16
ATOM     16  O   UNL A   1      34.639  23.175  22.315  1.00  0.00    -0.493 OA
BRANCH  16  17
ATOM     17  C   UNL A   1      35.416  23.270  23.438  1.00  0.00     0.119 A 
ATOM     18  C   UNL A   1      38.011  23.937  26.803  1.00  0.00     0.044 C 
ATOM     19  C   UNL A   1      37.087  23.615  25.661  1.00  0.00    -0.048 A 
ATOM     20  C   UNL A   1      36.004  24.477  25.431  1.00  0.00     0.007 A 
ATOM     21  C   UNL A   1      37.247  22.483  24.837  1.00  0.00    -0.045 A 
ATOM     22  C   UNL A   1      35.150  24.277  24.353  1.00  0.00     0.047 A 
ATOM     23  C   UNL A   1      36.417  22.336  23.705  1.00  0.00     0.050 A 
ATOM     24  C   UNL A   1      38.204  21.374  25.186  1.00  0.00     0.045 C 
ENDBRANCH  16  17
ENDBRANCH  15  16
ENDBRANCH  14  15
ENDBRANCH  13  14
ENDBRANCH   7  13
ENDBRANCH   3   6
ENDBRANCH   1   2
BRANCH   1  25
ATOM     25  C   UNL A   1      32.806  27.592  26.735  1.00  0.00     0.042 C 
BRANCH  25  26
ATOM     26  C   UNL A   1      33.785  28.508  26.006  1.00  0.00     0.118 C 
BRANCH  26  27
ATOM     27  N   UNL A   1      33.641  29.911  26.386  1.00  0.00    -0.352 N 
ATOM     28  C   UNL A   1      34.384  30.659  27.271  1.00  0.00     0.251 C 
ATOM     29  H   UNL A   1      32.905  30.392  25.943  1.00  0.00     0.163 HD
ATOM     30  O   UNL A   1      34.021  31.783  27.589  1.00  0.00    -0.269 OA
BRANCH  28  31
ATOM     31  C   UNL A   1      35.614  30.080  27.853  1.00  0.00     0.039 A 
ATOM     32  C   UNL A   1      36.822  30.200  27.160  1.00  0.00     0.014 A 
ATOM     33  C   UNL A   1      35.575  29.454  29.100  1.00  0.00     0.014 A 
ATOM     34  C   UNL A   1      38.008  29.775  27.763  1.00  0.00     0.010 A 
ATOM     35  C   UNL A   1      36.763  29.099  29.729  1.00  0.00     0.010 A 
ATOM     36  C   UNL A   1      37.992  29.266  29.073  1.00  0.00    -0.014 A 
BRANCH  36  37
ATOM     37  C   UNL A   1      39.240  28.911  29.794  1.00  0.00     0.031 A 
ATOM     38  C   UNL A   1      39.671  29.725  30.982  1.00  0.00     0.074 A 
ATOM     39  C   UNL A   1      40.039  27.937  29.313  1.00  0.00     0.049 A 
ATOM     40  N   UNL A   1      40.802  29.696  31.637  1.00  0.00    -0.248 NA
ATOM     41  C   UNL A   1      38.712  30.727  31.477  1.00  0.00     0.031 C 
ATOM     42  C   UNL A   1      39.754  27.107  28.140  1.00  0.00     0.029 A 
ATOM     43  N   UNL A   1      41.268  27.498  29.738  1.00  0.00    -0.354 N 
ATOM     44  C   UNL A   1      40.707  30.698  32.596  1.00  0.00     0.074 A 
ATOM     45  C   UNL A   1      39.420  31.336  32.417  1.00  0.00     0.031 C 
ATOM     46  C   UNL A   1      40.774  26.256  27.945  1.00  0.00     0.029 A 
ATOM     47  C   UNL A   1      41.802  26.505  28.950  1.00  0.00     0.049 A 
ATOM     48  H   UNL A   1      41.725  27.860  30.531  1.00  0.00     0.167 HD
ATOM     49  C   UNL A   1      41.606  31.044  33.548  1.00  0.00     0.037 A 
ATOM     50  C   UNL A   1      42.993  25.880  29.018  1.00  0.00     0.037 A 
ATOM     51  C   UNL A   1      42.863  30.375  33.751  1.00  0.00     0.049 A 
ATOM     52  C   UNL A   1      43.962  26.259  30.104  1.00  0.00     0.074 A 
ATOM     53  C   UNL A   1      43.814  30.608  34.729  1.00  0.00     0.029 A 
ATOM     54  N   UNL A   1      43.341  29.336  32.967  1.00  0.00    -0.354 N 
ATOM     55  N   UNL A   1      43.839  27.179  31.030  1.00  0.00    -0.248 NA
ATOM     56  C   UNL A   1      45.229  25.516  30.158  1.00  0.00     0.031 C 
ATOM     57  C   UNL A   1      44.878  29.725  34.522  1.00  0.00     0.029 A 
ATOM     58  C   UNL A   1      44.575  28.920  33.435  1.00  0.00     0.049 A 
ATOM     59  H   UNL A   1      42.871  28.950  32.193  1.00  0.00     0.167 HD
ATOM     60  C   UNL A   1      45.000  27.110  31.791  1.00  0.00     0.074 A 
ATOM     61  C   UNL A   1      45.812  26.055  31.221  1.00  0.00     0.031 C 
ATOM     62  C   UNL A   1      45.361  27.854  32.865  1.00  0.00     0.037 A 
BRANCH  49  63
ATOM     63  C   UNL A   1      41.253  32.195  34.445  1.00  0.00     0.058 A 
ATOM     64  C   UNL A   1      41.597  33.516  34.116  1.00  0.00     0.135 A 
ATOM     65  C   UNL A   1      40.545  31.980  35.638  1.00  0.00     0.135 A 
ATOM     66  F   UNL A   1      42.290  33.774  32.995  1.00  0.00    -0.206 F 
ATOM     67  C   UNL A   1      41.281  34.579  34.953  1.00  0.00     0.059 A 
ATOM     68  C   UNL A   1      40.197  33.032  36.480  1.00  0.00     0.059 A 
ATOM     69  F   UNL A   1      40.191  30.736  36.000  1.00  0.00    -0.206 F 
ATOM     70  C   UNL A   1      40.584  34.326  36.136  1.00  0.00     0.060 A 
BRANCH  70  71
ATOM     71  S   UNL A   1      40.185  35.715  37.219  1.00  0.00     0.124 S 
ATOM     72  O   UNL A   1      41.447  35.900  37.929  1.00  0.00    -0.237 OA
ATOM     73  O   UNL A   1      39.833  36.765  36.269  1.00  0.00    -0.237 OA
ATOM     74  O   UNL A   1      39.079  35.208  38.025  1.00  0.00    -0.744 OA
ENDBRANCH  70  71
ENDBRANCH  49  63
BRANCH  50  75
ATOM     75  C   UNL A   1      43.328  24.814  28.039  1.00  0.00     0.058 A 
ATOM     76  C   UNL A   1      44.027  25.116  26.862  1.00  0.00     0.135 A 
ATOM     77  C   UNL A   1      42.979  23.475  28.268  1.00  0.00     0.135 A 
ATOM     78  F   UNL A   1      44.377  26.385  26.597  1.00  0.00    -0.206 F 
ATOM     79  C   UNL A   1      44.362  24.130  25.939  1.00  0.00     0.059 A 
ATOM     80  C   UNL A   1      43.319  22.467  27.369  1.00  0.00     0.059 A 
ATOM     81  F   UNL A   1      42.323  23.132  29.388  1.00  0.00    -0.206 F 
ATOM     82  C   UNL A   1      44.003  22.808  26.202  1.00  0.00     0.060 A 
BRANCH  82  83
ATOM     83  S   UNL A   1      44.492  21.525  25.028  1.00  0.00     0.124 S 
ATOM     84  O   UNL A   1      45.839  21.207  25.486  1.00  0.00    -0.237 OA
ATOM     85  O   UNL A   1      43.481  20.496  25.255  1.00  0.00    -0.237 OA
ATOM     86  O   UNL A   1      44.405  22.203  23.738  1.00  0.00    -0.744 OA
ENDBRANCH  82  83
ENDBRANCH  50  75
BRANCH  62  87
ATOM     87  C   UNL A   1      46.669  27.533  33.526  1.00  0.00     0.058 A 
ATOM     88  C   UNL A   1      46.761  26.566  34.537  1.00  0.00     0.135 A 
ATOM     89  C   UNL A   1      47.854  28.140  33.082  1.00  0.00     0.135 A 
ATOM     90  F   UNL A   1      45.654  25.964  35.001  1.00  0.00    -0.206 F 
ATOM     91  C   UNL A   1      47.987  26.214  35.091  1.00  0.00     0.059 A 
ATOM     92  C   UNL A   1      49.093  27.789  33.608  1.00  0.00     0.059 A 
ATOM     93  F   UNL A   1      47.816  29.066  32.110  1.00  0.00    -0.206 F 
ATOM     94  C   UNL A   1      49.148  26.826  34.615  1.00  0.00     0.060 A 
BRANCH  94  95
ATOM     95  S   UNL A   1      50.742  26.314  35.294  1.00  0.00     0.124 S 
ATOM     96  O   UNL A   1      51.390  25.740  34.120  1.00  0.00    -0.237 OA
ATOM     97  O   UNL A   1      51.300  27.576  35.772  1.00  0.00    -0.237 OA
ATOM     98  O   UNL A   1      50.375  25.363  36.338  1.00  0.00    -0.744 OA
ENDBRANCH  94  95
ENDBRANCH  62  87
ENDBRANCH  36  37
ENDBRANCH  28  31
ENDBRANCH  26  27
ENDBRANCH  25  26
ENDBRANCH   1  25
TORSDOF 18
ENDMDL
MODEL 3
REMARK VINA RESULT:     -11.0      1.758      3.425
REMARK SMILES Cc1ccc(OCCC[N@H+]2CCCC[C@@H]2C(=O)NCCCNC(=O)c2ccc(-c3c4nc(c(-c5c(F)cc(S(=O)(=O)[O-])cc5F)c5ccc([nH]5)c(-c5c(F)cc(S(=O)(=O)[O-])cc5F)c5nc(c(-c6c(F)cc(S(=O)(=O)[O-])cc6F)c6ccc3[nH]6)C=C5)C=C4)cc2)cc1C
REMARK SMILES IDX 19 1 18 2 16 3 17 4 15 6 10 7 11 8 12 10 14 11 13 12 9 13
REMARK SMILES IDX 8 14 7 15 6 16 5 17 1 18 2 19 3 20 92 21 4 22 91 23 93 24
REMARK SMILES IDX 20 25 21 26 22 27 23 28 24 30 25 31 26 32 90 33 27 34 89 35
REMARK SMILES IDX 28 36 29 37 30 38 83 39 31 40 88 41 82 42 84 43 32 44 87 45
REMARK SMILES IDX 81 46 80 47 33 49 67 50 46 51 66 52 47 53 50 54 65 55 85 56
REMARK SMILES IDX 48 57 49 58 64 60 86 61 51 62 34 63 35 64 44 65 36 66 37 67
REMARK SMILES IDX 43 68 45 69 38 70 39 71 40 72 41 73 42 74 68 75 69 76 78 77
REMARK SMILES IDX 70 78 71 79 77 80 79 81 72 82 73 83 74 84 75 85 76 86 52 87
REMARK SMILES IDX 53 88 62 89 54 90 55 91 61 92 63 93 56 94 57 95 58 96 59 97
REMARK SMILES IDX 60 98
REMARK H PARENT 18 5 10 9 22 29 84 48 50 59
REMARK Flexibility Score: inf
ROOT
ATOM      1  C   UNL A   1      33.811  26.655  25.649  1.00  0.00     0.118 C 
ENDROOT
BRANCH   1   2
ATOM      2  N   UNL A   1      33.804  26.355  24.223  1.00  0.00    -0.351 N 
ATOM      3  C   UNL A   1      33.982  25.168  23.574  1.00  0.00     0.278 C 
ATOM      4  O   UNL A   1      34.033  25.182  22.340  1.00  0.00    -0.268 OA
ATOM      5  H   UNL A   1      33.647  27.130  23.637  1.00  0.00     0.163 HD
BRANCH   3   6
ATOM      6  C   UNL A   1      34.181  23.841  24.334  1.00  0.00     0.274 C 
ATOM      7  N   UNL A   1      33.149  23.644  25.408  1.00  0.00    -0.325 N 
ATOM      8  C   UNL A   1      33.486  22.462  26.232  1.00  0.00     0.262 C 
ATOM      9  H   UNL A   1      33.137  24.478  25.994  1.00  0.00     0.348 HD
ATOM     10  C   UNL A   1      34.922  22.458  26.759  1.00  0.00     0.062 C 
ATOM     11  C   UNL A   1      35.644  23.792  24.803  1.00  0.00     0.076 C 
ATOM     12  C   UNL A   1      35.921  22.544  25.615  1.00  0.00     0.012 C 
BRANCH   7  13
ATOM     13  C   UNL A   1      31.807  23.438  24.798  1.00  0.00     0.266 C 
BRANCH  13  14
ATOM     14  C   UNL A   1      30.634  24.123  25.528  1.00  0.00     0.103 C 
BRANCH  14  15
ATOM     15  C   UNL A   1      30.352  25.566  25.090  1.00  0.00     0.235 C 
BRANCH  15  16
ATOM     16  O   UNL A   1      30.767  25.838  23.734  1.00  0.00    -0.493 OA
BRANCH  16  17
ATOM     17  C   UNL A   1      30.283  27.041  23.295  1.00  0.00     0.119 A 
ATOM     18  C   UNL A   1      29.023  31.007  22.206  1.00  0.00     0.044 C 
ATOM     19  C   UNL A   1      29.391  29.586  22.533  1.00  0.00    -0.048 A 
ATOM     20  C   UNL A   1      30.704  29.171  22.265  1.00  0.00     0.007 A 
ATOM     21  C   UNL A   1      28.476  28.658  23.068  1.00  0.00    -0.045 A 
ATOM     22  C   UNL A   1      31.130  27.892  22.603  1.00  0.00     0.047 A 
ATOM     23  C   UNL A   1      28.944  27.389  23.474  1.00  0.00     0.050 A 
ATOM     24  C   UNL A   1      26.997  28.938  23.122  1.00  0.00     0.045 C 
ENDBRANCH  16  17
ENDBRANCH  15  16
ENDBRANCH  14  15
ENDBRANCH  13  14
ENDBRANCH   7  13
ENDBRANCH   3   6
ENDBRANCH   1   2
BRANCH   1  25
ATOM     25  C   UNL A   1      33.694  28.147  25.919  1.00  0.00     0.042 C 
BRANCH  25  26
ATOM     26  C   UNL A   1      33.425  28.471  27.386  1.00  0.00     0.118 C 
BRANCH  26  27
ATOM     27  N   UNL A   1      33.445  29.904  27.665  1.00  0.00    -0.352 N 
ATOM     28  C   UNL A   1      34.457  30.682  28.181  1.00  0.00     0.251 C 
ATOM     29  H   UNL A   1      32.612  30.385  27.452  1.00  0.00     0.163 HD
ATOM     30  O   UNL A   1      34.244  31.843  28.501  1.00  0.00    -0.269 OA
BRANCH  28  31
ATOM     31  C   UNL A   1      35.800  30.090  28.369  1.00  0.00     0.039 A 
ATOM     32  C   UNL A   1      36.693  30.067  27.294  1.00  0.00     0.014 A 
ATOM     33  C   UNL A   1      36.183  29.597  29.617  1.00  0.00     0.014 A 
ATOM     34  C   UNL A   1      38.005  29.633  27.499  1.00  0.00     0.010 A 
ATOM     35  C   UNL A   1      37.507  29.235  29.837  1.00  0.00     0.010 A 
ATOM     36  C   UNL A   1      38.434  29.261  28.784  1.00  0.00    -0.014 A 
BRANCH  36  37
ATOM     37  C   UNL A   1      39.848  28.904  29.070  1.00  0.00     0.031 A 
ATOM     38  C   UNL A   1      40.788  29.954  29.594  1.00  0.00     0.074 A 
ATOM     39  C   UNL A   1      40.308  27.679  28.749  1.00  0.00     0.049 A 
ATOM     40  N   UNL A   1      42.086  29.901  29.739  1.00  0.00    -0.248 NA
ATOM     41  C   UNL A   1      40.191  31.244  29.974  1.00  0.00     0.031 C 
ATOM     42  C   UNL A   1      39.505  26.589  28.189  1.00  0.00     0.029 A 
ATOM     43  N   UNL A   1      41.574  27.152  28.824  1.00  0.00    -0.354 N 
ATOM     44  C   UNL A   1      42.466  31.159  30.191  1.00  0.00     0.074 A 
ATOM     45  C   UNL A   1      41.265  31.963  30.267  1.00  0.00     0.031 C 
ATOM     46  C   UNL A   1      40.294  25.523  27.980  1.00  0.00     0.029 A 
ATOM     47  C   UNL A   1      41.664  25.864  28.350  1.00  0.00     0.049 A 
ATOM     48  H   UNL A   1      42.344  27.649  29.182  1.00  0.00     0.167 HD
ATOM     49  C   UNL A   1      43.702  31.599  30.527  1.00  0.00     0.037 A 
ATOM     50  C   UNL A   1      42.732  25.056  28.211  1.00  0.00     0.037 A 
ATOM     51  C   UNL A   1      44.885  30.781  30.494  1.00  0.00     0.049 A 
ATOM     52  C   UNL A   1      44.091  25.555  28.621  1.00  0.00     0.074 A 
ATOM     53  C   UNL A   1      46.172  31.115  30.876  1.00  0.00     0.029 A 
ATOM     54  N   UNL A   1      44.923  29.464  30.062  1.00  0.00    -0.354 N 
ATOM     55  N   UNL A   1      44.426  26.734  29.087  1.00  0.00    -0.248 NA
ATOM     56  C   UNL A   1      45.215  24.618  28.487  1.00  0.00     0.031 C 
ATOM     57  C   UNL A   1      46.995  30.006  30.653  1.00  0.00     0.029 A 
ATOM     58  C   UNL A   1      46.213  28.971  30.163  1.00  0.00     0.049 A 
ATOM     59  H   UNL A   1      44.148  28.954  29.734  1.00  0.00     0.167 HD
ATOM     60  C   UNL A   1      45.794  26.673  29.326  1.00  0.00     0.074 A 
ATOM     61  C   UNL A   1      46.225  25.340  28.957  1.00  0.00     0.031 C 
ATOM     62  C   UNL A   1      46.619  27.635  29.808  1.00  0.00     0.037 A 
BRANCH  49  63
ATOM     63  C   UNL A   1      43.832  33.029  30.964  1.00  0.00     0.058 A 
ATOM     64  C   UNL A   1      44.019  34.067  30.037  1.00  0.00     0.135 A 
ATOM     65  C   UNL A   1      43.746  33.372  32.323  1.00  0.00     0.135 A 
ATOM     66  F   UNL A   1      44.125  33.792  28.727  1.00  0.00    -0.206 F 
ATOM     67  C   UNL A   1      44.151  35.390  30.444  1.00  0.00     0.059 A 
ATOM     68  C   UNL A   1      43.851  34.692  32.751  1.00  0.00     0.059 A 
ATOM     69  F   UNL A   1      43.566  32.418  33.250  1.00  0.00    -0.206 F 
ATOM     70  C   UNL A   1      44.070  35.691  31.804  1.00  0.00     0.060 A 
BRANCH  70  71
ATOM     71  S   UNL A   1      44.250  37.412  32.322  1.00  0.00     0.124 S 
ATOM     72  O   UNL A   1      45.659  37.456  32.698  1.00  0.00    -0.237 OA
ATOM     73  O   UNL A   1      43.895  38.144  31.110  1.00  0.00    -0.237 OA
ATOM     74  O   UNL A   1      43.301  37.535  33.424  1.00  0.00    -0.744 OA
ENDBRANCH  70  71
ENDBRANCH  49  63
BRANCH  50  75
ATOM     75  C   UNL A   1      42.557  23.680  27.678  1.00  0.00     0.058 A 
ATOM     76  C   UNL A   1      42.566  23.441  26.297  1.00  0.00     0.135 A 
ATOM     77  C   UNL A   1      42.403  22.579  28.533  1.00  0.00     0.135 A 
ATOM     78  F   UNL A   1      42.705  24.464  25.440  1.00  0.00    -0.206 F 
ATOM     79  C   UNL A   1      42.416  22.158  25.778  1.00  0.00     0.059 A 
ATOM     80  C   UNL A   1      42.271  21.284  28.039  1.00  0.00     0.059 A 
ATOM     81  F   UNL A   1      42.405  22.754  29.864  1.00  0.00    -0.206 F 
ATOM     82  C   UNL A   1      42.270  21.085  26.658  1.00  0.00     0.060 A 
BRANCH  82  83
ATOM     83  S   UNL A   1      42.136  19.417  25.980  1.00  0.00     0.124 S 
ATOM     84  O   UNL A   1      42.650  18.611  27.081  1.00  0.00    -0.237 OA
ATOM     85  O   UNL A   1      40.705  19.303  25.719  1.00  0.00    -0.237 OA
ATOM     86  O   UNL A   1      42.979  19.473  24.789  1.00  0.00    -0.744 OA
ENDBRANCH  82  83
ENDBRANCH  50  75
BRANCH  62  87
ATOM     87  C   UNL A   1      48.062  27.277  30.006  1.00  0.00     0.058 A 
ATOM     88  C   UNL A   1      49.019  27.510  29.007  1.00  0.00     0.135 A 
ATOM     89  C   UNL A   1      48.505  26.774  31.239  1.00  0.00     0.135 A 
ATOM     90  F   UNL A   1      48.642  27.983  27.808  1.00  0.00    -0.206 F 
ATOM     91  C   UNL A   1      50.368  27.252  29.223  1.00  0.00     0.059 A 
ATOM     92  C   UNL A   1      49.851  26.527  31.484  1.00  0.00     0.059 A 
ATOM     93  F   UNL A   1      47.626  26.541  32.228  1.00  0.00    -0.206 F 
ATOM     94  C   UNL A   1      50.775  26.767  30.467  1.00  0.00     0.060 A 
BRANCH  94  95
ATOM     95  S   UNL A   1      52.537  26.497  30.761  1.00  0.00     0.124 S 
ATOM     96  O   UNL A   1      52.917  27.738  31.428  1.00  0.00    -0.237 OA
ATOM     97  O   UNL A   1      52.537  25.302  31.599  1.00  0.00    -0.237 OA
ATOM     98  O   UNL A   1      53.079  26.313  29.418  1.00  0.00    -0.744 OA
ENDBRANCH  94  95
ENDBRANCH  62  87
ENDBRANCH  36  37
ENDBRANCH  28  31
ENDBRANCH  26  27
ENDBRANCH  25  26
ENDBRANCH   1  25
TORSDOF 18
ENDMDL
