MODEL 1
REMARK VINA RESULT:     -11.6      0.000      0.000
REMARK SMILES O=C(NCCCNC(=O)c1cncc(C(=O)c2ccsc2)c1)c1ccc(-c2c3nc(c(-c4c(F)cc(S(=O)(=O)[O-])cc4F)c4ccc([nH]4)c(-c4c(F)cc(S(=O)(=O)[O-])cc4F)c4nc(c(-c5c(F)cc(S(=O)(=O)[O-])cc5F)c5ccc2[nH]5)C=C4)C=C3)cc1
REMARK SMILES IDX 4 1 3 2 1 3 2 4 23 6 24 7 88 8 25 9 87 10 26 11 27 12 28 13
REMARK SMILES IDX 81 14 29 15 86 16 80 17 82 18 30 19 85 20 79 21 78 22 31 24
REMARK SMILES IDX 65 25 44 26 64 27 45 28 48 29 63 30 83 31 46 32 47 33 62 35
REMARK SMILES IDX 84 36 49 37 32 38 33 39 42 40 34 41 35 42 41 43 43 44 36 45
REMARK SMILES IDX 37 46 38 47 39 48 40 49 66 50 67 51 76 52 68 53 69 54 75 55
REMARK SMILES IDX 77 56 70 57 71 58 72 59 73 60 74 61 50 62 51 63 60 64 52 65
REMARK SMILES IDX 53 66 59 67 61 68 54 69 55 70 56 71 57 72 58 73 5 74 6 75
REMARK SMILES IDX 7 76 8 77 9 79 10 80 11 81 22 82 12 83 14 84 13 85 15 86
REMARK SMILES IDX 16 87 17 88 18 89 21 90 19 91 20 92
REMARK H PARENT 3 5 82 23 48 34 7 78
REMARK Flexibility Score: inf
ROOT
ATOM      1  C   UNL A   1      33.882  28.613  27.121  1.00  0.00     0.118 C 
ENDROOT
BRANCH   1   2
ATOM      2  N   UNL A   1      33.793  29.974  27.631  1.00  0.00    -0.352 N 
ATOM      3  O   UNL A   1      34.344  31.752  28.890  1.00  0.00    -0.269 OA
ATOM      4  C   UNL A   1      34.699  30.701  28.364  1.00  0.00     0.251 C 
ATOM      5  H   UNL A   1      32.955  30.446  27.418  1.00  0.00     0.163 HD
BRANCH   4   6
ATOM      6  C   UNL A   1      36.088  30.216  28.524  1.00  0.00     0.039 A 
ATOM      7  C   UNL A   1      37.013  30.352  27.486  1.00  0.00     0.014 A 
ATOM      8  C   UNL A   1      36.486  29.667  29.747  1.00  0.00     0.014 A 
ATOM      9  C   UNL A   1      38.289  29.823  27.619  1.00  0.00     0.010 A 
ATOM     10  C   UNL A   1      37.801  29.225  29.915  1.00  0.00     0.010 A 
ATOM     11  C   UNL A   1      38.710  29.291  28.848  1.00  0.00    -0.014 A 
BRANCH  11  12
ATOM     12  C   UNL A   1      40.140  28.947  29.028  1.00  0.00     0.031 A 
ATOM     13  C   UNL A   1      40.685  27.614  28.604  1.00  0.00     0.074 A 
ATOM     14  C   UNL A   1      40.943  29.871  29.594  1.00  0.00     0.049 A 
ATOM     15  N   UNL A   1      41.906  27.158  28.718  1.00  0.00    -0.248 NA
ATOM     16  C   UNL A   1      39.747  26.668  27.981  1.00  0.00     0.031 C 
ATOM     17  C   UNL A   1      40.504  31.189  30.068  1.00  0.00     0.029 A 
ATOM     18  N   UNL A   1      42.285  29.854  29.869  1.00  0.00    -0.354 N 
ATOM     19  C   UNL A   1      41.882  25.867  28.207  1.00  0.00     0.074 A 
ATOM     20  C   UNL A   1      40.521  25.606  27.786  1.00  0.00     0.031 C 
ATOM     21  C   UNL A   1      41.559  31.858  30.553  1.00  0.00     0.029 A 
ATOM     22  C   UNL A   1      42.732  30.999  30.486  1.00  0.00     0.049 A 
ATOM     23  H   UNL A   1      42.873  29.097  29.646  1.00  0.00     0.167 HD
ATOM     24  C   UNL A   1      42.906  24.988  28.102  1.00  0.00     0.037 A 
ATOM     25  C   UNL A   1      43.944  31.309  30.984  1.00  0.00     0.037 A 
ATOM     26  C   UNL A   1      44.262  25.280  28.496  1.00  0.00     0.049 A 
ATOM     27  C   UNL A   1      45.050  30.304  30.870  1.00  0.00     0.074 A 
ATOM     28  C   UNL A   1      45.389  24.491  28.339  1.00  0.00     0.029 A 
ATOM     29  N   UNL A   1      44.671  26.438  29.139  1.00  0.00    -0.354 N 
ATOM     30  N   UNL A   1      45.026  29.118  30.311  1.00  0.00    -0.248 NA
ATOM     31  C   UNL A   1      46.344  30.668  31.463  1.00  0.00     0.031 C 
ATOM     32  C   UNL A   1      46.470  25.151  28.934  1.00  0.00     0.029 A 
ATOM     33  C   UNL A   1      46.025  26.368  29.425  1.00  0.00     0.049 A 
ATOM     34  H   UNL A   1      44.087  27.199  29.360  1.00  0.00     0.167 HD
ATOM     35  C   UNL A   1      46.299  28.592  30.488  1.00  0.00     0.074 A 
ATOM     36  C   UNL A   1      47.077  29.602  31.178  1.00  0.00     0.031 C 
ATOM     37  C   UNL A   1      46.777  27.378  30.122  1.00  0.00     0.037 A 
BRANCH  24  38
ATOM     38  C   UNL A   1      42.624  23.619  27.552  1.00  0.00     0.058 A 
ATOM     39  C   UNL A   1      42.713  23.341  26.181  1.00  0.00     0.135 A 
ATOM     40  C   UNL A   1      42.372  22.548  28.425  1.00  0.00     0.135 A 
ATOM     41  F   UNL A   1      42.939  24.331  25.303  1.00  0.00    -0.206 F 
ATOM     42  C   UNL A   1      42.566  22.045  25.693  1.00  0.00     0.059 A 
ATOM     43  C   UNL A   1      42.239  21.241  27.961  1.00  0.00     0.059 A 
ATOM     44  F   UNL A   1      42.274  22.762  29.747  1.00  0.00    -0.206 F 
ATOM     45  C   UNL A   1      42.336  21.001  26.592  1.00  0.00     0.060 A 
BRANCH  45  46
ATOM     46  S   UNL A   1      42.202  19.319  25.946  1.00  0.00     0.124 S 
ATOM     47  O   UNL A   1      40.770  19.224  25.680  1.00  0.00    -0.237 OA
ATOM     48  O   UNL A   1      43.063  19.367  24.770  1.00  0.00    -0.237 OA
ATOM     49  O   UNL A   1      42.692  18.492  27.045  1.00  0.00    -0.744 OA
ENDBRANCH  45  46
ENDBRANCH  24  38
BRANCH  25  50
ATOM     50  C   UNL A   1      44.147  32.603  31.686  1.00  0.00     0.058 A 
ATOM     51  C   UNL A   1      43.927  32.725  33.064  1.00  0.00     0.135 A 
ATOM     52  C   UNL A   1      44.573  33.742  30.985  1.00  0.00     0.135 A 
ATOM     53  F   UNL A   1      43.518  31.663  33.776  1.00  0.00    -0.206 F 
ATOM     54  C   UNL A   1      44.099  33.939  33.721  1.00  0.00     0.059 A 
ATOM     55  C   UNL A   1      44.780  34.958  31.625  1.00  0.00     0.059 A 
ATOM     56  F   UNL A   1      44.818  33.670  29.668  1.00  0.00    -0.206 F 
ATOM     57  C   UNL A   1      44.524  35.051  32.992  1.00  0.00     0.060 A 
BRANCH  57  58
ATOM     58  S   UNL A   1      44.770  36.618  33.854  1.00  0.00     0.124 S 
ATOM     59  O   UNL A   1      44.279  37.573  32.867  1.00  0.00    -0.237 OA
ATOM     60  O   UNL A   1      43.945  36.450  35.045  1.00  0.00    -0.237 OA
ATOM     61  O   UNL A   1      46.209  36.641  34.096  1.00  0.00    -0.744 OA
ENDBRANCH  57  58
ENDBRANCH  25  50
BRANCH  37  62
ATOM     62  C   UNL A   1      48.205  27.075  30.469  1.00  0.00     0.058 A 
ATOM     63  C   UNL A   1      48.537  26.402  31.653  1.00  0.00     0.135 A 
ATOM     64  C   UNL A   1      49.244  27.415  29.588  1.00  0.00     0.135 A 
ATOM     65  F   UNL A   1      47.579  26.068  32.533  1.00  0.00    -0.206 F 
ATOM     66  C   UNL A   1      49.855  26.085  31.961  1.00  0.00     0.059 A 
ATOM     67  C   UNL A   1      50.567  27.087  29.865  1.00  0.00     0.059 A 
ATOM     68  F   UNL A   1      48.975  28.057  28.440  1.00  0.00    -0.206 F 
ATOM     69  C   UNL A   1      50.863  26.428  31.058  1.00  0.00     0.060 A 
BRANCH  69  70
ATOM     70  S   UNL A   1      52.565  25.970  31.447  1.00  0.00     0.124 S 
ATOM     71  O   UNL A   1      52.383  24.657  32.058  1.00  0.00    -0.237 OA
ATOM     72  O   UNL A   1      53.199  25.974  30.131  1.00  0.00    -0.237 OA
ATOM     73  O   UNL A   1      53.004  27.028  32.351  1.00  0.00    -0.744 OA
ENDBRANCH  69  70
ENDBRANCH  37  62
ENDBRANCH  11  12
ENDBRANCH   4   6
ENDBRANCH   1   2
BRANCH   1  74
ATOM     74  C   UNL A   1      32.768  28.294  26.138  1.00  0.00     0.042 C 
BRANCH  74  75
ATOM     75  C   UNL A   1      32.712  29.251  24.961  1.00  0.00     0.118 C 
BRANCH  75  76
ATOM     76  N   UNL A   1      33.145  28.627  23.713  1.00  0.00    -0.352 N 
ATOM     77  C   UNL A   1      32.516  27.689  22.933  1.00  0.00     0.252 C 
ATOM     78  H   UNL A   1      34.022  28.926  23.380  1.00  0.00     0.163 HD
ATOM     79  O   UNL A   1      33.114  27.132  22.018  1.00  0.00    -0.269 OA
BRANCH  77  80
ATOM     80  C   UNL A   1      31.108  27.354  23.187  1.00  0.00     0.058 A 
ATOM     81  C   UNL A   1      30.778  26.179  23.839  1.00  0.00     0.124 A 
ATOM     82  C   UNL A   1      30.083  28.212  22.791  1.00  0.00     0.029 A 
ATOM     83  N   UNL A   1      29.506  25.859  24.180  1.00  0.00    -0.263 NA
ATOM     84  C   UNL A   1      28.772  27.950  23.180  1.00  0.00     0.042 A 
ATOM     85  C   UNL A   1      28.538  26.763  23.868  1.00  0.00     0.123 A 
BRANCH  84  86
ATOM     86  C   UNL A   1      27.664  28.929  23.010  1.00  0.00     0.195 C 
ATOM     87  O   UNL A   1      26.521  28.600  23.312  1.00  0.00    -0.289 OA
BRANCH  86  88
ATOM     88  C   UNL A   1      27.979  30.296  22.595  1.00  0.00     0.033 A 
ATOM     89  C   UNL A   1      28.021  30.814  21.255  1.00  0.00     0.024 A 
ATOM     90  C   UNL A   1      28.272  31.289  23.512  1.00  0.00     0.077 A 
ATOM     91  C   UNL A   1      28.409  32.135  21.210  1.00  0.00     0.065 A 
ATOM     92  S   UNL A   1      28.678  32.777  22.770  1.00  0.00    -0.152 S 
ENDBRANCH  86  88
ENDBRANCH  84  86
ENDBRANCH  77  80
ENDBRANCH  75  76
ENDBRANCH  74  75
ENDBRANCH   1  74
TORSDOF 15
ENDMDL
MODEL 2
REMARK VINA RESULT:     -11.5      4.467      5.737
REMARK SMILES O=C(NCCCNC(=O)c1cncc(C(=O)c2ccsc2)c1)c1ccc(-c2c3nc(c(-c4c(F)cc(S(=O)(=O)[O-])cc4F)c4ccc([nH]4)c(-c4c(F)cc(S(=O)(=O)[O-])cc4F)c4nc(c(-c5c(F)cc(S(=O)(=O)[O-])cc5F)c5ccc2[nH]5)C=C4)C=C3)cc1
REMARK SMILES IDX 4 1 3 2 1 3 2 4 23 6 24 7 88 8 25 9 87 10 26 11 27 12 28 13
REMARK SMILES IDX 81 14 29 15 86 16 80 17 82 18 30 19 85 20 79 21 78 22 31 24
REMARK SMILES IDX 65 25 44 26 64 27 45 28 48 29 63 30 83 31 46 32 47 33 62 35
REMARK SMILES IDX 84 36 49 37 32 38 33 39 42 40 34 41 35 42 41 43 43 44 36 45
REMARK SMILES IDX 37 46 38 47 39 48 40 49 66 50 67 51 76 52 68 53 69 54 75 55
REMARK SMILES IDX 77 56 70 57 71 58 72 59 73 60 74 61 50 62 51 63 60 64 52 65
REMARK SMILES IDX 53 66 59 67 61 68 54 69 55 70 56 71 57 72 58 73 5 74 6 75
REMARK SMILES IDX 7 76 8 77 9 79 10 80 11 81 22 82 12 83 14 84 13 85 15 86
REMARK SMILES IDX 16 87 17 88 18 89 21 90 19 91 20 92
REMARK H PARENT 3 5 82 23 48 34 7 78
REMARK Flexibility Score: inf
ROOT
ATOM      1  C   UNL A   1      32.886  32.462  27.118  1.00  0.00     0.118 C 
ENDROOT
BRANCH   1   2
ATOM      2  N   UNL A   1      32.619  33.843  27.493  1.00  0.00    -0.352 N 
ATOM      3  O   UNL A   1      32.614  35.667  28.805  1.00  0.00    -0.269 OA
ATOM      4  C   UNL A   1      33.136  34.593  28.522  1.00  0.00     0.251 C 
ATOM      5  H   UNL A   1      31.968  34.313  26.921  1.00  0.00     0.163 HD
BRANCH   4   6
ATOM      6  C   UNL A   1      34.305  34.103  29.285  1.00  0.00     0.039 A 
ATOM      7  C   UNL A   1      34.131  33.331  30.436  1.00  0.00     0.014 A 
ATOM      8  C   UNL A   1      35.594  34.375  28.814  1.00  0.00     0.014 A 
ATOM      9  C   UNL A   1      35.232  32.944  31.187  1.00  0.00     0.010 A 
ATOM     10  C   UNL A   1      36.704  33.899  29.517  1.00  0.00     0.010 A 
ATOM     11  C   UNL A   1      36.530  33.189  30.715  1.00  0.00    -0.014 A 
BRANCH  11  12
ATOM     12  C   UNL A   1      37.678  32.566  31.417  1.00  0.00     0.031 A 
ATOM     13  C   UNL A   1      38.373  31.357  30.863  1.00  0.00     0.074 A 
ATOM     14  C   UNL A   1      38.078  33.119  32.579  1.00  0.00     0.049 A 
ATOM     15  N   UNL A   1      39.375  30.687  31.374  1.00  0.00    -0.248 NA
ATOM     16  C   UNL A   1      37.886  30.824  29.582  1.00  0.00     0.031 C 
ATOM     17  C   UNL A   1      37.449  34.281  33.219  1.00  0.00     0.029 A 
ATOM     18  N   UNL A   1      39.099  32.789  33.432  1.00  0.00    -0.354 N 
ATOM     19  C   UNL A   1      39.622  29.640  30.495  1.00  0.00     0.074 A 
ATOM     20  C   UNL A   1      38.661  29.758  29.418  1.00  0.00     0.031 C 
ATOM     21  C   UNL A   1      38.110  34.578  34.346  1.00  0.00     0.029 A 
ATOM     22  C   UNL A   1      39.165  33.594  34.546  1.00  0.00     0.049 A 
ATOM     23  H   UNL A   1      39.726  32.049  33.264  1.00  0.00     0.167 HD
ATOM     24  C   UNL A   1      40.568  28.675  30.586  1.00  0.00     0.037 A 
ATOM     25  C   UNL A   1      39.957  33.524  35.631  1.00  0.00     0.037 A 
ATOM     26  C   UNL A   1      41.537  28.595  31.650  1.00  0.00     0.049 A 
ATOM     27  C   UNL A   1      40.979  32.429  35.710  1.00  0.00     0.074 A 
ATOM     28  C   UNL A   1      42.596  27.713  31.779  1.00  0.00     0.029 A 
ATOM     29  N   UNL A   1      41.557  29.410  32.771  1.00  0.00    -0.354 N 
ATOM     30  N   UNL A   1      41.250  31.495  34.829  1.00  0.00    -0.248 NA
ATOM     31  C   UNL A   1      41.794  32.366  36.930  1.00  0.00     0.031 C 
ATOM     32  C   UNL A   1      43.225  27.962  33.004  1.00  0.00     0.029 A 
ATOM     33  C   UNL A   1      42.583  29.025  33.618  1.00  0.00     0.049 A 
ATOM     34  H   UNL A   1      40.935  30.154  32.940  1.00  0.00     0.167 HD
ATOM     35  C   UNL A   1      42.264  30.732  35.390  1.00  0.00     0.074 A 
ATOM     36  C   UNL A   1      42.580  31.331  36.672  1.00  0.00     0.031 C 
ATOM     37  C   UNL A   1      42.872  29.627  34.894  1.00  0.00     0.037 A 
BRANCH  24  38
ATOM     38  C   UNL A   1      40.612  27.612  29.525  1.00  0.00     0.058 A 
ATOM     39  C   UNL A   1      41.630  27.571  28.563  1.00  0.00     0.135 A 
ATOM     40  C   UNL A   1      39.685  26.556  29.547  1.00  0.00     0.135 A 
ATOM     41  F   UNL A   1      42.533  28.561  28.490  1.00  0.00    -0.206 F 
ATOM     42  C   UNL A   1      41.731  26.518  27.658  1.00  0.00     0.059 A 
ATOM     43  C   UNL A   1      39.777  25.484  28.664  1.00  0.00     0.059 A 
ATOM     44  F   UNL A   1      38.689  26.550  30.448  1.00  0.00    -0.206 F 
ATOM     45  C   UNL A   1      40.804  25.474  27.721  1.00  0.00     0.060 A 
BRANCH  45  46
ATOM     46  S   UNL A   1      40.983  24.089  26.576  1.00  0.00     0.124 S 
ATOM     47  O   UNL A   1      39.622  23.957  26.065  1.00  0.00    -0.237 OA
ATOM     48  O   UNL A   1      41.969  24.594  25.627  1.00  0.00    -0.237 OA
ATOM     49  O   UNL A   1      41.440  22.997  27.430  1.00  0.00    -0.744 OA
ENDBRANCH  45  46
ENDBRANCH  24  38
BRANCH  25  50
ATOM     50  C   UNL A   1      39.768  34.483  36.750  1.00  0.00     0.058 A 
ATOM     51  C   UNL A   1      38.969  34.163  37.854  1.00  0.00     0.135 A 
ATOM     52  C   UNL A   1      40.394  35.740  36.734  1.00  0.00     0.135 A 
ATOM     53  F   UNL A   1      38.349  32.974  37.914  1.00  0.00    -0.206 F 
ATOM     54  C   UNL A   1      38.775  35.065  38.896  1.00  0.00     0.059 A 
ATOM     55  C   UNL A   1      40.239  36.646  37.775  1.00  0.00     0.059 A 
ATOM     56  F   UNL A   1      41.187  36.084  35.707  1.00  0.00    -0.206 F 
ATOM     57  C   UNL A   1      39.413  36.307  38.845  1.00  0.00     0.060 A 
BRANCH  57  58
ATOM     58  S   UNL A   1      39.179  37.465  40.210  1.00  0.00     0.124 S 
ATOM     59  O   UNL A   1      38.621  36.594  41.238  1.00  0.00    -0.237 OA
ATOM     60  O   UNL A   1      40.537  37.944  40.446  1.00  0.00    -0.237 OA
ATOM     61  O   UNL A   1      38.262  38.454  39.652  1.00  0.00    -0.744 OA
ENDBRANCH  57  58
ENDBRANCH  25  50
BRANCH  37  62
ATOM     62  C   UNL A   1      43.934  28.993  35.743  1.00  0.00     0.058 A 
ATOM     63  C   UNL A   1      43.628  27.945  36.624  1.00  0.00     0.135 A 
ATOM     64  C   UNL A   1      45.273  29.400  35.641  1.00  0.00     0.135 A 
ATOM     65  F   UNL A   1      42.359  27.530  36.766  1.00  0.00    -0.206 F 
ATOM     66  C   UNL A   1      44.613  27.328  37.385  1.00  0.00     0.059 A 
ATOM     67  C   UNL A   1      46.279  28.781  36.376  1.00  0.00     0.059 A 
ATOM     68  F   UNL A   1      45.615  30.396  34.808  1.00  0.00    -0.206 F 
ATOM     69  C   UNL A   1      45.937  27.751  37.251  1.00  0.00     0.060 A 
BRANCH  69  70
ATOM     70  S   UNL A   1      47.215  26.911  38.210  1.00  0.00     0.124 S 
ATOM     71  O   UNL A   1      47.199  25.578  37.617  1.00  0.00    -0.237 OA
ATOM     72  O   UNL A   1      48.399  27.716  37.927  1.00  0.00    -0.237 OA
ATOM     73  O   UNL A   1      46.721  26.995  39.582  1.00  0.00    -0.744 OA
ENDBRANCH  69  70
ENDBRANCH  37  62
ENDBRANCH  11  12
ENDBRANCH   4   6
ENDBRANCH   1   2
BRANCH   1  74
ATOM     74  C   UNL A   1      31.617  31.707  26.765  1.00  0.00     0.042 C 
BRANCH  74  75
ATOM     75  C   UNL A   1      31.852  30.234  26.479  1.00  0.00     0.118 C 
BRANCH  75  76
ATOM     76  N   UNL A   1      32.761  30.022  25.354  1.00  0.00    -0.352 N 
ATOM     77  C   UNL A   1      32.655  29.165  24.287  1.00  0.00     0.252 C 
ATOM     78  H   UNL A   1      33.573  30.579  25.363  1.00  0.00     0.163 HD
ATOM     79  O   UNL A   1      33.608  28.978  23.537  1.00  0.00    -0.269 OA
BRANCH  77  80
ATOM     80  C   UNL A   1      31.386  28.470  24.031  1.00  0.00     0.058 A 
ATOM     81  C   UNL A   1      31.223  27.152  24.417  1.00  0.00     0.124 A 
ATOM     82  C   UNL A   1      30.322  29.125  23.412  1.00  0.00     0.029 A 
ATOM     83  N   UNL A   1      30.049  26.487  24.287  1.00  0.00    -0.263 NA
ATOM     84  C   UNL A   1      29.082  28.497  23.321  1.00  0.00     0.042 A 
ATOM     85  C   UNL A   1      29.000  27.183  23.770  1.00  0.00     0.123 A 
BRANCH  84  86
ATOM     86  C   UNL A   1      27.843  29.206  22.899  1.00  0.00     0.195 C 
ATOM     87  O   UNL A   1      26.751  28.711  23.156  1.00  0.00    -0.289 OA
BRANCH  86  88
ATOM     88  C   UNL A   1      27.954  30.531  22.288  1.00  0.00     0.033 A 
ATOM     89  C   UNL A   1      28.103  31.793  22.960  1.00  0.00     0.024 A 
ATOM     90  C   UNL A   1      27.941  30.708  20.916  1.00  0.00     0.077 A 
ATOM     91  C   UNL A   1      28.122  32.859  22.087  1.00  0.00     0.065 A 
ATOM     92  S   UNL A   1      28.010  32.355  20.459  1.00  0.00    -0.152 S 
ENDBRANCH  86  88
ENDBRANCH  84  86
ENDBRANCH  77  80
ENDBRANCH  75  76
ENDBRANCH  74  75
ENDBRANCH   1  74
TORSDOF 15
ENDMDL
MODEL 3
REMARK VINA RESULT:     -11.4      0.647      8.460
REMARK SMILES O=C(NCCCNC(=O)c1cncc(C(=O)c2ccsc2)c1)c1ccc(-c2c3nc(c(-c4c(F)cc(S(=O)(=O)[O-])cc4F)c4ccc([nH]4)c(-c4c(F)cc(S(=O)(=O)[O-])cc4F)c4nc(c(-c5c(F)cc(S(=O)(=O)[O-])cc5F)c5ccc2[nH]5)C=C4)C=C3)cc1
REMARK SMILES IDX 4 1 3 2 1 3 2 4 23 6 24 7 88 8 25 9 87 10 26 11 27 12 28 13
REMARK SMILES IDX 81 14 29 15 86 16 80 17 82 18 30 19 85 20 79 21 78 22 31 24
REMARK SMILES IDX 65 25 44 26 64 27 45 28 48 29 63 30 83 31 46 32 47 33 62 35
REMARK SMILES IDX 84 36 49 37 32 38 33 39 42 40 34 41 35 42 41 43 43 44 36 45
REMARK SMILES IDX 37 46 38 47 39 48 40 49 66 50 67 51 76 52 68 53 69 54 75 55
REMARK SMILES IDX 77 56 70 57 71 58 72 59 73 60 74 61 50 62 51 63 60 64 52 65
REMARK SMILES IDX 53 66 59 67 61 68 54 69 55 70 56 71 57 72 58 73 5 74 6 75
REMARK SMILES IDX 7 76 8 77 9 79 10 80 11 81 22 82 12 83 14 84 13 85 15 86
REMARK SMILES IDX 16 87 17 88 18 89 21 90 19 91 20 92
REMARK H PARENT 3 5 82 23 48 34 7 78
REMARK Flexibility Score: inf
ROOT
ATOM      1  C   UNL A   1      33.707  28.310  27.228  1.00  0.00     0.118 C 
ENDROOT
BRANCH   1   2
ATOM      2  N   UNL A   1      33.592  29.733  27.514  1.00  0.00    -0.352 N 
ATOM      3  O   UNL A   1      34.102  31.699  28.476  1.00  0.00    -0.269 OA
ATOM      4  C   UNL A   1      34.479  30.584  28.127  1.00  0.00     0.251 C 
ATOM      5  H   UNL A   1      32.748  30.151  27.223  1.00  0.00     0.163 HD
BRANCH   4   6
ATOM      6  C   UNL A   1      35.874  30.155  28.372  1.00  0.00     0.039 A 
ATOM      7  C   UNL A   1      36.839  30.268  27.368  1.00  0.00     0.014 A 
ATOM      8  C   UNL A   1      36.234  29.684  29.638  1.00  0.00     0.014 A 
ATOM      9  C   UNL A   1      38.124  29.791  27.583  1.00  0.00     0.010 A 
ATOM     10  C   UNL A   1      37.555  29.297  29.884  1.00  0.00     0.010 A 
ATOM     11  C   UNL A   1      38.507  29.338  28.855  1.00  0.00    -0.014 A 
BRANCH  11  12
ATOM     12  C   UNL A   1      39.938  29.052  29.114  1.00  0.00     0.031 A 
ATOM     13  C   UNL A   1      40.859  30.101  29.665  1.00  0.00     0.074 A 
ATOM     14  C   UNL A   1      40.393  27.815  28.833  1.00  0.00     0.049 A 
ATOM     15  N   UNL A   1      42.139  30.009  29.922  1.00  0.00    -0.248 NA
ATOM     16  C   UNL A   1      40.282  31.421  29.961  1.00  0.00     0.031 C 
ATOM     17  C   UNL A   1      39.584  26.729  28.265  1.00  0.00     0.029 A 
ATOM     18  N   UNL A   1      41.635  27.254  28.979  1.00  0.00    -0.354 N 
ATOM     19  C   UNL A   1      42.527  31.261  30.384  1.00  0.00     0.074 A 
ATOM     20  C   UNL A   1      41.348  32.101  30.367  1.00  0.00     0.031 C 
ATOM     21  C   UNL A   1      40.342  25.633  28.134  1.00  0.00     0.029 A 
ATOM     22  C   UNL A   1      41.703  25.952  28.543  1.00  0.00     0.049 A 
ATOM     23  H   UNL A   1      42.404  27.736  29.360  1.00  0.00     0.167 HD
ATOM     24  C   UNL A   1      43.757  31.661  30.784  1.00  0.00     0.037 A 
ATOM     25  C   UNL A   1      42.753  25.116  28.442  1.00  0.00     0.037 A 
ATOM     26  C   UNL A   1      44.912  30.799  30.825  1.00  0.00     0.049 A 
ATOM     27  C   UNL A   1      44.105  25.600  28.874  1.00  0.00     0.074 A 
ATOM     28  C   UNL A   1      46.177  31.085  31.308  1.00  0.00     0.029 A 
ATOM     29  N   UNL A   1      44.949  29.496  30.354  1.00  0.00    -0.354 N 
ATOM     30  N   UNL A   1      44.436  26.762  29.382  1.00  0.00    -0.248 NA
ATOM     31  C   UNL A   1      45.229  24.669  28.708  1.00  0.00     0.031 C 
ATOM     32  C   UNL A   1      46.993  29.972  31.080  1.00  0.00     0.029 A 
ATOM     33  C   UNL A   1      46.226  28.978  30.493  1.00  0.00     0.049 A 
ATOM     34  H   UNL A   1      44.181  29.010  29.977  1.00  0.00     0.167 HD
ATOM     35  C   UNL A   1      45.807  26.704  29.595  1.00  0.00     0.074 A 
ATOM     36  C   UNL A   1      46.238  25.381  29.188  1.00  0.00     0.031 C 
ATOM     37  C   UNL A   1      46.636  27.664  30.072  1.00  0.00     0.037 A 
BRANCH  24  38
ATOM     38  C   UNL A   1      43.944  33.092  31.203  1.00  0.00     0.058 A 
ATOM     39  C   UNL A   1      44.271  34.095  30.281  1.00  0.00     0.135 A 
ATOM     40  C   UNL A   1      43.680  33.478  32.528  1.00  0.00     0.135 A 
ATOM     41  F   UNL A   1      44.546  33.778  29.005  1.00  0.00    -0.206 F 
ATOM     42  C   UNL A   1      44.327  35.435  30.655  1.00  0.00     0.059 A 
ATOM     43  C   UNL A   1      43.712  34.814  32.921  1.00  0.00     0.059 A 
ATOM     44  F   UNL A   1      43.365  32.555  33.451  1.00  0.00    -0.206 F 
ATOM     45  C   UNL A   1      44.038  35.785  31.976  1.00  0.00     0.060 A 
BRANCH  45  46
ATOM     46  S   UNL A   1      44.062  37.533  32.431  1.00  0.00     0.124 S 
ATOM     47  O   UNL A   1      43.025  37.580  33.457  1.00  0.00    -0.237 OA
ATOM     48  O   UNL A   1      45.430  37.714  32.905  1.00  0.00    -0.237 OA
ATOM     49  O   UNL A   1      43.739  38.215  31.181  1.00  0.00    -0.744 OA
ENDBRANCH  45  46
ENDBRANCH  24  38
BRANCH  25  50
ATOM     50  C   UNL A   1      42.570  23.765  27.853  1.00  0.00     0.058 A 
ATOM     51  C   UNL A   1      42.538  23.574  26.466  1.00  0.00     0.135 A 
ATOM     52  C   UNL A   1      42.430  22.634  28.675  1.00  0.00     0.135 A 
ATOM     53  F   UNL A   1      42.668  24.624  25.640  1.00  0.00    -0.206 F 
ATOM     54  C   UNL A   1      42.350  22.312  25.911  1.00  0.00     0.059 A 
ATOM     55  C   UNL A   1      42.269  21.360  28.144  1.00  0.00     0.059 A 
ATOM     56  F   UNL A   1      42.475  22.763  30.010  1.00  0.00    -0.206 F 
ATOM     57  C   UNL A   1      42.213  21.211  26.760  1.00  0.00     0.060 A 
BRANCH  57  58
ATOM     58  S   UNL A   1      41.994  19.573  26.035  1.00  0.00     0.124 S 
ATOM     59  O   UNL A   1      42.472  18.712  27.111  1.00  0.00    -0.237 OA
ATOM     60  O   UNL A   1      40.557  19.537  25.778  1.00  0.00    -0.237 OA
ATOM     61  O   UNL A   1      42.834  19.622  24.842  1.00  0.00    -0.744 OA
ENDBRANCH  57  58
ENDBRANCH  25  50
BRANCH  37  62
ATOM     62  C   UNL A   1      48.093  27.318  30.173  1.00  0.00     0.058 A 
ATOM     63  C   UNL A   1      48.989  27.647  29.146  1.00  0.00     0.135 A 
ATOM     64  C   UNL A   1      48.605  26.700  31.324  1.00  0.00     0.135 A 
ATOM     65  F   UNL A   1      48.544  28.226  28.019  1.00  0.00    -0.206 F 
ATOM     66  C   UNL A   1      50.345  27.363  29.250  1.00  0.00     0.059 A 
ATOM     67  C   UNL A   1      49.962  26.429  31.460  1.00  0.00     0.059 A 
ATOM     68  F   UNL A   1      47.786  26.371  32.336  1.00  0.00    -0.206 F 
ATOM     69  C   UNL A   1      50.823  26.757  30.413  1.00  0.00     0.060 A 
BRANCH  69  70
ATOM     70  S   UNL A   1      52.594  26.437  30.557  1.00  0.00     0.124 S 
ATOM     71  O   UNL A   1      53.071  27.682  31.150  1.00  0.00    -0.237 OA
ATOM     72  O   UNL A   1      52.630  25.265  31.428  1.00  0.00    -0.237 OA
ATOM     73  O   UNL A   1      53.009  26.198  29.178  1.00  0.00    -0.744 OA
ENDBRANCH  69  70
ENDBRANCH  37  62
ENDBRANCH  11  12
ENDBRANCH   4   6
ENDBRANCH   1   2
BRANCH   1  74
ATOM     74  C   UNL A   1      34.071  28.043  25.778  1.00  0.00     0.042 C 
BRANCH  74  75
ATOM     75  C   UNL A   1      33.205  28.806  24.790  1.00  0.00     0.118 C 
BRANCH  75  76
ATOM     76  N   UNL A   1      33.435  28.390  23.409  1.00  0.00    -0.352 N 
ATOM     77  C   UNL A   1      32.658  27.618  22.581  1.00  0.00     0.252 C 
ATOM     78  H   UNL A   1      34.275  28.713  23.010  1.00  0.00     0.163 HD
ATOM     79  O   UNL A   1      33.099  27.205  21.513  1.00  0.00    -0.269 OA
BRANCH  77  80
ATOM     80  C   UNL A   1      31.280  27.289  22.970  1.00  0.00     0.058 A 
ATOM     81  C   UNL A   1      31.017  26.144  23.702  1.00  0.00     0.124 A 
ATOM     82  C   UNL A   1      30.218  28.124  22.626  1.00  0.00     0.029 A 
ATOM     83  N   UNL A   1      29.781  25.835  24.165  1.00  0.00    -0.263 NA
ATOM     84  C   UNL A   1      28.947  27.874  23.138  1.00  0.00     0.042 A 
ATOM     85  C   UNL A   1      28.783  26.720  23.897  1.00  0.00     0.123 A 
BRANCH  84  86
ATOM     86  C   UNL A   1      27.821  28.840  23.019  1.00  0.00     0.195 C 
ATOM     87  O   UNL A   1      26.701  28.505  23.392  1.00  0.00    -0.289 OA
BRANCH  86  88
ATOM     88  C   UNL A   1      28.097  30.204  22.567  1.00  0.00     0.033 A 
ATOM     89  C   UNL A   1      28.096  30.693  21.216  1.00  0.00     0.024 A 
ATOM     90  C   UNL A   1      28.390  31.223  23.455  1.00  0.00     0.077 A 
ATOM     91  C   UNL A   1      28.454  32.021  21.133  1.00  0.00     0.065 A 
ATOM     92  S   UNL A   1      28.746  32.702  22.672  1.00  0.00    -0.152 S 
ENDBRANCH  86  88
ENDBRANCH  84  86
ENDBRANCH  77  80
ENDBRANCH  75  76
ENDBRANCH  74  75
ENDBRANCH   1  74
TORSDOF 15
ENDMDL
