MODEL 1
REMARK VINA RESULT:     -14.3      0.000      0.000
REMARK SMILES Cc1c(CC(=O)NCCCNC(=O)c2ccc(-c3c4nc(c(-c5c(F)cc(S(=O)(=O)[O-])cc5F)c5ccc([nH]5)c(-c5c(F)cc(S(=O)(=O)[O-])cc5F)c5nc(c(-c6c(F)cc(S(=O)(=O)[O-])cc6F)c6ccc3[nH]6)C=C5)C=C4)cc2)cccc1-c1ccn(C(F)F)c(=O)c1
REMARK SMILES IDX 9 1 8 2 7 3 5 4 6 5 4 7 3 8 1 9 2 10 83 11 80 12 82 13 81 14
REMARK SMILES IDX 84 15 85 16 93 17 86 18 91 19 87 20 92 21 88 22 89 23 90 24
REMARK SMILES IDX 10 25 11 26 12 27 13 29 14 30 15 31 79 32 16 33 78 34 17 35
REMARK SMILES IDX 18 36 19 37 72 38 20 39 77 40 71 41 73 42 21 43 76 44 70 45
REMARK SMILES IDX 69 46 22 48 56 49 35 50 55 51 36 52 39 53 54 54 74 55 37 56
REMARK SMILES IDX 38 57 53 59 75 60 40 61 23 62 24 63 33 64 25 65 26 66 32 67
REMARK SMILES IDX 34 68 27 69 28 70 29 71 30 72 31 73 57 74 58 75 67 76 59 77
REMARK SMILES IDX 60 78 66 79 68 80 61 81 62 82 63 83 64 84 65 85 41 86 42 87
REMARK SMILES IDX 51 88 43 89 44 90 50 91 52 92 45 93 46 94 47 95 48 96 49 97
REMARK H PARENT 7 6 11 28 73 47 39 58
REMARK Flexibility Score: inf
ROOT
ATOM      1  C   UNL A   1      32.810  29.989  26.561  1.00  0.00     0.042 C 
ENDROOT
BRANCH   1   2
ATOM      2  C   UNL A   1      32.343  29.106  25.405  1.00  0.00     0.117 C 
BRANCH   2   3
ATOM      3  N   UNL A   1      31.351  28.117  25.801  1.00  0.00    -0.356 N 
ATOM      4  C   UNL A   1      31.522  26.816  26.183  1.00  0.00     0.224 C 
ATOM      5  O   UNL A   1      30.533  26.161  26.521  1.00  0.00    -0.275 OA
ATOM      6  H   UNL A   1      30.418  28.432  25.791  1.00  0.00     0.163 HD
BRANCH   4   7
ATOM      7  C   UNL A   1      32.910  26.181  26.197  1.00  0.00     0.135 C 
BRANCH   7   8
ATOM      8  C   UNL A   1      33.120  25.162  25.091  1.00  0.00    -0.035 A 
ATOM      9  C   UNL A   1      32.802  23.187  26.667  1.00  0.00     0.045 C 
ATOM     10  C   UNL A   1      33.158  23.761  25.315  1.00  0.00    -0.040 A 
ATOM     11  C   UNL A   1      33.515  22.904  24.239  1.00  0.00    -0.015 A 
ATOM     12  C   UNL A   1      33.347  25.659  23.791  1.00  0.00     0.004 A 
ATOM     13  C   UNL A   1      33.758  23.439  22.963  1.00  0.00     0.009 A 
ATOM     14  C   UNL A   1      33.659  24.808  22.738  1.00  0.00     0.001 A 
BRANCH  11  15
ATOM     15  C   UNL A   1      33.716  21.448  24.427  1.00  0.00    -0.011 A 
ATOM     16  C   UNL A   1      34.961  20.878  24.905  1.00  0.00     0.027 A 
ATOM     17  C   UNL A   1      32.718  20.626  24.057  1.00  0.00     0.080 A 
ATOM     18  C   UNL A   1      35.153  19.555  24.877  1.00  0.00     0.095 A 
ATOM     19  C   UNL A   1      32.885  19.147  24.116  1.00  0.00     0.255 A 
ATOM     20  N   UNL A   1      34.150  18.699  24.459  1.00  0.00    -0.258 N 
ATOM     21  O   UNL A   1      31.926  18.429  23.856  1.00  0.00    -0.269 OA
BRANCH  20  22
ATOM     22  C   UNL A   1      34.373  17.278  24.403  1.00  0.00     0.451 C 
ATOM     23  F   UNL A   1      34.400  16.834  23.124  1.00  0.00    -0.185 F 
ATOM     24  F   UNL A   1      35.541  16.933  24.997  1.00  0.00    -0.185 F 
ENDBRANCH  20  22
ENDBRANCH  11  15
ENDBRANCH   7   8
ENDBRANCH   4   7
ENDBRANCH   2   3
ENDBRANCH   1   2
BRANCH   1  25
ATOM     25  C   UNL A   1      34.284  29.809  26.894  1.00  0.00     0.118 C 
BRANCH  25  26
ATOM     26  N   UNL A   1      34.908  31.030  27.387  1.00  0.00    -0.352 N 
ATOM     27  C   UNL A   1      36.114  31.152  28.056  1.00  0.00     0.251 C 
ATOM     28  H   UNL A   1      34.415  31.867  27.226  1.00  0.00     0.163 HD
ATOM     29  O   UNL A   1      36.477  32.197  28.564  1.00  0.00    -0.269 OA
BRANCH  27  30
ATOM     30  C   UNL A   1      37.008  29.979  28.022  1.00  0.00     0.039 A 
ATOM     31  C   UNL A   1      37.099  29.214  29.190  1.00  0.00     0.014 A 
ATOM     32  C   UNL A   1      37.926  29.832  26.985  1.00  0.00     0.014 A 
ATOM     33  C   UNL A   1      38.217  28.408  29.391  1.00  0.00     0.010 A 
ATOM     34  C   UNL A   1      39.072  29.099  27.225  1.00  0.00     0.010 A 
ATOM     35  C   UNL A   1      39.239  28.420  28.442  1.00  0.00    -0.014 A 
BRANCH  35  36
ATOM     36  C   UNL A   1      40.558  27.838  28.676  1.00  0.00     0.031 A 
ATOM     37  C   UNL A   1      40.843  26.433  28.291  1.00  0.00     0.074 A 
ATOM     38  C   UNL A   1      41.559  28.598  29.173  1.00  0.00     0.049 A 
ATOM     39  N   UNL A   1      41.814  25.728  28.771  1.00  0.00    -0.248 NA
ATOM     40  C   UNL A   1      40.013  25.691  27.349  1.00  0.00     0.031 C 
ATOM     41  C   UNL A   1      42.987  28.299  29.127  1.00  0.00     0.029 A 
ATOM     42  N   UNL A   1      41.475  29.723  29.986  1.00  0.00    -0.354 N 
ATOM     43  C   UNL A   1      41.911  24.577  28.022  1.00  0.00     0.074 A 
ATOM     44  C   UNL A   1      40.735  24.579  27.182  1.00  0.00     0.031 C 
ATOM     45  C   UNL A   1      43.623  29.056  30.035  1.00  0.00     0.029 A 
ATOM     46  C   UNL A   1      42.613  29.758  30.806  1.00  0.00     0.049 A 
ATOM     47  H   UNL A   1      40.743  30.381  29.987  1.00  0.00     0.167 HD
ATOM     48  C   UNL A   1      43.038  23.810  28.095  1.00  0.00     0.037 A 
ATOM     49  C   UNL A   1      42.518  29.716  32.168  1.00  0.00     0.037 A 
ATOM     50  C   UNL A   1      43.989  24.344  29.065  1.00  0.00     0.049 A 
ATOM     51  C   UNL A   1      43.166  28.505  32.801  1.00  0.00     0.074 A 
ATOM     52  C   UNL A   1      45.099  25.164  28.932  1.00  0.00     0.029 A 
ATOM     53  N   UNL A   1      43.694  24.300  30.422  1.00  0.00    -0.354 N 
ATOM     54  N   UNL A   1      43.548  27.451  32.134  1.00  0.00    -0.248 NA
ATOM     55  C   UNL A   1      43.414  28.369  34.236  1.00  0.00     0.031 C 
ATOM     56  C   UNL A   1      45.440  25.657  30.214  1.00  0.00     0.029 A 
ATOM     57  C   UNL A   1      44.549  25.126  31.129  1.00  0.00     0.049 A 
ATOM     58  H   UNL A   1      42.978  23.758  30.825  1.00  0.00     0.167 HD
ATOM     59  C   UNL A   1      44.028  26.503  33.001  1.00  0.00     0.074 A 
ATOM     60  C   UNL A   1      43.957  27.140  34.302  1.00  0.00     0.031 C 
ATOM     61  C   UNL A   1      44.427  25.269  32.572  1.00  0.00     0.037 A 
BRANCH  48  62
ATOM     62  C   UNL A   1      43.390  22.765  27.055  1.00  0.00     0.058 A 
ATOM     63  C   UNL A   1      42.723  21.520  27.018  1.00  0.00     0.135 A 
ATOM     64  C   UNL A   1      44.422  22.908  26.107  1.00  0.00     0.135 A 
ATOM     65  F   UNL A   1      41.651  21.273  27.782  1.00  0.00    -0.206 F 
ATOM     66  C   UNL A   1      43.135  20.460  26.210  1.00  0.00     0.059 A 
ATOM     67  C   UNL A   1      44.890  21.844  25.326  1.00  0.00     0.059 A 
ATOM     68  F   UNL A   1      44.993  24.100  25.882  1.00  0.00    -0.206 F 
ATOM     69  C   UNL A   1      44.249  20.615  25.398  1.00  0.00     0.060 A 
BRANCH  69  70
ATOM     70  S   UNL A   1      44.844  19.192  24.464  1.00  0.00     0.124 S 
ATOM     71  O   UNL A   1      44.525  19.567  23.090  1.00  0.00    -0.237 OA
ATOM     72  O   UNL A   1      46.262  19.176  24.805  1.00  0.00    -0.237 OA
ATOM     73  O   UNL A   1      44.057  18.083  24.998  1.00  0.00    -0.744 OA
ENDBRANCH  69  70
ENDBRANCH  48  62
BRANCH  49  74
ATOM     74  C   UNL A   1      41.330  30.439  32.695  1.00  0.00     0.058 A 
ATOM     75  C   UNL A   1      40.197  29.665  33.005  1.00  0.00     0.135 A 
ATOM     76  C   UNL A   1      41.458  31.689  33.316  1.00  0.00     0.135 A 
ATOM     77  F   UNL A   1      40.017  28.471  32.418  1.00  0.00    -0.206 F 
ATOM     78  C   UNL A   1      39.328  30.026  34.027  1.00  0.00     0.059 A 
ATOM     79  C   UNL A   1      40.593  32.074  34.342  1.00  0.00     0.059 A 
ATOM     80  F   UNL A   1      42.514  32.472  33.049  1.00  0.00    -0.206 F 
ATOM     81  C   UNL A   1      39.584  31.195  34.740  1.00  0.00     0.060 A 
BRANCH  81  82
ATOM     82  S   UNL A   1      38.708  31.427  36.305  1.00  0.00     0.124 S 
ATOM     83  O   UNL A   1      39.751  31.985  37.159  1.00  0.00    -0.237 OA
ATOM     84  O   UNL A   1      37.652  32.360  35.911  1.00  0.00    -0.237 OA
ATOM     85  O   UNL A   1      38.267  30.079  36.643  1.00  0.00    -0.744 OA
ENDBRANCH  81  82
ENDBRANCH  49  74
BRANCH  61  86
ATOM     86  C   UNL A   1      44.818  24.106  33.451  1.00  0.00     0.058 A 
ATOM     87  C   UNL A   1      43.998  22.993  33.693  1.00  0.00     0.135 A 
ATOM     88  C   UNL A   1      46.133  24.023  33.974  1.00  0.00     0.135 A 
ATOM     89  F   UNL A   1      42.767  22.909  33.166  1.00  0.00    -0.206 F 
ATOM     90  C   UNL A   1      44.424  21.899  34.450  1.00  0.00     0.059 A 
ATOM     91  C   UNL A   1      46.597  22.920  34.686  1.00  0.00     0.059 A 
ATOM     92  F   UNL A   1      47.018  25.016  33.799  1.00  0.00    -0.206 F 
ATOM     93  C   UNL A   1      45.726  21.869  34.941  1.00  0.00     0.060 A 
BRANCH  93  94
ATOM     94  S   UNL A   1      46.319  20.437  35.860  1.00  0.00     0.124 S 
ATOM     95  O   UNL A   1      45.745  20.678  37.180  1.00  0.00    -0.237 OA
ATOM     96  O   UNL A   1      45.748  19.313  35.123  1.00  0.00    -0.237 OA
ATOM     97  O   UNL A   1      47.770  20.563  35.767  1.00  0.00    -0.744 OA
ENDBRANCH  93  94
ENDBRANCH  61  86
ENDBRANCH  35  36
ENDBRANCH  27  30
ENDBRANCH  25  26
ENDBRANCH   1  25
TORSDOF 16
ENDMDL
MODEL 2
REMARK VINA RESULT:     -14.3      0.937      1.734
REMARK SMILES Cc1c(CC(=O)NCCCNC(=O)c2ccc(-c3c4nc(c(-c5c(F)cc(S(=O)(=O)[O-])cc5F)c5ccc([nH]5)c(-c5c(F)cc(S(=O)(=O)[O-])cc5F)c5nc(c(-c6c(F)cc(S(=O)(=O)[O-])cc6F)c6ccc3[nH]6)C=C5)C=C4)cc2)cccc1-c1ccn(C(F)F)c(=O)c1
REMARK SMILES IDX 9 1 8 2 7 3 5 4 6 5 4 7 3 8 1 9 2 10 83 11 80 12 82 13 81 14
REMARK SMILES IDX 84 15 85 16 93 17 86 18 91 19 87 20 92 21 88 22 89 23 90 24
REMARK SMILES IDX 10 25 11 26 12 27 13 29 14 30 15 31 79 32 16 33 78 34 17 35
REMARK SMILES IDX 18 36 19 37 72 38 20 39 77 40 71 41 73 42 21 43 76 44 70 45
REMARK SMILES IDX 69 46 22 48 56 49 35 50 55 51 36 52 39 53 54 54 74 55 37 56
REMARK SMILES IDX 38 57 53 59 75 60 40 61 23 62 24 63 33 64 25 65 26 66 32 67
REMARK SMILES IDX 34 68 27 69 28 70 29 71 30 72 31 73 57 74 58 75 67 76 59 77
REMARK SMILES IDX 60 78 66 79 68 80 61 81 62 82 63 83 64 84 65 85 41 86 42 87
REMARK SMILES IDX 51 88 43 89 44 90 50 91 52 92 45 93 46 94 47 95 48 96 49 97
REMARK H PARENT 7 6 11 28 73 47 39 58
REMARK Flexibility Score: inf
ROOT
ATOM      1  C   UNL A   1      32.942  29.755  27.217  1.00  0.00     0.042 C 
ENDROOT
BRANCH   1   2
ATOM      2  C   UNL A   1      32.483  29.118  25.908  1.00  0.00     0.117 C 
BRANCH   2   3
ATOM      3  N   UNL A   1      31.501  28.060  26.096  1.00  0.00    -0.356 N 
ATOM      4  C   UNL A   1      31.688  26.718  26.272  1.00  0.00     0.224 C 
ATOM      5  O   UNL A   1      30.702  26.000  26.458  1.00  0.00    -0.275 OA
ATOM      6  H   UNL A   1      30.562  28.356  26.095  1.00  0.00     0.163 HD
BRANCH   4   7
ATOM      7  C   UNL A   1      33.089  26.114  26.246  1.00  0.00     0.135 C 
BRANCH   7   8
ATOM      8  C   UNL A   1      33.294  25.111  25.125  1.00  0.00    -0.035 A 
ATOM      9  C   UNL A   1      32.920  23.115  26.663  1.00  0.00     0.045 C 
ATOM     10  C   UNL A   1      33.303  23.705  25.325  1.00  0.00    -0.040 A 
ATOM     11  C   UNL A   1      33.657  22.860  24.239  1.00  0.00    -0.015 A 
ATOM     12  C   UNL A   1      33.546  25.625  23.836  1.00  0.00     0.004 A 
ATOM     13  C   UNL A   1      33.926  23.412  22.975  1.00  0.00     0.009 A 
ATOM     14  C   UNL A   1      33.856  24.786  22.773  1.00  0.00     0.001 A 
BRANCH  11  15
ATOM     15  C   UNL A   1      33.829  21.398  24.404  1.00  0.00    -0.011 A 
ATOM     16  C   UNL A   1      35.043  20.799  24.923  1.00  0.00     0.027 A 
ATOM     17  C   UNL A   1      32.835  20.599  23.974  1.00  0.00     0.080 A 
ATOM     18  C   UNL A   1      35.216  19.473  24.874  1.00  0.00     0.095 A 
ATOM     19  C   UNL A   1      32.978  19.117  24.009  1.00  0.00     0.255 A 
ATOM     20  N   UNL A   1      34.221  18.642  24.396  1.00  0.00    -0.258 N 
ATOM     21  O   UNL A   1      32.020  18.419  23.693  1.00  0.00    -0.269 OA
BRANCH  20  22
ATOM     22  C   UNL A   1      34.425  17.220  24.319  1.00  0.00     0.451 C 
ATOM     23  F   UNL A   1      34.506  16.802  23.033  1.00  0.00    -0.185 F 
ATOM     24  F   UNL A   1      35.558  16.843  24.959  1.00  0.00    -0.185 F 
ENDBRANCH  20  22
ENDBRANCH  11  15
ENDBRANCH   7   8
ENDBRANCH   4   7
ENDBRANCH   2   3
ENDBRANCH   1   2
BRANCH   1  25
ATOM     25  C   UNL A   1      34.435  29.595  27.470  1.00  0.00     0.118 C 
BRANCH  25  26
ATOM     26  N   UNL A   1      35.069  30.824  27.931  1.00  0.00    -0.352 N 
ATOM     27  C   UNL A   1      36.288  30.957  28.571  1.00  0.00     0.251 C 
ATOM     28  H   UNL A   1      34.570  31.658  27.769  1.00  0.00     0.163 HD
ATOM     29  O   UNL A   1      36.662  32.008  29.056  1.00  0.00    -0.269 OA
BRANCH  27  30
ATOM     30  C   UNL A   1      37.183  29.783  28.534  1.00  0.00     0.039 A 
ATOM     31  C   UNL A   1      37.353  29.074  29.728  1.00  0.00     0.014 A 
ATOM     32  C   UNL A   1      38.032  29.589  27.447  1.00  0.00     0.014 A 
ATOM     33  C   UNL A   1      38.485  28.280  29.893  1.00  0.00     0.010 A 
ATOM     34  C   UNL A   1      39.194  28.870  27.646  1.00  0.00     0.010 A 
ATOM     35  C   UNL A   1      39.443  28.248  28.880  1.00  0.00    -0.014 A 
BRANCH  35  36
ATOM     36  C   UNL A   1      40.777  27.679  29.054  1.00  0.00     0.031 A 
ATOM     37  C   UNL A   1      41.082  26.309  28.574  1.00  0.00     0.074 A 
ATOM     38  C   UNL A   1      41.771  28.425  29.585  1.00  0.00     0.049 A 
ATOM     39  N   UNL A   1      42.075  25.593  28.990  1.00  0.00    -0.248 NA
ATOM     40  C   UNL A   1      40.251  25.613  27.597  1.00  0.00     0.031 C 
ATOM     41  C   UNL A   1      43.204  28.159  29.497  1.00  0.00     0.029 A 
ATOM     42  N   UNL A   1      41.680  29.492  30.471  1.00  0.00    -0.354 N 
ATOM     43  C   UNL A   1      42.181  24.496  28.166  1.00  0.00     0.074 A 
ATOM     44  C   UNL A   1      40.991  24.530  27.347  1.00  0.00     0.031 C 
ATOM     45  C   UNL A   1      43.841  28.867  30.442  1.00  0.00     0.029 A 
ATOM     46  C   UNL A   1      42.831  29.497  31.273  1.00  0.00     0.049 A 
ATOM     47  H   UNL A   1      40.936  30.134  30.527  1.00  0.00     0.167 HD
ATOM     48  C   UNL A   1      43.324  23.749  28.170  1.00  0.00     0.037 A 
ATOM     49  C   UNL A   1      42.760  29.363  32.631  1.00  0.00     0.037 A 
ATOM     50  C   UNL A   1      44.281  24.238  29.159  1.00  0.00     0.049 A 
ATOM     51  C   UNL A   1      43.441  28.127  33.173  1.00  0.00     0.074 A 
ATOM     52  C   UNL A   1      45.372  25.087  29.063  1.00  0.00     0.029 A 
ATOM     53  N   UNL A   1      44.009  24.099  30.514  1.00  0.00    -0.354 N 
ATOM     54  N   UNL A   1      43.832  27.127  32.432  1.00  0.00    -0.248 NA
ATOM     55  C   UNL A   1      43.717  27.903  34.591  1.00  0.00     0.031 C 
ATOM     56  C   UNL A   1      45.726  25.502  30.368  1.00  0.00     0.029 A 
ATOM     57  C   UNL A   1      44.860  24.894  31.261  1.00  0.00     0.049 A 
ATOM     58  H   UNL A   1      43.311  23.517  30.892  1.00  0.00     0.167 HD
ATOM     59  C   UNL A   1      44.345  26.135  33.227  1.00  0.00     0.074 A 
ATOM     60  C   UNL A   1      44.284  26.683  34.568  1.00  0.00     0.031 C 
ATOM     61  C   UNL A   1      44.760  24.939  32.711  1.00  0.00     0.037 A 
BRANCH  48  62
ATOM     62  C   UNL A   1      43.678  22.782  27.058  1.00  0.00     0.058 A 
ATOM     63  C   UNL A   1      42.958  21.579  26.883  1.00  0.00     0.135 A 
ATOM     64  C   UNL A   1      44.759  22.955  26.173  1.00  0.00     0.135 A 
ATOM     65  F   UNL A   1      41.840  21.320  27.574  1.00  0.00    -0.206 F 
ATOM     66  C   UNL A   1      43.360  20.574  26.002  1.00  0.00     0.059 A 
ATOM     67  C   UNL A   1      45.216  21.941  25.322  1.00  0.00     0.059 A 
ATOM     68  F   UNL A   1      45.393  24.133  26.079  1.00  0.00    -0.206 F 
ATOM     69  C   UNL A   1      44.518  20.743  25.257  1.00  0.00     0.060 A 
BRANCH  69  70
ATOM     70  S   UNL A   1      45.092  19.379  24.228  1.00  0.00     0.124 S 
ATOM     71  O   UNL A   1      44.631  18.212  24.973  1.00  0.00    -0.237 OA
ATOM     72  O   UNL A   1      44.407  19.639  22.967  1.00  0.00    -0.237 OA
ATOM     73  O   UNL A   1      46.541  19.560  24.204  1.00  0.00    -0.744 OA
ENDBRANCH  69  70
ENDBRANCH  48  62
BRANCH  49  74
ATOM     74  C   UNL A   1      41.567  30.026  33.223  1.00  0.00     0.058 A 
ATOM     75  C   UNL A   1      41.597  31.430  33.316  1.00  0.00     0.135 A 
ATOM     76  C   UNL A   1      40.315  29.397  33.228  1.00  0.00     0.135 A 
ATOM     77  F   UNL A   1      42.773  32.078  33.340  1.00  0.00    -0.206 F 
ATOM     78  C   UNL A   1      40.437  32.189  33.225  1.00  0.00     0.059 A 
ATOM     79  C   UNL A   1      39.136  30.140  33.141  1.00  0.00     0.059 A 
ATOM     80  F   UNL A   1      40.229  28.060  33.151  1.00  0.00    -0.206 F 
ATOM     81  C   UNL A   1      39.220  31.531  33.058  1.00  0.00     0.060 A 
BRANCH  81  82
ATOM     82  S   UNL A   1      37.802  32.521  32.529  1.00  0.00     0.124 S 
ATOM     83  O   UNL A   1      37.470  33.255  33.745  1.00  0.00    -0.237 OA
ATOM     84  O   UNL A   1      38.391  33.320  31.455  1.00  0.00    -0.237 OA
ATOM     85  O   UNL A   1      36.832  31.517  32.110  1.00  0.00    -0.744 OA
ENDBRANCH  81  82
ENDBRANCH  49  74
BRANCH  61  86
ATOM     86  C   UNL A   1      45.189  23.730  33.506  1.00  0.00     0.058 A 
ATOM     87  C   UNL A   1      46.488  23.535  34.001  1.00  0.00     0.135 A 
ATOM     88  C   UNL A   1      44.227  22.776  33.920  1.00  0.00     0.135 A 
ATOM     89  F   UNL A   1      47.464  24.424  33.762  1.00  0.00    -0.206 F 
ATOM     90  C   UNL A   1      46.828  22.441  34.800  1.00  0.00     0.059 A 
ATOM     91  C   UNL A   1      44.531  21.707  34.758  1.00  0.00     0.059 A 
ATOM     92  F   UNL A   1      42.947  22.859  33.526  1.00  0.00    -0.206 F 
ATOM     93  C   UNL A   1      45.844  21.532  35.176  1.00  0.00     0.060 A 
BRANCH  93  94
ATOM     94  S   UNL A   1      46.247  20.152  36.263  1.00  0.00     0.124 S 
ATOM     95  O   UNL A   1      47.693  20.057  36.089  1.00  0.00    -0.237 OA
ATOM     96  O   UNL A   1      45.802  20.622  37.572  1.00  0.00    -0.237 OA
ATOM     97  O   UNL A   1      45.467  19.053  35.703  1.00  0.00    -0.744 OA
ENDBRANCH  93  94
ENDBRANCH  61  86
ENDBRANCH  35  36
ENDBRANCH  27  30
ENDBRANCH  25  26
ENDBRANCH   1  25
TORSDOF 16
ENDMDL
MODEL 3
REMARK VINA RESULT:     -14.1      1.319      1.756
REMARK SMILES Cc1c(CC(=O)NCCCNC(=O)c2ccc(-c3c4nc(c(-c5c(F)cc(S(=O)(=O)[O-])cc5F)c5ccc([nH]5)c(-c5c(F)cc(S(=O)(=O)[O-])cc5F)c5nc(c(-c6c(F)cc(S(=O)(=O)[O-])cc6F)c6ccc3[nH]6)C=C5)C=C4)cc2)cccc1-c1ccn(C(F)F)c(=O)c1
REMARK SMILES IDX 9 1 8 2 7 3 5 4 6 5 4 7 3 8 1 9 2 10 83 11 80 12 82 13 81 14
REMARK SMILES IDX 84 15 85 16 93 17 86 18 91 19 87 20 92 21 88 22 89 23 90 24
REMARK SMILES IDX 10 25 11 26 12 27 13 29 14 30 15 31 79 32 16 33 78 34 17 35
REMARK SMILES IDX 18 36 19 37 72 38 20 39 77 40 71 41 73 42 21 43 76 44 70 45
REMARK SMILES IDX 69 46 22 48 56 49 35 50 55 51 36 52 39 53 54 54 74 55 37 56
REMARK SMILES IDX 38 57 53 59 75 60 40 61 23 62 24 63 33 64 25 65 26 66 32 67
REMARK SMILES IDX 34 68 27 69 28 70 29 71 30 72 31 73 57 74 58 75 67 76 59 77
REMARK SMILES IDX 60 78 66 79 68 80 61 81 62 82 63 83 64 84 65 85 41 86 42 87
REMARK SMILES IDX 51 88 43 89 44 90 50 91 52 92 45 93 46 94 47 95 48 96 49 97
REMARK H PARENT 7 6 11 28 73 47 39 58
REMARK Flexibility Score: inf
ROOT
ATOM      1  C   UNL A   1      32.889  29.872  26.436  1.00  0.00     0.042 C 
ENDROOT
BRANCH   1   2
ATOM      2  C   UNL A   1      33.045  29.500  24.964  1.00  0.00     0.117 C 
BRANCH   2   3
ATOM      3  N   UNL A   1      31.862  29.794  24.168  1.00  0.00    -0.356 N 
ATOM      4  C   UNL A   1      30.753  29.029  23.939  1.00  0.00     0.224 C 
ATOM      5  O   UNL A   1      29.837  29.497  23.258  1.00  0.00    -0.275 OA
ATOM      6  H   UNL A   1      31.861  30.675  23.728  1.00  0.00     0.163 HD
BRANCH   4   7
ATOM      7  C   UNL A   1      30.640  27.621  24.520  1.00  0.00     0.135 C 
BRANCH   7   8
ATOM      8  C   UNL A   1      31.475  26.593  23.777  1.00  0.00    -0.035 A 
ATOM      9  C   UNL A   1      32.279  25.495  25.931  1.00  0.00     0.045 C 
ATOM     10  C   UNL A   1      32.313  25.650  24.427  1.00  0.00    -0.040 A 
ATOM     11  C   UNL A   1      33.170  24.835  23.637  1.00  0.00    -0.015 A 
ATOM     12  C   UNL A   1      31.446  26.634  22.368  1.00  0.00     0.004 A 
ATOM     13  C   UNL A   1      33.130  24.923  22.236  1.00  0.00     0.009 A 
ATOM     14  C   UNL A   1      32.262  25.808  21.606  1.00  0.00     0.001 A 
BRANCH  11  15
ATOM     15  C   UNL A   1      34.174  23.931  24.245  1.00  0.00    -0.011 A 
ATOM     16  C   UNL A   1      35.431  24.402  24.794  1.00  0.00     0.027 A 
ATOM     17  C   UNL A   1      33.930  22.608  24.205  1.00  0.00     0.080 A 
ATOM     18  C   UNL A   1      36.379  23.530  25.155  1.00  0.00     0.095 A 
ATOM     19  C   UNL A   1      34.939  21.631  24.699  1.00  0.00     0.255 A 
ATOM     20  N   UNL A   1      36.158  22.167  25.081  1.00  0.00    -0.258 N 
ATOM     21  O   UNL A   1      34.649  20.440  24.730  1.00  0.00    -0.269 OA
BRANCH  20  22
ATOM     22  C   UNL A   1      37.193  21.235  25.444  1.00  0.00     0.451 C 
ATOM     23  F   UNL A   1      37.676  20.587  24.357  1.00  0.00    -0.185 F 
ATOM     24  F   UNL A   1      38.227  21.854  26.063  1.00  0.00    -0.185 F 
ENDBRANCH  20  22
ENDBRANCH  11  15
ENDBRANCH   7   8
ENDBRANCH   4   7
ENDBRANCH   2   3
ENDBRANCH   1   2
BRANCH   1  25
ATOM     25  C   UNL A   1      34.174  29.704  27.235  1.00  0.00     0.118 C 
BRANCH  25  26
ATOM     26  N   UNL A   1      34.834  30.972  27.522  1.00  0.00    -0.352 N 
ATOM     27  C   UNL A   1      36.109  31.166  28.026  1.00  0.00     0.251 C 
ATOM     28  H   UNL A   1      34.312  31.786  27.337  1.00  0.00     0.163 HD
ATOM     29  O   UNL A   1      36.514  32.258  28.378  1.00  0.00    -0.269 OA
BRANCH  27  30
ATOM     30  C   UNL A   1      37.010  29.997  28.004  1.00  0.00     0.039 A 
ATOM     31  C   UNL A   1      37.114  29.252  29.184  1.00  0.00     0.014 A 
ATOM     32  C   UNL A   1      37.922  29.840  26.963  1.00  0.00     0.014 A 
ATOM     33  C   UNL A   1      38.238  28.457  29.390  1.00  0.00     0.010 A 
ATOM     34  C   UNL A   1      39.074  29.118  27.207  1.00  0.00     0.010 A 
ATOM     35  C   UNL A   1      39.254  28.459  28.434  1.00  0.00    -0.014 A 
BRANCH  35  36
ATOM     36  C   UNL A   1      40.579  27.890  28.668  1.00  0.00     0.031 A 
ATOM     37  C   UNL A   1      40.880  26.492  28.271  1.00  0.00     0.074 A 
ATOM     38  C   UNL A   1      41.569  28.655  29.178  1.00  0.00     0.049 A 
ATOM     39  N   UNL A   1      41.857  25.793  28.748  1.00  0.00    -0.248 NA
ATOM     40  C   UNL A   1      40.063  25.751  27.317  1.00  0.00     0.031 C 
ATOM     41  C   UNL A   1      43.000  28.373  29.135  1.00  0.00     0.029 A 
ATOM     42  N   UNL A   1      41.469  29.771  30.001  1.00  0.00    -0.354 N 
ATOM     43  C   UNL A   1      41.970  24.651  27.988  1.00  0.00     0.074 A 
ATOM     44  C   UNL A   1      40.798  24.649  27.143  1.00  0.00     0.031 C 
ATOM     45  C   UNL A   1      43.624  29.128  30.053  1.00  0.00     0.029 A 
ATOM     46  C   UNL A   1      42.603  29.811  30.826  1.00  0.00     0.049 A 
ATOM     47  H   UNL A   1      40.730  30.422  30.005  1.00  0.00     0.167 HD
ATOM     48  C   UNL A   1      43.105  23.895  28.058  1.00  0.00     0.037 A 
ATOM     49  C   UNL A   1      42.502  29.754  32.187  1.00  0.00     0.037 A 
ATOM     50  C   UNL A   1      44.046  24.430  29.038  1.00  0.00     0.049 A 
ATOM     51  C   UNL A   1      43.161  28.544  32.811  1.00  0.00     0.074 A 
ATOM     52  C   UNL A   1      45.147  25.264  28.918  1.00  0.00     0.029 A 
ATOM     53  N   UNL A   1      43.745  24.369  30.393  1.00  0.00    -0.354 N 
ATOM     54  N   UNL A   1      43.557  27.501  32.136  1.00  0.00    -0.248 NA
ATOM     55  C   UNL A   1      43.404  28.396  34.246  1.00  0.00     0.031 C 
ATOM     56  C   UNL A   1      45.478  25.748  30.206  1.00  0.00     0.029 A 
ATOM     57  C   UNL A   1      44.588  25.198  31.112  1.00  0.00     0.049 A 
ATOM     58  H   UNL A   1      43.033  23.815  30.787  1.00  0.00     0.167 HD
ATOM     59  C   UNL A   1      44.044  26.550  32.996  1.00  0.00     0.074 A 
ATOM     60  C   UNL A   1      43.960  27.173  34.303  1.00  0.00     0.031 C 
ATOM     61  C   UNL A   1      44.458  25.324  32.556  1.00  0.00     0.037 A 
BRANCH  48  62
ATOM     62  C   UNL A   1      43.473  22.865  27.009  1.00  0.00     0.058 A 
ATOM     63  C   UNL A   1      42.786  21.634  26.925  1.00  0.00     0.135 A 
ATOM     64  C   UNL A   1      44.538  23.007  26.099  1.00  0.00     0.135 A 
ATOM     65  F   UNL A   1      41.685  21.391  27.648  1.00  0.00    -0.206 F 
ATOM     66  C   UNL A   1      43.206  20.582  26.109  1.00  0.00     0.059 A 
ATOM     67  C   UNL A   1      45.014  21.951  25.312  1.00  0.00     0.059 A 
ATOM     68  F   UNL A   1      45.138  24.193  25.917  1.00  0.00    -0.206 F 
ATOM     69  C   UNL A   1      44.349  20.733  25.339  1.00  0.00     0.060 A 
BRANCH  69  70
ATOM     70  S   UNL A   1      44.950  19.318  24.396  1.00  0.00     0.124 S 
ATOM     71  O   UNL A   1      46.394  19.411  24.581  1.00  0.00    -0.237 OA
ATOM     72  O   UNL A   1      44.294  18.203  25.070  1.00  0.00    -0.237 OA
ATOM     73  O   UNL A   1      44.484  19.592  23.039  1.00  0.00    -0.744 OA
ENDBRANCH  69  70
ENDBRANCH  48  62
BRANCH  49  74
ATOM     74  C   UNL A   1      41.304  30.459  32.716  1.00  0.00     0.058 A 
ATOM     75  C   UNL A   1      40.183  29.667  33.027  1.00  0.00     0.135 A 
ATOM     76  C   UNL A   1      41.414  31.710  33.337  1.00  0.00     0.135 A 
ATOM     77  F   UNL A   1      40.020  28.471  32.440  1.00  0.00    -0.206 F 
ATOM     78  C   UNL A   1      39.310  30.015  34.050  1.00  0.00     0.059 A 
ATOM     79  C   UNL A   1      40.545  32.082  34.364  1.00  0.00     0.059 A 
ATOM     80  F   UNL A   1      42.458  32.509  33.069  1.00  0.00    -0.206 F 
ATOM     81  C   UNL A   1      39.549  31.188  34.764  1.00  0.00     0.060 A 
BRANCH  81  82
ATOM     82  S   UNL A   1      38.672  31.405  36.330  1.00  0.00     0.124 S 
ATOM     83  O   UNL A   1      37.558  32.263  35.940  1.00  0.00    -0.237 OA
ATOM     84  O   UNL A   1      38.318  30.025  36.659  1.00  0.00    -0.237 OA
ATOM     85  O   UNL A   1      39.675  32.022  37.191  1.00  0.00    -0.744 OA
ENDBRANCH  81  82
ENDBRANCH  49  74
BRANCH  61  86
ATOM     86  C   UNL A   1      44.858  24.158  33.425  1.00  0.00     0.058 A 
ATOM     87  C   UNL A   1      44.036  23.049  33.680  1.00  0.00     0.135 A 
ATOM     88  C   UNL A   1      46.182  24.064  33.923  1.00  0.00     0.135 A 
ATOM     89  F   UNL A   1      42.795  22.973  33.176  1.00  0.00    -0.206 F 
ATOM     90  C   UNL A   1      44.469  21.951  34.426  1.00  0.00     0.059 A 
ATOM     91  C   UNL A   1      46.652  22.957  34.624  1.00  0.00     0.059 A 
ATOM     92  F   UNL A   1      47.070  25.053  33.734  1.00  0.00    -0.206 F 
ATOM     93  C   UNL A   1      45.780  21.912  34.893  1.00  0.00     0.060 A 
BRANCH  93  94
ATOM     94  S   UNL A   1      46.380  20.473  35.798  1.00  0.00     0.124 S 
ATOM     95  O   UNL A   1      45.970  20.794  37.161  1.00  0.00    -0.237 OA
ATOM     96  O   UNL A   1      45.664  19.366  35.170  1.00  0.00    -0.237 OA
ATOM     97  O   UNL A   1      47.817  20.502  35.544  1.00  0.00    -0.744 OA
ENDBRANCH  93  94
ENDBRANCH  61  86
ENDBRANCH  35  36
ENDBRANCH  27  30
ENDBRANCH  25  26
ENDBRANCH   1  25
TORSDOF 16
ENDMDL
