MODEL 1
REMARK VINA RESULT:     -10.4      0.000      0.000
REMARK SMILES C[C@H]1OCC[C@H]1C(=O)Nc1ccsc1C(=O)NCCCNC(=O)c1ccc(-c2c3nc(c(-c4c(F)cc(S(=O)(=O)[O-])cc4F)c4ccc([nH]4)c(-c4c(F)cc(S(=O)(=O)[O-])cc4F)c4nc(c(-c5c(F)cc(S(=O)(=O)[O-])cc5F)c5ccc2[nH]5)C=C4)C=C3)cc1
REMARK SMILES IDX 19 1 18 2 17 3 15 4 16 5 14 7 10 8 11 9 12 10 13 11 9 12
REMARK SMILES IDX 7 13 8 14 6 16 1 17 2 18 3 19 4 20 5 21 20 22 21 23 22 24
REMARK SMILES IDX 23 26 24 27 25 28 89 29 26 30 88 31 27 32 28 33 29 34 82 35
REMARK SMILES IDX 30 36 87 37 81 38 83 39 31 40 86 41 80 42 79 43 32 45 66 46
REMARK SMILES IDX 45 47 65 48 46 49 49 50 64 51 84 52 47 53 48 54 63 56 85 57
REMARK SMILES IDX 50 58 33 59 34 60 43 61 35 62 36 63 42 64 44 65 37 66 38 67
REMARK SMILES IDX 39 68 40 69 41 70 67 71 68 72 77 73 69 74 70 75 76 76 78 77
REMARK SMILES IDX 71 78 72 79 73 80 74 81 75 82 51 83 52 84 61 85 53 86 54 87
REMARK SMILES IDX 60 88 62 89 55 90 56 91 57 92 58 93 59 94
REMARK H PARENT 17 6 9 15 21 25 83 44 49 55
REMARK Flexibility Score: inf
ROOT
ATOM      1  C   UNL A   1      34.792  32.514  30.057  1.00  0.00     0.042 C 
ENDROOT
BRANCH   1   2
ATOM      2  C   UNL A   1      34.324  33.717  30.841  1.00  0.00     0.118 C 
BRANCH   2   3
ATOM      3  N   UNL A   1      34.158  33.544  32.259  1.00  0.00    -0.351 N 
ATOM      4  C   UNL A   1      35.091  33.352  33.253  1.00  0.00     0.263 C 
ATOM      5  O   UNL A   1      34.594  33.279  34.383  1.00  0.00    -0.268 OA
ATOM      6  H   UNL A   1      33.224  33.565  32.569  1.00  0.00     0.163 HD
BRANCH   4   7
ATOM      7  C   UNL A   1      36.536  33.218  33.014  1.00  0.00     0.115 A 
ATOM      8  C   UNL A   1      37.475  32.185  33.021  1.00  0.00     0.065 A 
ATOM      9  C   UNL A   1      38.769  32.636  32.613  1.00  0.00     0.038 A 
ATOM     10  C   UNL A   1      38.834  33.989  32.405  1.00  0.00     0.068 A 
ATOM     11  S   UNL A   1      37.331  34.729  32.652  1.00  0.00    -0.137 S 
BRANCH   8  12
ATOM     12  N   UNL A   1      37.194  30.839  33.169  1.00  0.00    -0.324 N 
ATOM     13  C   UNL A   1      38.014  29.751  33.246  1.00  0.00     0.230 C 
ATOM     14  O   UNL A   1      37.434  28.672  33.441  1.00  0.00    -0.274 OA
ATOM     15  H   UNL A   1      36.235  30.630  33.230  1.00  0.00     0.169 HD
BRANCH  13  16
ATOM     16  C   UNL A   1      39.546  29.740  33.208  1.00  0.00     0.110 C 
ATOM     17  C   UNL A   1      39.482  30.617  35.623  1.00  0.00     0.039 C 
ATOM     18  C   UNL A   1      40.250  29.884  34.540  1.00  0.00     0.127 C 
ATOM     19  O   UNL A   1      40.617  28.557  34.936  1.00  0.00    -0.378 OA
ATOM     20  C   UNL A   1      40.838  27.786  33.743  1.00  0.00     0.161 C 
ATOM     21  C   UNL A   1      40.258  28.562  32.576  1.00  0.00     0.044 C 
ENDBRANCH  13  16
ENDBRANCH   8  12
ENDBRANCH   4   7
ENDBRANCH   2   3
ENDBRANCH   1   2
BRANCH   1  22
ATOM     22  C   UNL A   1      34.425  32.532  28.591  1.00  0.00     0.118 C 
BRANCH  22  23
ATOM     23  N   UNL A   1      33.870  31.278  28.105  1.00  0.00    -0.352 N 
ATOM     24  C   UNL A   1      34.459  30.054  27.857  1.00  0.00     0.251 C 
ATOM     25  H   UNL A   1      32.903  31.307  27.920  1.00  0.00     0.163 HD
ATOM     26  O   UNL A   1      33.793  29.163  27.348  1.00  0.00    -0.269 OA
BRANCH  24  27
ATOM     27  C   UNL A   1      35.891  29.827  28.166  1.00  0.00     0.039 A 
ATOM     28  C   UNL A   1      36.254  29.333  29.422  1.00  0.00     0.014 A 
ATOM     29  C   UNL A   1      36.883  30.096  27.228  1.00  0.00     0.014 A 
ATOM     30  C   UNL A   1      37.594  29.032  29.692  1.00  0.00     0.010 A 
ATOM     31  C   UNL A   1      38.178  29.645  27.434  1.00  0.00     0.010 A 
ATOM     32  C   UNL A   1      38.563  29.141  28.682  1.00  0.00    -0.014 A 
BRANCH  32  33
ATOM     33  C   UNL A   1      39.995  28.809  28.908  1.00  0.00     0.031 A 
ATOM     34  C   UNL A   1      40.926  29.870  29.449  1.00  0.00     0.074 A 
ATOM     35  C   UNL A   1      40.479  27.601  28.555  1.00  0.00     0.049 A 
ATOM     36  N   UNL A   1      42.225  29.836  29.595  1.00  0.00    -0.248 NA
ATOM     37  C   UNL A   1      40.321  31.158  29.830  1.00  0.00     0.031 C 
ATOM     38  C   UNL A   1      39.698  26.510  27.965  1.00  0.00     0.029 A 
ATOM     39  N   UNL A   1      41.750  27.089  28.632  1.00  0.00    -0.354 N 
ATOM     40  C   UNL A   1      42.589  31.100  30.047  1.00  0.00     0.074 A 
ATOM     41  C   UNL A   1      41.388  31.902  30.076  1.00  0.00     0.031 C 
ATOM     42  C   UNL A   1      40.499  25.451  27.766  1.00  0.00     0.029 A 
ATOM     43  C   UNL A   1      41.857  25.798  28.172  1.00  0.00     0.049 A 
ATOM     44  H   UNL A   1      42.515  27.600  28.985  1.00  0.00     0.167 HD
ATOM     45  C   UNL A   1      43.804  31.547  30.441  1.00  0.00     0.037 A 
ATOM     46  C   UNL A   1      42.930  24.987  28.083  1.00  0.00     0.037 A 
ATOM     47  C   UNL A   1      44.984  30.725  30.469  1.00  0.00     0.049 A 
ATOM     48  C   UNL A   1      44.267  25.492  28.557  1.00  0.00     0.074 A 
ATOM     49  C   UNL A   1      46.250  31.053  30.916  1.00  0.00     0.029 A 
ATOM     50  N   UNL A   1      45.037  29.406  30.042  1.00  0.00    -0.354 N 
ATOM     51  N   UNL A   1      44.580  26.673  29.036  1.00  0.00    -0.248 NA
ATOM     52  C   UNL A   1      45.395  24.553  28.491  1.00  0.00     0.031 C 
ATOM     53  C   UNL A   1      47.082  29.945  30.721  1.00  0.00     0.029 A 
ATOM     54  C   UNL A   1      46.319  28.909  30.204  1.00  0.00     0.049 A 
ATOM     55  H   UNL A   1      44.277  28.898  29.678  1.00  0.00     0.167 HD
ATOM     56  C   UNL A   1      45.930  26.606  29.362  1.00  0.00     0.074 A 
ATOM     57  C   UNL A   1      46.371  25.267  29.034  1.00  0.00     0.031 C 
ATOM     58  C   UNL A   1      46.732  27.565  29.889  1.00  0.00     0.037 A 
BRANCH  45  59
ATOM     59  C   UNL A   1      43.912  32.978  30.894  1.00  0.00     0.058 A 
ATOM     60  C   UNL A   1      44.230  34.015  30.001  1.00  0.00     0.135 A 
ATOM     61  C   UNL A   1      43.672  33.323  32.234  1.00  0.00     0.135 A 
ATOM     62  F   UNL A   1      44.488  33.743  28.712  1.00  0.00    -0.206 F 
ATOM     63  C   UNL A   1      44.339  35.335  30.425  1.00  0.00     0.059 A 
ATOM     64  C   UNL A   1      43.742  34.643  32.673  1.00  0.00     0.059 A 
ATOM     65  F   UNL A   1      43.367  32.374  33.133  1.00  0.00    -0.206 F 
ATOM     66  C   UNL A   1      44.091  35.639  31.764  1.00  0.00     0.060 A 
BRANCH  66  67
ATOM     67  S   UNL A   1      44.226  37.359  32.294  1.00  0.00     0.124 S 
ATOM     68  O   UNL A   1      43.795  38.068  31.094  1.00  0.00    -0.237 OA
ATOM     69  O   UNL A   1      43.304  37.409  33.424  1.00  0.00    -0.237 OA
ATOM     70  O   UNL A   1      45.638  37.500  32.635  1.00  0.00    -0.744 OA
ENDBRANCH  66  67
ENDBRANCH  45  59
BRANCH  46  71
ATOM     71  C   UNL A   1      42.779  23.602  27.558  1.00  0.00     0.058 A 
ATOM     72  C   UNL A   1      42.523  22.527  28.422  1.00  0.00     0.135 A 
ATOM     73  C   UNL A   1      42.878  23.325  26.185  1.00  0.00     0.135 A 
ATOM     74  F   UNL A   1      42.423  22.737  29.744  1.00  0.00    -0.206 F 
ATOM     75  C   UNL A   1      42.395  21.224  27.950  1.00  0.00     0.059 A 
ATOM     76  C   UNL A   1      42.726  22.035  25.686  1.00  0.00     0.059 A 
ATOM     77  F   UNL A   1      43.103  24.320  25.312  1.00  0.00    -0.206 F 
ATOM     78  C   UNL A   1      42.497  20.988  26.578  1.00  0.00     0.060 A 
BRANCH  78  79
ATOM     79  S   UNL A   1      42.288  19.300  25.972  1.00  0.00     0.124 S 
ATOM     80  O   UNL A   1      42.738  18.519  27.118  1.00  0.00    -0.237 OA
ATOM     81  O   UNL A   1      40.857  19.252  25.687  1.00  0.00    -0.237 OA
ATOM     82  O   UNL A   1      43.154  19.256  24.797  1.00  0.00    -0.744 OA
ENDBRANCH  78  79
ENDBRANCH  46  71
BRANCH  58  83
ATOM     83  C   UNL A   1      48.154  27.188  30.199  1.00  0.00     0.058 A 
ATOM     84  C   UNL A   1      49.199  27.422  29.294  1.00  0.00     0.135 A 
ATOM     85  C   UNL A   1      48.479  26.636  31.450  1.00  0.00     0.135 A 
ATOM     86  F   UNL A   1      48.941  27.945  28.084  1.00  0.00    -0.206 F 
ATOM     87  C   UNL A   1      50.514  27.098  29.606  1.00  0.00     0.059 A 
ATOM     88  C   UNL A   1      49.792  26.333  31.795  1.00  0.00     0.059 A 
ATOM     89  F   UNL A   1      47.519  26.405  32.358  1.00  0.00    -0.206 F 
ATOM     90  C   UNL A   1      50.802  26.555  30.860  1.00  0.00     0.060 A 
BRANCH  90  91
ATOM     91  S   UNL A   1      52.517  26.167  31.264  1.00  0.00     0.124 S 
ATOM     92  O   UNL A   1      53.142  26.192  29.946  1.00  0.00    -0.237 OA
ATOM     93  O   UNL A   1      52.882  27.261  32.158  1.00  0.00    -0.237 OA
ATOM     94  O   UNL A   1      52.430  24.853  31.893  1.00  0.00    -0.744 OA
ENDBRANCH  90  91
ENDBRANCH  58  83
ENDBRANCH  32  33
ENDBRANCH  24  27
ENDBRANCH  22  23
ENDBRANCH   1  22
TORSDOF 15
ENDMDL
MODEL 2
REMARK VINA RESULT:     -10.2      5.114     11.801
REMARK SMILES C[C@H]1OCC[C@H]1C(=O)Nc1ccsc1C(=O)NCCCNC(=O)c1ccc(-c2c3nc(c(-c4c(F)cc(S(=O)(=O)[O-])cc4F)c4ccc([nH]4)c(-c4c(F)cc(S(=O)(=O)[O-])cc4F)c4nc(c(-c5c(F)cc(S(=O)(=O)[O-])cc5F)c5ccc2[nH]5)C=C4)C=C3)cc1
REMARK SMILES IDX 19 1 18 2 17 3 15 4 16 5 14 7 10 8 11 9 12 10 13 11 9 12
REMARK SMILES IDX 7 13 8 14 6 16 1 17 2 18 3 19 4 20 5 21 20 22 21 23 22 24
REMARK SMILES IDX 23 26 24 27 25 28 89 29 26 30 88 31 27 32 28 33 29 34 82 35
REMARK SMILES IDX 30 36 87 37 81 38 83 39 31 40 86 41 80 42 79 43 32 45 66 46
REMARK SMILES IDX 45 47 65 48 46 49 49 50 64 51 84 52 47 53 48 54 63 56 85 57
REMARK SMILES IDX 50 58 33 59 34 60 43 61 35 62 36 63 42 64 44 65 37 66 38 67
REMARK SMILES IDX 39 68 40 69 41 70 67 71 68 72 77 73 69 74 70 75 76 76 78 77
REMARK SMILES IDX 71 78 72 79 73 80 74 81 75 82 51 83 52 84 61 85 53 86 54 87
REMARK SMILES IDX 60 88 62 89 55 90 56 91 57 92 58 93 59 94
REMARK H PARENT 17 6 9 15 21 25 83 44 49 55
REMARK Flexibility Score: inf
ROOT
ATOM      1  C   UNL A   1      37.359  23.384  25.809  1.00  0.00     0.042 C 
ENDROOT
BRANCH   1   2
ATOM      2  C   UNL A   1      35.904  23.762  25.945  1.00  0.00     0.118 C 
BRANCH   2   3
ATOM      3  N   UNL A   1      35.139  23.058  26.938  1.00  0.00    -0.351 N 
ATOM      4  C   UNL A   1      33.817  22.674  26.945  1.00  0.00     0.263 C 
ATOM      5  O   UNL A   1      33.496  22.043  27.959  1.00  0.00    -0.268 OA
ATOM      6  H   UNL A   1      35.644  22.811  27.747  1.00  0.00     0.163 HD
BRANCH   4   7
ATOM      7  C   UNL A   1      32.859  22.996  25.877  1.00  0.00     0.115 A 
ATOM      8  C   UNL A   1      31.829  23.918  25.681  1.00  0.00     0.065 A 
ATOM      9  C   UNL A   1      31.274  23.827  24.366  1.00  0.00     0.038 A 
ATOM     10  C   UNL A   1      31.794  22.799  23.625  1.00  0.00     0.068 A 
ATOM     11  S   UNL A   1      32.989  21.957  24.481  1.00  0.00    -0.137 S 
BRANCH   8  12
ATOM     12  N   UNL A   1      31.505  24.960  26.529  1.00  0.00    -0.324 N 
ATOM     13  C   UNL A   1      31.846  26.281  26.506  1.00  0.00     0.230 C 
ATOM     14  O   UNL A   1      31.329  26.971  27.398  1.00  0.00    -0.274 OA
ATOM     15  H   UNL A   1      30.925  24.704  27.282  1.00  0.00     0.169 HD
BRANCH  13  16
ATOM     16  C   UNL A   1      32.709  26.997  25.461  1.00  0.00     0.110 C 
ATOM     17  C   UNL A   1      30.529  27.497  24.194  1.00  0.00     0.039 C 
ATOM     18  C   UNL A   1      31.972  27.873  24.470  1.00  0.00     0.127 C 
ATOM     19  O   UNL A   1      32.101  29.214  24.958  1.00  0.00    -0.378 OA
ATOM     20  C   UNL A   1      33.345  29.304  25.673  1.00  0.00     0.161 C 
ATOM     21  C   UNL A   1      33.837  27.893  25.928  1.00  0.00     0.044 C 
ENDBRANCH  13  16
ENDBRANCH   8  12
ENDBRANCH   4   7
ENDBRANCH   2   3
ENDBRANCH   1   2
BRANCH   1  22
ATOM     22  C   UNL A   1      38.322  24.308  26.519  1.00  0.00     0.118 C 
BRANCH  22  23
ATOM     23  N   UNL A   1      39.706  24.158  26.095  1.00  0.00    -0.352 N 
ATOM     24  C   UNL A   1      40.863  24.779  26.521  1.00  0.00     0.251 C 
ATOM     25  H   UNL A   1      39.842  23.498  25.378  1.00  0.00     0.163 HD
ATOM     26  O   UNL A   1      41.913  24.555  25.933  1.00  0.00    -0.269 OA
BRANCH  24  27
ATOM     27  C   UNL A   1      40.836  25.738  27.652  1.00  0.00     0.039 A 
ATOM     28  C   UNL A   1      41.799  26.748  27.719  1.00  0.00     0.014 A 
ATOM     29  C   UNL A   1      39.868  25.653  28.648  1.00  0.00     0.014 A 
ATOM     30  C   UNL A   1      41.730  27.711  28.733  1.00  0.00     0.010 A 
ATOM     31  C   UNL A   1      39.700  26.694  29.547  1.00  0.00     0.010 A 
ATOM     32  C   UNL A   1      40.649  27.720  29.630  1.00  0.00    -0.014 A 
BRANCH  32  33
ATOM     33  C   UNL A   1      40.513  28.735  30.708  1.00  0.00     0.031 A 
ATOM     34  C   UNL A   1      41.378  28.627  31.943  1.00  0.00     0.074 A 
ATOM     35  C   UNL A   1      39.570  29.694  30.626  1.00  0.00     0.049 A 
ATOM     36  N   UNL A   1      41.331  29.320  33.051  1.00  0.00    -0.248 NA
ATOM     37  C   UNL A   1      42.400  27.565  31.951  1.00  0.00     0.031 C 
ATOM     38  C   UNL A   1      38.629  29.870  29.516  1.00  0.00     0.029 A 
ATOM     39  N   UNL A   1      39.237  30.700  31.500  1.00  0.00    -0.354 N 
ATOM     40  C   UNL A   1      42.285  28.755  33.891  1.00  0.00     0.074 A 
ATOM     41  C   UNL A   1      42.840  27.616  33.198  1.00  0.00     0.031 C 
ATOM     42  C   UNL A   1      37.852  30.938  29.761  1.00  0.00     0.029 A 
ATOM     43  C   UNL A   1      38.205  31.497  31.062  1.00  0.00     0.049 A 
ATOM     44  H   UNL A   1      39.695  30.837  32.361  1.00  0.00     0.167 HD
ATOM     45  C   UNL A   1      42.694  29.168  35.113  1.00  0.00     0.037 A 
ATOM     46  C   UNL A   1      37.610  32.555  31.645  1.00  0.00     0.037 A 
ATOM     47  C   UNL A   1      42.181  30.340  35.771  1.00  0.00     0.049 A 
ATOM     48  C   UNL A   1      38.101  33.018  32.991  1.00  0.00     0.074 A 
ATOM     49  C   UNL A   1      42.573  30.890  36.977  1.00  0.00     0.029 A 
ATOM     50  N   UNL A   1      41.172  31.149  35.269  1.00  0.00    -0.354 N 
ATOM     51  N   UNL A   1      39.045  32.506  33.746  1.00  0.00    -0.248 NA
ATOM     52  C   UNL A   1      37.457  34.210  33.562  1.00  0.00     0.031 C 
ATOM     53  C   UNL A   1      41.772  32.009  37.227  1.00  0.00     0.029 A 
ATOM     54  C   UNL A   1      40.920  32.188  36.148  1.00  0.00     0.049 A 
ATOM     55  H   UNL A   1      40.705  31.006  34.415  1.00  0.00     0.167 HD
ATOM     56  C   UNL A   1      39.133  33.333  34.860  1.00  0.00     0.074 A 
ATOM     57  C   UNL A   1      38.152  34.382  34.677  1.00  0.00     0.031 C 
ATOM     58  C   UNL A   1      39.953  33.235  35.936  1.00  0.00     0.037 A 
BRANCH  45  59
ATOM     59  C   UNL A   1      43.760  28.362  35.806  1.00  0.00     0.058 A 
ATOM     60  C   UNL A   1      45.128  28.627  35.619  1.00  0.00     0.135 A 
ATOM     61  C   UNL A   1      43.412  27.326  36.688  1.00  0.00     0.135 A 
ATOM     62  F   UNL A   1      45.521  29.593  34.774  1.00  0.00    -0.206 F 
ATOM     63  C   UNL A   1      46.109  27.873  36.253  1.00  0.00     0.059 A 
ATOM     64  C   UNL A   1      44.378  26.581  37.359  1.00  0.00     0.059 A 
ATOM     65  F   UNL A   1      42.121  27.026  36.903  1.00  0.00    -0.206 F 
ATOM     66  C   UNL A   1      45.724  26.853  37.124  1.00  0.00     0.060 A 
BRANCH  66  67
ATOM     67  S   UNL A   1      47.012  25.892  37.946  1.00  0.00     0.124 S 
ATOM     68  O   UNL A   1      48.221  26.493  37.393  1.00  0.00    -0.237 OA
ATOM     69  O   UNL A   1      46.755  26.170  39.355  1.00  0.00    -0.237 OA
ATOM     70  O   UNL A   1      46.740  24.523  37.521  1.00  0.00    -0.744 OA
ENDBRANCH  66  67
ENDBRANCH  45  59
BRANCH  46  71
ATOM     71  C   UNL A   1      36.508  33.273  30.946  1.00  0.00     0.058 A 
ATOM     72  C   UNL A   1      35.180  33.156  31.383  1.00  0.00     0.135 A 
ATOM     73  C   UNL A   1      36.759  34.095  29.836  1.00  0.00     0.135 A 
ATOM     74  F   UNL A   1      34.886  32.380  32.437  1.00  0.00    -0.206 F 
ATOM     75  C   UNL A   1      34.137  33.808  30.733  1.00  0.00     0.059 A 
ATOM     76  C   UNL A   1      35.736  34.780  29.186  1.00  0.00     0.059 A 
ATOM     77  F   UNL A   1      38.014  34.258  29.389  1.00  0.00    -0.206 F 
ATOM     78  C   UNL A   1      34.425  34.619  29.634  1.00  0.00     0.060 A 
BRANCH  78  79
ATOM     79  S   UNL A   1      33.069  35.492  28.822  1.00  0.00     0.124 S 
ATOM     80  O   UNL A   1      32.316  35.993  29.966  1.00  0.00    -0.237 OA
ATOM     81  O   UNL A   1      33.780  36.496  28.035  1.00  0.00    -0.237 OA
ATOM     82  O   UNL A   1      32.415  34.446  28.043  1.00  0.00    -0.744 OA
ENDBRANCH  78  79
ENDBRANCH  46  71
BRANCH  58  83
ATOM     83  C   UNL A   1      39.869  34.320  36.974  1.00  0.00     0.058 A 
ATOM     84  C   UNL A   1      40.587  35.518  36.856  1.00  0.00     0.135 A 
ATOM     85  C   UNL A   1      39.006  34.177  38.074  1.00  0.00     0.135 A 
ATOM     86  F   UNL A   1      41.428  35.704  35.825  1.00  0.00    -0.206 F 
ATOM     87  C   UNL A   1      40.476  36.527  37.806  1.00  0.00     0.059 A 
ATOM     88  C   UNL A   1      38.855  35.185  39.019  1.00  0.00     0.059 A 
ATOM     89  F   UNL A   1      38.284  33.056  38.226  1.00  0.00    -0.206 F 
ATOM     90  C   UNL A   1      39.605  36.352  38.883  1.00  0.00     0.060 A 
BRANCH  90  91
ATOM     91  S   UNL A   1      39.446  37.682  40.093  1.00  0.00     0.124 S 
ATOM     92  O   UNL A   1      38.276  38.395  39.594  1.00  0.00    -0.237 OA
ATOM     93  O   UNL A   1      39.256  36.947  41.340  1.00  0.00    -0.237 OA
ATOM     94  O   UNL A   1      40.714  38.397  39.982  1.00  0.00    -0.744 OA
ENDBRANCH  90  91
ENDBRANCH  58  83
ENDBRANCH  32  33
ENDBRANCH  24  27
ENDBRANCH  22  23
ENDBRANCH   1  22
TORSDOF 15
ENDMDL
MODEL 3
REMARK VINA RESULT:     -10.2      3.351      6.082
REMARK SMILES C[C@H]1OCC[C@H]1C(=O)Nc1ccsc1C(=O)NCCCNC(=O)c1ccc(-c2c3nc(c(-c4c(F)cc(S(=O)(=O)[O-])cc4F)c4ccc([nH]4)c(-c4c(F)cc(S(=O)(=O)[O-])cc4F)c4nc(c(-c5c(F)cc(S(=O)(=O)[O-])cc5F)c5ccc2[nH]5)C=C4)C=C3)cc1
REMARK SMILES IDX 19 1 18 2 17 3 15 4 16 5 14 7 10 8 11 9 12 10 13 11 9 12
REMARK SMILES IDX 7 13 8 14 6 16 1 17 2 18 3 19 4 20 5 21 20 22 21 23 22 24
REMARK SMILES IDX 23 26 24 27 25 28 89 29 26 30 88 31 27 32 28 33 29 34 82 35
REMARK SMILES IDX 30 36 87 37 81 38 83 39 31 40 86 41 80 42 79 43 32 45 66 46
REMARK SMILES IDX 45 47 65 48 46 49 49 50 64 51 84 52 47 53 48 54 63 56 85 57
REMARK SMILES IDX 50 58 33 59 34 60 43 61 35 62 36 63 42 64 44 65 37 66 38 67
REMARK SMILES IDX 39 68 40 69 41 70 67 71 68 72 77 73 69 74 70 75 76 76 78 77
REMARK SMILES IDX 71 78 72 79 73 80 74 81 75 82 51 83 52 84 61 85 53 86 54 87
REMARK SMILES IDX 60 88 62 89 55 90 56 91 57 92 58 93 59 94
REMARK H PARENT 17 6 9 15 21 25 83 44 49 55
REMARK Flexibility Score: inf
ROOT
ATOM      1  C   UNL A   1      33.749  28.037  25.133  1.00  0.00     0.042 C 
ENDROOT
BRANCH   1   2
ATOM      2  C   UNL A   1      33.131  26.718  24.736  1.00  0.00     0.118 C 
BRANCH   2   3
ATOM      3  N   UNL A   1      32.825  26.537  23.343  1.00  0.00    -0.351 N 
ATOM      4  C   UNL A   1      32.517  25.397  22.634  1.00  0.00     0.263 C 
ATOM      5  O   UNL A   1      32.268  25.614  21.442  1.00  0.00    -0.268 OA
ATOM      6  H   UNL A   1      32.838  27.363  22.808  1.00  0.00     0.163 HD
BRANCH   4   7
ATOM      7  C   UNL A   1      32.507  24.045  23.211  1.00  0.00     0.115 A 
ATOM      8  C   UNL A   1      33.381  22.956  23.263  1.00  0.00     0.065 A 
ATOM      9  C   UNL A   1      32.861  21.892  24.066  1.00  0.00     0.038 A 
ATOM     10  C   UNL A   1      31.589  22.124  24.521  1.00  0.00     0.068 A 
ATOM     11  S   UNL A   1      31.020  23.641  24.029  1.00  0.00    -0.137 S 
BRANCH   8  12
ATOM     12  N   UNL A   1      34.687  22.945  22.811  1.00  0.00    -0.324 N 
ATOM     13  C   UNL A   1      35.874  22.962  23.484  1.00  0.00     0.230 C 
ATOM     14  O   UNL A   1      36.883  22.883  22.767  1.00  0.00    -0.274 OA
ATOM     15  H   UNL A   1      34.776  22.922  21.832  1.00  0.00     0.169 HD
BRANCH  13  16
ATOM     16  C   UNL A   1      36.078  22.974  25.003  1.00  0.00     0.110 C 
ATOM     17  C   UNL A   1      36.073  20.407  24.894  1.00  0.00     0.039 C 
ATOM     18  C   UNL A   1      36.492  21.663  25.634  1.00  0.00     0.127 C 
ATOM     19  O   UNL A   1      37.911  21.742  25.813  1.00  0.00    -0.378 OA
ATOM     20  C   UNL A   1      38.253  23.124  26.013  1.00  0.00     0.161 C 
ATOM     21  C   UNL A   1      37.057  23.961  25.606  1.00  0.00     0.044 C 
ENDBRANCH  13  16
ENDBRANCH   8  12
ENDBRANCH   4   7
ENDBRANCH   2   3
ENDBRANCH   1   2
BRANCH   1  22
ATOM     22  C   UNL A   1      34.017  28.190  26.612  1.00  0.00     0.118 C 
BRANCH  22  23
ATOM     23  N   UNL A   1      33.671  29.501  27.144  1.00  0.00    -0.352 N 
ATOM     24  C   UNL A   1      34.396  30.398  27.900  1.00  0.00     0.251 C 
ATOM     25  H   UNL A   1      32.759  29.799  26.925  1.00  0.00     0.163 HD
ATOM     26  O   UNL A   1      33.847  31.408  28.318  1.00  0.00    -0.269 OA
BRANCH  24  27
ATOM     27  C   UNL A   1      35.815  30.130  28.241  1.00  0.00     0.039 A 
ATOM     28  C   UNL A   1      36.134  29.629  29.506  1.00  0.00     0.014 A 
ATOM     29  C   UNL A   1      36.835  30.369  27.325  1.00  0.00     0.014 A 
ATOM     30  C   UNL A   1      37.459  29.290  29.807  1.00  0.00     0.010 A 
ATOM     31  C   UNL A   1      38.111  29.881  27.562  1.00  0.00     0.010 A 
ATOM     32  C   UNL A   1      38.453  29.368  28.818  1.00  0.00    -0.014 A 
BRANCH  32  33
ATOM     33  C   UNL A   1      39.870  28.995  29.077  1.00  0.00     0.031 A 
ATOM     34  C   UNL A   1      40.814  30.025  29.654  1.00  0.00     0.074 A 
ATOM     35  C   UNL A   1      40.330  27.779  28.723  1.00  0.00     0.049 A 
ATOM     36  N   UNL A   1      42.108  29.955  29.832  1.00  0.00    -0.248 NA
ATOM     37  C   UNL A   1      40.234  31.325  30.034  1.00  0.00     0.031 C 
ATOM     38  C   UNL A   1      39.535  26.716  28.101  1.00  0.00     0.029 A 
ATOM     39  N   UNL A   1      41.585  27.232  28.827  1.00  0.00    -0.354 N 
ATOM     40  C   UNL A   1      42.493  31.204  30.307  1.00  0.00     0.074 A 
ATOM     41  C   UNL A   1      41.313  32.037  30.314  1.00  0.00     0.031 C 
ATOM     42  C   UNL A   1      40.313  25.637  27.911  1.00  0.00     0.029 A 
ATOM     43  C   UNL A   1      41.669  25.943  28.355  1.00  0.00     0.049 A 
ATOM     44  H   UNL A   1      42.354  27.718  29.204  1.00  0.00     0.167 HD
ATOM     45  C   UNL A   1      43.709  31.613  30.737  1.00  0.00     0.037 A 
ATOM     46  C   UNL A   1      42.722  25.105  28.284  1.00  0.00     0.037 A 
ATOM     47  C   UNL A   1      44.865  30.760  30.786  1.00  0.00     0.049 A 
ATOM     48  C   UNL A   1      44.059  25.569  28.798  1.00  0.00     0.074 A 
ATOM     49  C   UNL A   1      46.129  31.049  31.269  1.00  0.00     0.029 A 
ATOM     50  N   UNL A   1      44.895  29.444  30.346  1.00  0.00    -0.354 N 
ATOM     51  N   UNL A   1      44.391  26.736  29.298  1.00  0.00    -0.248 NA
ATOM     52  C   UNL A   1      45.163  24.600  28.750  1.00  0.00     0.031 C 
ATOM     53  C   UNL A   1      46.935  29.921  31.082  1.00  0.00     0.029 A 
ATOM     54  C   UNL A   1      46.158  28.912  30.535  1.00  0.00     0.049 A 
ATOM     55  H   UNL A   1      44.131  28.961  29.957  1.00  0.00     0.167 HD
ATOM     56  C   UNL A   1      45.730  26.629  29.657  1.00  0.00     0.074 A 
ATOM     57  C   UNL A   1      46.144  25.282  29.325  1.00  0.00     0.031 C 
ATOM     58  C   UNL A   1      46.543  27.560  30.216  1.00  0.00     0.037 A 
BRANCH  45  59
ATOM     59  C   UNL A   1      43.844  33.037  31.209  1.00  0.00     0.058 A 
ATOM     60  C   UNL A   1      43.746  33.378  32.569  1.00  0.00     0.135 A 
ATOM     61  C   UNL A   1      44.099  34.071  30.294  1.00  0.00     0.135 A 
ATOM     62  F   UNL A   1      43.485  32.435  33.487  1.00  0.00    -0.206 F 
ATOM     63  C   UNL A   1      43.862  34.696  32.999  1.00  0.00     0.059 A 
ATOM     64  C   UNL A   1      44.253  35.391  30.707  1.00  0.00     0.059 A 
ATOM     65  F   UNL A   1      44.200  33.804  28.983  1.00  0.00    -0.206 F 
ATOM     66  C   UNL A   1      44.117  35.696  32.060  1.00  0.00     0.060 A 
BRANCH  66  67
ATOM     67  S   UNL A   1      44.275  37.398  32.638  1.00  0.00     0.124 S 
ATOM     68  O   UNL A   1      43.155  37.494  33.569  1.00  0.00    -0.237 OA
ATOM     69  O   UNL A   1      45.602  37.399  33.243  1.00  0.00    -0.237 OA
ATOM     70  O   UNL A   1      44.145  38.186  31.417  1.00  0.00    -0.744 OA
ENDBRANCH  66  67
ENDBRANCH  45  59
BRANCH  46  71
ATOM     71  C   UNL A   1      42.548  23.730  27.740  1.00  0.00     0.058 A 
ATOM     72  C   UNL A   1      42.470  23.507  26.357  1.00  0.00     0.135 A 
ATOM     73  C   UNL A   1      42.465  22.613  28.586  1.00  0.00     0.135 A 
ATOM     74  F   UNL A   1      42.540  24.541  25.505  1.00  0.00    -0.206 F 
ATOM     75  C   UNL A   1      42.292  22.230  25.832  1.00  0.00     0.059 A 
ATOM     76  C   UNL A   1      42.316  21.323  28.084  1.00  0.00     0.059 A 
ATOM     77  F   UNL A   1      42.554  22.768  29.916  1.00  0.00    -0.206 F 
ATOM     78  C   UNL A   1      42.217  21.143  26.704  1.00  0.00     0.060 A 
BRANCH  78  79
ATOM     79  S   UNL A   1      42.027  19.487  26.011  1.00  0.00     0.124 S 
ATOM     80  O   UNL A   1      40.593  19.440  25.751  1.00  0.00    -0.237 OA
ATOM     81  O   UNL A   1      42.888  19.547  24.834  1.00  0.00    -0.237 OA
ATOM     82  O   UNL A   1      42.504  18.618  27.083  1.00  0.00    -0.744 OA
ENDBRANCH  78  79
ENDBRANCH  46  71
BRANCH  58  83
ATOM     83  C   UNL A   1      47.946  27.141  30.557  1.00  0.00     0.058 A 
ATOM     84  C   UNL A   1      49.038  27.465  29.739  1.00  0.00     0.135 A 
ATOM     85  C   UNL A   1      48.204  26.456  31.756  1.00  0.00     0.135 A 
ATOM     86  F   UNL A   1      48.846  28.116  28.581  1.00  0.00    -0.206 F 
ATOM     87  C   UNL A   1      50.335  27.099  30.082  1.00  0.00     0.059 A 
ATOM     88  C   UNL A   1      49.496  26.108  32.135  1.00  0.00     0.059 A 
ATOM     89  F   UNL A   1      47.196  26.135  32.583  1.00  0.00    -0.206 F 
ATOM     90  C   UNL A   1      50.554  26.423  31.284  1.00  0.00     0.060 A 
BRANCH  90  91
ATOM     91  S   UNL A   1      52.246  25.981  31.734  1.00  0.00     0.124 S 
ATOM     92  O   UNL A   1      52.882  25.887  30.424  1.00  0.00    -0.237 OA
ATOM     93  O   UNL A   1      52.655  27.115  32.557  1.00  0.00    -0.237 OA
ATOM     94  O   UNL A   1      52.089  24.718  32.449  1.00  0.00    -0.744 OA
ENDBRANCH  90  91
ENDBRANCH  58  83
ENDBRANCH  32  33
ENDBRANCH  24  27
ENDBRANCH  22  23
ENDBRANCH   1  22
TORSDOF 15
ENDMDL
