MODEL 1
REMARK VINA RESULT:     -12.2      0.000      0.000
REMARK SMILES C[C@@H]1[C@H](C(=O)NCCCNC(=O)c2ccc(-c3c4nc(c(-c5c(F)cc(S(=O)(=O)[O-])cc5F)c5ccc([nH]5)c(-c5c(F)cc(S(=O)(=O)[O-])cc5F)c5nc(c(-c6c(F)cc(S(=O)(=O)[O-])cc6F)c6ccc3[nH]6)C=C5)C=C4)cc2)CC[N@@H+]1[C@@H](C)c1cc(F)cc(F)c1
REMARK SMILES IDX 8 1 7 2 6 3 4 4 5 5 3 7 1 8 2 9 81 10 79 11 80 12 82 14
REMARK SMILES IDX 83 15 84 16 85 17 91 18 86 19 89 20 87 21 88 22 90 23 9 24
REMARK SMILES IDX 10 25 11 26 12 28 13 29 14 30 78 31 15 32 77 33 16 34 17 35
REMARK SMILES IDX 18 36 71 37 19 38 76 39 70 40 72 41 20 42 75 43 69 44 68 45
REMARK SMILES IDX 21 47 55 48 34 49 54 50 35 51 38 52 53 53 73 54 36 55 37 56
REMARK SMILES IDX 52 58 74 59 39 60 22 61 23 62 32 63 24 64 25 65 31 66 33 67
REMARK SMILES IDX 26 68 27 69 28 70 29 71 30 72 56 73 57 74 66 75 58 76 59 77
REMARK SMILES IDX 65 78 67 79 60 80 61 81 62 82 63 83 64 84 40 85 41 86 50 87
REMARK SMILES IDX 42 88 43 89 49 90 51 91 44 92 45 93 46 94 47 95 48 96
REMARK H PARENT 6 6 81 13 10 27 72 46 38 57
REMARK Flexibility Score: inf
ROOT
ATOM      1  C   UNL A   1      33.715  29.019  27.289  1.00  0.00     0.042 C 
ENDROOT
BRANCH   1   2
ATOM      2  C   UNL A   1      32.981  29.847  26.239  1.00  0.00     0.117 C 
BRANCH   2   3
ATOM      3  N   UNL A   1      31.853  29.138  25.664  1.00  0.00    -0.356 N 
ATOM      4  C   UNL A   1      31.769  28.157  24.733  1.00  0.00     0.229 C 
ATOM      5  O   UNL A   1      30.628  27.784  24.436  1.00  0.00    -0.275 OA
ATOM      6  H   UNL A   1      30.981  29.426  26.017  1.00  0.00     0.163 HD
BRANCH   4   7
ATOM      7  C   UNL A   1      32.967  27.501  24.055  1.00  0.00     0.142 C 
ATOM      8  C   UNL A   1      33.087  25.827  26.065  1.00  0.00     0.076 C 
ATOM      9  C   UNL A   1      33.645  26.295  24.728  1.00  0.00     0.194 C 
ATOM     10  N   UNL A   1      33.848  25.316  23.660  1.00  0.00    -0.326 N 
ATOM     11  C   UNL A   1      32.787  27.139  22.585  1.00  0.00     0.081 C 
ATOM     12  C   UNL A   1      33.694  25.942  22.360  1.00  0.00     0.264 C 
ATOM     13  H   UNL A   1      34.816  25.030  23.805  1.00  0.00     0.348 HD
BRANCH  10  14
ATOM     14  C   UNL A   1      33.609  23.884  23.812  1.00  0.00     0.212 C 
ATOM     15  C   UNL A   1      33.050  23.225  22.544  1.00  0.00     0.081 C 
BRANCH  14  16
ATOM     16  C   UNL A   1      34.851  23.174  24.358  1.00  0.00     0.015 A 
ATOM     17  C   UNL A   1      35.991  23.857  24.820  1.00  0.00     0.049 A 
ATOM     18  C   UNL A   1      34.871  21.768  24.393  1.00  0.00     0.049 A 
ATOM     19  C   UNL A   1      37.105  23.152  25.272  1.00  0.00     0.126 A 
ATOM     20  C   UNL A   1      35.995  21.086  24.856  1.00  0.00     0.126 A 
ATOM     21  F   UNL A   1      38.180  23.831  25.697  1.00  0.00    -0.207 F 
ATOM     22  C   UNL A   1      37.121  21.768  25.291  1.00  0.00     0.078 A 
ATOM     23  F   UNL A   1      35.989  19.747  24.881  1.00  0.00    -0.207 F 
ENDBRANCH  14  16
ENDBRANCH  10  14
ENDBRANCH   4   7
ENDBRANCH   2   3
ENDBRANCH   1   2
BRANCH   1  24
ATOM     24  C   UNL A   1      35.121  29.505  27.601  1.00  0.00     0.118 C 
BRANCH  24  25
ATOM     25  N   UNL A   1      35.178  30.271  28.836  1.00  0.00    -0.352 N 
ATOM     26  C   UNL A   1      36.219  30.468  29.712  1.00  0.00     0.251 C 
ATOM     27  H   UNL A   1      34.337  30.719  29.084  1.00  0.00     0.163 HD
ATOM     28  O   UNL A   1      35.980  30.969  30.812  1.00  0.00    -0.269 OA
BRANCH  26  29
ATOM     29  C   UNL A   1      37.607  30.072  29.370  1.00  0.00     0.039 A 
ATOM     30  C   UNL A   1      38.528  29.877  30.405  1.00  0.00     0.014 A 
ATOM     31  C   UNL A   1      38.031  29.944  28.044  1.00  0.00     0.014 A 
ATOM     32  C   UNL A   1      39.845  29.502  30.113  1.00  0.00     0.010 A 
ATOM     33  C   UNL A   1      39.313  29.477  27.759  1.00  0.00     0.010 A 
ATOM     34  C   UNL A   1      40.243  29.268  28.787  1.00  0.00    -0.014 A 
BRANCH  34  35
ATOM     35  C   UNL A   1      41.630  28.848  28.450  1.00  0.00     0.031 A 
ATOM     36  C   UNL A   1      42.741  29.867  28.417  1.00  0.00     0.074 A 
ATOM     37  C   UNL A   1      41.884  27.566  28.117  1.00  0.00     0.049 A 
ATOM     38  N   UNL A   1      43.991  29.717  28.060  1.00  0.00    -0.248 NA
ATOM     39  C   UNL A   1      42.393  31.243  28.806  1.00  0.00     0.031 C 
ATOM     40  C   UNL A   1      40.892  26.490  28.066  1.00  0.00     0.029 A 
ATOM     41  N   UNL A   1      43.056  26.952  27.749  1.00  0.00    -0.354 N 
ATOM     42  C   UNL A   1      44.568  30.979  28.158  1.00  0.00     0.074 A 
ATOM     43  C   UNL A   1      43.520  31.892  28.557  1.00  0.00     0.031 C 
ATOM     44  C   UNL A   1      41.501  25.346  27.714  1.00  0.00     0.029 A 
ATOM     45  C   UNL A   1      42.917  25.611  27.477  1.00  0.00     0.049 A 
ATOM     46  H   UNL A   1      43.916  27.428  27.685  1.00  0.00     0.167 HD
ATOM     47  C   UNL A   1      45.859  31.342  27.960  1.00  0.00     0.037 A 
ATOM     48  C   UNL A   1      43.824  24.699  27.078  1.00  0.00     0.037 A 
ATOM     49  C   UNL A   1      46.910  30.425  27.606  1.00  0.00     0.049 A 
ATOM     50  C   UNL A   1      45.255  25.120  26.883  1.00  0.00     0.074 A 
ATOM     51  C   UNL A   1      48.259  30.683  27.441  1.00  0.00     0.029 A 
ATOM     52  N   UNL A   1      46.731  29.068  27.371  1.00  0.00    -0.354 N 
ATOM     53  N   UNL A   1      45.791  26.309  27.026  1.00  0.00    -0.248 NA
ATOM     54  C   UNL A   1      46.207  24.076  26.476  1.00  0.00     0.031 C 
ATOM     55  C   UNL A   1      48.893  29.490  27.075  1.00  0.00     0.029 A 
ATOM     56  C   UNL A   1      47.943  28.480  27.051  1.00  0.00     0.049 A 
ATOM     57  H   UNL A   1      45.870  28.595  27.423  1.00  0.00     0.167 HD
ATOM     58  C   UNL A   1      47.145  26.151  26.754  1.00  0.00     0.074 A 
ATOM     59  C   UNL A   1      47.349  24.750  26.447  1.00  0.00     0.031 C 
ATOM     60  C   UNL A   1      48.131  27.081  26.759  1.00  0.00     0.037 A 
BRANCH  47  61
ATOM     61  C   UNL A   1      46.208  32.795  28.134  1.00  0.00     0.058 A 
ATOM     62  C   UNL A   1      46.664  33.299  29.362  1.00  0.00     0.135 A 
ATOM     63  C   UNL A   1      46.111  33.688  27.055  1.00  0.00     0.135 A 
ATOM     64  F   UNL A   1      46.759  32.491  30.431  1.00  0.00    -0.206 F 
ATOM     65  C   UNL A   1      46.979  34.644  29.526  1.00  0.00     0.059 A 
ATOM     66  C   UNL A   1      46.449  35.032  27.188  1.00  0.00     0.059 A 
ATOM     67  F   UNL A   1      45.683  33.259  25.858  1.00  0.00    -0.206 F 
ATOM     68  C   UNL A   1      46.865  35.504  28.433  1.00  0.00     0.060 A 
BRANCH  68  69
ATOM     69  S   UNL A   1      47.276  37.248  28.659  1.00  0.00     0.124 S 
ATOM     70  O   UNL A   1      45.974  37.808  29.008  1.00  0.00    -0.237 OA
ATOM     71  O   UNL A   1      48.255  37.201  29.743  1.00  0.00    -0.237 OA
ATOM     72  O   UNL A   1      47.803  37.644  27.360  1.00  0.00    -0.744 OA
ENDBRANCH  68  69
ENDBRANCH  47  61
BRANCH  48  73
ATOM     73  C   UNL A   1      43.412  23.286  26.865  1.00  0.00     0.058 A 
ATOM     74  C   UNL A   1      43.301  22.757  25.571  1.00  0.00     0.135 A 
ATOM     75  C   UNL A   1      43.139  22.434  27.946  1.00  0.00     0.135 A 
ATOM     76  F   UNL A   1      43.546  23.535  24.505  1.00  0.00    -0.206 F 
ATOM     77  C   UNL A   1      42.919  21.437  25.353  1.00  0.00     0.059 A 
ATOM     78  C   UNL A   1      42.778  21.103  27.754  1.00  0.00     0.059 A 
ATOM     79  F   UNL A   1      43.247  22.887  29.205  1.00  0.00    -0.206 F 
ATOM     80  C   UNL A   1      42.663  20.616  26.452  1.00  0.00     0.060 A 
BRANCH  80  81
ATOM     81  S   UNL A   1      42.222  18.889  26.162  1.00  0.00     0.124 S 
ATOM     82  O   UNL A   1      42.485  18.295  27.466  1.00  0.00    -0.237 OA
ATOM     83  O   UNL A   1      40.817  18.992  25.777  1.00  0.00    -0.237 OA
ATOM     84  O   UNL A   1      43.128  18.490  25.089  1.00  0.00    -0.744 OA
ENDBRANCH  80  81
ENDBRANCH  48  73
BRANCH  60  85
ATOM     85  C   UNL A   1      49.526  26.613  26.456  1.00  0.00     0.058 A 
ATOM     86  C   UNL A   1      50.347  26.054  27.447  1.00  0.00     0.135 A 
ATOM     87  C   UNL A   1      50.026  26.676  25.145  1.00  0.00     0.135 A 
ATOM     88  F   UNL A   1      49.917  25.978  28.716  1.00  0.00    -0.206 F 
ATOM     89  C   UNL A   1      51.625  25.590  27.153  1.00  0.00     0.059 A 
ATOM     90  C   UNL A   1      51.292  26.197  24.824  1.00  0.00     0.059 A 
ATOM     91  F   UNL A   1      49.276  27.193  24.158  1.00  0.00    -0.206 F 
ATOM     92  C   UNL A   1      52.089  25.666  25.838  1.00  0.00     0.060 A 
BRANCH  92  93
ATOM     93  S   UNL A   1      53.736  25.028  25.460  1.00  0.00     0.124 S 
ATOM     94  O   UNL A   1      54.505  25.513  26.600  1.00  0.00    -0.237 OA
ATOM     95  O   UNL A   1      53.510  23.587  25.413  1.00  0.00    -0.237 OA
ATOM     96  O   UNL A   1      54.053  25.649  24.177  1.00  0.00    -0.744 OA
ENDBRANCH  92  93
ENDBRANCH  60  85
ENDBRANCH  34  35
ENDBRANCH  26  29
ENDBRANCH  24  25
ENDBRANCH   1  24
TORSDOF 15
ENDMDL
MODEL 2
REMARK VINA RESULT:     -12.1      6.794     12.273
REMARK SMILES C[C@@H]1[C@H](C(=O)NCCCNC(=O)c2ccc(-c3c4nc(c(-c5c(F)cc(S(=O)(=O)[O-])cc5F)c5ccc([nH]5)c(-c5c(F)cc(S(=O)(=O)[O-])cc5F)c5nc(c(-c6c(F)cc(S(=O)(=O)[O-])cc6F)c6ccc3[nH]6)C=C5)C=C4)cc2)CC[N@@H+]1[C@@H](C)c1cc(F)cc(F)c1
REMARK SMILES IDX 8 1 7 2 6 3 4 4 5 5 3 7 1 8 2 9 81 10 79 11 80 12 82 14
REMARK SMILES IDX 83 15 84 16 85 17 91 18 86 19 89 20 87 21 88 22 90 23 9 24
REMARK SMILES IDX 10 25 11 26 12 28 13 29 14 30 78 31 15 32 77 33 16 34 17 35
REMARK SMILES IDX 18 36 71 37 19 38 76 39 70 40 72 41 20 42 75 43 69 44 68 45
REMARK SMILES IDX 21 47 55 48 34 49 54 50 35 51 38 52 53 53 73 54 36 55 37 56
REMARK SMILES IDX 52 58 74 59 39 60 22 61 23 62 32 63 24 64 25 65 31 66 33 67
REMARK SMILES IDX 26 68 27 69 28 70 29 71 30 72 56 73 57 74 66 75 58 76 59 77
REMARK SMILES IDX 65 78 67 79 60 80 61 81 62 82 63 83 64 84 40 85 41 86 50 87
REMARK SMILES IDX 42 88 43 89 49 90 51 91 44 92 45 93 46 94 47 95 48 96
REMARK H PARENT 6 6 81 13 10 27 72 46 38 57
REMARK Flexibility Score: inf
ROOT
ATOM      1  C   UNL A   1      37.394  23.502  25.538  1.00  0.00     0.042 C 
ENDROOT
BRANCH   1   2
ATOM      2  C   UNL A   1      36.741  22.151  25.813  1.00  0.00     0.117 C 
BRANCH   2   3
ATOM      3  N   UNL A   1      35.618  21.889  24.932  1.00  0.00    -0.356 N 
ATOM      4  C   UNL A   1      34.326  22.301  24.950  1.00  0.00     0.229 C 
ATOM      5  O   UNL A   1      33.603  21.861  24.048  1.00  0.00    -0.275 OA
ATOM      6  H   UNL A   1      35.836  21.297  24.176  1.00  0.00     0.163 HD
BRANCH   4   7
ATOM      7  C   UNL A   1      33.735  23.252  25.983  1.00  0.00     0.142 C 
ATOM      8  C   UNL A   1      34.574  25.248  24.511  1.00  0.00     0.076 C 
ATOM      9  C   UNL A   1      33.849  24.771  25.761  1.00  0.00     0.194 C 
ATOM     10  N   UNL A   1      32.522  25.309  26.062  1.00  0.00    -0.326 N 
ATOM     11  C   UNL A   1      32.294  22.976  26.397  1.00  0.00     0.081 C 
ATOM     12  C   UNL A   1      31.729  24.331  26.785  1.00  0.00     0.264 C 
ATOM     13  H   UNL A   1      32.739  26.103  26.663  1.00  0.00     0.348 HD
BRANCH  10  14
ATOM     14  C   UNL A   1      31.862  26.339  25.268  1.00  0.00     0.212 C 
ATOM     15  C   UNL A   1      30.359  26.092  25.083  1.00  0.00     0.081 C 
BRANCH  14  16
ATOM     16  C   UNL A   1      32.176  27.737  25.810  1.00  0.00     0.015 A 
ATOM     17  C   UNL A   1      31.437  28.883  25.464  1.00  0.00     0.049 A 
ATOM     18  C   UNL A   1      33.261  27.898  26.691  1.00  0.00     0.049 A 
ATOM     19  C   UNL A   1      31.795  30.134  25.964  1.00  0.00     0.126 A 
ATOM     20  C   UNL A   1      33.594  29.159  27.182  1.00  0.00     0.126 A 
ATOM     21  F   UNL A   1      31.078  31.209  25.607  1.00  0.00    -0.207 F 
ATOM     22  C   UNL A   1      32.872  30.285  26.819  1.00  0.00     0.078 A 
ATOM     23  F   UNL A   1      34.631  29.285  28.020  1.00  0.00    -0.207 F 
ENDBRANCH  14  16
ENDBRANCH  10  14
ENDBRANCH   4   7
ENDBRANCH   2   3
ENDBRANCH   1   2
BRANCH   1  24
ATOM     24  C   UNL A   1      38.345  23.972  26.626  1.00  0.00     0.118 C 
BRANCH  24  25
ATOM     25  N   UNL A   1      39.734  23.934  26.198  1.00  0.00    -0.352 N 
ATOM     26  C   UNL A   1      40.778  24.778  26.492  1.00  0.00     0.251 C 
ATOM     27  H   UNL A   1      39.963  23.183  25.603  1.00  0.00     0.163 HD
ATOM     28  O   UNL A   1      41.818  24.683  25.839  1.00  0.00    -0.269 OA
BRANCH  26  29
ATOM     29  C   UNL A   1      40.669  25.806  27.556  1.00  0.00     0.039 A 
ATOM     30  C   UNL A   1      39.701  25.646  28.553  1.00  0.00     0.014 A 
ATOM     31  C   UNL A   1      41.468  26.952  27.557  1.00  0.00     0.014 A 
ATOM     32  C   UNL A   1      39.575  26.599  29.571  1.00  0.00     0.010 A 
ATOM     33  C   UNL A   1      41.409  27.849  28.623  1.00  0.00     0.010 A 
ATOM     34  C   UNL A   1      40.450  27.695  29.633  1.00  0.00    -0.014 A 
BRANCH  34  35
ATOM     35  C   UNL A   1      40.353  28.711  30.717  1.00  0.00     0.031 A 
ATOM     36  C   UNL A   1      41.245  28.608  31.929  1.00  0.00     0.074 A 
ATOM     37  C   UNL A   1      39.430  29.690  30.643  1.00  0.00     0.049 A 
ATOM     38  N   UNL A   1      41.251  29.339  33.015  1.00  0.00    -0.248 NA
ATOM     39  C   UNL A   1      42.239  27.523  31.934  1.00  0.00     0.031 C 
ATOM     40  C   UNL A   1      38.476  29.877  29.547  1.00  0.00     0.029 A 
ATOM     41  N   UNL A   1      39.135  30.711  31.513  1.00  0.00    -0.354 N 
ATOM     42  C   UNL A   1      42.226  28.786  33.838  1.00  0.00     0.074 A 
ATOM     43  C   UNL A   1      42.755  27.630  33.149  1.00  0.00     0.031 C 
ATOM     44  C   UNL A   1      37.721  30.959  29.799  1.00  0.00     0.029 A 
ATOM     45  C   UNL A   1      38.109  31.522  31.089  1.00  0.00     0.049 A 
ATOM     46  H   UNL A   1      39.614  30.849  32.363  1.00  0.00     0.167 HD
ATOM     47  C   UNL A   1      42.663  29.216  35.047  1.00  0.00     0.037 A 
ATOM     48  C   UNL A   1      37.540  32.594  31.673  1.00  0.00     0.037 A 
ATOM     49  C   UNL A   1      42.168  30.392  35.713  1.00  0.00     0.049 A 
ATOM     50  C   UNL A   1      38.054  33.065  33.006  1.00  0.00     0.074 A 
ATOM     51  C   UNL A   1      42.586  30.944  36.910  1.00  0.00     0.029 A 
ATOM     52  N   UNL A   1      41.149  31.203  35.232  1.00  0.00    -0.354 N 
ATOM     53  N   UNL A   1      39.010  32.557  33.747  1.00  0.00    -0.248 NA
ATOM     54  C   UNL A   1      37.416  34.258  33.582  1.00  0.00     0.031 C 
ATOM     55  C   UNL A   1      41.800  32.072  37.171  1.00  0.00     0.029 A 
ATOM     56  C   UNL A   1      40.918  32.244  36.115  1.00  0.00     0.049 A 
ATOM     57  H   UNL A   1      40.663  31.060  34.389  1.00  0.00     0.167 HD
ATOM     58  C   UNL A   1      39.106  33.383  34.862  1.00  0.00     0.074 A 
ATOM     59  C   UNL A   1      38.118  34.428  34.694  1.00  0.00     0.031 C 
ATOM     60  C   UNL A   1      39.937  33.284  35.928  1.00  0.00     0.037 A 
BRANCH  47  61
ATOM     61  C   UNL A   1      43.742  28.414  35.724  1.00  0.00     0.058 A 
ATOM     62  C   UNL A   1      43.434  27.384  36.627  1.00  0.00     0.135 A 
ATOM     63  C   UNL A   1      45.096  28.659  35.447  1.00  0.00     0.135 A 
ATOM     64  F   UNL A   1      42.156  27.118  36.939  1.00  0.00    -0.206 F 
ATOM     65  C   UNL A   1      44.431  26.648  37.258  1.00  0.00     0.059 A 
ATOM     66  C   UNL A   1      46.110  27.916  36.045  1.00  0.00     0.059 A 
ATOM     67  F   UNL A   1      45.446  29.631  34.590  1.00  0.00    -0.206 F 
ATOM     68  C   UNL A   1      45.767  26.923  36.963  1.00  0.00     0.060 A 
BRANCH  68  69
ATOM     69  S   UNL A   1      47.051  25.961  37.791  1.00  0.00     0.124 S 
ATOM     70  O   UNL A   1      47.946  25.657  36.679  1.00  0.00    -0.237 OA
ATOM     71  O   UNL A   1      47.567  26.909  38.776  1.00  0.00    -0.237 OA
ATOM     72  O   UNL A   1      46.323  24.825  38.341  1.00  0.00    -0.744 OA
ENDBRANCH  68  69
ENDBRANCH  47  61
BRANCH  48  73
ATOM     73  C   UNL A   1      36.437  33.316  30.986  1.00  0.00     0.058 A 
ATOM     74  C   UNL A   1      35.117  33.227  31.453  1.00  0.00     0.135 A 
ATOM     75  C   UNL A   1      36.680  34.121  29.862  1.00  0.00     0.135 A 
ATOM     76  F   UNL A   1      34.835  32.465  32.521  1.00  0.00    -0.206 F 
ATOM     77  C   UNL A   1      34.074  33.898  30.824  1.00  0.00     0.059 A 
ATOM     78  C   UNL A   1      35.656  34.820  29.229  1.00  0.00     0.059 A 
ATOM     79  F   UNL A   1      37.927  34.253  29.385  1.00  0.00    -0.206 F 
ATOM     80  C   UNL A   1      34.354  34.695  29.713  1.00  0.00     0.060 A 
BRANCH  80  81
ATOM     81  S   UNL A   1      33.002  35.606  28.936  1.00  0.00     0.124 S 
ATOM     82  O   UNL A   1      32.355  34.561  28.152  1.00  0.00    -0.237 OA
ATOM     83  O   UNL A   1      32.255  36.092  30.092  1.00  0.00    -0.237 OA
ATOM     84  O   UNL A   1      33.693  36.638  28.169  1.00  0.00    -0.744 OA
ENDBRANCH  80  81
ENDBRANCH  48  73
BRANCH  60  85
ATOM     85  C   UNL A   1      39.842  34.351  36.982  1.00  0.00     0.058 A 
ATOM     86  C   UNL A   1      39.055  34.183  38.131  1.00  0.00     0.135 A 
ATOM     87  C   UNL A   1      40.590  35.533  36.864  1.00  0.00     0.135 A 
ATOM     88  F   UNL A   1      38.316  33.073  38.287  1.00  0.00    -0.206 F 
ATOM     89  C   UNL A   1      38.997  35.159  39.120  1.00  0.00     0.059 A 
ATOM     90  C   UNL A   1      40.566  36.512  37.852  1.00  0.00     0.059 A 
ATOM     91  F   UNL A   1      41.367  35.738  35.788  1.00  0.00    -0.206 F 
ATOM     92  C   UNL A   1      39.757  36.321  38.971  1.00  0.00     0.060 A 
BRANCH  92  93
ATOM     93  S   UNL A   1      39.703  37.566  40.278  1.00  0.00     0.124 S 
ATOM     94  O   UNL A   1      40.001  36.764  41.459  1.00  0.00    -0.237 OA
ATOM     95  O   UNL A   1      40.747  38.499  39.865  1.00  0.00    -0.237 OA
ATOM     96  O   UNL A   1      38.340  38.084  40.196  1.00  0.00    -0.744 OA
ENDBRANCH  92  93
ENDBRANCH  60  85
ENDBRANCH  34  35
ENDBRANCH  26  29
ENDBRANCH  24  25
ENDBRANCH   1  24
TORSDOF 15
ENDMDL
MODEL 3
REMARK VINA RESULT:     -12.1      6.879     12.320
REMARK SMILES C[C@@H]1[C@H](C(=O)NCCCNC(=O)c2ccc(-c3c4nc(c(-c5c(F)cc(S(=O)(=O)[O-])cc5F)c5ccc([nH]5)c(-c5c(F)cc(S(=O)(=O)[O-])cc5F)c5nc(c(-c6c(F)cc(S(=O)(=O)[O-])cc6F)c6ccc3[nH]6)C=C5)C=C4)cc2)CC[N@@H+]1[C@@H](C)c1cc(F)cc(F)c1
REMARK SMILES IDX 8 1 7 2 6 3 4 4 5 5 3 7 1 8 2 9 81 10 79 11 80 12 82 14
REMARK SMILES IDX 83 15 84 16 85 17 91 18 86 19 89 20 87 21 88 22 90 23 9 24
REMARK SMILES IDX 10 25 11 26 12 28 13 29 14 30 78 31 15 32 77 33 16 34 17 35
REMARK SMILES IDX 18 36 71 37 19 38 76 39 70 40 72 41 20 42 75 43 69 44 68 45
REMARK SMILES IDX 21 47 55 48 34 49 54 50 35 51 38 52 53 53 73 54 36 55 37 56
REMARK SMILES IDX 52 58 74 59 39 60 22 61 23 62 32 63 24 64 25 65 31 66 33 67
REMARK SMILES IDX 26 68 27 69 28 70 29 71 30 72 56 73 57 74 66 75 58 76 59 77
REMARK SMILES IDX 65 78 67 79 60 80 61 81 62 82 63 83 64 84 40 85 41 86 50 87
REMARK SMILES IDX 42 88 43 89 49 90 51 91 44 92 45 93 46 94 47 95 48 96
REMARK H PARENT 6 6 81 13 10 27 72 46 38 57
REMARK Flexibility Score: inf
ROOT
ATOM      1  C   UNL A   1      37.412  23.263  25.598  1.00  0.00     0.042 C 
ENDROOT
BRANCH   1   2
ATOM      2  C   UNL A   1      35.974  23.104  26.084  1.00  0.00     0.117 C 
BRANCH   2   3
ATOM      3  N   UNL A   1      35.438  21.785  25.805  1.00  0.00    -0.356 N 
ATOM      4  C   UNL A   1      34.472  21.351  24.959  1.00  0.00     0.229 C 
ATOM      5  O   UNL A   1      34.230  20.139  24.985  1.00  0.00    -0.275 OA
ATOM      6  H   UNL A   1      35.856  21.066  26.332  1.00  0.00     0.163 HD
BRANCH   4   7
ATOM      7  C   UNL A   1      33.695  22.246  24.000  1.00  0.00     0.142 C 
ATOM      8  C   UNL A   1      32.190  22.968  26.017  1.00  0.00     0.076 C 
ATOM      9  C   UNL A   1      32.525  23.089  24.537  1.00  0.00     0.194 C 
ATOM     10  N   UNL A   1      32.705  24.419  23.955  1.00  0.00    -0.326 N 
ATOM     11  C   UNL A   1      34.532  23.166  23.119  1.00  0.00     0.081 C 
ATOM     12  C   UNL A   1      33.643  24.368  22.849  1.00  0.00     0.264 C 
ATOM     13  H   UNL A   1      31.769  24.639  23.616  1.00  0.00     0.348 HD
BRANCH  10  14
ATOM     14  C   UNL A   1      32.517  25.663  24.694  1.00  0.00     0.212 C 
ATOM     15  C   UNL A   1      33.794  26.507  24.795  1.00  0.00     0.081 C 
BRANCH  14  16
ATOM     16  C   UNL A   1      31.321  26.451  24.150  1.00  0.00     0.015 A 
ATOM     17  C   UNL A   1      29.985  26.129  24.447  1.00  0.00     0.049 A 
ATOM     18  C   UNL A   1      31.557  27.547  23.300  1.00  0.00     0.049 A 
ATOM     19  C   UNL A   1      28.938  26.863  23.892  1.00  0.00     0.126 A 
ATOM     20  C   UNL A   1      30.494  28.269  22.763  1.00  0.00     0.126 A 
ATOM     21  F   UNL A   1      27.675  26.526  24.186  1.00  0.00    -0.207 F 
ATOM     22  C   UNL A   1      29.179  27.932  23.047  1.00  0.00     0.078 A 
ATOM     23  F   UNL A   1      30.745  29.310  21.957  1.00  0.00    -0.207 F 
ENDBRANCH  14  16
ENDBRANCH  10  14
ENDBRANCH   4   7
ENDBRANCH   2   3
ENDBRANCH   1   2
BRANCH   1  24
ATOM     24  C   UNL A   1      38.319  24.016  26.559  1.00  0.00     0.118 C 
BRANCH  24  25
ATOM     25  N   UNL A   1      39.719  23.931  26.177  1.00  0.00    -0.352 N 
ATOM     26  C   UNL A   1      40.787  24.716  26.538  1.00  0.00     0.251 C 
ATOM     27  H   UNL A   1      39.935  23.194  25.561  1.00  0.00     0.163 HD
ATOM     28  O   UNL A   1      41.845  24.598  25.917  1.00  0.00    -0.269 OA
BRANCH  26  29
ATOM     29  C   UNL A   1      40.686  25.707  27.637  1.00  0.00     0.039 A 
ATOM     30  C   UNL A   1      41.707  26.651  27.791  1.00  0.00     0.014 A 
ATOM     31  C   UNL A   1      39.630  25.687  28.552  1.00  0.00     0.014 A 
ATOM     32  C   UNL A   1      41.639  27.600  28.818  1.00  0.00     0.010 A 
ATOM     33  C   UNL A   1      39.513  26.691  29.513  1.00  0.00     0.010 A 
ATOM     34  C   UNL A   1      40.525  27.649  29.671  1.00  0.00    -0.014 A 
BRANCH  34  35
ATOM     35  C   UNL A   1      40.416  28.661  30.757  1.00  0.00     0.031 A 
ATOM     36  C   UNL A   1      41.294  28.555  31.978  1.00  0.00     0.074 A 
ATOM     37  C   UNL A   1      39.492  29.639  30.677  1.00  0.00     0.049 A 
ATOM     38  N   UNL A   1      41.288  29.281  33.067  1.00  0.00    -0.248 NA
ATOM     39  C   UNL A   1      42.290  27.471  31.990  1.00  0.00     0.031 C 
ATOM     40  C   UNL A   1      38.549  29.828  29.571  1.00  0.00     0.029 A 
ATOM     41  N   UNL A   1      39.186  30.655  31.548  1.00  0.00    -0.354 N 
ATOM     42  C   UNL A   1      42.255  28.727  33.898  1.00  0.00     0.074 A 
ATOM     43  C   UNL A   1      42.793  27.574  33.210  1.00  0.00     0.031 C 
ATOM     44  C   UNL A   1      37.790  30.907  29.819  1.00  0.00     0.029 A 
ATOM     45  C   UNL A   1      38.162  31.466  31.116  1.00  0.00     0.049 A 
ATOM     46  H   UNL A   1      39.655  30.791  32.403  1.00  0.00     0.167 HD
ATOM     47  C   UNL A   1      42.679  29.154  35.114  1.00  0.00     0.037 A 
ATOM     48  C   UNL A   1      37.586  32.535  31.697  1.00  0.00     0.037 A 
ATOM     49  C   UNL A   1      42.174  30.326  35.778  1.00  0.00     0.049 A 
ATOM     50  C   UNL A   1      38.085  33.003  33.038  1.00  0.00     0.074 A 
ATOM     51  C   UNL A   1      42.579  30.875  36.982  1.00  0.00     0.029 A 
ATOM     52  N   UNL A   1      41.160  31.138  35.289  1.00  0.00    -0.354 N 
ATOM     53  N   UNL A   1      39.034  32.494  33.787  1.00  0.00    -0.248 NA
ATOM     54  C   UNL A   1      37.439  34.193  33.611  1.00  0.00     0.031 C 
ATOM     55  C   UNL A   1      41.788  32.001  37.238  1.00  0.00     0.029 A 
ATOM     56  C   UNL A   1      40.917  32.175  36.174  1.00  0.00     0.049 A 
ATOM     57  H   UNL A   1      40.682  30.996  34.441  1.00  0.00     0.167 HD
ATOM     58  C   UNL A   1      39.117  33.316  34.906  1.00  0.00     0.074 A 
ATOM     59  C   UNL A   1      38.129  34.360  34.731  1.00  0.00     0.031 C 
ATOM     60  C   UNL A   1      39.937  33.214  35.980  1.00  0.00     0.037 A 
BRANCH  47  61
ATOM     61  C   UNL A   1      43.751  28.351  35.798  1.00  0.00     0.058 A 
ATOM     62  C   UNL A   1      45.114  28.601  35.571  1.00  0.00     0.135 A 
ATOM     63  C   UNL A   1      43.415  27.339  36.711  1.00  0.00     0.135 A 
ATOM     64  F   UNL A   1      45.491  29.547  34.696  1.00  0.00    -0.206 F 
ATOM     65  C   UNL A   1      46.106  27.854  36.198  1.00  0.00     0.059 A 
ATOM     66  C   UNL A   1      44.391  26.597  37.372  1.00  0.00     0.059 A 
ATOM     67  F   UNL A   1      42.128  27.059  36.967  1.00  0.00    -0.206 F 
ATOM     68  C   UNL A   1      45.734  26.852  37.095  1.00  0.00     0.060 A 
BRANCH  68  69
ATOM     69  S   UNL A   1      47.032  25.888  37.900  1.00  0.00     0.124 S 
ATOM     70  O   UNL A   1      47.116  24.725  37.022  1.00  0.00    -0.237 OA
ATOM     71  O   UNL A   1      48.173  26.799  37.854  1.00  0.00    -0.237 OA
ATOM     72  O   UNL A   1      46.491  25.634  39.229  1.00  0.00    -0.744 OA
ENDBRANCH  68  69
ENDBRANCH  47  61
BRANCH  48  73
ATOM     73  C   UNL A   1      36.489  33.258  31.001  1.00  0.00     0.058 A 
ATOM     74  C   UNL A   1      36.754  34.064  29.884  1.00  0.00     0.135 A 
ATOM     75  C   UNL A   1      35.156  33.147  31.425  1.00  0.00     0.135 A 
ATOM     76  F   UNL A   1      38.014  34.206  29.444  1.00  0.00    -0.206 F 
ATOM     77  C   UNL A   1      35.741  34.745  29.218  1.00  0.00     0.059 A 
ATOM     78  C   UNL A   1      34.121  33.801  30.762  1.00  0.00     0.059 A 
ATOM     79  F   UNL A   1      34.846  32.376  32.479  1.00  0.00    -0.206 F 
ATOM     80  C   UNL A   1      34.425  34.605  29.664  1.00  0.00     0.060 A 
BRANCH  80  81
ATOM     81  S   UNL A   1      33.109  35.449  28.761  1.00  0.00     0.124 S 
ATOM     82  O   UNL A   1      33.864  36.418  27.977  1.00  0.00    -0.237 OA
ATOM     83  O   UNL A   1      32.501  34.355  28.010  1.00  0.00    -0.237 OA
ATOM     84  O   UNL A   1      32.278  36.005  29.825  1.00  0.00    -0.744 OA
ENDBRANCH  80  81
ENDBRANCH  48  73
BRANCH  60  85
ATOM     85  C   UNL A   1      39.829  34.278  37.036  1.00  0.00     0.058 A 
ATOM     86  C   UNL A   1      40.486  35.510  36.911  1.00  0.00     0.135 A 
ATOM     87  C   UNL A   1      39.013  34.078  38.162  1.00  0.00     0.135 A 
ATOM     88  F   UNL A   1      41.282  35.747  35.856  1.00  0.00    -0.206 F 
ATOM     89  C   UNL A   1      40.354  36.504  37.875  1.00  0.00     0.059 A 
ATOM     90  C   UNL A   1      38.848  35.066  39.127  1.00  0.00     0.059 A 
ATOM     91  F   UNL A   1      38.355  32.918  38.324  1.00  0.00    -0.206 F 
ATOM     92  C   UNL A   1      39.532  36.272  38.980  1.00  0.00     0.060 A 
BRANCH  92  93
ATOM     93  S   UNL A   1      39.339  37.582  40.208  1.00  0.00     0.124 S 
ATOM     94  O   UNL A   1      38.304  38.407  39.595  1.00  0.00    -0.237 OA
ATOM     95  O   UNL A   1      38.936  36.839  41.398  1.00  0.00    -0.237 OA
ATOM     96  O   UNL A   1      40.668  38.184  40.273  1.00  0.00    -0.744 OA
ENDBRANCH  92  93
ENDBRANCH  60  85
ENDBRANCH  34  35
ENDBRANCH  26  29
ENDBRANCH  24  25
ENDBRANCH   1  24
TORSDOF 15
ENDMDL
