MODEL 1
REMARK VINA RESULT:     -10.8      0.000      0.000
REMARK SMILES O=C(NCCCNC(=O)[C@H](O)Cc1ccc(O)cc1)c1ccc(-c2c3nc(c(-c4c(F)cc(S(=O)(=O)[O-])cc4F)c4ccc([nH]4)c(-c4c(F)cc(S(=O)(=O)[O-])cc4F)c4nc(c(-c5c(F)cc(S(=O)(=O)[O-])cc5F)c5ccc2[nH]5)C=C4)C=C3)cc1
REMARK SMILES IDX 5 1 4 2 3 3 1 4 2 5 20 7 21 8 85 9 22 10 84 11 23 12 24 13
REMARK SMILES IDX 25 14 78 15 26 16 83 17 77 18 79 19 27 20 82 21 76 22 75 23
REMARK SMILES IDX 28 25 62 26 41 27 61 28 42 29 45 30 60 31 80 32 43 33 44 34
REMARK SMILES IDX 59 36 81 37 46 38 29 39 30 40 39 41 31 42 32 43 38 44 40 45
REMARK SMILES IDX 33 46 34 47 35 48 36 49 37 50 63 51 64 52 73 53 65 54 66 55
REMARK SMILES IDX 72 56 74 57 67 58 68 59 69 60 70 61 71 62 47 63 48 64 57 65
REMARK SMILES IDX 49 66 50 67 56 68 58 69 51 70 52 71 53 72 54 73 55 74 6 75
REMARK SMILES IDX 7 76 8 77 9 79 10 80 12 81 13 82 14 83 19 84 15 85 18 86
REMARK SMILES IDX 16 87 17 88 11 90
REMARK H PARENT 3 6 79 24 45 35 7 78 17 89 11 91
REMARK Flexibility Score: inf
ROOT
ATOM      1  C   UNL A   1      32.870  28.108  25.936  1.00  0.00     0.042 C 
ENDROOT
BRANCH   1   2
ATOM      2  C   UNL A   1      33.770  28.454  27.111  1.00  0.00     0.118 C 
BRANCH   2   3
ATOM      3  N   UNL A   1      33.664  29.853  27.495  1.00  0.00    -0.352 N 
ATOM      4  O   UNL A   1      34.217  31.742  28.587  1.00  0.00    -0.269 OA
ATOM      5  C   UNL A   1      34.568  30.643  28.162  1.00  0.00     0.251 C 
ATOM      6  H   UNL A   1      32.823  30.298  27.239  1.00  0.00     0.163 HD
BRANCH   5   7
ATOM      7  C   UNL A   1      35.952  30.168  28.372  1.00  0.00     0.039 A 
ATOM      8  C   UNL A   1      36.913  30.319  27.370  1.00  0.00     0.014 A 
ATOM      9  C   UNL A   1      36.305  29.600  29.600  1.00  0.00     0.014 A 
ATOM     10  C   UNL A   1      38.185  29.791  27.543  1.00  0.00     0.010 A 
ATOM     11  C   UNL A   1      37.615  29.158  29.811  1.00  0.00     0.010 A 
ATOM     12  C   UNL A   1      38.563  29.242  28.779  1.00  0.00    -0.014 A 
BRANCH  12  13
ATOM     13  C   UNL A   1      39.988  28.897  29.003  1.00  0.00     0.031 A 
ATOM     14  C   UNL A   1      40.548  27.564  28.597  1.00  0.00     0.074 A 
ATOM     15  C   UNL A   1      40.776  29.826  29.580  1.00  0.00     0.049 A 
ATOM     16  N   UNL A   1      41.770  27.117  28.730  1.00  0.00    -0.248 NA
ATOM     17  C   UNL A   1      39.625  26.604  27.968  1.00  0.00     0.031 C 
ATOM     18  C   UNL A   1      40.325  31.146  30.037  1.00  0.00     0.029 A 
ATOM     19  N   UNL A   1      42.115  29.818  29.876  1.00  0.00    -0.354 N 
ATOM     20  C   UNL A   1      41.764  25.823  28.224  1.00  0.00     0.074 A 
ATOM     21  C   UNL A   1      40.410  25.549  27.791  1.00  0.00     0.031 C 
ATOM     22  C   UNL A   1      41.371  31.830  30.520  1.00  0.00     0.029 A 
ATOM     23  C   UNL A   1      42.550  30.977  30.475  1.00  0.00     0.049 A 
ATOM     24  H   UNL A   1      42.706  29.057  29.677  1.00  0.00     0.167 HD
ATOM     25  C   UNL A   1      42.797  24.953  28.130  1.00  0.00     0.037 A 
ATOM     26  C   UNL A   1      43.758  31.307  30.969  1.00  0.00     0.037 A 
ATOM     27  C   UNL A   1      44.145  25.253  28.547  1.00  0.00     0.049 A 
ATOM     28  C   UNL A   1      44.875  30.310  30.867  1.00  0.00     0.074 A 
ATOM     29  C   UNL A   1      45.275  24.461  28.432  1.00  0.00     0.029 A 
ATOM     30  N   UNL A   1      44.544  26.427  29.168  1.00  0.00    -0.354 N 
ATOM     31  N   UNL A   1      44.863  29.116  30.327  1.00  0.00    -0.248 NA
ATOM     32  C   UNL A   1      46.166  30.699  31.447  1.00  0.00     0.031 C 
ATOM     33  C   UNL A   1      46.345  25.132  29.032  1.00  0.00     0.029 A 
ATOM     34  C   UNL A   1      45.895  26.366  29.475  1.00  0.00     0.049 A 
ATOM     35  H   UNL A   1      43.955  27.192  29.362  1.00  0.00     0.167 HD
ATOM     36  C   UNL A   1      46.147  28.613  30.493  1.00  0.00     0.074 A 
ATOM     37  C   UNL A   1      46.916  29.646  31.157  1.00  0.00     0.031 C 
ATOM     38  C   UNL A   1      46.643  27.403  30.138  1.00  0.00     0.037 A 
BRANCH  25  39
ATOM     39  C   UNL A   1      42.533  23.582  27.570  1.00  0.00     0.058 A 
ATOM     40  C   UNL A   1      42.586  23.323  26.192  1.00  0.00     0.135 A 
ATOM     41  C   UNL A   1      42.340  22.490  28.434  1.00  0.00     0.135 A 
ATOM     42  F   UNL A   1      42.754  24.331  25.321  1.00  0.00    -0.206 F 
ATOM     43  C   UNL A   1      42.460  22.031  25.690  1.00  0.00     0.059 A 
ATOM     44  C   UNL A   1      42.234  21.187  27.956  1.00  0.00     0.059 A 
ATOM     45  F   UNL A   1      42.279  22.682  29.760  1.00  0.00    -0.206 F 
ATOM     46  C   UNL A   1      42.294  20.968  26.581  1.00  0.00     0.060 A 
BRANCH  46  47
ATOM     47  S   UNL A   1      42.193  19.292  25.915  1.00  0.00     0.124 S 
ATOM     48  O   UNL A   1      42.761  18.509  27.008  1.00  0.00    -0.237 OA
ATOM     49  O   UNL A   1      40.758  19.129  25.700  1.00  0.00    -0.237 OA
ATOM     50  O   UNL A   1      43.002  19.357  24.703  1.00  0.00    -0.744 OA
ENDBRANCH  46  47
ENDBRANCH  25  39
BRANCH  26  51
ATOM     51  C   UNL A   1      43.956  32.619  31.641  1.00  0.00     0.058 A 
ATOM     52  C   UNL A   1      43.737  32.773  33.017  1.00  0.00     0.135 A 
ATOM     53  C   UNL A   1      44.360  33.750  30.912  1.00  0.00     0.135 A 
ATOM     54  F   UNL A   1      43.350  31.721  33.756  1.00  0.00    -0.206 F 
ATOM     55  C   UNL A   1      43.877  34.007  33.642  1.00  0.00     0.059 A 
ATOM     56  C   UNL A   1      44.540  34.986  31.521  1.00  0.00     0.059 A 
ATOM     57  F   UNL A   1      44.604  33.652  29.596  1.00  0.00    -0.206 F 
ATOM     58  C   UNL A   1      44.276  35.109  32.883  1.00  0.00     0.060 A 
BRANCH  58  59
ATOM     59  S   UNL A   1      44.462  36.707  33.702  1.00  0.00     0.124 S 
ATOM     60  O   UNL A   1      45.863  37.010  33.433  1.00  0.00    -0.237 OA
ATOM     61  O   UNL A   1      43.484  37.530  32.998  1.00  0.00    -0.237 OA
ATOM     62  O   UNL A   1      44.135  36.410  35.093  1.00  0.00    -0.744 OA
ENDBRANCH  58  59
ENDBRANCH  26  51
BRANCH  38  63
ATOM     63  C   UNL A   1      48.089  27.141  30.449  1.00  0.00     0.058 A 
ATOM     64  C   UNL A   1      48.486  26.593  31.679  1.00  0.00     0.135 A 
ATOM     65  C   UNL A   1      49.084  27.407  29.496  1.00  0.00     0.135 A 
ATOM     66  F   UNL A   1      47.574  26.331  32.629  1.00  0.00    -0.206 F 
ATOM     67  C   UNL A   1      49.825  26.343  31.963  1.00  0.00     0.059 A 
ATOM     68  C   UNL A   1      50.425  27.138  29.747  1.00  0.00     0.059 A 
ATOM     69  F   UNL A   1      48.755  27.924  28.300  1.00  0.00    -0.206 F 
ATOM     70  C   UNL A   1      50.787  26.617  30.989  1.00  0.00     0.060 A 
BRANCH  70  71
ATOM     71  S   UNL A   1      52.516  26.260  31.359  1.00  0.00     0.124 S 
ATOM     72  O   UNL A   1      52.844  27.332  32.293  1.00  0.00    -0.237 OA
ATOM     73  O   UNL A   1      52.443  24.921  31.933  1.00  0.00    -0.237 OA
ATOM     74  O   UNL A   1      53.166  26.343  30.055  1.00  0.00    -0.744 OA
ENDBRANCH  70  71
ENDBRANCH  38  63
ENDBRANCH  12  13
ENDBRANCH   5   7
ENDBRANCH   2   3
ENDBRANCH   1   2
BRANCH   1  75
ATOM     75  C   UNL A   1      32.992  29.086  24.773  1.00  0.00     0.117 C 
BRANCH  75  76
ATOM     76  N   UNL A   1      31.717  29.720  24.470  1.00  0.00    -0.354 N 
ATOM     77  C   UNL A   1      30.657  29.242  23.754  1.00  0.00     0.249 C 
ATOM     78  H   UNL A   1      31.604  30.627  24.835  1.00  0.00     0.163 HD
ATOM     79  O   UNL A   1      29.680  29.980  23.596  1.00  0.00    -0.272 OA
BRANCH  77  80
ATOM     80  C   UNL A   1      30.692  27.833  23.144  1.00  0.00     0.207 C 
BRANCH  80  81
ATOM     81  C   UNL A   1      29.568  26.960  23.714  1.00  0.00     0.077 C 
BRANCH  81  82
ATOM     82  C   UNL A   1      30.067  25.661  24.300  1.00  0.00    -0.045 A 
ATOM     83  C   UNL A   1      30.478  24.606  23.478  1.00  0.00     0.007 A 
ATOM     84  C   UNL A   1      30.115  25.504  25.694  1.00  0.00     0.007 A 
ATOM     85  C   UNL A   1      30.921  23.408  24.042  1.00  0.00     0.046 A 
ATOM     86  C   UNL A   1      30.546  24.304  26.257  1.00  0.00     0.046 A 
ATOM     87  C   UNL A   1      30.944  23.266  25.428  1.00  0.00     0.115 A 
BRANCH  87  88
ATOM     88  O   UNL A   1      31.356  22.108  26.017  1.00  0.00    -0.508 OA
ATOM     89  H   UNL A   1      30.751  21.401  26.134  1.00  0.00     0.293 HD
ENDBRANCH  87  88
ENDBRANCH  81  82
ENDBRANCH  80  81
BRANCH  80  90
ATOM     90  O   UNL A   1      30.661  27.907  21.717  1.00  0.00    -0.383 OA
ATOM     91  H   UNL A   1      30.499  28.823  21.444  1.00  0.00     0.211 HD
ENDBRANCH  80  90
ENDBRANCH  77  80
ENDBRANCH  75  76
ENDBRANCH   1  75
TORSDOF 17
ENDMDL
MODEL 2
REMARK VINA RESULT:     -10.7      2.971      5.254
REMARK SMILES O=C(NCCCNC(=O)[C@H](O)Cc1ccc(O)cc1)c1ccc(-c2c3nc(c(-c4c(F)cc(S(=O)(=O)[O-])cc4F)c4ccc([nH]4)c(-c4c(F)cc(S(=O)(=O)[O-])cc4F)c4nc(c(-c5c(F)cc(S(=O)(=O)[O-])cc5F)c5ccc2[nH]5)C=C4)C=C3)cc1
REMARK SMILES IDX 5 1 4 2 3 3 1 4 2 5 20 7 21 8 85 9 22 10 84 11 23 12 24 13
REMARK SMILES IDX 25 14 78 15 26 16 83 17 77 18 79 19 27 20 82 21 76 22 75 23
REMARK SMILES IDX 28 25 62 26 41 27 61 28 42 29 45 30 60 31 80 32 43 33 44 34
REMARK SMILES IDX 59 36 81 37 46 38 29 39 30 40 39 41 31 42 32 43 38 44 40 45
REMARK SMILES IDX 33 46 34 47 35 48 36 49 37 50 63 51 64 52 73 53 65 54 66 55
REMARK SMILES IDX 72 56 74 57 67 58 68 59 69 60 70 61 71 62 47 63 48 64 57 65
REMARK SMILES IDX 49 66 50 67 56 68 58 69 51 70 52 71 53 72 54 73 55 74 6 75
REMARK SMILES IDX 7 76 8 77 9 79 10 80 12 81 13 82 14 83 19 84 15 85 18 86
REMARK SMILES IDX 16 87 17 88 11 90
REMARK H PARENT 3 6 79 24 45 35 7 78 17 89 11 91
REMARK Flexibility Score: inf
ROOT
ATOM      1  C   UNL A   1      34.713  34.070  29.211  1.00  0.00     0.042 C 
ENDROOT
BRANCH   1   2
ATOM      2  C   UNL A   1      35.072  33.109  28.090  1.00  0.00     0.118 C 
BRANCH   2   3
ATOM      3  N   UNL A   1      34.172  31.968  28.030  1.00  0.00    -0.352 N 
ATOM      4  O   UNL A   1      33.579  29.820  27.712  1.00  0.00    -0.269 OA
ATOM      5  C   UNL A   1      34.468  30.628  27.974  1.00  0.00     0.251 C 
ATOM      6  H   UNL A   1      33.212  32.188  28.031  1.00  0.00     0.163 HD
BRANCH   5   7
ATOM      7  C   UNL A   1      35.850  30.165  28.220  1.00  0.00     0.039 A 
ATOM      8  C   UNL A   1      36.800  30.193  27.196  1.00  0.00     0.014 A 
ATOM      9  C   UNL A   1      36.213  29.733  29.499  1.00  0.00     0.014 A 
ATOM     10  C   UNL A   1      38.069  29.674  27.413  1.00  0.00     0.010 A 
ATOM     11  C   UNL A   1      37.521  29.304  29.743  1.00  0.00     0.010 A 
ATOM     12  C   UNL A   1      38.457  29.262  28.698  1.00  0.00    -0.014 A 
BRANCH  12  13
ATOM     13  C   UNL A   1      39.881  28.929  28.943  1.00  0.00     0.031 A 
ATOM     14  C   UNL A   1      40.456  27.597  28.555  1.00  0.00     0.074 A 
ATOM     15  C   UNL A   1      40.656  29.868  29.522  1.00  0.00     0.049 A 
ATOM     16  N   UNL A   1      41.680  27.159  28.706  1.00  0.00    -0.248 NA
ATOM     17  C   UNL A   1      39.548  26.626  27.922  1.00  0.00     0.031 C 
ATOM     18  C   UNL A   1      40.189  31.188  29.963  1.00  0.00     0.029 A 
ATOM     19  N   UNL A   1      41.991  29.872  29.834  1.00  0.00    -0.354 N 
ATOM     20  C   UNL A   1      41.688  25.861  28.211  1.00  0.00     0.074 A 
ATOM     21  C   UNL A   1      40.342  25.574  27.763  1.00  0.00     0.031 C 
ATOM     22  C   UNL A   1      41.224  31.884  30.453  1.00  0.00     0.029 A 
ATOM     23  C   UNL A   1      42.410  31.039  30.430  1.00  0.00     0.049 A 
ATOM     24  H   UNL A   1      42.590  29.114  29.650  1.00  0.00     0.167 HD
ATOM     25  C   UNL A   1      42.728  24.998  28.138  1.00  0.00     0.037 A 
ATOM     26  C   UNL A   1      43.609  31.382  30.936  1.00  0.00     0.037 A 
ATOM     27  C   UNL A   1      44.069  25.310  28.569  1.00  0.00     0.049 A 
ATOM     28  C   UNL A   1      44.734  30.391  30.857  1.00  0.00     0.074 A 
ATOM     29  C   UNL A   1      45.206  24.526  28.475  1.00  0.00     0.029 A 
ATOM     30  N   UNL A   1      44.452  26.493  29.186  1.00  0.00    -0.354 N 
ATOM     31  N   UNL A   1      44.738  29.193  30.326  1.00  0.00    -0.248 NA
ATOM     32  C   UNL A   1      46.015  30.794  31.451  1.00  0.00     0.031 C 
ATOM     33  C   UNL A   1      46.263  25.209  29.083  1.00  0.00     0.029 A 
ATOM     34  C   UNL A   1      45.799  26.443  29.510  1.00  0.00     0.049 A 
ATOM     35  H   UNL A   1      43.856  27.255  29.366  1.00  0.00     0.167 HD
ATOM     36  C   UNL A   1      46.023  28.700  30.513  1.00  0.00     0.074 A 
ATOM     37  C   UNL A   1      46.776  29.744  31.179  1.00  0.00     0.031 C 
ATOM     38  C   UNL A   1      46.531  27.491  30.175  1.00  0.00     0.037 A 
BRANCH  25  39
ATOM     39  C   UNL A   1      42.481  23.621  27.585  1.00  0.00     0.058 A 
ATOM     40  C   UNL A   1      42.514  23.359  26.207  1.00  0.00     0.135 A 
ATOM     41  C   UNL A   1      42.326  22.527  28.454  1.00  0.00     0.135 A 
ATOM     42  F   UNL A   1      42.645  24.368  25.331  1.00  0.00    -0.206 F 
ATOM     43  C   UNL A   1      42.404  22.064  25.710  1.00  0.00     0.059 A 
ATOM     44  C   UNL A   1      42.237  21.222  27.981  1.00  0.00     0.059 A 
ATOM     45  F   UNL A   1      42.286  22.722  29.782  1.00  0.00    -0.206 F 
ATOM     46  C   UNL A   1      42.275  21.000  26.606  1.00  0.00     0.060 A 
BRANCH  46  47
ATOM     47  S   UNL A   1      42.195  19.321  25.945  1.00  0.00     0.124 S 
ATOM     48  O   UNL A   1      42.715  18.542  27.066  1.00  0.00    -0.237 OA
ATOM     49  O   UNL A   1      40.770  19.162  25.673  1.00  0.00    -0.237 OA
ATOM     50  O   UNL A   1      43.053  19.376  24.767  1.00  0.00    -0.744 OA
ENDBRANCH  46  47
ENDBRANCH  25  39
BRANCH  26  51
ATOM     51  C   UNL A   1      43.789  32.700  31.600  1.00  0.00     0.058 A 
ATOM     52  C   UNL A   1      44.194  33.830  30.877  1.00  0.00     0.135 A 
ATOM     53  C   UNL A   1      43.568  32.850  32.979  1.00  0.00     0.135 A 
ATOM     54  F   UNL A   1      44.418  33.738  29.556  1.00  0.00    -0.206 F 
ATOM     55  C   UNL A   1      44.407  35.055  31.501  1.00  0.00     0.059 A 
ATOM     56  C   UNL A   1      43.741  34.072  33.619  1.00  0.00     0.059 A 
ATOM     57  F   UNL A   1      43.158  31.804  33.714  1.00  0.00    -0.206 F 
ATOM     58  C   UNL A   1      44.181  35.164  32.874  1.00  0.00     0.060 A 
BRANCH  58  59
ATOM     59  S   UNL A   1      44.454  36.757  33.677  1.00  0.00     0.124 S 
ATOM     60  O   UNL A   1      44.727  37.617  32.531  1.00  0.00    -0.237 OA
ATOM     61  O   UNL A   1      43.182  36.983  34.355  1.00  0.00    -0.237 OA
ATOM     62  O   UNL A   1      45.589  36.498  34.558  1.00  0.00    -0.744 OA
ENDBRANCH  58  59
ENDBRANCH  26  51
BRANCH  38  63
ATOM     63  C   UNL A   1      47.975  27.241  30.505  1.00  0.00     0.058 A 
ATOM     64  C   UNL A   1      49.006  27.682  29.660  1.00  0.00     0.135 A 
ATOM     65  C   UNL A   1      48.333  26.586  31.694  1.00  0.00     0.135 A 
ATOM     66  F   UNL A   1      48.717  28.303  28.507  1.00  0.00    -0.206 F 
ATOM     67  C   UNL A   1      50.344  27.458  29.970  1.00  0.00     0.059 A 
ATOM     68  C   UNL A   1      49.664  26.377  32.038  1.00  0.00     0.059 A 
ATOM     69  F   UNL A   1      47.385  26.152  32.539  1.00  0.00    -0.206 F 
ATOM     70  C   UNL A   1      50.662  26.805  31.164  1.00  0.00     0.060 A 
BRANCH  70  71
ATOM     71  S   UNL A   1      52.401  26.547  31.568  1.00  0.00     0.124 S 
ATOM     72  O   UNL A   1      52.789  27.867  32.056  1.00  0.00    -0.237 OA
ATOM     73  O   UNL A   1      52.335  25.494  32.576  1.00  0.00    -0.237 OA
ATOM     74  O   UNL A   1      52.991  26.151  30.294  1.00  0.00    -0.744 OA
ENDBRANCH  70  71
ENDBRANCH  38  63
ENDBRANCH  12  13
ENDBRANCH   5   7
ENDBRANCH   2   3
ENDBRANCH   1   2
BRANCH   1  75
ATOM     75  C   UNL A   1      33.283  34.591  29.127  1.00  0.00     0.117 C 
BRANCH  75  76
ATOM     76  N   UNL A   1      33.174  35.948  29.640  1.00  0.00    -0.354 N 
ATOM     77  C   UNL A   1      33.004  36.381  30.925  1.00  0.00     0.249 C 
ATOM     78  H   UNL A   1      33.232  36.658  28.962  1.00  0.00     0.163 HD
ATOM     79  O   UNL A   1      32.904  37.594  31.123  1.00  0.00    -0.272 OA
BRANCH  77  80
ATOM     80  C   UNL A   1      32.916  35.379  32.086  1.00  0.00     0.207 C 
BRANCH  80  81
ATOM     81  C   UNL A   1      34.043  35.613  33.099  1.00  0.00     0.077 C 
BRANCH  81  82
ATOM     82  C   UNL A   1      34.925  34.403  33.294  1.00  0.00    -0.045 A 
ATOM     83  C   UNL A   1      34.764  33.254  32.510  1.00  0.00     0.007 A 
ATOM     84  C   UNL A   1      35.924  34.425  34.281  1.00  0.00     0.007 A 
ATOM     85  C   UNL A   1      35.581  32.141  32.719  1.00  0.00     0.046 A 
ATOM     86  C   UNL A   1      36.731  33.310  34.496  1.00  0.00     0.046 A 
ATOM     87  C   UNL A   1      36.553  32.177  33.715  1.00  0.00     0.115 A 
BRANCH  87  88
ATOM     88  O   UNL A   1      37.361  31.108  33.960  1.00  0.00    -0.508 OA
ATOM     89  H   UNL A   1      37.158  30.272  33.586  1.00  0.00     0.293 HD
ENDBRANCH  87  88
ENDBRANCH  81  82
ENDBRANCH  80  81
BRANCH  80  90
ATOM     90  O   UNL A   1      31.620  35.423  32.686  1.00  0.00    -0.383 OA
ATOM     91  H   UNL A   1      31.709  35.383  33.651  1.00  0.00     0.211 HD
ENDBRANCH  80  90
ENDBRANCH  77  80
ENDBRANCH  75  76
ENDBRANCH   1  75
TORSDOF 17
ENDMDL
MODEL 3
REMARK VINA RESULT:     -10.7      5.691     11.517
REMARK SMILES O=C(NCCCNC(=O)[C@H](O)Cc1ccc(O)cc1)c1ccc(-c2c3nc(c(-c4c(F)cc(S(=O)(=O)[O-])cc4F)c4ccc([nH]4)c(-c4c(F)cc(S(=O)(=O)[O-])cc4F)c4nc(c(-c5c(F)cc(S(=O)(=O)[O-])cc5F)c5ccc2[nH]5)C=C4)C=C3)cc1
REMARK SMILES IDX 5 1 4 2 3 3 1 4 2 5 20 7 21 8 85 9 22 10 84 11 23 12 24 13
REMARK SMILES IDX 25 14 78 15 26 16 83 17 77 18 79 19 27 20 82 21 76 22 75 23
REMARK SMILES IDX 28 25 62 26 41 27 61 28 42 29 45 30 60 31 80 32 43 33 44 34
REMARK SMILES IDX 59 36 81 37 46 38 29 39 30 40 39 41 31 42 32 43 38 44 40 45
REMARK SMILES IDX 33 46 34 47 35 48 36 49 37 50 63 51 64 52 73 53 65 54 66 55
REMARK SMILES IDX 72 56 74 57 67 58 68 59 69 60 70 61 71 62 47 63 48 64 57 65
REMARK SMILES IDX 49 66 50 67 56 68 58 69 51 70 52 71 53 72 54 73 55 74 6 75
REMARK SMILES IDX 7 76 8 77 9 79 10 80 12 81 13 82 14 83 19 84 15 85 18 86
REMARK SMILES IDX 16 87 17 88 11 90
REMARK H PARENT 3 6 79 24 45 35 7 78 17 89 11 91
REMARK Flexibility Score: inf
ROOT
ATOM      1  C   UNL A   1      43.631  22.449  26.936  1.00  0.00     0.042 C 
ENDROOT
BRANCH   1   2
ATOM      2  C   UNL A   1      42.776  23.641  27.331  1.00  0.00     0.118 C 
BRANCH   2   3
ATOM      3  N   UNL A   1      42.229  24.336  26.177  1.00  0.00    -0.352 N 
ATOM      4  O   UNL A   1      40.910  25.790  25.076  1.00  0.00    -0.269 OA
ATOM      5  C   UNL A   1      41.459  25.472  26.129  1.00  0.00     0.251 C 
ATOM      6  H   UNL A   1      42.441  23.934  25.303  1.00  0.00     0.163 HD
BRANCH   5   7
ATOM      7  C   UNL A   1      41.287  26.300  27.341  1.00  0.00     0.039 A 
ATOM      8  C   UNL A   1      42.125  27.393  27.578  1.00  0.00     0.014 A 
ATOM      9  C   UNL A   1      40.252  26.007  28.234  1.00  0.00     0.014 A 
ATOM     10  C   UNL A   1      42.013  28.110  28.761  1.00  0.00     0.010 A 
ATOM     11  C   UNL A   1      40.076  26.793  29.377  1.00  0.00     0.010 A 
ATOM     12  C   UNL A   1      40.962  27.845  29.654  1.00  0.00    -0.014 A 
BRANCH  12  13
ATOM     13  C   UNL A   1      40.737  28.773  30.789  1.00  0.00     0.031 A 
ATOM     14  C   UNL A   1      39.646  29.804  30.759  1.00  0.00     0.074 A 
ATOM     15  C   UNL A   1      41.543  28.657  31.864  1.00  0.00     0.049 A 
ATOM     16  N   UNL A   1      39.329  30.686  31.672  1.00  0.00    -0.248 NA
ATOM     17  C   UNL A   1      38.805  29.865  29.552  1.00  0.00     0.031 C 
ATOM     18  C   UNL A   1      42.652  27.703  31.985  1.00  0.00     0.029 A 
ATOM     19  N   UNL A   1      41.557  29.329  33.059  1.00  0.00    -0.354 N 
ATOM     20  C   UNL A   1      38.271  31.418  31.149  1.00  0.00     0.074 A 
ATOM     21  C   UNL A   1      38.005  30.887  29.829  1.00  0.00     0.031 C 
ATOM     22  C   UNL A   1      43.213  27.827  33.195  1.00  0.00     0.029 A 
ATOM     23  C   UNL A   1      42.556  28.912  33.909  1.00  0.00     0.049 A 
ATOM     24  H   UNL A   1      40.916  30.039  33.286  1.00  0.00     0.167 HD
ATOM     25  C   UNL A   1      37.589  32.436  31.725  1.00  0.00     0.037 A 
ATOM     26  C   UNL A   1      42.926  29.375  35.117  1.00  0.00     0.037 A 
ATOM     27  C   UNL A   1      37.855  32.937  33.052  1.00  0.00     0.049 A 
ATOM     28  C   UNL A   1      42.161  30.519  35.717  1.00  0.00     0.074 A 
ATOM     29  C   UNL A   1      37.175  33.921  33.750  1.00  0.00     0.029 A 
ATOM     30  N   UNL A   1      38.885  32.506  33.875  1.00  0.00    -0.354 N 
ATOM     31  N   UNL A   1      41.122  31.156  35.233  1.00  0.00    -0.248 NA
ATOM     32  C   UNL A   1      42.620  31.014  37.020  1.00  0.00     0.031 C 
ATOM     33  C   UNL A   1      37.826  34.124  34.970  1.00  0.00     0.029 A 
ATOM     34  C   UNL A   1      38.881  33.229  35.057  1.00  0.00     0.049 A 
ATOM     35  H   UNL A   1      39.525  31.791  33.652  1.00  0.00     0.167 HD
ATOM     36  C   UNL A   1      40.797  32.121  36.177  1.00  0.00     0.074 A 
ATOM     37  C   UNL A   1      41.731  31.962  37.273  1.00  0.00     0.031 C 
ATOM     38  C   UNL A   1      39.821  33.059  36.136  1.00  0.00     0.037 A 
BRANCH  25  39
ATOM     39  C   UNL A   1      36.492  33.101  30.940  1.00  0.00     0.058 A 
ATOM     40  C   UNL A   1      35.137  32.914  31.255  1.00  0.00     0.135 A 
ATOM     41  C   UNL A   1      36.807  34.031  29.933  1.00  0.00     0.135 A 
ATOM     42  F   UNL A   1      34.780  32.028  32.198  1.00  0.00    -0.206 F 
ATOM     43  C   UNL A   1      34.135  33.624  30.603  1.00  0.00     0.059 A 
ATOM     44  C   UNL A   1      35.822  34.769  29.283  1.00  0.00     0.059 A 
ATOM     45  F   UNL A   1      38.086  34.247  29.591  1.00  0.00    -0.206 F 
ATOM     46  C   UNL A   1      34.487  34.557  29.624  1.00  0.00     0.060 A 
BRANCH  46  47
ATOM     47  S   UNL A   1      33.176  35.513  28.831  1.00  0.00     0.124 S 
ATOM     48  O   UNL A   1      32.493  34.483  28.054  1.00  0.00    -0.237 OA
ATOM     49  O   UNL A   1      32.436  36.036  29.976  1.00  0.00    -0.237 OA
ATOM     50  O   UNL A   1      33.903  36.509  28.051  1.00  0.00    -0.744 OA
ENDBRANCH  46  47
ENDBRANCH  25  39
BRANCH  26  51
ATOM     51  C   UNL A   1      44.102  28.787  35.813  1.00  0.00     0.058 A 
ATOM     52  C   UNL A   1      45.392  29.303  35.624  1.00  0.00     0.135 A 
ATOM     53  C   UNL A   1      43.956  27.688  36.674  1.00  0.00     0.135 A 
ATOM     54  F   UNL A   1      45.583  30.353  34.811  1.00  0.00    -0.206 F 
ATOM     55  C   UNL A   1      46.500  28.729  36.237  1.00  0.00     0.059 A 
ATOM     56  C   UNL A   1      45.044  27.118  37.324  1.00  0.00     0.059 A 
ATOM     57  F   UNL A   1      42.739  27.170  36.906  1.00  0.00    -0.206 F 
ATOM     58  C   UNL A   1      46.316  27.633  37.083  1.00  0.00     0.060 A 
BRANCH  58  59
ATOM     59  S   UNL A   1      47.758  26.897  37.880  1.00  0.00     0.124 S 
ATOM     60  O   UNL A   1      48.077  25.812  36.959  1.00  0.00    -0.237 OA
ATOM     61  O   UNL A   1      48.700  28.011  37.904  1.00  0.00    -0.237 OA
ATOM     62  O   UNL A   1      47.247  26.489  39.185  1.00  0.00    -0.744 OA
ENDBRANCH  58  59
ENDBRANCH  26  51
BRANCH  38  63
ATOM     63  C   UNL A   1      39.706  33.976  37.322  1.00  0.00     0.058 A 
ATOM     64  C   UNL A   1      40.284  35.255  37.316  1.00  0.00     0.135 A 
ATOM     65  C   UNL A   1      38.984  33.585  38.460  1.00  0.00     0.135 A 
ATOM     66  F   UNL A   1      40.995  35.672  36.256  1.00  0.00    -0.206 F 
ATOM     67  C   UNL A   1      40.172  36.107  38.410  1.00  0.00     0.059 A 
ATOM     68  C   UNL A   1      38.834  34.431  39.553  1.00  0.00     0.059 A 
ATOM     69  F   UNL A   1      38.406  32.374  38.512  1.00  0.00    -0.206 F 
ATOM     70  C   UNL A   1      39.442  35.685  39.524  1.00  0.00     0.060 A 
BRANCH  70  71
ATOM     71  S   UNL A   1      39.278  36.811  40.925  1.00  0.00     0.124 S 
ATOM     72  O   UNL A   1      38.584  37.940  40.315  1.00  0.00    -0.237 OA
ATOM     73  O   UNL A   1      38.495  36.022  41.870  1.00  0.00    -0.237 OA
ATOM     74  O   UNL A   1      40.660  37.062  41.321  1.00  0.00    -0.744 OA
ENDBRANCH  70  71
ENDBRANCH  38  63
ENDBRANCH  12  13
ENDBRANCH   5   7
ENDBRANCH   2   3
ENDBRANCH   1   2
BRANCH   1  75
ATOM     75  C   UNL A   1      43.317  21.915  25.543  1.00  0.00     0.117 C 
BRANCH  75  76
ATOM     76  N   UNL A   1      43.273  20.460  25.523  1.00  0.00    -0.354 N 
ATOM     77  C   UNL A   1      42.316  19.613  26.006  1.00  0.00     0.249 C 
ATOM     78  H   UNL A   1      44.046  20.024  25.100  1.00  0.00     0.163 HD
ATOM     79  O   UNL A   1      42.509  18.398  25.907  1.00  0.00    -0.272 OA
BRANCH  77  80
ATOM     80  C   UNL A   1      41.047  20.161  26.675  1.00  0.00     0.207 C 
BRANCH  80  81
ATOM     81  C   UNL A   1      39.806  19.860  25.826  1.00  0.00     0.077 C 
BRANCH  81  82
ATOM     82  C   UNL A   1      38.848  21.024  25.741  1.00  0.00    -0.045 A 
ATOM     83  C   UNL A   1      37.615  20.902  25.090  1.00  0.00     0.007 A 
ATOM     84  C   UNL A   1      39.199  22.254  26.320  1.00  0.00     0.007 A 
ATOM     85  C   UNL A   1      36.752  21.997  25.010  1.00  0.00     0.046 A 
ATOM     86  C   UNL A   1      38.343  23.349  26.230  1.00  0.00     0.046 A 
ATOM     87  C   UNL A   1      37.127  23.213  25.576  1.00  0.00     0.115 A 
BRANCH  87  88
ATOM     88  O   UNL A   1      36.320  24.308  25.507  1.00  0.00    -0.508 OA
ATOM     89  H   UNL A   1      35.495  24.311  25.953  1.00  0.00     0.293 HD
ENDBRANCH  87  88
ENDBRANCH  81  82
ENDBRANCH  80  81
BRANCH  80  90
ATOM     90  O   UNL A   1      40.933  19.666  28.010  1.00  0.00    -0.383 OA
ATOM     91  H   UNL A   1      40.975  20.407  28.634  1.00  0.00     0.211 HD
ENDBRANCH  80  90
ENDBRANCH  77  80
ENDBRANCH  75  76
ENDBRANCH   1  75
TORSDOF 17
ENDMDL
