MODEL 1
REMARK VINA RESULT:     -12.8      0.000      0.000
REMARK SMILES CC[NH+]1CCN(c2ccc(NC(=O)C3CCCC3)c(C(=O)NCCCNC(=O)c3ccc(-c4c5nc(c(-c6c(F)cc(S(=O)(=O)[O-])cc6F)c6ccc([nH]6)c(-c6c(F)cc(S(=O)(=O)[O-])cc6F)c6nc(c(-c7c(F)cc(S(=O)(=O)[O-])cc7F)c7ccc4[nH]7)C=C6)C=C5)cc3)c2)CC1
REMARK SMILES IDX 24 1 23 2 22 3 20 4 21 5 19 7 7 8 8 9 95 10 9 11 10 12 6 13
REMARK SMILES IDX 3 14 4 15 97 16 5 18 96 19 2 20 1 21 11 22 12 23 13 25 14 26
REMARK SMILES IDX 15 27 18 28 16 29 17 30 25 31 26 32 27 33 28 35 29 36 30 37
REMARK SMILES IDX 94 38 31 39 93 40 32 41 33 42 34 43 87 44 35 45 92 46 86 47
REMARK SMILES IDX 88 48 36 49 91 50 85 51 84 52 37 54 71 55 50 56 70 57 51 58
REMARK SMILES IDX 54 59 69 60 89 61 52 62 53 63 68 65 90 66 55 67 38 68 39 69
REMARK SMILES IDX 48 70 40 71 41 72 47 73 49 74 42 75 43 76 44 77 45 78 46 79
REMARK SMILES IDX 72 80 73 81 82 82 74 83 75 84 81 85 83 86 76 87 77 88 78 89
REMARK SMILES IDX 79 90 80 91 56 92 57 93 66 94 58 95 59 96 65 97 67 98 60 99
REMARK SMILES IDX 61 100 62 101 63 102 64 103
REMARK H PARENT 22 6 3 17 11 24 26 34 88 53 54 64
REMARK Flexibility Score: inf
ROOT
ATOM      1  C   UNL A   1      37.476  23.560  25.722  1.00  0.00     0.042 C 
ENDROOT
BRANCH   1   2
ATOM      2  C   UNL A   1      36.018  23.888  25.995  1.00  0.00     0.118 C 
BRANCH   2   3
ATOM      3  N   UNL A   1      35.351  23.015  26.964  1.00  0.00    -0.352 N 
ATOM      4  C   UNL A   1      34.025  22.736  27.235  1.00  0.00     0.253 C 
ATOM      5  O   UNL A   1      33.774  21.923  28.125  1.00  0.00    -0.269 OA
ATOM      6  H   UNL A   1      35.979  22.527  27.543  1.00  0.00     0.163 HD
BRANCH   4   7
ATOM      7  C   UNL A   1      32.904  23.459  26.569  1.00  0.00     0.065 A 
ATOM      8  C   UNL A   1      31.861  25.641  26.188  1.00  0.00     0.038 A 
ATOM      9  C   UNL A   1      30.651  24.958  26.072  1.00  0.00     0.028 A 
ATOM     10  C   UNL A   1      32.990  24.838  26.349  1.00  0.00     0.042 A 
ATOM     11  C   UNL A   1      30.587  23.564  26.060  1.00  0.00     0.029 A 
ATOM     12  C   UNL A   1      31.728  22.796  26.189  1.00  0.00     0.054 A 
BRANCH   8  13
ATOM     13  N   UNL A   1      31.917  27.020  26.188  1.00  0.00    -0.360 N 
ATOM     14  N   UNL A   1      33.702  29.339  25.744  1.00  0.00    -0.332 N 
ATOM     15  C   UNL A   1      33.834  28.441  26.917  1.00  0.00     0.283 C 
ATOM     16  C   UNL A   1      33.128  28.543  24.636  1.00  0.00     0.283 C 
ATOM     17  H   UNL A   1      34.604  29.705  25.440  1.00  0.00     0.348 HD
ATOM     18  C   UNL A   1      32.524  27.731  27.337  1.00  0.00     0.178 C 
ATOM     19  C   UNL A   1      31.788  27.847  24.972  1.00  0.00     0.178 C 
BRANCH  14  20
ATOM     20  C   UNL A   1      32.897  30.519  26.102  1.00  0.00     0.258 C 
ATOM     21  C   UNL A   1      33.364  31.208  27.376  1.00  0.00     0.071 C 
ENDBRANCH  14  20
ENDBRANCH   8  13
BRANCH  12  22
ATOM     22  N   UNL A   1      31.742  21.421  25.900  1.00  0.00    -0.325 N 
ATOM     23  C   UNL A   1      32.203  20.693  24.843  1.00  0.00     0.227 C 
ATOM     24  H   UNL A   1      31.334  20.869  26.606  1.00  0.00     0.169 HD
ATOM     25  O   UNL A   1      32.056  19.462  24.915  1.00  0.00    -0.274 OA
BRANCH  23  26
ATOM     26  C   UNL A   1      32.903  21.241  23.590  1.00  0.00     0.079 C 
ATOM     27  C   UNL A   1      32.029  22.180  22.764  1.00  0.00     0.013 C 
ATOM     28  C   UNL A   1      34.295  21.874  23.694  1.00  0.00     0.013 C 
ATOM     29  C   UNL A   1      32.993  23.105  22.036  1.00  0.00     0.001 C 
ATOM     30  C   UNL A   1      34.252  23.171  22.887  1.00  0.00     0.001 C 
ENDBRANCH  23  26
ENDBRANCH  12  22
ENDBRANCH   4   7
ENDBRANCH   2   3
ENDBRANCH   1   2
BRANCH   1  31
ATOM     31  C   UNL A   1      38.461  24.288  26.619  1.00  0.00     0.118 C 
BRANCH  31  32
ATOM     32  N   UNL A   1      39.826  24.254  26.104  1.00  0.00    -0.352 N 
ATOM     33  C   UNL A   1      40.928  25.023  26.398  1.00  0.00     0.251 C 
ATOM     34  H   UNL A   1      39.987  23.558  25.427  1.00  0.00     0.163 HD
ATOM     35  O   UNL A   1      41.918  24.949  25.676  1.00  0.00    -0.269 OA
BRANCH  33  36
ATOM     36  C   UNL A   1      40.925  25.943  27.558  1.00  0.00     0.039 A 
ATOM     37  C   UNL A   1      41.949  26.888  27.683  1.00  0.00     0.014 A 
ATOM     38  C   UNL A   1      39.934  25.865  28.536  1.00  0.00     0.014 A 
ATOM     39  C   UNL A   1      41.926  27.802  28.740  1.00  0.00     0.010 A 
ATOM     40  C   UNL A   1      39.851  26.842  29.521  1.00  0.00     0.010 A 
ATOM     41  C   UNL A   1      40.849  27.820  29.641  1.00  0.00    -0.014 A 
BRANCH  41  42
ATOM     42  C   UNL A   1      40.740  28.840  30.716  1.00  0.00     0.031 A 
ATOM     43  C   UNL A   1      41.607  28.737  31.944  1.00  0.00     0.074 A 
ATOM     44  C   UNL A   1      39.803  29.806  30.625  1.00  0.00     0.049 A 
ATOM     45  N   UNL A   1      41.585  29.461  33.033  1.00  0.00    -0.248 NA
ATOM     46  C   UNL A   1      42.608  27.655  31.967  1.00  0.00     0.031 C 
ATOM     47  C   UNL A   1      38.866  29.975  29.512  1.00  0.00     0.029 A 
ATOM     48  N   UNL A   1      39.470  30.818  31.491  1.00  0.00    -0.354 N 
ATOM     49  C   UNL A   1      42.546  28.911  33.874  1.00  0.00     0.074 A 
ATOM     50  C   UNL A   1      43.096  27.760  33.194  1.00  0.00     0.031 C 
ATOM     51  C   UNL A   1      38.080  31.037  29.753  1.00  0.00     0.029 A 
ATOM     52  C   UNL A   1      38.422  31.596  31.056  1.00  0.00     0.049 A 
ATOM     53  H   UNL A   1      39.939  30.972  32.344  1.00  0.00     0.167 HD
ATOM     54  C   UNL A   1      42.951  29.341  35.093  1.00  0.00     0.037 A 
ATOM     55  C   UNL A   1      37.795  32.633  31.647  1.00  0.00     0.037 A 
ATOM     56  C   UNL A   1      42.422  30.510  35.746  1.00  0.00     0.049 A 
ATOM     57  C   UNL A   1      38.268  33.095  33.001  1.00  0.00     0.074 A 
ATOM     58  C   UNL A   1      42.817  31.075  36.947  1.00  0.00     0.029 A 
ATOM     59  N   UNL A   1      41.385  31.291  35.257  1.00  0.00    -0.354 N 
ATOM     60  N   UNL A   1      39.232  32.609  33.746  1.00  0.00    -0.248 NA
ATOM     61  C   UNL A   1      37.575  34.248  33.590  1.00  0.00     0.031 C 
ATOM     62  C   UNL A   1      41.982  32.163  37.211  1.00  0.00     0.029 A 
ATOM     63  C   UNL A   1      41.108  32.316  36.147  1.00  0.00     0.049 A 
ATOM     64  H   UNL A   1      40.916  31.139  34.405  1.00  0.00     0.167 HD
ATOM     65  C   UNL A   1      39.278  33.415  34.880  1.00  0.00     0.074 A 
ATOM     66  C   UNL A   1      38.257  34.427  34.714  1.00  0.00     0.031 C 
ATOM     67  C   UNL A   1      40.093  33.324  35.960  1.00  0.00     0.037 A 
BRANCH  54  68
ATOM     68  C   UNL A   1      44.021  28.554  35.800  1.00  0.00     0.058 A 
ATOM     69  C   UNL A   1      43.710  27.496  36.668  1.00  0.00     0.135 A 
ATOM     70  C   UNL A   1      45.379  28.824  35.562  1.00  0.00     0.135 A 
ATOM     71  F   UNL A   1      42.430  27.202  36.947  1.00  0.00    -0.206 F 
ATOM     72  C   UNL A   1      44.704  26.748  37.292  1.00  0.00     0.059 A 
ATOM     73  C   UNL A   1      46.390  28.069  36.150  1.00  0.00     0.059 A 
ATOM     74  F   UNL A   1      45.735  29.827  34.743  1.00  0.00    -0.206 F 
ATOM     75  C   UNL A   1      46.042  27.038  37.021  1.00  0.00     0.060 A 
BRANCH  75  76
ATOM     76  S   UNL A   1      47.317  26.039  37.817  1.00  0.00     0.124 S 
ATOM     77  O   UNL A   1      46.514  25.155  38.655  1.00  0.00    -0.237 OA
ATOM     78  O   UNL A   1      47.971  25.407  36.676  1.00  0.00    -0.237 OA
ATOM     79  O   UNL A   1      48.123  27.022  38.534  1.00  0.00    -0.744 OA
ENDBRANCH  75  76
ENDBRANCH  54  68
BRANCH  55  80
ATOM     80  C   UNL A   1      36.658  33.307  30.964  1.00  0.00     0.058 A 
ATOM     81  C   UNL A   1      36.869  34.139  29.854  1.00  0.00     0.135 A 
ATOM     82  C   UNL A   1      35.336  33.132  31.404  1.00  0.00     0.135 A 
ATOM     83  F   UNL A   1      38.114  34.344  29.397  1.00  0.00    -0.206 F 
ATOM     84  C   UNL A   1      35.816  34.793  29.220  1.00  0.00     0.059 A 
ATOM     85  C   UNL A   1      34.264  33.750  30.769  1.00  0.00     0.059 A 
ATOM     86  F   UNL A   1      35.075  32.332  32.450  1.00  0.00    -0.206 F 
ATOM     87  C   UNL A   1      34.516  34.591  29.686  1.00  0.00     0.060 A 
BRANCH  87  88
ATOM     88  S   UNL A   1      33.153  35.418  28.836  1.00  0.00     0.124 S 
ATOM     89  O   UNL A   1      32.570  34.317  28.077  1.00  0.00    -0.237 OA
ATOM     90  O   UNL A   1      32.356  35.919  29.951  1.00  0.00    -0.237 OA
ATOM     91  O   UNL A   1      33.824  36.444  28.045  1.00  0.00    -0.744 OA
ENDBRANCH  87  88
ENDBRANCH  55  80
BRANCH  67  92
ATOM     92  C   UNL A   1      39.943  34.366  37.033  1.00  0.00     0.058 A 
ATOM     93  C   UNL A   1      40.657  35.574  36.995  1.00  0.00     0.135 A 
ATOM     94  C   UNL A   1      39.024  34.180  38.079  1.00  0.00     0.135 A 
ATOM     95  F   UNL A   1      41.553  35.801  36.022  1.00  0.00    -0.206 F 
ATOM     96  C   UNL A   1      40.479  36.552  37.969  1.00  0.00     0.059 A 
ATOM     97  C   UNL A   1      38.807  35.158  39.044  1.00  0.00     0.059 A 
ATOM     98  F   UNL A   1      38.307  33.047  38.156  1.00  0.00    -0.206 F 
ATOM     99  C   UNL A   1      39.548  36.337  38.986  1.00  0.00     0.060 A 
BRANCH  99 100
ATOM    100  S   UNL A   1      39.297  37.633  40.217  1.00  0.00     0.124 S 
ATOM    101  O   UNL A   1      38.197  38.389  39.628  1.00  0.00    -0.237 OA
ATOM    102  O   UNL A   1      38.970  36.866  41.415  1.00  0.00    -0.237 OA
ATOM    103  O   UNL A   1      40.584  38.323  40.253  1.00  0.00    -0.744 OA
ENDBRANCH  99 100
ENDBRANCH  67  92
ENDBRANCH  41  42
ENDBRANCH  33  36
ENDBRANCH  31  32
ENDBRANCH   1  31
TORSDOF 17
ENDMDL
MODEL 2
REMARK VINA RESULT:     -12.7      4.936     10.405
REMARK SMILES CC[NH+]1CCN(c2ccc(NC(=O)C3CCCC3)c(C(=O)NCCCNC(=O)c3ccc(-c4c5nc(c(-c6c(F)cc(S(=O)(=O)[O-])cc6F)c6ccc([nH]6)c(-c6c(F)cc(S(=O)(=O)[O-])cc6F)c6nc(c(-c7c(F)cc(S(=O)(=O)[O-])cc7F)c7ccc4[nH]7)C=C6)C=C5)cc3)c2)CC1
REMARK SMILES IDX 24 1 23 2 22 3 20 4 21 5 19 7 7 8 8 9 95 10 9 11 10 12 6 13
REMARK SMILES IDX 3 14 4 15 97 16 5 18 96 19 2 20 1 21 11 22 12 23 13 25 14 26
REMARK SMILES IDX 15 27 18 28 16 29 17 30 25 31 26 32 27 33 28 35 29 36 30 37
REMARK SMILES IDX 94 38 31 39 93 40 32 41 33 42 34 43 87 44 35 45 92 46 86 47
REMARK SMILES IDX 88 48 36 49 91 50 85 51 84 52 37 54 71 55 50 56 70 57 51 58
REMARK SMILES IDX 54 59 69 60 89 61 52 62 53 63 68 65 90 66 55 67 38 68 39 69
REMARK SMILES IDX 48 70 40 71 41 72 47 73 49 74 42 75 43 76 44 77 45 78 46 79
REMARK SMILES IDX 72 80 73 81 82 82 74 83 75 84 81 85 83 86 76 87 77 88 78 89
REMARK SMILES IDX 79 90 80 91 56 92 57 93 66 94 58 95 59 96 65 97 67 98 60 99
REMARK SMILES IDX 61 100 62 101 63 102 64 103
REMARK H PARENT 22 6 3 17 11 24 26 34 88 53 54 64
REMARK Flexibility Score: inf
ROOT
ATOM      1  C   UNL A   1      34.070  28.180  25.874  1.00  0.00     0.042 C 
ENDROOT
BRANCH   1   2
ATOM      2  C   UNL A   1      33.413  29.085  24.846  1.00  0.00     0.118 C 
BRANCH   2   3
ATOM      3  N   UNL A   1      33.999  29.037  23.504  1.00  0.00    -0.352 N 
ATOM      4  C   UNL A   1      33.983  28.093  22.494  1.00  0.00     0.253 C 
ATOM      5  O   UNL A   1      34.572  28.356  21.446  1.00  0.00    -0.269 OA
ATOM      6  H   UNL A   1      34.511  29.845  23.275  1.00  0.00     0.163 HD
BRANCH   4   7
ATOM      7  C   UNL A   1      33.378  26.742  22.673  1.00  0.00     0.065 A 
ATOM      8  C   UNL A   1      33.820  24.393  23.202  1.00  0.00     0.038 A 
ATOM      9  C   UNL A   1      32.719  24.085  22.404  1.00  0.00     0.028 A 
ATOM     10  C   UNL A   1      34.065  25.754  23.385  1.00  0.00     0.042 A 
ATOM     11  C   UNL A   1      31.889  25.073  21.875  1.00  0.00     0.029 A 
ATOM     12  C   UNL A   1      32.140  26.412  22.103  1.00  0.00     0.054 A 
BRANCH   8  13
ATOM     13  N   UNL A   1      34.630  23.408  23.730  1.00  0.00    -0.360 N 
ATOM     14  N   UNL A   1      36.056  22.543  26.176  1.00  0.00    -0.332 N 
ATOM     15  C   UNL A   1      36.484  23.715  25.373  1.00  0.00     0.283 C 
ATOM     16  C   UNL A   1      34.593  22.395  26.003  1.00  0.00     0.283 C 
ATOM     17  H   UNL A   1      36.248  22.671  27.170  1.00  0.00     0.348 HD
ATOM     18  C   UNL A   1      36.083  23.653  23.879  1.00  0.00     0.178 C 
ATOM     19  C   UNL A   1      34.129  22.275  24.532  1.00  0.00     0.178 C 
BRANCH  14  20
ATOM     20  C   UNL A   1      36.822  21.351  25.775  1.00  0.00     0.258 C 
ATOM     21  C   UNL A   1      38.299  21.631  25.535  1.00  0.00     0.071 C 
ENDBRANCH  14  20
ENDBRANCH   8  13
BRANCH  12  22
ATOM     22  N   UNL A   1      31.187  27.410  21.834  1.00  0.00    -0.325 N 
ATOM     23  C   UNL A   1      30.145  27.922  22.550  1.00  0.00     0.227 C 
ATOM     24  H   UNL A   1      31.291  27.822  20.947  1.00  0.00     0.169 HD
ATOM     25  O   UNL A   1      29.490  28.823  22.001  1.00  0.00    -0.274 OA
BRANCH  23  26
ATOM     26  C   UNL A   1      29.720  27.514  23.969  1.00  0.00     0.079 C 
ATOM     27  C   UNL A   1      29.158  26.098  24.054  1.00  0.00     0.013 C 
ATOM     28  C   UNL A   1      30.677  27.706  25.151  1.00  0.00     0.013 C 
ATOM     29  C   UNL A   1      29.429  25.633  25.477  1.00  0.00     0.001 C 
ATOM     30  C   UNL A   1      30.644  26.410  25.960  1.00  0.00     0.001 C 
ENDBRANCH  23  26
ENDBRANCH  12  22
ENDBRANCH   4   7
ENDBRANCH   2   3
ENDBRANCH   1   2
BRANCH   1  31
ATOM     31  C   UNL A   1      33.610  28.414  27.301  1.00  0.00     0.118 C 
BRANCH  31  32
ATOM     32  N   UNL A   1      33.612  29.826  27.672  1.00  0.00    -0.352 N 
ATOM     33  C   UNL A   1      34.564  30.601  28.293  1.00  0.00     0.251 C 
ATOM     34  H   UNL A   1      32.788  30.308  27.434  1.00  0.00     0.163 HD
ATOM     35  O   UNL A   1      34.253  31.718  28.696  1.00  0.00    -0.269 OA
BRANCH  33  36
ATOM     36  C   UNL A   1      35.941  30.098  28.494  1.00  0.00     0.039 A 
ATOM     37  C   UNL A   1      36.840  30.123  27.423  1.00  0.00     0.014 A 
ATOM     38  C   UNL A   1      36.346  29.578  29.723  1.00  0.00     0.014 A 
ATOM     39  C   UNL A   1      38.161  29.707  27.613  1.00  0.00     0.010 A 
ATOM     40  C   UNL A   1      37.684  29.271  29.941  1.00  0.00     0.010 A 
ATOM     41  C   UNL A   1      38.608  29.324  28.888  1.00  0.00    -0.014 A 
BRANCH  41  42
ATOM     42  C   UNL A   1      40.028  28.973  29.150  1.00  0.00     0.031 A 
ATOM     43  C   UNL A   1      40.977  30.015  29.682  1.00  0.00     0.074 A 
ATOM     44  C   UNL A   1      40.480  27.744  28.827  1.00  0.00     0.049 A 
ATOM     45  N   UNL A   1      42.269  29.935  29.871  1.00  0.00    -0.248 NA
ATOM     46  C   UNL A   1      40.406  31.333  30.013  1.00  0.00     0.031 C 
ATOM     47  C   UNL A   1      39.671  26.667  28.251  1.00  0.00     0.029 A 
ATOM     48  N   UNL A   1      41.736  27.196  28.919  1.00  0.00    -0.354 N 
ATOM     49  C   UNL A   1      42.665  31.191  30.318  1.00  0.00     0.074 A 
ATOM     50  C   UNL A   1      41.489  32.031  30.320  1.00  0.00     0.031 C 
ATOM     51  C   UNL A   1      40.444  25.586  28.061  1.00  0.00     0.029 A 
ATOM     52  C   UNL A   1      41.812  25.903  28.455  1.00  0.00     0.049 A 
ATOM     53  H   UNL A   1      42.510  27.684  29.284  1.00  0.00     0.167 HD
ATOM     54  C   UNL A   1      43.894  31.599  30.714  1.00  0.00     0.037 A 
ATOM     55  C   UNL A   1      42.867  25.072  28.342  1.00  0.00     0.037 A 
ATOM     56  C   UNL A   1      45.052  30.745  30.743  1.00  0.00     0.049 A 
ATOM     57  C   UNL A   1      44.222  25.549  28.795  1.00  0.00     0.074 A 
ATOM     58  C   UNL A   1      46.326  31.039  31.198  1.00  0.00     0.029 A 
ATOM     59  N   UNL A   1      45.080  29.431  30.297  1.00  0.00    -0.354 N 
ATOM     60  N   UNL A   1      44.562  26.716  29.288  1.00  0.00    -0.248 NA
ATOM     61  C   UNL A   1      45.335  24.597  28.683  1.00  0.00     0.031 C 
ATOM     62  C   UNL A   1      47.136  29.923  30.976  1.00  0.00     0.029 A 
ATOM     63  C   UNL A   1      46.356  28.912  30.440  1.00  0.00     0.049 A 
ATOM     64  H   UNL A   1      44.308  28.942  29.932  1.00  0.00     0.167 HD
ATOM     65  C   UNL A   1      45.921  26.629  29.570  1.00  0.00     0.074 A 
ATOM     66  C   UNL A   1      46.337  25.290  29.207  1.00  0.00     0.031 C 
ATOM     67  C   UNL A   1      46.750  27.571  30.083  1.00  0.00     0.037 A 
BRANCH  54  68
ATOM     68  C   UNL A   1      44.055  33.029  31.157  1.00  0.00     0.058 A 
ATOM     69  C   UNL A   1      43.895  33.410  32.499  1.00  0.00     0.135 A 
ATOM     70  C   UNL A   1      44.430  34.022  30.237  1.00  0.00     0.135 A 
ATOM     71  F   UNL A   1      43.521  32.508  33.420  1.00  0.00    -0.206 F 
ATOM     72  C   UNL A   1      44.081  34.727  32.910  1.00  0.00     0.059 A 
ATOM     73  C   UNL A   1      44.651  35.339  30.631  1.00  0.00     0.059 A 
ATOM     74  F   UNL A   1      44.593  33.715  28.941  1.00  0.00    -0.206 F 
ATOM     75  C   UNL A   1      44.464  35.683  31.968  1.00  0.00     0.060 A 
BRANCH  75  76
ATOM     76  S   UNL A   1      44.728  37.380  32.524  1.00  0.00     0.124 S 
ATOM     77  O   UNL A   1      44.372  38.137  31.329  1.00  0.00    -0.237 OA
ATOM     78  O   UNL A   1      43.796  37.488  33.642  1.00  0.00    -0.237 OA
ATOM     79  O   UNL A   1      46.142  37.405  32.884  1.00  0.00    -0.744 OA
ENDBRANCH  75  76
ENDBRANCH  54  68
BRANCH  55  80
ATOM     80  C   UNL A   1      42.685  23.705  27.783  1.00  0.00     0.058 A 
ATOM     81  C   UNL A   1      42.706  23.479  26.399  1.00  0.00     0.135 A 
ATOM     82  C   UNL A   1      42.488  22.595  28.621  1.00  0.00     0.135 A 
ATOM     83  F   UNL A   1      42.886  24.506  25.555  1.00  0.00    -0.206 F 
ATOM     84  C   UNL A   1      42.515  22.208  25.863  1.00  0.00     0.059 A 
ATOM     85  C   UNL A   1      42.324  21.311  28.111  1.00  0.00     0.059 A 
ATOM     86  F   UNL A   1      42.477  22.752  29.954  1.00  0.00    -0.206 F 
ATOM     87  C   UNL A   1      42.325  21.131  26.729  1.00  0.00     0.060 A 
BRANCH  87  88
ATOM     88  S   UNL A   1      42.111  19.480  26.025  1.00  0.00     0.124 S 
ATOM     89  O   UNL A   1      40.668  19.437  25.813  1.00  0.00    -0.237 OA
ATOM     90  O   UNL A   1      42.932  19.553  24.821  1.00  0.00    -0.237 OA
ATOM     91  O   UNL A   1      42.623  18.600  27.070  1.00  0.00    -0.744 OA
ENDBRANCH  87  88
ENDBRANCH  55  80
BRANCH  67  92
ATOM     92  C   UNL A   1      48.183  27.182  30.320  1.00  0.00     0.058 A 
ATOM     93  C   UNL A   1      49.161  27.315  29.323  1.00  0.00     0.135 A 
ATOM     94  C   UNL A   1      48.594  26.730  31.586  1.00  0.00     0.135 A 
ATOM     95  F   UNL A   1      48.821  27.735  28.094  1.00  0.00    -0.206 F 
ATOM     96  C   UNL A   1      50.493  26.995  29.565  1.00  0.00     0.059 A 
ATOM     97  C   UNL A   1      49.925  26.435  31.859  1.00  0.00     0.059 A 
ATOM     98  F   UNL A   1      47.700  26.596  32.579  1.00  0.00    -0.206 F 
ATOM     99  C   UNL A   1      50.866  26.560  30.838  1.00  0.00     0.060 A 
BRANCH  99 100
ATOM    100  S   UNL A   1      52.605  26.190  31.150  1.00  0.00     0.124 S 
ATOM    101  O   UNL A   1      52.514  24.901  31.828  1.00  0.00    -0.237 OA
ATOM    102  O   UNL A   1      53.163  26.158  29.801  1.00  0.00    -0.237 OA
ATOM    103  O   UNL A   1      53.048  27.306  31.980  1.00  0.00    -0.744 OA
ENDBRANCH  99 100
ENDBRANCH  67  92
ENDBRANCH  41  42
ENDBRANCH  33  36
ENDBRANCH  31  32
ENDBRANCH   1  31
TORSDOF 17
ENDMDL
MODEL 3
REMARK VINA RESULT:     -12.4      1.833      9.026
REMARK SMILES CC[NH+]1CCN(c2ccc(NC(=O)C3CCCC3)c(C(=O)NCCCNC(=O)c3ccc(-c4c5nc(c(-c6c(F)cc(S(=O)(=O)[O-])cc6F)c6ccc([nH]6)c(-c6c(F)cc(S(=O)(=O)[O-])cc6F)c6nc(c(-c7c(F)cc(S(=O)(=O)[O-])cc7F)c7ccc4[nH]7)C=C6)C=C5)cc3)c2)CC1
REMARK SMILES IDX 24 1 23 2 22 3 20 4 21 5 19 7 7 8 8 9 95 10 9 11 10 12 6 13
REMARK SMILES IDX 3 14 4 15 97 16 5 18 96 19 2 20 1 21 11 22 12 23 13 25 14 26
REMARK SMILES IDX 15 27 18 28 16 29 17 30 25 31 26 32 27 33 28 35 29 36 30 37
REMARK SMILES IDX 94 38 31 39 93 40 32 41 33 42 34 43 87 44 35 45 92 46 86 47
REMARK SMILES IDX 88 48 36 49 91 50 85 51 84 52 37 54 71 55 50 56 70 57 51 58
REMARK SMILES IDX 54 59 69 60 89 61 52 62 53 63 68 65 90 66 55 67 38 68 39 69
REMARK SMILES IDX 48 70 40 71 41 72 47 73 49 74 42 75 43 76 44 77 45 78 46 79
REMARK SMILES IDX 72 80 73 81 82 82 74 83 75 84 81 85 83 86 76 87 77 88 78 89
REMARK SMILES IDX 79 90 80 91 56 92 57 93 66 94 58 95 59 96 65 97 67 98 60 99
REMARK SMILES IDX 61 100 62 101 63 102 64 103
REMARK H PARENT 22 6 3 17 11 24 26 34 88 53 54 64
REMARK Flexibility Score: inf
ROOT
ATOM      1  C   UNL A   1      39.128  22.284  26.478  1.00  0.00     0.042 C 
ENDROOT
BRANCH   1   2
ATOM      2  C   UNL A   1      37.787  22.800  25.985  1.00  0.00     0.118 C 
BRANCH   2   3
ATOM      3  N   UNL A   1      37.712  23.072  24.548  1.00  0.00    -0.352 N 
ATOM      4  C   UNL A   1      36.691  22.996  23.619  1.00  0.00     0.253 C 
ATOM      5  O   UNL A   1      36.941  23.314  22.455  1.00  0.00    -0.269 OA
ATOM      6  H   UNL A   1      38.567  23.372  24.163  1.00  0.00     0.163 HD
BRANCH   4   7
ATOM      7  C   UNL A   1      35.348  22.441  23.952  1.00  0.00     0.065 A 
ATOM      8  C   UNL A   1      34.086  20.417  24.501  1.00  0.00     0.038 A 
ATOM      9  C   UNL A   1      32.985  21.033  23.909  1.00  0.00     0.028 A 
ATOM     10  C   UNL A   1      35.238  21.198  24.583  1.00  0.00     0.042 A 
ATOM     11  C   UNL A   1      33.022  22.361  23.482  1.00  0.00     0.029 A 
ATOM     12  C   UNL A   1      34.170  23.119  23.608  1.00  0.00     0.054 A 
BRANCH   8  13
ATOM     13  N   UNL A   1      34.037  19.106  24.931  1.00  0.00    -0.360 N 
ATOM     14  N   UNL A   1      32.982  16.417  24.283  1.00  0.00    -0.332 N 
ATOM     15  C   UNL A   1      32.111  17.533  24.725  1.00  0.00     0.283 C 
ATOM     16  C   UNL A   1      34.150  17.010  23.593  1.00  0.00     0.283 C 
ATOM     17  H   UNL A   1      32.506  15.797  23.628  1.00  0.00     0.348 HD
ATOM     18  C   UNL A   1      32.818  18.596  25.600  1.00  0.00     0.178 C 
ATOM     19  C   UNL A   1      34.935  18.045  24.433  1.00  0.00     0.178 C 
BRANCH  14  20
ATOM     20  C   UNL A   1      33.343  15.573  25.435  1.00  0.00     0.258 C 
ATOM     21  C   UNL A   1      32.455  14.347  25.590  1.00  0.00     0.071 C 
ENDBRANCH  14  20
ENDBRANCH   8  13
BRANCH  12  22
ATOM     22  N   UNL A   1      34.165  24.517  23.457  1.00  0.00    -0.325 N 
ATOM     23  C   UNL A   1      33.599  25.531  24.172  1.00  0.00     0.227 C 
ATOM     24  H   UNL A   1      34.674  24.828  22.675  1.00  0.00     0.169 HD
ATOM     25  O   UNL A   1      33.803  26.681  23.753  1.00  0.00    -0.274 OA
BRANCH  23  26
ATOM     26  C   UNL A   1      32.758  25.392  25.451  1.00  0.00     0.079 C 
ATOM     27  C   UNL A   1      31.258  25.305  25.187  1.00  0.00     0.013 C 
ATOM     28  C   UNL A   1      33.108  24.328  26.497  1.00  0.00     0.013 C 
ATOM     29  C   UNL A   1      30.679  24.527  26.361  1.00  0.00     0.001 C 
ATOM     30  C   UNL A   1      31.799  23.641  26.885  1.00  0.00     0.001 C 
ENDBRANCH  23  26
ENDBRANCH  12  22
ENDBRANCH   4   7
ENDBRANCH   2   3
ENDBRANCH   1   2
BRANCH   1  31
ATOM     31  C   UNL A   1      40.013  23.342  27.113  1.00  0.00     0.118 C 
BRANCH  31  32
ATOM     32  N   UNL A   1      40.776  24.105  26.131  1.00  0.00    -0.352 N 
ATOM     33  C   UNL A   1      41.084  25.444  26.060  1.00  0.00     0.251 C 
ATOM     34  H   UNL A   1      41.134  23.567  25.388  1.00  0.00     0.163 HD
ATOM     35  O   UNL A   1      41.558  25.893  25.020  1.00  0.00    -0.269 OA
BRANCH  33  36
ATOM     36  C   UNL A   1      40.836  26.343  27.209  1.00  0.00     0.039 A 
ATOM     37  C   UNL A   1      39.894  25.972  28.175  1.00  0.00     0.014 A 
ATOM     38  C   UNL A   1      41.505  27.560  27.329  1.00  0.00     0.014 A 
ATOM     39  C   UNL A   1      39.692  26.782  29.295  1.00  0.00     0.010 A 
ATOM     40  C   UNL A   1      41.386  28.307  28.495  1.00  0.00     0.010 A 
ATOM     41  C   UNL A   1      40.473  27.933  29.491  1.00  0.00    -0.014 A 
BRANCH  41  42
ATOM     42  C   UNL A   1      40.357  28.763  30.718  1.00  0.00     0.031 A 
ATOM     43  C   UNL A   1      39.346  29.878  30.781  1.00  0.00     0.074 A 
ATOM     44  C   UNL A   1      41.218  28.568  31.738  1.00  0.00     0.049 A 
ATOM     45  N   UNL A   1      39.167  30.777  31.714  1.00  0.00    -0.248 NA
ATOM     46  C   UNL A   1      38.441  30.026  29.628  1.00  0.00     0.031 C 
ATOM     47  C   UNL A   1      42.278  27.558  31.771  1.00  0.00     0.029 A 
ATOM     48  N   UNL A   1      41.352  29.223  32.938  1.00  0.00    -0.354 N 
ATOM     49  C   UNL A   1      38.149  31.606  31.252  1.00  0.00     0.074 A 
ATOM     50  C   UNL A   1      37.788  31.137  29.933  1.00  0.00     0.031 C 
ATOM     51  C   UNL A   1      42.938  27.646  32.937  1.00  0.00     0.029 A 
ATOM     52  C   UNL A   1      42.383  28.748  33.715  1.00  0.00     0.049 A 
ATOM     53  H   UNL A   1      40.764  29.962  33.215  1.00  0.00     0.167 HD
ATOM     54  C   UNL A   1      37.554  32.646  31.881  1.00  0.00     0.037 A 
ATOM     55  C   UNL A   1      42.842  29.163  34.912  1.00  0.00     0.037 A 
ATOM     56  C   UNL A   1      37.897  33.083  33.209  1.00  0.00     0.049 A 
ATOM     57  C   UNL A   1      42.159  30.321  35.593  1.00  0.00     0.074 A 
ATOM     58  C   UNL A   1      37.303  34.078  33.966  1.00  0.00     0.029 A 
ATOM     59  N   UNL A   1      38.924  32.554  33.977  1.00  0.00    -0.354 N 
ATOM     60  N   UNL A   1      41.147  31.042  35.174  1.00  0.00    -0.248 NA
ATOM     61  C   UNL A   1      42.674  30.716  36.911  1.00  0.00     0.031 C 
ATOM     62  C   UNL A   1      38.006  34.189  35.168  1.00  0.00     0.029 A 
ATOM     63  C   UNL A   1      38.999  33.222  35.188  1.00  0.00     0.049 A 
ATOM     64  H   UNL A   1      39.512  31.814  33.702  1.00  0.00     0.167 HD
ATOM     65  C   UNL A   1      40.887  31.958  36.187  1.00  0.00     0.074 A 
ATOM     66  C   UNL A   1      41.837  31.690  37.246  1.00  0.00     0.031 C 
ATOM     67  C   UNL A   1      39.946  32.934  36.237  1.00  0.00     0.037 A 
BRANCH  54  68
ATOM     68  C   UNL A   1      36.465  33.385  31.149  1.00  0.00     0.058 A 
ATOM     69  C   UNL A   1      36.741  34.202  30.041  1.00  0.00     0.135 A 
ATOM     70  C   UNL A   1      35.120  33.227  31.525  1.00  0.00     0.135 A 
ATOM     71  F   UNL A   1      38.008  34.403  29.646  1.00  0.00    -0.206 F 
ATOM     72  C   UNL A   1      35.727  34.853  29.346  1.00  0.00     0.059 A 
ATOM     73  C   UNL A   1      34.087  33.844  30.825  1.00  0.00     0.059 A 
ATOM     74  F   UNL A   1      34.799  32.460  32.578  1.00  0.00    -0.206 F 
ATOM     75  C   UNL A   1      34.402  34.663  29.742  1.00  0.00     0.060 A 
BRANCH  75  76
ATOM     76  S   UNL A   1      33.098  35.493  28.810  1.00  0.00     0.124 S 
ATOM     77  O   UNL A   1      32.543  34.388  28.037  1.00  0.00    -0.237 OA
ATOM     78  O   UNL A   1      32.244  36.015  29.872  1.00  0.00    -0.237 OA
ATOM     79  O   UNL A   1      33.819  36.499  28.037  1.00  0.00    -0.744 OA
ENDBRANCH  75  76
ENDBRANCH  54  68
BRANCH  55  80
ATOM     80  C   UNL A   1      44.002  28.481  35.546  1.00  0.00     0.058 A 
ATOM     81  C   UNL A   1      45.319  28.877  35.266  1.00  0.00     0.135 A 
ATOM     82  C   UNL A   1      43.820  27.418  36.448  1.00  0.00     0.135 A 
ATOM     83  F   UNL A   1      45.547  29.883  34.408  1.00  0.00    -0.206 F 
ATOM     84  C   UNL A   1      46.413  28.232  35.835  1.00  0.00     0.059 A 
ATOM     85  C   UNL A   1      44.896  26.777  37.052  1.00  0.00     0.059 A 
ATOM     86  F   UNL A   1      42.581  27.010  36.765  1.00  0.00    -0.206 F 
ATOM     87  C   UNL A   1      46.190  27.182  36.728  1.00  0.00     0.060 A 
BRANCH  87  88
ATOM     88  S   UNL A   1      47.616  26.373  37.487  1.00  0.00     0.124 S 
ATOM     89  O   UNL A   1      47.222  24.969  37.429  1.00  0.00    -0.237 OA
ATOM     90  O   UNL A   1      48.702  26.769  36.597  1.00  0.00    -0.237 OA
ATOM     91  O   UNL A   1      47.665  26.960  38.822  1.00  0.00    -0.744 OA
ENDBRANCH  87  88
ENDBRANCH  55  80
BRANCH  67  92
ATOM     92  C   UNL A   1      39.868  33.761  37.490  1.00  0.00     0.058 A 
ATOM     93  C   UNL A   1      40.651  34.913  37.665  1.00  0.00     0.135 A 
ATOM     94  C   UNL A   1      38.950  33.432  38.501  1.00  0.00     0.135 A 
ATOM     95  F   UNL A   1      41.549  35.270  36.733  1.00  0.00    -0.206 F 
ATOM     96  C   UNL A   1      40.540  35.698  38.808  1.00  0.00     0.059 A 
ATOM     97  C   UNL A   1      38.801  34.221  39.637  1.00  0.00     0.059 A 
ATOM     98  F   UNL A   1      38.170  32.346  38.379  1.00  0.00    -0.206 F 
ATOM     99  C   UNL A   1      39.609  35.347  39.786  1.00  0.00     0.060 A 
BRANCH  99 100
ATOM    100  S   UNL A   1      39.446  36.399  41.244  1.00  0.00     0.124 S 
ATOM    101  O   UNL A   1      40.840  36.573  41.638  1.00  0.00    -0.237 OA
ATOM    102  O   UNL A   1      38.788  37.583  40.701  1.00  0.00    -0.237 OA
ATOM    103  O   UNL A   1      38.632  35.597  42.154  1.00  0.00    -0.744 OA
ENDBRANCH  99 100
ENDBRANCH  67  92
ENDBRANCH  41  42
ENDBRANCH  33  36
ENDBRANCH  31  32
ENDBRANCH   1  31
TORSDOF 17
ENDMDL
