MODEL 1
REMARK VINA RESULT:     -11.8      0.000      0.000
REMARK SMILES CCC1CN(c2cc(F)ccc2C(=O)NCCCNC(=O)c2ccc(-c3c4nc(c(-c5c(F)cc(S(=O)(=O)[O-])cc5F)c5ccc([nH]5)c(-c5c(F)cc(S(=O)(=O)[O-])cc5F)c5nc(c(-c6c(F)cc(S(=O)(=O)[O-])cc6F)c6ccc3[nH]6)C=C5)C=C4)cc2)C1
REMARK SMILES IDX 17 1 16 2 15 3 13 4 14 5 12 7 6 8 7 9 8 10 11 11 9 12 10 13
REMARK SMILES IDX 5 14 3 15 4 16 88 17 2 18 1 19 18 20 19 21 20 22 21 24 22 25
REMARK SMILES IDX 23 26 87 27 24 28 86 29 25 30 26 31 27 32 80 33 28 34 85 35
REMARK SMILES IDX 79 36 81 37 29 38 84 39 78 40 77 41 30 43 64 44 43 45 63 46
REMARK SMILES IDX 44 47 47 48 62 49 82 50 45 51 46 52 61 54 83 55 48 56 31 57
REMARK SMILES IDX 32 58 41 59 33 60 34 61 40 62 42 63 35 64 36 65 37 66 38 67
REMARK SMILES IDX 39 68 65 69 66 70 75 71 67 72 68 73 74 74 76 75 69 76 70 77
REMARK SMILES IDX 71 78 72 79 73 80 49 81 50 82 59 83 51 84 52 85 58 86 60 87
REMARK SMILES IDX 53 88 54 89 55 90 56 91 57 92
REMARK H PARENT 15 6 19 23 81 42 47 53
REMARK Flexibility Score: inf
ROOT
ATOM      1  C   UNL A   1      33.712  28.019  25.870  1.00  0.00     0.042 C 
ENDROOT
BRANCH   1   2
ATOM      2  C   UNL A   1      33.444  29.108  24.851  1.00  0.00     0.118 C 
BRANCH   2   3
ATOM      3  N   UNL A   1      34.048  28.937  23.553  1.00  0.00    -0.352 N 
ATOM      4  C   UNL A   1      33.717  28.041  22.567  1.00  0.00     0.253 C 
ATOM      5  O   UNL A   1      34.306  28.153  21.487  1.00  0.00    -0.269 OA
ATOM      6  H   UNL A   1      34.797  29.541  23.349  1.00  0.00     0.163 HD
BRANCH   4   7
ATOM      7  C   UNL A   1      32.784  26.883  22.746  1.00  0.00     0.063 A 
ATOM      8  C   UNL A   1      31.378  26.903  22.914  1.00  0.00     0.052 A 
ATOM      9  C   UNL A   1      30.703  25.669  23.028  1.00  0.00     0.066 A 
ATOM     10  C   UNL A   1      31.386  24.459  22.986  1.00  0.00     0.125 A 
ATOM     11  C   UNL A   1      33.449  25.630  22.704  1.00  0.00     0.019 A 
ATOM     12  F   UNL A   1      30.704  23.312  23.100  1.00  0.00    -0.207 F 
ATOM     13  C   UNL A   1      32.757  24.427  22.831  1.00  0.00     0.040 A 
BRANCH   8  14
ATOM     14  N   UNL A   1      30.610  28.081  23.030  1.00  0.00    -0.370 N 
ATOM     15  C   UNL A   1      29.141  29.521  22.707  1.00  0.00     0.028 C 
ATOM     16  C   UNL A   1      30.530  29.182  22.116  1.00  0.00     0.122 C 
ATOM     17  C   UNL A   1      29.237  28.174  23.434  1.00  0.00     0.122 C 
BRANCH  15  18
ATOM     18  C   UNL A   1      29.030  30.825  23.504  1.00  0.00     0.004 C 
ATOM     19  C   UNL A   1      27.637  31.435  23.442  1.00  0.00     0.004 C 
ENDBRANCH  15  18
ENDBRANCH   8  14
ENDBRANCH   4   7
ENDBRANCH   2   3
ENDBRANCH   1   2
BRANCH   1  20
ATOM     20  C   UNL A   1      33.252  28.331  27.286  1.00  0.00     0.118 C 
BRANCH  20  21
ATOM     21  N   UNL A   1      33.324  29.736  27.668  1.00  0.00    -0.352 N 
ATOM     22  C   UNL A   1      34.313  30.587  28.111  1.00  0.00     0.251 C 
ATOM     23  H   UNL A   1      32.452  30.187  27.591  1.00  0.00     0.163 HD
ATOM     24  O   UNL A   1      33.987  31.739  28.376  1.00  0.00    -0.269 OA
BRANCH  22  25
ATOM     25  C   UNL A   1      35.726  30.172  28.324  1.00  0.00     0.039 A 
ATOM     26  C   UNL A   1      36.092  29.665  29.583  1.00  0.00     0.014 A 
ATOM     27  C   UNL A   1      36.716  30.313  27.361  1.00  0.00     0.014 A 
ATOM     28  C   UNL A   1      37.413  29.271  29.841  1.00  0.00     0.010 A 
ATOM     29  C   UNL A   1      37.989  29.790  27.565  1.00  0.00     0.010 A 
ATOM     30  C   UNL A   1      38.370  29.304  28.820  1.00  0.00    -0.014 A 
BRANCH  30  31
ATOM     31  C   UNL A   1      39.796  28.937  29.036  1.00  0.00     0.031 A 
ATOM     32  C   UNL A   1      40.750  29.964  29.602  1.00  0.00     0.074 A 
ATOM     33  C   UNL A   1      40.259  27.734  28.646  1.00  0.00     0.049 A 
ATOM     34  N   UNL A   1      42.053  29.917  29.712  1.00  0.00    -0.248 NA
ATOM     35  C   UNL A   1      40.164  31.240  30.052  1.00  0.00     0.031 C 
ATOM     36  C   UNL A   1      39.456  26.673  28.033  1.00  0.00     0.029 A 
ATOM     37  N   UNL A   1      41.522  27.203  28.696  1.00  0.00    -0.354 N 
ATOM     38  C   UNL A   1      42.437  31.166  30.193  1.00  0.00     0.074 A 
ATOM     39  C   UNL A   1      41.242  31.971  30.285  1.00  0.00     0.031 C 
ATOM     40  C   UNL A   1      40.238  25.607  27.799  1.00  0.00     0.029 A 
ATOM     41  C   UNL A   1      41.604  25.921  28.206  1.00  0.00     0.049 A 
ATOM     42  H   UNL A   1      42.298  27.694  29.051  1.00  0.00     0.167 HD
ATOM     43  C   UNL A   1      43.668  31.592  30.563  1.00  0.00     0.037 A 
ATOM     44  C   UNL A   1      42.661  25.090  28.102  1.00  0.00     0.037 A 
ATOM     45  C   UNL A   1      44.839  30.758  30.547  1.00  0.00     0.049 A 
ATOM     46  C   UNL A   1      44.006  25.556  28.587  1.00  0.00     0.074 A 
ATOM     47  C   UNL A   1      46.122  31.063  30.967  1.00  0.00     0.029 A 
ATOM     48  N   UNL A   1      44.863  29.442  30.107  1.00  0.00    -0.354 N 
ATOM     49  N   UNL A   1      44.348  26.729  29.067  1.00  0.00    -0.248 NA
ATOM     50  C   UNL A   1      45.106  24.584  28.533  1.00  0.00     0.031 C 
ATOM     51  C   UNL A   1      46.927  29.938  30.758  1.00  0.00     0.029 A 
ATOM     52  C   UNL A   1      46.136  28.919  30.250  1.00  0.00     0.049 A 
ATOM     53  H   UNL A   1      44.089  28.952  29.748  1.00  0.00     0.167 HD
ATOM     54  C   UNL A   1      45.694  26.628  29.400  1.00  0.00     0.074 A 
ATOM     55  C   UNL A   1      46.101  25.275  29.074  1.00  0.00     0.031 C 
ATOM     56  C   UNL A   1      46.517  27.566  29.930  1.00  0.00     0.037 A 
BRANCH  43  57
ATOM     57  C   UNL A   1      43.801  33.013  31.048  1.00  0.00     0.058 A 
ATOM     58  C   UNL A   1      43.554  33.335  32.392  1.00  0.00     0.135 A 
ATOM     59  C   UNL A   1      44.152  34.061  30.180  1.00  0.00     0.135 A 
ATOM     60  F   UNL A   1      43.221  32.377  33.270  1.00  0.00    -0.206 F 
ATOM     61  C   UNL A   1      43.648  34.644  32.856  1.00  0.00     0.059 A 
ATOM     62  C   UNL A   1      44.283  35.371  30.629  1.00  0.00     0.059 A 
ATOM     63  F   UNL A   1      44.422  33.807  28.890  1.00  0.00    -0.206 F 
ATOM     64  C   UNL A   1      44.017  35.656  31.968  1.00  0.00     0.060 A 
BRANCH  64  65
ATOM     65  S   UNL A   1      44.195  37.339  32.596  1.00  0.00     0.124 S 
ATOM     66  O   UNL A   1      43.883  38.134  31.414  1.00  0.00    -0.237 OA
ATOM     67  O   UNL A   1      43.205  37.373  33.668  1.00  0.00    -0.237 OA
ATOM     68  O   UNL A   1      45.585  37.387  33.040  1.00  0.00    -0.744 OA
ENDBRANCH  64  65
ENDBRANCH  43  57
BRANCH  44  69
ATOM     69  C   UNL A   1      42.461  23.713  27.580  1.00  0.00     0.058 A 
ATOM     70  C   UNL A   1      42.280  22.620  28.440  1.00  0.00     0.135 A 
ATOM     71  C   UNL A   1      42.514  23.457  26.201  1.00  0.00     0.135 A 
ATOM     72  F   UNL A   1      42.236  22.809  29.768  1.00  0.00    -0.206 F 
ATOM     73  C   UNL A   1      42.188  21.319  27.956  1.00  0.00     0.059 A 
ATOM     74  C   UNL A   1      42.401  22.168  25.690  1.00  0.00     0.059 A 
ATOM     75  F   UNL A   1      42.676  24.472  25.339  1.00  0.00    -0.206 F 
ATOM     76  C   UNL A   1      42.259  21.103  26.577  1.00  0.00     0.060 A 
BRANCH  76  77
ATOM     77  S   UNL A   1      42.182  19.403  25.970  1.00  0.00     0.124 S 
ATOM     78  O   UNL A   1      42.711  18.663  27.111  1.00  0.00    -0.237 OA
ATOM     79  O   UNL A   1      40.756  19.237  25.710  1.00  0.00    -0.237 OA
ATOM     80  O   UNL A   1      43.036  19.429  24.787  1.00  0.00    -0.744 OA
ENDBRANCH  76  77
ENDBRANCH  44  69
BRANCH  56  81
ATOM     81  C   UNL A   1      47.931  27.158  30.234  1.00  0.00     0.058 A 
ATOM     82  C   UNL A   1      48.275  26.701  31.515  1.00  0.00     0.135 A 
ATOM     83  C   UNL A   1      48.954  27.277  29.281  1.00  0.00     0.135 A 
ATOM     84  F   UNL A   1      47.334  26.578  32.466  1.00  0.00    -0.206 F 
ATOM     85  C   UNL A   1      49.586  26.383  31.846  1.00  0.00     0.059 A 
ATOM     86  C   UNL A   1      50.270  26.938  29.582  1.00  0.00     0.059 A 
ATOM     87  F   UNL A   1      48.675  27.704  28.039  1.00  0.00    -0.206 F 
ATOM     88  C   UNL A   1      50.578  26.503  30.872  1.00  0.00     0.060 A 
BRANCH  88  89
ATOM     89  S   UNL A   1      52.269  26.048  31.304  1.00  0.00     0.124 S 
ATOM     90  O   UNL A   1      52.948  26.161  30.018  1.00  0.00    -0.237 OA
ATOM     91  O   UNL A   1      52.618  27.058  32.298  1.00  0.00    -0.237 OA
ATOM     92  O   UNL A   1      52.131  24.691  31.825  1.00  0.00    -0.744 OA
ENDBRANCH  88  89
ENDBRANCH  56  81
ENDBRANCH  30  31
ENDBRANCH  22  25
ENDBRANCH  20  21
ENDBRANCH   1  20
TORSDOF 15
ENDMDL
MODEL 2
REMARK VINA RESULT:     -11.5      2.669      3.596
REMARK SMILES CCC1CN(c2cc(F)ccc2C(=O)NCCCNC(=O)c2ccc(-c3c4nc(c(-c5c(F)cc(S(=O)(=O)[O-])cc5F)c5ccc([nH]5)c(-c5c(F)cc(S(=O)(=O)[O-])cc5F)c5nc(c(-c6c(F)cc(S(=O)(=O)[O-])cc6F)c6ccc3[nH]6)C=C5)C=C4)cc2)C1
REMARK SMILES IDX 17 1 16 2 15 3 13 4 14 5 12 7 6 8 7 9 8 10 11 11 9 12 10 13
REMARK SMILES IDX 5 14 3 15 4 16 88 17 2 18 1 19 18 20 19 21 20 22 21 24 22 25
REMARK SMILES IDX 23 26 87 27 24 28 86 29 25 30 26 31 27 32 80 33 28 34 85 35
REMARK SMILES IDX 79 36 81 37 29 38 84 39 78 40 77 41 30 43 64 44 43 45 63 46
REMARK SMILES IDX 44 47 47 48 62 49 82 50 45 51 46 52 61 54 83 55 48 56 31 57
REMARK SMILES IDX 32 58 41 59 33 60 34 61 40 62 42 63 35 64 36 65 37 66 38 67
REMARK SMILES IDX 39 68 65 69 66 70 75 71 67 72 68 73 74 74 76 75 69 76 70 77
REMARK SMILES IDX 71 78 72 79 73 80 49 81 50 82 59 83 51 84 52 85 58 86 60 87
REMARK SMILES IDX 53 88 54 89 55 90 56 91 57 92
REMARK H PARENT 15 6 19 23 81 42 47 53
REMARK Flexibility Score: inf
ROOT
ATOM      1  C   UNL A   1      33.801  31.286  27.607  1.00  0.00     0.042 C 
ENDROOT
BRANCH   1   2
ATOM      2  C   UNL A   1      33.522  29.960  26.927  1.00  0.00     0.118 C 
BRANCH   2   3
ATOM      3  N   UNL A   1      32.393  29.212  27.420  1.00  0.00    -0.352 N 
ATOM      4  C   UNL A   1      31.932  27.986  27.006  1.00  0.00     0.253 C 
ATOM      5  O   UNL A   1      31.007  27.486  27.654  1.00  0.00    -0.269 OA
ATOM      6  H   UNL A   1      31.884  29.636  28.148  1.00  0.00     0.163 HD
BRANCH   4   7
ATOM      7  C   UNL A   1      32.394  27.275  25.771  1.00  0.00     0.063 A 
ATOM      8  C   UNL A   1      31.911  27.411  24.446  1.00  0.00     0.052 A 
ATOM      9  C   UNL A   1      32.536  26.656  23.429  1.00  0.00     0.066 A 
ATOM     10  C   UNL A   1      33.588  25.792  23.707  1.00  0.00     0.125 A 
ATOM     11  C   UNL A   1      33.472  26.387  26.018  1.00  0.00     0.019 A 
ATOM     12  F   UNL A   1      34.149  25.093  22.711  1.00  0.00    -0.207 F 
ATOM     13  C   UNL A   1      34.060  25.645  24.995  1.00  0.00     0.040 A 
BRANCH   8  14
ATOM     14  N   UNL A   1      30.811  28.214  24.081  1.00  0.00    -0.370 N 
ATOM     15  C   UNL A   1      29.612  29.578  23.060  1.00  0.00     0.028 C 
ATOM     16  C   UNL A   1      30.678  29.638  24.179  1.00  0.00     0.122 C 
ATOM     17  C   UNL A   1      30.039  28.116  22.875  1.00  0.00     0.122 C 
BRANCH  15  18
ATOM     18  C   UNL A   1      28.173  29.919  23.459  1.00  0.00     0.004 C 
ATOM     19  C   UNL A   1      27.845  31.394  23.273  1.00  0.00     0.004 C 
ENDBRANCH  15  18
ENDBRANCH   8  14
ENDBRANCH   4   7
ENDBRANCH   2   3
ENDBRANCH   1   2
BRANCH   1  20
ATOM     20  C   UNL A   1      35.202  31.435  28.180  1.00  0.00     0.118 C 
BRANCH  20  21
ATOM     21  N   UNL A   1      35.303  31.273  29.625  1.00  0.00    -0.352 N 
ATOM     22  C   UNL A   1      36.271  30.832  30.502  1.00  0.00     0.251 C 
ATOM     23  H   UNL A   1      34.478  31.544  30.088  1.00  0.00     0.163 HD
ATOM     24  O   UNL A   1      35.980  30.800  31.692  1.00  0.00    -0.269 OA
BRANCH  22  25
ATOM     25  C   UNL A   1      37.616  30.355  30.077  1.00  0.00     0.039 A 
ATOM     26  C   UNL A   1      38.505  29.893  31.062  1.00  0.00     0.014 A 
ATOM     27  C   UNL A   1      38.059  30.397  28.762  1.00  0.00     0.014 A 
ATOM     28  C   UNL A   1      39.788  29.445  30.717  1.00  0.00     0.010 A 
ATOM     29  C   UNL A   1      39.271  29.820  28.398  1.00  0.00     0.010 A 
ATOM     30  C   UNL A   1      40.173  29.378  29.372  1.00  0.00    -0.014 A 
BRANCH  30  31
ATOM     31  C   UNL A   1      41.531  28.949  28.941  1.00  0.00     0.031 A 
ATOM     32  C   UNL A   1      42.650  29.964  28.892  1.00  0.00     0.074 A 
ATOM     33  C   UNL A   1      41.744  27.692  28.506  1.00  0.00     0.049 A 
ATOM     34  N   UNL A   1      43.853  29.852  28.390  1.00  0.00    -0.248 NA
ATOM     35  C   UNL A   1      42.355  31.305  29.428  1.00  0.00     0.031 C 
ATOM     36  C   UNL A   1      40.737  26.631  28.448  1.00  0.00     0.029 A 
ATOM     37  N   UNL A   1      42.880  27.095  28.021  1.00  0.00    -0.354 N 
ATOM     38  C   UNL A   1      44.432  31.113  28.508  1.00  0.00     0.074 A 
ATOM     39  C   UNL A   1      43.426  31.990  29.060  1.00  0.00     0.031 C 
ATOM     40  C   UNL A   1      41.308  25.506  27.989  1.00  0.00     0.029 A 
ATOM     41  C   UNL A   1      42.709  25.774  27.682  1.00  0.00     0.049 A 
ATOM     42  H   UNL A   1      43.737  27.569  27.923  1.00  0.00     0.167 HD
ATOM     43  C   UNL A   1      45.698  31.498  28.220  1.00  0.00     0.037 A 
ATOM     44  C   UNL A   1      43.586  24.878  27.186  1.00  0.00     0.037 A 
ATOM     45  C   UNL A   1      46.717  30.598  27.749  1.00  0.00     0.049 A 
ATOM     46  C   UNL A   1      45.007  25.305  26.943  1.00  0.00     0.074 A 
ATOM     47  C   UNL A   1      48.050  30.864  27.494  1.00  0.00     0.029 A 
ATOM     48  N   UNL A   1      46.518  29.250  27.487  1.00  0.00    -0.354 N 
ATOM     49  N   UNL A   1      45.547  26.493  27.087  1.00  0.00    -0.248 NA
ATOM     50  C   UNL A   1      45.945  24.270  26.487  1.00  0.00     0.031 C 
ATOM     51  C   UNL A   1      48.652  29.681  27.053  1.00  0.00     0.029 A 
ATOM     52  C   UNL A   1      47.705  28.670  27.077  1.00  0.00     0.049 A 
ATOM     53  H   UNL A   1      45.660  28.777  27.578  1.00  0.00     0.167 HD
ATOM     54  C   UNL A   1      46.892  26.343  26.768  1.00  0.00     0.074 A 
ATOM     55  C   UNL A   1      47.085  24.946  26.431  1.00  0.00     0.031 C 
ATOM     56  C   UNL A   1      47.877  27.273  26.757  1.00  0.00     0.037 A 
BRANCH  43  57
ATOM     57  C   UNL A   1      46.057  32.944  28.440  1.00  0.00     0.058 A 
ATOM     58  C   UNL A   1      45.872  33.890  27.419  1.00  0.00     0.135 A 
ATOM     59  C   UNL A   1      46.607  33.393  29.652  1.00  0.00     0.135 A 
ATOM     60  F   UNL A   1      45.346  33.522  26.240  1.00  0.00    -0.206 F 
ATOM     61  C   UNL A   1      46.219  35.227  27.593  1.00  0.00     0.059 A 
ATOM     62  C   UNL A   1      46.931  34.731  29.859  1.00  0.00     0.059 A 
ATOM     63  F   UNL A   1      46.785  32.537  30.672  1.00  0.00    -0.206 F 
ATOM     64  C   UNL A   1      46.744  35.639  28.818  1.00  0.00     0.060 A 
BRANCH  64  65
ATOM     65  S   UNL A   1      47.133  37.387  29.051  1.00  0.00     0.124 S 
ATOM     66  O   UNL A   1      46.547  37.651  30.360  1.00  0.00    -0.237 OA
ATOM     67  O   UNL A   1      48.591  37.388  28.993  1.00  0.00    -0.237 OA
ATOM     68  O   UNL A   1      46.471  38.032  27.921  1.00  0.00    -0.744 OA
ENDBRANCH  64  65
ENDBRANCH  43  57
BRANCH  44  69
ATOM     69  C   UNL A   1      43.150  23.474  26.961  1.00  0.00     0.058 A 
ATOM     70  C   UNL A   1      42.964  22.582  28.028  1.00  0.00     0.135 A 
ATOM     71  C   UNL A   1      42.977  22.981  25.659  1.00  0.00     0.135 A 
ATOM     72  F   UNL A   1      43.131  23.000  29.292  1.00  0.00    -0.206 F 
ATOM     73  C   UNL A   1      42.648  21.245  27.811  1.00  0.00     0.059 A 
ATOM     74  C   UNL A   1      42.639  21.653  25.417  1.00  0.00     0.059 A 
ATOM     75  F   UNL A   1      43.136  23.799  24.607  1.00  0.00    -0.206 F 
ATOM     76  C   UNL A   1      42.497  20.788  26.500  1.00  0.00     0.060 A 
BRANCH  76  77
ATOM     77  S   UNL A   1      42.131  19.038  26.237  1.00  0.00     0.124 S 
ATOM     78  O   UNL A   1      40.725  19.091  25.852  1.00  0.00    -0.237 OA
ATOM     79  O   UNL A   1      43.069  18.686  25.177  1.00  0.00    -0.237 OA
ATOM     80  O   UNL A   1      42.403  18.438  27.539  1.00  0.00    -0.744 OA
ENDBRANCH  76  77
ENDBRANCH  44  69
BRANCH  56  81
ATOM     81  C   UNL A   1      49.265  26.813  26.412  1.00  0.00     0.058 A 
ATOM     82  C   UNL A   1      49.697  26.809  25.077  1.00  0.00     0.135 A 
ATOM     83  C   UNL A   1      50.143  26.319  27.388  1.00  0.00     0.135 A 
ATOM     84  F   UNL A   1      48.891  27.263  24.103  1.00  0.00    -0.206 F 
ATOM     85  C   UNL A   1      50.948  26.325  24.718  1.00  0.00     0.059 A 
ATOM     86  C   UNL A   1      51.412  25.854  27.056  1.00  0.00     0.059 A 
ATOM     87  F   UNL A   1      49.779  26.308  28.681  1.00  0.00    -0.206 F 
ATOM     88  C   UNL A   1      51.801  25.850  25.716  1.00  0.00     0.060 A 
BRANCH  88  89
ATOM     89  S   UNL A   1      53.439  25.262  25.241  1.00  0.00     0.124 S 
ATOM     90  O   UNL A   1      54.282  25.855  26.273  1.00  0.00    -0.237 OA
ATOM     91  O   UNL A   1      53.278  23.812  25.306  1.00  0.00    -0.237 OA
ATOM     92  O   UNL A   1      53.616  25.804  23.896  1.00  0.00    -0.744 OA
ENDBRANCH  88  89
ENDBRANCH  56  81
ENDBRANCH  30  31
ENDBRANCH  22  25
ENDBRANCH  20  21
ENDBRANCH   1  20
TORSDOF 15
ENDMDL
MODEL 3
REMARK VINA RESULT:     -11.5      1.007      2.556
REMARK SMILES CCC1CN(c2cc(F)ccc2C(=O)NCCCNC(=O)c2ccc(-c3c4nc(c(-c5c(F)cc(S(=O)(=O)[O-])cc5F)c5ccc([nH]5)c(-c5c(F)cc(S(=O)(=O)[O-])cc5F)c5nc(c(-c6c(F)cc(S(=O)(=O)[O-])cc6F)c6ccc3[nH]6)C=C5)C=C4)cc2)C1
REMARK SMILES IDX 17 1 16 2 15 3 13 4 14 5 12 7 6 8 7 9 8 10 11 11 9 12 10 13
REMARK SMILES IDX 5 14 3 15 4 16 88 17 2 18 1 19 18 20 19 21 20 22 21 24 22 25
REMARK SMILES IDX 23 26 87 27 24 28 86 29 25 30 26 31 27 32 80 33 28 34 85 35
REMARK SMILES IDX 79 36 81 37 29 38 84 39 78 40 77 41 30 43 64 44 43 45 63 46
REMARK SMILES IDX 44 47 47 48 62 49 82 50 45 51 46 52 61 54 83 55 48 56 31 57
REMARK SMILES IDX 32 58 41 59 33 60 34 61 40 62 42 63 35 64 36 65 37 66 38 67
REMARK SMILES IDX 39 68 65 69 66 70 75 71 67 72 68 73 74 74 76 75 69 76 70 77
REMARK SMILES IDX 71 78 72 79 73 80 49 81 50 82 59 83 51 84 52 85 58 86 60 87
REMARK SMILES IDX 53 88 54 89 55 90 56 91 57 92
REMARK H PARENT 15 6 19 23 81 42 47 53
REMARK Flexibility Score: inf
ROOT
ATOM      1  C   UNL A   1      33.952  27.830  26.063  1.00  0.00     0.042 C 
ENDROOT
BRANCH   1   2
ATOM      2  C   UNL A   1      33.771  28.695  24.831  1.00  0.00     0.118 C 
BRANCH   2   3
ATOM      3  N   UNL A   1      34.025  28.063  23.560  1.00  0.00    -0.352 N 
ATOM      4  C   UNL A   1      33.145  27.395  22.745  1.00  0.00     0.253 C 
ATOM      5  O   UNL A   1      33.566  27.030  21.643  1.00  0.00    -0.269 OA
ATOM      6  H   UNL A   1      34.952  28.117  23.235  1.00  0.00     0.163 HD
BRANCH   4   7
ATOM      7  C   UNL A   1      31.760  26.984  23.143  1.00  0.00     0.063 A 
ATOM      8  C   UNL A   1      31.342  25.776  23.752  1.00  0.00     0.052 A 
ATOM      9  C   UNL A   1      29.974  25.630  24.071  1.00  0.00     0.066 A 
ATOM     10  C   UNL A   1      29.051  26.631  23.793  1.00  0.00     0.125 A 
ATOM     11  C   UNL A   1      30.792  27.986  22.876  1.00  0.00     0.019 A 
ATOM     12  F   UNL A   1      27.763  26.447  24.111  1.00  0.00    -0.207 F 
ATOM     13  C   UNL A   1      29.446  27.808  23.191  1.00  0.00     0.040 A 
BRANCH   8  14
ATOM     14  N   UNL A   1      32.194  24.683  24.015  1.00  0.00    -0.370 N 
ATOM     15  C   UNL A   1      32.876  22.741  24.328  1.00  0.00     0.028 C 
ATOM     16  C   UNL A   1      32.251  23.863  25.189  1.00  0.00     0.122 C 
ATOM     17  C   UNL A   1      32.516  23.611  23.118  1.00  0.00     0.122 C 
BRANCH  15  18
ATOM     18  C   UNL A   1      34.337  22.382  24.617  1.00  0.00     0.004 C 
ATOM     19  C   UNL A   1      34.551  20.886  24.801  1.00  0.00     0.004 C 
ENDBRANCH  15  18
ENDBRANCH   8  14
ENDBRANCH   4   7
ENDBRANCH   2   3
ENDBRANCH   1   2
BRANCH   1  20
ATOM     20  C   UNL A   1      33.207  28.306  27.301  1.00  0.00     0.118 C 
BRANCH  20  21
ATOM     21  N   UNL A   1      33.307  29.733  27.578  1.00  0.00    -0.352 N 
ATOM     22  C   UNL A   1      34.312  30.594  27.963  1.00  0.00     0.251 C 
ATOM     23  H   UNL A   1      32.446  30.196  27.461  1.00  0.00     0.163 HD
ATOM     24  O   UNL A   1      34.010  31.768  28.139  1.00  0.00    -0.269 OA
BRANCH  22  25
ATOM     25  C   UNL A   1      35.715  30.165  28.216  1.00  0.00     0.039 A 
ATOM     26  C   UNL A   1      36.048  29.688  29.495  1.00  0.00     0.014 A 
ATOM     27  C   UNL A   1      36.727  30.267  27.271  1.00  0.00     0.014 A 
ATOM     28  C   UNL A   1      37.357  29.283  29.791  1.00  0.00     0.010 A 
ATOM     29  C   UNL A   1      37.987  29.734  27.514  1.00  0.00     0.010 A 
ATOM     30  C   UNL A   1      38.336  29.276  28.790  1.00  0.00    -0.014 A 
BRANCH  30  31
ATOM     31  C   UNL A   1      39.752  28.896  29.045  1.00  0.00     0.031 A 
ATOM     32  C   UNL A   1      40.697  29.912  29.646  1.00  0.00     0.074 A 
ATOM     33  C   UNL A   1      40.216  27.691  28.660  1.00  0.00     0.049 A 
ATOM     34  N   UNL A   1      41.996  29.853  29.793  1.00  0.00    -0.248 NA
ATOM     35  C   UNL A   1      40.108  31.189  30.087  1.00  0.00     0.031 C 
ATOM     36  C   UNL A   1      39.423  26.641  28.017  1.00  0.00     0.029 A 
ATOM     37  N   UNL A   1      41.473  27.149  28.745  1.00  0.00    -0.354 N 
ATOM     38  C   UNL A   1      42.376  31.095  30.294  1.00  0.00     0.074 A 
ATOM     39  C   UNL A   1      41.185  31.909  30.356  1.00  0.00     0.031 C 
ATOM     40  C   UNL A   1      40.203  25.571  27.799  1.00  0.00     0.029 A 
ATOM     41  C   UNL A   1      41.559  25.870  28.248  1.00  0.00     0.049 A 
ATOM     42  H   UNL A   1      42.243  27.632  29.125  1.00  0.00     0.167 HD
ATOM     43  C   UNL A   1      43.599  31.509  30.703  1.00  0.00     0.037 A 
ATOM     44  C   UNL A   1      42.612  25.032  28.169  1.00  0.00     0.037 A 
ATOM     45  C   UNL A   1      44.763  30.665  30.715  1.00  0.00     0.049 A 
ATOM     46  C   UNL A   1      43.946  25.483  28.696  1.00  0.00     0.074 A 
ATOM     47  C   UNL A   1      46.035  30.957  31.174  1.00  0.00     0.029 A 
ATOM     48  N   UNL A   1      44.789  29.352  30.268  1.00  0.00    -0.354 N 
ATOM     49  N   UNL A   1      44.283  26.650  29.194  1.00  0.00    -0.248 NA
ATOM     50  C   UNL A   1      45.039  24.502  28.669  1.00  0.00     0.031 C 
ATOM     51  C   UNL A   1      46.837  29.827  30.982  1.00  0.00     0.029 A 
ATOM     52  C   UNL A   1      46.053  28.818  30.444  1.00  0.00     0.049 A 
ATOM     53  H   UNL A   1      44.022  28.871  29.882  1.00  0.00     0.167 HD
ATOM     54  C   UNL A   1      45.618  26.535  29.566  1.00  0.00     0.074 A 
ATOM     55  C   UNL A   1      46.024  25.182  29.243  1.00  0.00     0.031 C 
ATOM     56  C   UNL A   1      46.432  27.463  30.126  1.00  0.00     0.037 A 
BRANCH  43  57
ATOM     57  C   UNL A   1      43.729  32.925  31.201  1.00  0.00     0.058 A 
ATOM     58  C   UNL A   1      43.987  33.977  30.307  1.00  0.00     0.135 A 
ATOM     59  C   UNL A   1      43.621  33.241  32.566  1.00  0.00     0.135 A 
ATOM     60  F   UNL A   1      44.096  33.737  28.991  1.00  0.00    -0.206 F 
ATOM     61  C   UNL A   1      44.134  35.289  30.749  1.00  0.00     0.059 A 
ATOM     62  C   UNL A   1      43.732  34.550  33.026  1.00  0.00     0.059 A 
ATOM     63  F   UNL A   1      43.352  32.279  33.463  1.00  0.00    -0.206 F 
ATOM     64  C   UNL A   1      44.001  35.567  32.110  1.00  0.00     0.060 A 
BRANCH  64  65
ATOM     65  S   UNL A   1      44.133  37.280  32.662  1.00  0.00     0.124 S 
ATOM     66  O   UNL A   1      43.090  37.348  33.678  1.00  0.00    -0.237 OA
ATOM     67  O   UNL A   1      45.506  37.341  33.152  1.00  0.00    -0.237 OA
ATOM     68  O   UNL A   1      43.879  38.046  31.445  1.00  0.00    -0.744 OA
ENDBRANCH  64  65
ENDBRANCH  43  57
BRANCH  44  69
ATOM     69  C   UNL A   1      42.416  23.659  27.632  1.00  0.00     0.058 A 
ATOM     70  C   UNL A   1      42.275  22.551  28.481  1.00  0.00     0.135 A 
ATOM     71  C   UNL A   1      42.434  23.425  26.249  1.00  0.00     0.135 A 
ATOM     72  F   UNL A   1      42.266  22.720  29.812  1.00  0.00    -0.206 F 
ATOM     73  C   UNL A   1      42.187  21.257  27.979  1.00  0.00     0.059 A 
ATOM     74  C   UNL A   1      42.325  22.142  25.722  1.00  0.00     0.059 A 
ATOM     75  F   UNL A   1      42.558  24.454  25.398  1.00  0.00    -0.206 F 
ATOM     76  C   UNL A   1      42.222  21.062  26.596  1.00  0.00     0.060 A 
BRANCH  76  77
ATOM     77  S   UNL A   1      42.151  19.370  25.966  1.00  0.00     0.124 S 
ATOM     78  O   UNL A   1      42.634  18.612  27.115  1.00  0.00    -0.237 OA
ATOM     79  O   UNL A   1      40.734  19.220  25.655  1.00  0.00    -0.237 OA
ATOM     80  O   UNL A   1      43.046  19.402  24.814  1.00  0.00    -0.744 OA
ENDBRANCH  76  77
ENDBRANCH  44  69
BRANCH  56  81
ATOM     81  C   UNL A   1      47.834  27.042  30.468  1.00  0.00     0.058 A 
ATOM     82  C   UNL A   1      48.138  26.583  31.759  1.00  0.00     0.135 A 
ATOM     83  C   UNL A   1      48.884  27.150  29.544  1.00  0.00     0.135 A 
ATOM     84  F   UNL A   1      47.171  26.469  32.684  1.00  0.00    -0.206 F 
ATOM     85  C   UNL A   1      49.436  26.252  32.126  1.00  0.00     0.059 A 
ATOM     86  C   UNL A   1      50.187  26.798  29.880  1.00  0.00     0.059 A 
ATOM     87  F   UNL A   1      48.642  27.578  28.294  1.00  0.00    -0.206 F 
ATOM     88  C   UNL A   1      50.456  26.362  31.178  1.00  0.00     0.060 A 
BRANCH  88  89
ATOM     89  S   UNL A   1      52.130  25.890  31.657  1.00  0.00     0.124 S 
ATOM     90  O   UNL A   1      52.885  26.198  30.447  1.00  0.00    -0.237 OA
ATOM     91  O   UNL A   1      52.382  26.759  32.802  1.00  0.00    -0.237 OA
ATOM     92  O   UNL A   1      52.004  24.471  31.975  1.00  0.00    -0.744 OA
ENDBRANCH  88  89
ENDBRANCH  56  81
ENDBRANCH  30  31
ENDBRANCH  22  25
ENDBRANCH  20  21
ENDBRANCH   1  20
TORSDOF 15
ENDMDL
