MODEL 1
REMARK VINA RESULT:     -11.1      0.000      0.000
REMARK SMILES CCNC(=O)N1CC[C@@H](C(=O)NCCCNC(=O)c2ccc(-c3c4nc(c(-c5c(F)cc(S(=O)(=O)[O-])cc5F)c5ccc([nH]5)c(-c5c(F)cc(S(=O)(=O)[O-])cc5F)c5nc(c(-c6c(F)cc(S(=O)(=O)[O-])cc6F)c6ccc3[nH]6)C=C5)C=C4)cc2)[C@H]1C
REMARK SMILES IDX 14 1 13 2 12 3 10 4 11 5 9 7 6 8 7 9 85 10 8 11 86 12 4 13
REMARK SMILES IDX 3 14 5 16 2 17 1 18 15 19 16 20 17 21 18 23 19 24 20 25
REMARK SMILES IDX 84 26 21 27 83 28 22 29 23 30 24 31 77 32 25 33 82 34 76 35
REMARK SMILES IDX 78 36 26 37 81 38 75 39 74 40 27 42 61 43 40 44 60 45 41 46
REMARK SMILES IDX 44 47 59 48 79 49 42 50 43 51 58 53 80 54 45 55 28 56 29 57
REMARK SMILES IDX 38 58 30 59 31 60 37 61 39 62 32 63 33 64 34 65 35 66 36 67
REMARK SMILES IDX 62 68 63 69 72 70 64 71 65 72 71 73 73 74 66 75 67 76 68 77
REMARK SMILES IDX 69 78 70 79 46 80 47 81 56 82 48 83 49 84 55 85 57 86 50 87
REMARK SMILES IDX 51 88 52 89 53 90 54 91
REMARK H PARENT 12 6 3 15 16 22 78 41 44 52
REMARK Flexibility Score: inf
ROOT
ATOM      1  C   UNL A   1      38.134  23.744  26.111  1.00  0.00     0.042 C 
ENDROOT
BRANCH   1   2
ATOM      2  C   UNL A   1      37.470  22.565  25.403  1.00  0.00     0.117 C 
BRANCH   2   3
ATOM      3  N   UNL A   1      36.739  22.956  24.206  1.00  0.00    -0.356 N 
ATOM      4  C   UNL A   1      35.422  22.956  23.889  1.00  0.00     0.225 C 
ATOM      5  O   UNL A   1      35.130  23.380  22.764  1.00  0.00    -0.275 OA
ATOM      6  H   UNL A   1      37.318  23.288  23.483  1.00  0.00     0.163 HD
BRANCH   4   7
ATOM      7  C   UNL A   1      34.314  22.474  24.810  1.00  0.00     0.102 C 
ATOM      8  N   UNL A   1      32.254  23.456  25.521  1.00  0.00    -0.321 N 
ATOM      9  C   UNL A   1      31.935  22.170  24.929  1.00  0.00     0.122 C 
ATOM     10  C   UNL A   1      33.696  23.486  25.794  1.00  0.00     0.096 C 
ATOM     11  C   UNL A   1      33.144  21.787  24.102  1.00  0.00     0.037 C 
ATOM     12  C   UNL A   1      34.358  24.852  25.870  1.00  0.00     0.032 C 
BRANCH   8  13
ATOM     13  C   UNL A   1      31.359  23.925  26.458  1.00  0.00     0.317 C 
ATOM     14  N   UNL A   1      30.628  25.021  26.151  1.00  0.00    -0.338 N 
ATOM     15  H   UNL A   1      30.183  25.456  26.914  1.00  0.00     0.165 HD
ATOM     16  O   UNL A   1      31.170  23.363  27.536  1.00  0.00    -0.249 OA
BRANCH  14  17
ATOM     17  C   UNL A   1      30.402  25.650  24.865  1.00  0.00     0.114 C 
ATOM     18  C   UNL A   1      31.117  26.988  24.781  1.00  0.00     0.027 C 
ENDBRANCH  14  17
ENDBRANCH   8  13
ENDBRANCH   4   7
ENDBRANCH   2   3
ENDBRANCH   1   2
BRANCH   1  19
ATOM     19  C   UNL A   1      39.414  23.412  26.868  1.00  0.00     0.118 C 
BRANCH  19  20
ATOM     20  N   UNL A   1      40.613  23.784  26.138  1.00  0.00    -0.352 N 
ATOM     21  C   UNL A   1      41.415  24.896  26.255  1.00  0.00     0.251 C 
ATOM     22  H   UNL A   1      40.896  23.139  25.451  1.00  0.00     0.163 HD
ATOM     23  O   UNL A   1      42.272  25.101  25.398  1.00  0.00    -0.269 OA
BRANCH  21  24
ATOM     24  C   UNL A   1      41.249  25.859  27.374  1.00  0.00     0.039 A 
ATOM     25  C   UNL A   1      42.112  26.958  27.445  1.00  0.00     0.014 A 
ATOM     26  C   UNL A   1      40.302  25.667  28.381  1.00  0.00     0.014 A 
ATOM     27  C   UNL A   1      41.988  27.883  28.489  1.00  0.00     0.010 A 
ATOM     28  C   UNL A   1      40.118  26.636  29.369  1.00  0.00     0.010 A 
ATOM     29  C   UNL A   1      40.971  27.747  29.446  1.00  0.00    -0.014 A 
BRANCH  29  30
ATOM     30  C   UNL A   1      40.811  28.726  30.558  1.00  0.00     0.031 A 
ATOM     31  C   UNL A   1      41.678  28.623  31.786  1.00  0.00     0.074 A 
ATOM     32  C   UNL A   1      39.854  29.673  30.493  1.00  0.00     0.049 A 
ATOM     33  N   UNL A   1      41.634  29.321  32.893  1.00  0.00    -0.248 NA
ATOM     34  C   UNL A   1      42.713  27.575  31.784  1.00  0.00     0.031 C 
ATOM     35  C   UNL A   1      38.917  29.858  29.383  1.00  0.00     0.029 A 
ATOM     36  N   UNL A   1      39.503  30.655  31.388  1.00  0.00    -0.354 N 
ATOM     37  C   UNL A   1      42.611  28.781  33.724  1.00  0.00     0.074 A 
ATOM     38  C   UNL A   1      43.200  27.668  33.012  1.00  0.00     0.031 C 
ATOM     39  C   UNL A   1      38.114  30.900  29.653  1.00  0.00     0.029 A 
ATOM     40  C   UNL A   1      38.452  31.437  30.968  1.00  0.00     0.049 A 
ATOM     41  H   UNL A   1      39.960  30.786  32.249  1.00  0.00     0.167 HD
ATOM     42  C   UNL A   1      43.002  29.189  34.955  1.00  0.00     0.037 A 
ATOM     43  C   UNL A   1      37.827  32.466  31.574  1.00  0.00     0.037 A 
ATOM     44  C   UNL A   1      42.449  30.326  35.643  1.00  0.00     0.049 A 
ATOM     45  C   UNL A   1      38.296  32.919  32.929  1.00  0.00     0.074 A 
ATOM     46  C   UNL A   1      42.821  30.856  36.867  1.00  0.00     0.029 A 
ATOM     47  N   UNL A   1      41.414  31.114  35.165  1.00  0.00    -0.354 N 
ATOM     48  N   UNL A   1      39.255  32.427  33.677  1.00  0.00    -0.248 NA
ATOM     49  C   UNL A   1      37.604  34.073  33.522  1.00  0.00     0.031 C 
ATOM     50  C   UNL A   1      41.990  31.948  37.143  1.00  0.00     0.029 A 
ATOM     51  C   UNL A   1      41.126  32.120  36.073  1.00  0.00     0.049 A 
ATOM     52  H   UNL A   1      40.950  30.979  34.307  1.00  0.00     0.167 HD
ATOM     53  C   UNL A   1      39.299  33.226  34.814  1.00  0.00     0.074 A 
ATOM     54  C   UNL A   1      38.275  34.239  34.653  1.00  0.00     0.031 C 
ATOM     55  C   UNL A   1      40.113  33.129  35.894  1.00  0.00     0.037 A 
BRANCH  42  56
ATOM     56  C   UNL A   1      44.090  28.404  35.635  1.00  0.00     0.058 A 
ATOM     57  C   UNL A   1      43.796  27.367  36.536  1.00  0.00     0.135 A 
ATOM     58  C   UNL A   1      45.441  28.671  35.365  1.00  0.00     0.135 A 
ATOM     59  F   UNL A   1      42.521  27.079  36.841  1.00  0.00    -0.206 F 
ATOM     60  C   UNL A   1      44.802  26.647  37.170  1.00  0.00     0.059 A 
ATOM     61  C   UNL A   1      46.465  27.946  35.968  1.00  0.00     0.059 A 
ATOM     62  F   UNL A   1      45.778  29.650  34.510  1.00  0.00    -0.206 F 
ATOM     63  C   UNL A   1      46.134  26.946  36.883  1.00  0.00     0.060 A 
BRANCH  63  64
ATOM     64  S   UNL A   1      47.430  26.007  37.717  1.00  0.00     0.124 S 
ATOM     65  O   UNL A   1      47.387  26.582  39.058  1.00  0.00    -0.237 OA
ATOM     66  O   UNL A   1      46.948  24.634  37.601  1.00  0.00    -0.237 OA
ATOM     67  O   UNL A   1      48.628  26.316  36.940  1.00  0.00    -0.744 OA
ENDBRANCH  63  64
ENDBRANCH  42  56
BRANCH  43  68
ATOM     68  C   UNL A   1      36.703  33.157  30.888  1.00  0.00     0.058 A 
ATOM     69  C   UNL A   1      36.947  34.087  29.866  1.00  0.00     0.135 A 
ATOM     70  C   UNL A   1      35.368  32.891  31.228  1.00  0.00     0.135 A 
ATOM     71  F   UNL A   1      38.207  34.379  29.513  1.00  0.00    -0.206 F 
ATOM     72  C   UNL A   1      35.907  34.740  29.213  1.00  0.00     0.059 A 
ATOM     73  C   UNL A   1      34.310  33.515  30.573  1.00  0.00     0.059 A 
ATOM     74  F   UNL A   1      35.083  31.997  32.187  1.00  0.00    -0.206 F 
ATOM     75  C   UNL A   1      34.590  34.444  29.572  1.00  0.00     0.060 A 
BRANCH  75  76
ATOM     76  S   UNL A   1      33.245  35.252  28.677  1.00  0.00     0.124 S 
ATOM     77  O   UNL A   1      33.979  36.142  27.786  1.00  0.00    -0.237 OA
ATOM     78  O   UNL A   1      32.574  34.121  28.043  1.00  0.00    -0.237 OA
ATOM     79  O   UNL A   1      32.485  35.905  29.740  1.00  0.00    -0.744 OA
ENDBRANCH  75  76
ENDBRANCH  43  68
BRANCH  55  80
ATOM     80  C   UNL A   1      39.960  34.164  36.972  1.00  0.00     0.058 A 
ATOM     81  C   UNL A   1      40.614  35.403  36.901  1.00  0.00     0.135 A 
ATOM     82  C   UNL A   1      39.105  33.932  38.062  1.00  0.00     0.135 A 
ATOM     83  F   UNL A   1      41.446  35.670  35.882  1.00  0.00    -0.206 F 
ATOM     84  C   UNL A   1      40.441  36.373  37.885  1.00  0.00     0.059 A 
ATOM     85  C   UNL A   1      38.900  34.896  39.044  1.00  0.00     0.059 A 
ATOM     86  F   UNL A   1      38.449  32.767  38.171  1.00  0.00    -0.206 F 
ATOM     87  C   UNL A   1      39.580  36.109  38.953  1.00  0.00     0.060 A 
BRANCH  87  88
ATOM     88  S   UNL A   1      39.335  37.387  40.204  1.00  0.00     0.124 S 
ATOM     89  O   UNL A   1      38.437  38.306  39.513  1.00  0.00    -0.237 OA
ATOM     90  O   UNL A   1      38.745  36.637  41.309  1.00  0.00    -0.237 OA
ATOM     91  O   UNL A   1      40.684  37.888  40.446  1.00  0.00    -0.744 OA
ENDBRANCH  87  88
ENDBRANCH  55  80
ENDBRANCH  29  30
ENDBRANCH  21  24
ENDBRANCH  19  20
ENDBRANCH   1  19
TORSDOF 15
ENDMDL
MODEL 2
REMARK VINA RESULT:     -11.0      3.815      6.232
REMARK SMILES CCNC(=O)N1CC[C@@H](C(=O)NCCCNC(=O)c2ccc(-c3c4nc(c(-c5c(F)cc(S(=O)(=O)[O-])cc5F)c5ccc([nH]5)c(-c5c(F)cc(S(=O)(=O)[O-])cc5F)c5nc(c(-c6c(F)cc(S(=O)(=O)[O-])cc6F)c6ccc3[nH]6)C=C5)C=C4)cc2)[C@H]1C
REMARK SMILES IDX 14 1 13 2 12 3 10 4 11 5 9 7 6 8 7 9 85 10 8 11 86 12 4 13
REMARK SMILES IDX 3 14 5 16 2 17 1 18 15 19 16 20 17 21 18 23 19 24 20 25
REMARK SMILES IDX 84 26 21 27 83 28 22 29 23 30 24 31 77 32 25 33 82 34 76 35
REMARK SMILES IDX 78 36 26 37 81 38 75 39 74 40 27 42 61 43 40 44 60 45 41 46
REMARK SMILES IDX 44 47 59 48 79 49 42 50 43 51 58 53 80 54 45 55 28 56 29 57
REMARK SMILES IDX 38 58 30 59 31 60 37 61 39 62 32 63 33 64 34 65 35 66 36 67
REMARK SMILES IDX 62 68 63 69 72 70 64 71 65 72 71 73 73 74 66 75 67 76 68 77
REMARK SMILES IDX 69 78 70 79 46 80 47 81 56 82 48 83 49 84 55 85 57 86 50 87
REMARK SMILES IDX 51 88 52 89 53 90 54 91
REMARK H PARENT 12 6 3 15 16 22 78 41 44 52
REMARK Flexibility Score: inf
ROOT
ATOM      1  C   UNL A   1      41.278  20.686  26.236  1.00  0.00     0.042 C 
ENDROOT
BRANCH   1   2
ATOM      2  C   UNL A   1      42.601  20.681  26.998  1.00  0.00     0.117 C 
BRANCH   2   3
ATOM      3  N   UNL A   1      42.609  21.591  28.134  1.00  0.00    -0.356 N 
ATOM      4  C   UNL A   1      43.397  22.641  28.470  1.00  0.00     0.225 C 
ATOM      5  O   UNL A   1      43.113  23.224  29.523  1.00  0.00    -0.275 OA
ATOM      6  H   UNL A   1      41.898  21.407  28.789  1.00  0.00     0.163 HD
BRANCH   4   7
ATOM      7  C   UNL A   1      44.580  23.125  27.650  1.00  0.00     0.102 C 
ATOM      8  N   UNL A   1      45.009  25.156  26.463  1.00  0.00    -0.321 N 
ATOM      9  C   UNL A   1      46.098  24.970  27.404  1.00  0.00     0.122 C 
ATOM     10  C   UNL A   1      44.294  23.879  26.336  1.00  0.00     0.096 C 
ATOM     11  C   UNL A   1      45.594  23.970  28.424  1.00  0.00     0.037 C 
ATOM     12  C   UNL A   1      42.843  23.940  25.889  1.00  0.00     0.032 C 
BRANCH   8  13
ATOM     13  C   UNL A   1      45.303  25.901  25.342  1.00  0.00     0.317 C 
ATOM     14  N   UNL A   1      44.547  26.994  25.085  1.00  0.00    -0.338 N 
ATOM     15  H   UNL A   1      44.631  27.358  24.173  1.00  0.00     0.165 HD
ATOM     16  O   UNL A   1      46.247  25.640  24.598  1.00  0.00    -0.249 OA
BRANCH  14  17
ATOM     17  C   UNL A   1      43.630  27.708  25.951  1.00  0.00     0.114 C 
ATOM     18  C   UNL A   1      44.381  28.644  26.882  1.00  0.00     0.027 C 
ENDBRANCH  14  17
ENDBRANCH   8  13
ENDBRANCH   4   7
ENDBRANCH   2   3
ENDBRANCH   1   2
BRANCH   1  19
ATOM     19  C   UNL A   1      40.154  21.482  26.887  1.00  0.00     0.118 C 
BRANCH  19  20
ATOM     20  N   UNL A   1      39.186  21.981  25.926  1.00  0.00    -0.352 N 
ATOM     21  C   UNL A   1      38.593  23.218  25.823  1.00  0.00     0.251 C 
ATOM     22  H   UNL A   1      38.910  21.331  25.241  1.00  0.00     0.163 HD
ATOM     23  O   UNL A   1      37.651  23.361  25.046  1.00  0.00    -0.269 OA
BRANCH  21  24
ATOM     24  C   UNL A   1      39.049  24.369  26.644  1.00  0.00     0.039 A 
ATOM     25  C   UNL A   1      39.847  25.348  26.042  1.00  0.00     0.014 A 
ATOM     26  C   UNL A   1      38.754  24.469  28.006  1.00  0.00     0.014 A 
ATOM     27  C   UNL A   1      40.300  26.443  26.788  1.00  0.00     0.010 A 
ATOM     28  C   UNL A   1      39.128  25.606  28.725  1.00  0.00     0.010 A 
ATOM     29  C   UNL A   1      39.921  26.598  28.131  1.00  0.00    -0.014 A 
BRANCH  29  30
ATOM     30  C   UNL A   1      40.378  27.762  28.940  1.00  0.00     0.031 A 
ATOM     31  C   UNL A   1      41.727  27.731  29.613  1.00  0.00     0.074 A 
ATOM     32  C   UNL A   1      39.567  28.824  29.118  1.00  0.00     0.049 A 
ATOM     33  N   UNL A   1      42.267  28.602  30.427  1.00  0.00    -0.248 NA
ATOM     34  C   UNL A   1      42.568  26.548  29.363  1.00  0.00     0.031 C 
ATOM     35  C   UNL A   1      38.220  28.965  28.560  1.00  0.00     0.029 A 
ATOM     36  N   UNL A   1      39.752  29.984  29.830  1.00  0.00    -0.354 N 
ATOM     37  C   UNL A   1      43.492  28.063  30.805  1.00  0.00     0.074 A 
ATOM     38  C   UNL A   1      43.596  26.768  30.170  1.00  0.00     0.031 C 
ATOM     39  C   UNL A   1      37.711  30.151  28.933  1.00  0.00     0.029 A 
ATOM     40  C   UNL A   1      38.677  30.840  29.784  1.00  0.00     0.049 A 
ATOM     41  H   UNL A   1      40.578  30.183  30.327  1.00  0.00     0.167 HD
ATOM     42  C   UNL A   1      44.456  28.604  31.589  1.00  0.00     0.037 A 
ATOM     43  C   UNL A   1      38.486  32.041  30.365  1.00  0.00     0.037 A 
ATOM     44  C   UNL A   1      44.374  29.913  32.183  1.00  0.00     0.049 A 
ATOM     45  C   UNL A   1      39.581  32.635  31.208  1.00  0.00     0.074 A 
ATOM     46  C   UNL A   1      45.324  30.575  32.941  1.00  0.00     0.029 A 
ATOM     47  N   UNL A   1      43.283  30.763  32.079  1.00  0.00    -0.354 N 
ATOM     48  N   UNL A   1      40.752  32.131  31.513  1.00  0.00    -0.248 NA
ATOM     49  C   UNL A   1      39.332  33.966  31.781  1.00  0.00     0.031 C 
ATOM     50  C   UNL A   1      44.796  31.814  33.321  1.00  0.00     0.029 A 
ATOM     51  C   UNL A   1      43.532  31.939  32.767  1.00  0.00     0.049 A 
ATOM     52  H   UNL A   1      42.454  30.561  31.589  1.00  0.00     0.167 HD
ATOM     53  C   UNL A   1      41.389  33.092  32.290  1.00  0.00     0.074 A 
ATOM     54  C   UNL A   1      40.477  34.211  32.402  1.00  0.00     0.031 C 
ATOM     55  C   UNL A   1      42.619  33.050  32.859  1.00  0.00     0.037 A 
BRANCH  42  56
ATOM     56  C   UNL A   1      45.690  27.783  31.842  1.00  0.00     0.058 A 
ATOM     57  C   UNL A   1      46.745  27.736  30.917  1.00  0.00     0.135 A 
ATOM     58  C   UNL A   1      45.833  27.055  33.035  1.00  0.00     0.135 A 
ATOM     59  F   UNL A   1      46.655  28.400  29.755  1.00  0.00    -0.206 F 
ATOM     60  C   UNL A   1      47.883  26.969  31.149  1.00  0.00     0.059 A 
ATOM     61  C   UNL A   1      46.974  26.303  33.300  1.00  0.00     0.059 A 
ATOM     62  F   UNL A   1      44.855  27.067  33.955  1.00  0.00    -0.206 F 
ATOM     63  C   UNL A   1      47.986  26.253  32.342  1.00  0.00     0.060 A 
BRANCH  63  64
ATOM     64  S   UNL A   1      49.466  25.259  32.628  1.00  0.00     0.124 S 
ATOM     65  O   UNL A   1      49.892  24.976  31.261  1.00  0.00    -0.237 OA
ATOM     66  O   UNL A   1      50.318  26.174  33.380  1.00  0.00    -0.237 OA
ATOM     67  O   UNL A   1      48.965  24.112  33.380  1.00  0.00    -0.744 OA
ENDBRANCH  63  64
ENDBRANCH  42  56
BRANCH  43  68
ATOM     68  C   UNL A   1      37.212  32.776  30.145  1.00  0.00     0.058 A 
ATOM     69  C   UNL A   1      37.082  33.692  29.090  1.00  0.00     0.135 A 
ATOM     70  C   UNL A   1      36.098  32.565  30.971  1.00  0.00     0.135 A 
ATOM     71  F   UNL A   1      38.124  33.931  28.279  1.00  0.00    -0.206 F 
ATOM     72  C   UNL A   1      35.897  34.385  28.869  1.00  0.00     0.059 A 
ATOM     73  C   UNL A   1      34.893  33.230  30.756  1.00  0.00     0.059 A 
ATOM     74  F   UNL A   1      36.166  31.687  31.982  1.00  0.00    -0.206 F 
ATOM     75  C   UNL A   1      34.806  34.145  29.707  1.00  0.00     0.060 A 
BRANCH  75  76
ATOM     76  S   UNL A   1      33.253  35.004  29.376  1.00  0.00     0.124 S 
ATOM     77  O   UNL A   1      32.636  35.013  30.697  1.00  0.00    -0.237 OA
ATOM     78  O   UNL A   1      33.715  36.295  28.876  1.00  0.00    -0.237 OA
ATOM     79  O   UNL A   1      32.607  34.151  28.381  1.00  0.00    -0.744 OA
ENDBRANCH  75  76
ENDBRANCH  43  68
BRANCH  55  80
ATOM     80  C   UNL A   1      43.070  34.262  33.624  1.00  0.00     0.058 A 
ATOM     81  C   UNL A   1      42.829  34.396  35.000  1.00  0.00     0.135 A 
ATOM     82  C   UNL A   1      43.799  35.276  32.981  1.00  0.00     0.135 A 
ATOM     83  F   UNL A   1      42.133  33.457  35.658  1.00  0.00    -0.206 F 
ATOM     84  C   UNL A   1      43.281  35.505  35.711  1.00  0.00     0.059 A 
ATOM     85  C   UNL A   1      44.279  36.381  33.677  1.00  0.00     0.059 A 
ATOM     86  F   UNL A   1      44.063  35.190  31.669  1.00  0.00    -0.206 F 
ATOM     87  C   UNL A   1      44.006  36.492  35.039  1.00  0.00     0.060 A 
BRANCH  87  88
ATOM     88  S   UNL A   1      44.617  37.908  35.978  1.00  0.00     0.124 S 
ATOM     89  O   UNL A   1      46.046  37.620  36.046  1.00  0.00    -0.237 OA
ATOM     90  O   UNL A   1      44.238  39.035  35.131  1.00  0.00    -0.237 OA
ATOM     91  O   UNL A   1      43.895  37.813  37.243  1.00  0.00    -0.744 OA
ENDBRANCH  87  88
ENDBRANCH  55  80
ENDBRANCH  29  30
ENDBRANCH  21  24
ENDBRANCH  19  20
ENDBRANCH   1  19
TORSDOF 15
ENDMDL
MODEL 3
REMARK VINA RESULT:     -10.9      4.769     10.437
REMARK SMILES CCNC(=O)N1CC[C@@H](C(=O)NCCCNC(=O)c2ccc(-c3c4nc(c(-c5c(F)cc(S(=O)(=O)[O-])cc5F)c5ccc([nH]5)c(-c5c(F)cc(S(=O)(=O)[O-])cc5F)c5nc(c(-c6c(F)cc(S(=O)(=O)[O-])cc6F)c6ccc3[nH]6)C=C5)C=C4)cc2)[C@H]1C
REMARK SMILES IDX 14 1 13 2 12 3 10 4 11 5 9 7 6 8 7 9 85 10 8 11 86 12 4 13
REMARK SMILES IDX 3 14 5 16 2 17 1 18 15 19 16 20 17 21 18 23 19 24 20 25
REMARK SMILES IDX 84 26 21 27 83 28 22 29 23 30 24 31 77 32 25 33 82 34 76 35
REMARK SMILES IDX 78 36 26 37 81 38 75 39 74 40 27 42 61 43 40 44 60 45 41 46
REMARK SMILES IDX 44 47 59 48 79 49 42 50 43 51 58 53 80 54 45 55 28 56 29 57
REMARK SMILES IDX 38 58 30 59 31 60 37 61 39 62 32 63 33 64 34 65 35 66 36 67
REMARK SMILES IDX 62 68 63 69 72 70 64 71 65 72 71 73 73 74 66 75 67 76 68 77
REMARK SMILES IDX 69 78 70 79 46 80 47 81 56 82 48 83 49 84 55 85 57 86 50 87
REMARK SMILES IDX 51 88 52 89 53 90 54 91
REMARK H PARENT 12 6 3 15 16 22 78 41 44 52
REMARK Flexibility Score: inf
ROOT
ATOM      1  C   UNL A   1      32.182  27.503  27.429  1.00  0.00     0.042 C 
ENDROOT
BRANCH   1   2
ATOM      2  C   UNL A   1      31.799  26.492  26.350  1.00  0.00     0.117 C 
BRANCH   2   3
ATOM      3  N   UNL A   1      31.138  25.310  26.883  1.00  0.00    -0.356 N 
ATOM      4  C   UNL A   1      31.268  23.986  26.627  1.00  0.00     0.225 C 
ATOM      5  O   UNL A   1      30.548  23.227  27.286  1.00  0.00    -0.275 OA
ATOM      6  H   UNL A   1      30.462  25.514  27.569  1.00  0.00     0.163 HD
BRANCH   4   7
ATOM      7  C   UNL A   1      32.221  23.398  25.600  1.00  0.00     0.102 C 
ATOM      8  N   UNL A   1      33.159  21.216  25.320  1.00  0.00    -0.321 N 
ATOM      9  C   UNL A   1      32.482  21.555  24.082  1.00  0.00     0.122 C 
ATOM     10  C   UNL A   1      33.331  22.450  26.097  1.00  0.00     0.096 C 
ATOM     11  C   UNL A   1      31.541  22.691  24.425  1.00  0.00     0.037 C 
ATOM     12  C   UNL A   1      33.477  22.306  27.603  1.00  0.00     0.032 C 
BRANCH   8  13
ATOM     13  C   UNL A   1      34.194  20.314  25.212  1.00  0.00     0.317 C 
ATOM     14  N   UNL A   1      33.938  19.013  25.481  1.00  0.00    -0.338 N 
ATOM     15  H   UNL A   1      34.733  18.448  25.621  1.00  0.00     0.165 HD
ATOM     16  O   UNL A   1      35.322  20.636  24.840  1.00  0.00    -0.249 OA
BRANCH  14  17
ATOM     17  C   UNL A   1      32.667  18.326  25.595  1.00  0.00     0.114 C 
ATOM     18  C   UNL A   1      32.861  16.819  25.588  1.00  0.00     0.027 C 
ENDBRANCH  14  17
ENDBRANCH   8  13
ENDBRANCH   4   7
ENDBRANCH   2   3
ENDBRANCH   1   2
BRANCH   1  19
ATOM     19  C   UNL A   1      33.470  28.274  27.172  1.00  0.00     0.118 C 
BRANCH  19  20
ATOM     20  N   UNL A   1      33.329  29.701  27.406  1.00  0.00    -0.352 N 
ATOM     21  C   UNL A   1      34.213  30.602  27.954  1.00  0.00     0.251 C 
ATOM     22  H   UNL A   1      32.466  30.083  27.130  1.00  0.00     0.163 HD
ATOM     23  O   UNL A   1      33.810  31.728  28.238  1.00  0.00    -0.269 OA
BRANCH  21  24
ATOM     24  C   UNL A   1      35.625  30.235  28.231  1.00  0.00     0.039 A 
ATOM     25  C   UNL A   1      35.955  29.754  29.503  1.00  0.00     0.014 A 
ATOM     26  C   UNL A   1      36.635  30.412  27.284  1.00  0.00     0.014 A 
ATOM     27  C   UNL A   1      37.278  29.404  29.801  1.00  0.00     0.010 A 
ATOM     28  C   UNL A   1      37.935  29.977  27.551  1.00  0.00     0.010 A 
ATOM     29  C   UNL A   1      38.277  29.485  28.818  1.00  0.00    -0.014 A 
BRANCH  29  30
ATOM     30  C   UNL A   1      39.688  29.105  29.108  1.00  0.00     0.031 A 
ATOM     31  C   UNL A   1      40.632  30.112  29.715  1.00  0.00     0.074 A 
ATOM     32  C   UNL A   1      40.140  27.879  28.780  1.00  0.00     0.049 A 
ATOM     33  N   UNL A   1      41.913  30.003  29.960  1.00  0.00    -0.248 NA
ATOM     34  C   UNL A   1      40.068  31.426  30.064  1.00  0.00     0.031 C 
ATOM     35  C   UNL A   1      39.346  26.823  28.147  1.00  0.00     0.029 A 
ATOM     36  N   UNL A   1      41.384  27.314  28.922  1.00  0.00    -0.354 N 
ATOM     37  C   UNL A   1      42.311  31.238  30.464  1.00  0.00     0.074 A 
ATOM     38  C   UNL A   1      41.146  32.095  30.446  1.00  0.00     0.031 C 
ATOM     39  C   UNL A   1      40.115  25.736  27.975  1.00  0.00     0.029 A 
ATOM     40  C   UNL A   1      41.465  26.025  28.452  1.00  0.00     0.049 A 
ATOM     41  H   UNL A   1      42.147  27.790  29.322  1.00  0.00     0.167 HD
ATOM     42  C   UNL A   1      43.527  31.618  30.925  1.00  0.00     0.037 A 
ATOM     43  C   UNL A   1      42.507  25.172  28.403  1.00  0.00     0.037 A 
ATOM     44  C   UNL A   1      44.674  30.750  30.988  1.00  0.00     0.049 A 
ATOM     45  C   UNL A   1      43.842  25.605  28.945  1.00  0.00     0.074 A 
ATOM     46  C   UNL A   1      45.933  31.024  31.496  1.00  0.00     0.029 A 
ATOM     47  N   UNL A   1      44.702  29.440  30.538  1.00  0.00    -0.354 N 
ATOM     48  N   UNL A   1      44.185  26.761  29.463  1.00  0.00    -0.248 NA
ATOM     49  C   UNL A   1      44.930  24.618  28.905  1.00  0.00     0.031 C 
ATOM     50  C   UNL A   1      46.731  29.887  31.325  1.00  0.00     0.029 A 
ATOM     51  C   UNL A   1      45.958  28.893  30.746  1.00  0.00     0.049 A 
ATOM     52  H   UNL A   1      43.941  28.966  30.129  1.00  0.00     0.167 HD
ATOM     53  C   UNL A   1      45.518  26.630  29.834  1.00  0.00     0.074 A 
ATOM     54  C   UNL A   1      45.918  25.281  29.488  1.00  0.00     0.031 C 
ATOM     55  C   UNL A   1      46.337  27.545  30.408  1.00  0.00     0.037 A 
BRANCH  42  56
ATOM     56  C   UNL A   1      43.677  33.034  31.407  1.00  0.00     0.058 A 
ATOM     57  C   UNL A   1      44.067  34.069  30.541  1.00  0.00     0.135 A 
ATOM     58  C   UNL A   1      43.403  33.368  32.743  1.00  0.00     0.135 A 
ATOM     59  F   UNL A   1      44.355  33.803  29.258  1.00  0.00    -0.206 F 
ATOM     60  C   UNL A   1      44.213  35.378  30.991  1.00  0.00     0.059 A 
ATOM     61  C   UNL A   1      43.517  34.675  33.209  1.00  0.00     0.059 A 
ATOM     62  F   UNL A   1      43.025  32.417  33.613  1.00  0.00    -0.206 F 
ATOM     63  C   UNL A   1      43.939  35.670  32.327  1.00  0.00     0.060 A 
BRANCH  63  64
ATOM     64  S   UNL A   1      44.137  37.371  32.897  1.00  0.00     0.124 S 
ATOM     65  O   UNL A   1      45.475  37.327  33.481  1.00  0.00    -0.237 OA
ATOM     66  O   UNL A   1      44.012  38.134  31.660  1.00  0.00    -0.237 OA
ATOM     67  O   UNL A   1      43.043  37.540  33.849  1.00  0.00    -0.744 OA
ENDBRANCH  63  64
ENDBRANCH  42  56
BRANCH  43  68
ATOM     68  C   UNL A   1      42.322  23.807  27.842  1.00  0.00     0.058 A 
ATOM     69  C   UNL A   1      42.271  23.600  26.456  1.00  0.00     0.135 A 
ATOM     70  C   UNL A   1      42.212  22.684  28.677  1.00  0.00     0.135 A 
ATOM     71  F   UNL A   1      42.364  24.645  25.619  1.00  0.00    -0.206 F 
ATOM     72  C   UNL A   1      42.102  22.331  25.914  1.00  0.00     0.059 A 
ATOM     73  C   UNL A   1      42.065  21.401  28.158  1.00  0.00     0.059 A 
ATOM     74  F   UNL A   1      42.274  22.828  30.009  1.00  0.00    -0.206 F 
ATOM     75  C   UNL A   1      42.002  21.235  26.775  1.00  0.00     0.060 A 
BRANCH  75  76
ATOM     76  S   UNL A   1      41.844  19.583  26.063  1.00  0.00     0.124 S 
ATOM     77  O   UNL A   1      42.239  18.741  27.185  1.00  0.00    -0.237 OA
ATOM     78  O   UNL A   1      40.432  19.540  25.696  1.00  0.00    -0.237 OA
ATOM     79  O   UNL A   1      42.774  19.617  24.937  1.00  0.00    -0.744 OA
ENDBRANCH  75  76
ENDBRANCH  43  68
BRANCH  55  80
ATOM     80  C   UNL A   1      47.739  27.112  30.735  1.00  0.00     0.058 A 
ATOM     81  C   UNL A   1      48.784  27.236  29.807  1.00  0.00     0.135 A 
ATOM     82  C   UNL A   1      48.048  26.615  32.012  1.00  0.00     0.135 A 
ATOM     83  F   UNL A   1      48.538  27.699  28.572  1.00  0.00    -0.206 F 
ATOM     84  C   UNL A   1      50.087  26.867  30.128  1.00  0.00     0.059 A 
ATOM     85  C   UNL A   1      49.347  26.262  32.361  1.00  0.00     0.059 A 
ATOM     86  F   UNL A   1      47.086  26.486  32.938  1.00  0.00    -0.206 F 
ATOM     87  C   UNL A   1      50.358  26.381  31.409  1.00  0.00     0.060 A 
BRANCH  87  88
ATOM     88  S   UNL A   1      52.058  25.938  31.827  1.00  0.00     0.124 S 
ATOM     89  O   UNL A   1      52.234  26.621  33.103  1.00  0.00    -0.237 OA
ATOM     90  O   UNL A   1      51.997  24.481  31.891  1.00  0.00    -0.237 OA
ATOM     91  O   UNL A   1      52.832  26.478  30.712  1.00  0.00    -0.744 OA
ENDBRANCH  87  88
ENDBRANCH  55  80
ENDBRANCH  29  30
ENDBRANCH  21  24
ENDBRANCH  19  20
ENDBRANCH   1  19
TORSDOF 15
ENDMDL
