MODEL 1
REMARK VINA RESULT:     -11.7      0.000      0.000
REMARK SMILES O=C(NCCCNC(=O)c1cccc(S(=O)(=O)Nc2cccc(I)c2)c1)c1ccc(-c2c3nc(c(-c4c(F)cc(S(=O)(=O)[O-])cc4F)c4ccc([nH]4)c(-c4c(F)cc(S(=O)(=O)[O-])cc4F)c4nc(c(-c5c(F)cc(S(=O)(=O)[O-])cc5F)c5ccc2[nH]5)C=C4)C=C3)cc1
REMARK SMILES IDX 5 1 4 2 3 3 1 4 2 5 27 7 28 8 92 9 29 10 91 11 30 12 31 13
REMARK SMILES IDX 32 14 85 15 33 16 90 17 84 18 86 19 34 20 89 21 83 22 82 23
REMARK SMILES IDX 35 25 69 26 48 27 68 28 49 29 52 30 67 31 87 32 50 33 51 34
REMARK SMILES IDX 66 36 88 37 53 38 36 39 37 40 46 41 38 42 39 43 45 44 47 45
REMARK SMILES IDX 40 46 41 47 42 48 43 49 44 50 70 51 71 52 80 53 72 54 73 55
REMARK SMILES IDX 79 56 81 57 74 58 75 59 76 60 77 61 78 62 54 63 55 64 64 65
REMARK SMILES IDX 56 66 57 67 63 68 65 69 58 70 59 71 60 72 61 73 62 74 6 75
REMARK SMILES IDX 7 76 8 77 9 79 10 80 11 81 26 82 12 83 14 84 13 85 15 86
REMARK SMILES IDX 16 87 17 88 18 89 19 91 20 92 25 93 21 94 23 95 22 96 24 97
REMARK H PARENT 3 6 86 24 52 35 7 78 18 90
REMARK Flexibility Score: inf
ROOT
ATOM      1  C   UNL A   1      40.754  21.606  27.278  1.00  0.00     0.042 C 
ENDROOT
BRANCH   1   2
ATOM      2  C   UNL A   1      40.915  23.090  27.568  1.00  0.00     0.118 C 
BRANCH   2   3
ATOM      3  N   UNL A   1      41.185  23.871  26.369  1.00  0.00    -0.352 N 
ATOM      4  O   UNL A   1      41.193  25.686  25.038  1.00  0.00    -0.269 OA
ATOM      5  C   UNL A   1      41.133  25.234  26.177  1.00  0.00     0.251 C 
ATOM      6  H   UNL A   1      41.443  23.347  25.576  1.00  0.00     0.163 HD
BRANCH   5   7
ATOM      7  C   UNL A   1      40.976  26.137  27.341  1.00  0.00     0.039 A 
ATOM      8  C   UNL A   1      41.810  27.245  27.492  1.00  0.00     0.014 A 
ATOM      9  C   UNL A   1      39.984  25.880  28.292  1.00  0.00     0.014 A 
ATOM     10  C   UNL A   1      41.784  27.979  28.668  1.00  0.00     0.010 A 
ATOM     11  C   UNL A   1      39.877  26.698  29.423  1.00  0.00     0.010 A 
ATOM     12  C   UNL A   1      40.795  27.738  29.633  1.00  0.00    -0.014 A 
BRANCH  12  13
ATOM     13  C   UNL A   1      40.681  28.667  30.787  1.00  0.00     0.031 A 
ATOM     14  C   UNL A   1      41.554  28.526  32.002  1.00  0.00     0.074 A 
ATOM     15  C   UNL A   1      39.776  29.663  30.708  1.00  0.00     0.049 A 
ATOM     16  N   UNL A   1      41.557  29.246  33.094  1.00  0.00    -0.248 NA
ATOM     17  C   UNL A   1      42.543  27.435  32.005  1.00  0.00     0.031 C 
ATOM     18  C   UNL A   1      38.859  29.880  29.581  1.00  0.00     0.029 A 
ATOM     19  N   UNL A   1      39.477  30.684  31.572  1.00  0.00    -0.354 N 
ATOM     20  C   UNL A   1      42.517  28.682  33.926  1.00  0.00     0.074 A 
ATOM     21  C   UNL A   1      43.079  27.554  33.215  1.00  0.00     0.031 C 
ATOM     22  C   UNL A   1      38.133  30.983  29.806  1.00  0.00     0.029 A 
ATOM     23  C   UNL A   1      38.471  31.506  31.122  1.00  0.00     0.049 A 
ATOM     24  H   UNL A   1      39.939  30.816  32.432  1.00  0.00     0.167 HD
ATOM     25  C   UNL A   1      42.887  29.075  35.168  1.00  0.00     0.037 A 
ATOM     26  C   UNL A   1      37.853  32.543  31.715  1.00  0.00     0.037 A 
ATOM     27  C   UNL A   1      42.350  30.228  35.844  1.00  0.00     0.049 A 
ATOM     28  C   UNL A   1      38.279  32.944  33.095  1.00  0.00     0.074 A 
ATOM     29  C   UNL A   1      42.731  30.765  37.061  1.00  0.00     0.029 A 
ATOM     30  N   UNL A   1      41.310  31.014  35.369  1.00  0.00    -0.354 N 
ATOM     31  N   UNL A   1      39.230  32.434  33.839  1.00  0.00    -0.248 NA
ATOM     32  C   UNL A   1      37.540  34.046  33.726  1.00  0.00     0.031 C 
ATOM     33  C   UNL A   1      41.891  31.846  37.345  1.00  0.00     0.029 A 
ATOM     34  C   UNL A   1      41.009  32.006  36.288  1.00  0.00     0.049 A 
ATOM     35  H   UNL A   1      40.853  30.886  34.506  1.00  0.00     0.167 HD
ATOM     36  C   UNL A   1      39.198  33.145  35.031  1.00  0.00     0.074 A 
ATOM     37  C   UNL A   1      38.156  34.142  34.896  1.00  0.00     0.031 C 
ATOM     38  C   UNL A   1      39.957  32.978  36.140  1.00  0.00     0.037 A 
BRANCH  25  39
ATOM     39  C   UNL A   1      43.914  28.257  35.901  1.00  0.00     0.058 A 
ATOM     40  C   UNL A   1      43.553  27.199  36.747  1.00  0.00     0.135 A 
ATOM     41  C   UNL A   1      45.283  28.473  35.666  1.00  0.00     0.135 A 
ATOM     42  F   UNL A   1      42.260  26.958  37.014  1.00  0.00    -0.206 F 
ATOM     43  C   UNL A   1      44.514  26.382  37.337  1.00  0.00     0.059 A 
ATOM     44  C   UNL A   1      46.259  27.659  36.232  1.00  0.00     0.059 A 
ATOM     45  F   UNL A   1      45.680  29.474  34.865  1.00  0.00    -0.206 F 
ATOM     46  C   UNL A   1      45.864  26.616  37.069  1.00  0.00     0.060 A 
BRANCH  46  47
ATOM     47  S   UNL A   1      47.096  25.521  37.808  1.00  0.00     0.124 S 
ATOM     48  O   UNL A   1      46.570  25.364  39.160  1.00  0.00    -0.237 OA
ATOM     49  O   UNL A   1      47.014  24.339  36.956  1.00  0.00    -0.237 OA
ATOM     50  O   UNL A   1      48.337  26.282  37.702  1.00  0.00    -0.744 OA
ENDBRANCH  46  47
ENDBRANCH  25  39
BRANCH  26  51
ATOM     51  C   UNL A   1      36.726  33.222  31.027  1.00  0.00     0.058 A 
ATOM     52  C   UNL A   1      36.944  34.073  29.935  1.00  0.00     0.135 A 
ATOM     53  C   UNL A   1      35.400  33.007  31.438  1.00  0.00     0.135 A 
ATOM     54  F   UNL A   1      38.194  34.309  29.509  1.00  0.00    -0.206 F 
ATOM     55  C   UNL A   1      35.888  34.699  29.282  1.00  0.00     0.059 A 
ATOM     56  C   UNL A   1      34.327  33.600  30.784  1.00  0.00     0.059 A 
ATOM     57  F   UNL A   1      35.139  32.184  32.465  1.00  0.00    -0.206 F 
ATOM     58  C   UNL A   1      34.583  34.456  29.714  1.00  0.00     0.060 A 
BRANCH  58  59
ATOM     59  S   UNL A   1      33.210  35.236  28.837  1.00  0.00     0.124 S 
ATOM     60  O   UNL A   1      33.903  36.261  28.067  1.00  0.00    -0.237 OA
ATOM     61  O   UNL A   1      32.659  34.122  28.070  1.00  0.00    -0.237 OA
ATOM     62  O   UNL A   1      32.359  35.722  29.919  1.00  0.00    -0.744 OA
ENDBRANCH  58  59
ENDBRANCH  26  51
BRANCH  38  63
ATOM     63  C   UNL A   1      39.675  33.887  37.299  1.00  0.00     0.058 A 
ATOM     64  C   UNL A   1      38.858  33.471  38.362  1.00  0.00     0.135 A 
ATOM     65  C   UNL A   1      40.261  35.159  37.373  1.00  0.00     0.135 A 
ATOM     66  F   UNL A   1      38.265  32.267  38.328  1.00  0.00    -0.206 F 
ATOM     67  C   UNL A   1      38.621  34.293  39.457  1.00  0.00     0.059 A 
ATOM     68  C   UNL A   1      40.055  35.990  38.469  1.00  0.00     0.059 A 
ATOM     69  F   UNL A   1      41.052  35.598  36.382  1.00  0.00    -0.206 F 
ATOM     70  C   UNL A   1      39.228  35.551  39.503  1.00  0.00     0.060 A 
BRANCH  70  71
ATOM     71  S   UNL A   1      38.951  36.592  40.951  1.00  0.00     0.124 S 
ATOM     72  O   UNL A   1      38.385  37.792  40.346  1.00  0.00    -0.237 OA
ATOM     73  O   UNL A   1      38.029  35.786  41.745  1.00  0.00    -0.237 OA
ATOM     74  O   UNL A   1      40.288  36.744  41.518  1.00  0.00    -0.744 OA
ENDBRANCH  70  71
ENDBRANCH  38  63
ENDBRANCH  12  13
ENDBRANCH   5   7
ENDBRANCH   2   3
ENDBRANCH   1   2
BRANCH   1  75
ATOM     75  C   UNL A   1      41.998  20.797  27.594  1.00  0.00     0.118 C 
BRANCH  75  76
ATOM     76  N   UNL A   1      41.904  19.429  27.102  1.00  0.00    -0.352 N 
ATOM     77  C   UNL A   1      42.641  18.789  26.139  1.00  0.00     0.251 C 
ATOM     78  H   UNL A   1      41.206  18.880  27.526  1.00  0.00     0.163 HD
ATOM     79  O   UNL A   1      42.289  17.684  25.737  1.00  0.00    -0.269 OA
BRANCH  77  80
ATOM     80  C   UNL A   1      43.880  19.400  25.610  1.00  0.00     0.041 A 
ATOM     81  C   UNL A   1      45.014  18.612  25.420  1.00  0.00     0.014 A 
ATOM     82  C   UNL A   1      43.951  20.780  25.420  1.00  0.00     0.036 A 
ATOM     83  C   UNL A   1      46.206  19.206  24.998  1.00  0.00     0.002 A 
ATOM     84  C   UNL A   1      45.143  21.385  25.037  1.00  0.00     0.088 A 
ATOM     85  C   UNL A   1      46.272  20.591  24.804  1.00  0.00     0.022 A 
BRANCH  84  86
ATOM     86  S   UNL A   1      45.301  23.154  24.892  1.00  0.00     0.261 S 
ATOM     87  O   UNL A   1      46.190  23.412  23.782  1.00  0.00    -0.201 OA
ATOM     88  O   UNL A   1      43.950  23.678  24.906  1.00  0.00    -0.201 OA
BRANCH  86  89
ATOM     89  N   UNL A   1      45.993  23.725  26.307  1.00  0.00    -0.280 N 
ATOM     90  H   UNL A   1      46.965  23.601  26.401  1.00  0.00     0.180 HD
BRANCH  89  91
ATOM     91  C   UNL A   1      45.330  24.374  27.391  1.00  0.00     0.050 A 
ATOM     92  C   UNL A   1      44.500  23.576  28.188  1.00  0.00     0.027 A 
ATOM     93  C   UNL A   1      45.559  25.701  27.763  1.00  0.00     0.041 A 
ATOM     94  C   UNL A   1      43.976  24.067  29.387  1.00  0.00     0.003 A 
ATOM     95  C   UNL A   1      45.065  26.176  28.982  1.00  0.00     0.015 A 
ATOM     96  C   UNL A   1      44.282  25.363  29.799  1.00  0.00     0.015 A 
ATOM     97  I   UNL A   1      45.592  28.082  29.628  1.00  0.00    -0.044 I 
ENDBRANCH  89  91
ENDBRANCH  86  89
ENDBRANCH  84  86
ENDBRANCH  77  80
ENDBRANCH  75  76
ENDBRANCH   1  75
TORSDOF 16
ENDMDL
MODEL 2
REMARK VINA RESULT:     -11.6      3.929      5.653
REMARK SMILES O=C(NCCCNC(=O)c1cccc(S(=O)(=O)Nc2cccc(I)c2)c1)c1ccc(-c2c3nc(c(-c4c(F)cc(S(=O)(=O)[O-])cc4F)c4ccc([nH]4)c(-c4c(F)cc(S(=O)(=O)[O-])cc4F)c4nc(c(-c5c(F)cc(S(=O)(=O)[O-])cc5F)c5ccc2[nH]5)C=C4)C=C3)cc1
REMARK SMILES IDX 5 1 4 2 3 3 1 4 2 5 27 7 28 8 92 9 29 10 91 11 30 12 31 13
REMARK SMILES IDX 32 14 85 15 33 16 90 17 84 18 86 19 34 20 89 21 83 22 82 23
REMARK SMILES IDX 35 25 69 26 48 27 68 28 49 29 52 30 67 31 87 32 50 33 51 34
REMARK SMILES IDX 66 36 88 37 53 38 36 39 37 40 46 41 38 42 39 43 45 44 47 45
REMARK SMILES IDX 40 46 41 47 42 48 43 49 44 50 70 51 71 52 80 53 72 54 73 55
REMARK SMILES IDX 79 56 81 57 74 58 75 59 76 60 77 61 78 62 54 63 55 64 64 65
REMARK SMILES IDX 56 66 57 67 63 68 65 69 58 70 59 71 60 72 61 73 62 74 6 75
REMARK SMILES IDX 7 76 8 77 9 79 10 80 11 81 26 82 12 83 14 84 13 85 15 86
REMARK SMILES IDX 16 87 17 88 18 89 19 91 20 92 25 93 21 94 23 95 22 96 24 97
REMARK H PARENT 3 6 86 24 52 35 7 78 18 90
REMARK Flexibility Score: inf
ROOT
ATOM      1  C   UNL A   1      40.404  22.247  27.638  1.00  0.00     0.042 C 
ENDROOT
BRANCH   1   2
ATOM      2  C   UNL A   1      41.620  23.156  27.549  1.00  0.00     0.118 C 
BRANCH   2   3
ATOM      3  N   UNL A   1      41.651  23.934  26.318  1.00  0.00    -0.352 N 
ATOM      4  O   UNL A   1      41.255  25.690  24.967  1.00  0.00    -0.269 OA
ATOM      5  C   UNL A   1      41.375  25.267  26.113  1.00  0.00     0.251 C 
ATOM      6  H   UNL A   1      41.908  23.431  25.511  1.00  0.00     0.163 HD
BRANCH   5   7
ATOM      7  C   UNL A   1      41.195  26.170  27.274  1.00  0.00     0.039 A 
ATOM      8  C   UNL A   1      42.048  27.258  27.459  1.00  0.00     0.014 A 
ATOM      9  C   UNL A   1      40.163  25.933  28.186  1.00  0.00     0.014 A 
ATOM     10  C   UNL A   1      41.995  27.988  28.637  1.00  0.00     0.010 A 
ATOM     11  C   UNL A   1      40.032  26.749  29.315  1.00  0.00     0.010 A 
ATOM     12  C   UNL A   1      40.965  27.767  29.564  1.00  0.00    -0.014 A 
BRANCH  12  13
ATOM     13  C   UNL A   1      40.830  28.695  30.717  1.00  0.00     0.031 A 
ATOM     14  C   UNL A   1      41.706  28.576  31.932  1.00  0.00     0.074 A 
ATOM     15  C   UNL A   1      39.901  29.669  30.636  1.00  0.00     0.049 A 
ATOM     16  N   UNL A   1      41.692  29.298  33.022  1.00  0.00    -0.248 NA
ATOM     17  C   UNL A   1      42.720  27.509  31.935  1.00  0.00     0.031 C 
ATOM     18  C   UNL A   1      38.980  29.863  29.509  1.00  0.00     0.029 A 
ATOM     19  N   UNL A   1      39.579  30.684  31.498  1.00  0.00    -0.354 N 
ATOM     20  C   UNL A   1      42.665  28.757  33.854  1.00  0.00     0.074 A 
ATOM     21  C   UNL A   1      43.254  27.642  33.145  1.00  0.00     0.031 C 
ATOM     22  C   UNL A   1      38.227  30.949  29.732  1.00  0.00     0.029 A 
ATOM     23  C   UNL A   1      38.554  31.482  31.047  1.00  0.00     0.049 A 
ATOM     24  H   UNL A   1      40.037  30.828  32.358  1.00  0.00     0.167 HD
ATOM     25  C   UNL A   1      43.026  29.161  35.096  1.00  0.00     0.037 A 
ATOM     26  C   UNL A   1      37.912  32.505  31.639  1.00  0.00     0.037 A 
ATOM     27  C   UNL A   1      42.462  30.302  35.770  1.00  0.00     0.049 A 
ATOM     28  C   UNL A   1      38.328  32.918  33.018  1.00  0.00     0.074 A 
ATOM     29  C   UNL A   1      42.831  30.850  36.987  1.00  0.00     0.029 A 
ATOM     30  N   UNL A   1      41.404  31.063  35.295  1.00  0.00    -0.354 N 
ATOM     31  N   UNL A   1      39.291  32.431  33.763  1.00  0.00    -0.248 NA
ATOM     32  C   UNL A   1      37.564  34.003  33.648  1.00  0.00     0.031 C 
ATOM     33  C   UNL A   1      41.966  31.912  37.270  1.00  0.00     0.029 A 
ATOM     34  C   UNL A   1      41.080  32.048  36.212  1.00  0.00     0.049 A 
ATOM     35  H   UNL A   1      40.950  30.923  34.432  1.00  0.00     0.167 HD
ATOM     36  C   UNL A   1      39.243  33.143  34.953  1.00  0.00     0.074 A 
ATOM     37  C   UNL A   1      38.177  34.115  34.818  1.00  0.00     0.031 C 
ATOM     38  C   UNL A   1      40.006  32.996  36.063  1.00  0.00     0.037 A 
BRANCH  25  39
ATOM     39  C   UNL A   1      44.072  28.369  35.830  1.00  0.00     0.058 A 
ATOM     40  C   UNL A   1      45.433  28.702  35.770  1.00  0.00     0.135 A 
ATOM     41  C   UNL A   1      43.688  27.326  36.691  1.00  0.00     0.135 A 
ATOM     42  F   UNL A   1      45.854  29.681  34.954  1.00  0.00    -0.206 F 
ATOM     43  C   UNL A   1      46.379  28.027  36.536  1.00  0.00     0.059 A 
ATOM     44  C   UNL A   1      44.615  26.650  37.478  1.00  0.00     0.059 A 
ATOM     45  F   UNL A   1      42.398  26.968  36.783  1.00  0.00    -0.206 F 
ATOM     46  C   UNL A   1      45.960  27.006  37.392  1.00  0.00     0.060 A 
BRANCH  46  47
ATOM     47  S   UNL A   1      47.195  26.170  38.412  1.00  0.00     0.124 S 
ATOM     48  O   UNL A   1      48.236  25.883  37.430  1.00  0.00    -0.237 OA
ATOM     49  O   UNL A   1      47.522  27.189  39.404  1.00  0.00    -0.237 OA
ATOM     50  O   UNL A   1      46.480  25.006  38.927  1.00  0.00    -0.744 OA
ENDBRANCH  46  47
ENDBRANCH  25  39
BRANCH  26  51
ATOM     51  C   UNL A   1      36.769  33.156  30.950  1.00  0.00     0.058 A 
ATOM     52  C   UNL A   1      35.444  32.837  31.274  1.00  0.00     0.135 A 
ATOM     53  C   UNL A   1      36.988  34.135  29.966  1.00  0.00     0.135 A 
ATOM     54  F   UNL A   1      35.187  31.907  32.206  1.00  0.00    -0.206 F 
ATOM     55  C   UNL A   1      34.373  33.455  30.637  1.00  0.00     0.059 A 
ATOM     56  C   UNL A   1      35.934  34.785  29.336  1.00  0.00     0.059 A 
ATOM     57  F   UNL A   1      38.240  34.489  29.636  1.00  0.00    -0.206 F 
ATOM     58  C   UNL A   1      34.628  34.428  29.669  1.00  0.00     0.060 A 
BRANCH  58  59
ATOM     59  S   UNL A   1      33.237  35.261  28.874  1.00  0.00     0.124 S 
ATOM     60  O   UNL A   1      33.924  36.210  28.006  1.00  0.00    -0.237 OA
ATOM     61  O   UNL A   1      32.556  34.157  28.205  1.00  0.00    -0.237 OA
ATOM     62  O   UNL A   1      32.512  35.842  30.001  1.00  0.00    -0.744 OA
ENDBRANCH  58  59
ENDBRANCH  26  51
BRANCH  38  63
ATOM     63  C   UNL A   1      39.702  33.899  37.221  1.00  0.00     0.058 A 
ATOM     64  C   UNL A   1      38.798  33.512  38.223  1.00  0.00     0.135 A 
ATOM     65  C   UNL A   1      40.352  35.134  37.357  1.00  0.00     0.135 A 
ATOM     66  F   UNL A   1      38.142  32.345  38.127  1.00  0.00    -0.206 F 
ATOM     67  C   UNL A   1      38.539  34.328  39.317  1.00  0.00     0.059 A 
ATOM     68  C   UNL A   1      40.125  35.957  38.455  1.00  0.00     0.059 A 
ATOM     69  F   UNL A   1      41.228  35.545  36.426  1.00  0.00    -0.206 F 
ATOM     70  C   UNL A   1      39.211  35.549  39.427  1.00  0.00     0.060 A 
BRANCH  70  71
ATOM     71  S   UNL A   1      38.902  36.578  40.875  1.00  0.00     0.124 S 
ATOM     72  O   UNL A   1      38.349  37.784  40.267  1.00  0.00    -0.237 OA
ATOM     73  O   UNL A   1      37.963  35.767  41.643  1.00  0.00    -0.237 OA
ATOM     74  O   UNL A   1      40.226  36.726  41.473  1.00  0.00    -0.744 OA
ENDBRANCH  70  71
ENDBRANCH  38  63
ENDBRANCH  12  13
ENDBRANCH   5   7
ENDBRANCH   2   3
ENDBRANCH   1   2
BRANCH   1  75
ATOM     75  C   UNL A   1      39.480  22.367  26.441  1.00  0.00     0.118 C 
BRANCH  75  76
ATOM     76  N   UNL A   1      39.248  21.082  25.795  1.00  0.00    -0.352 N 
ATOM     77  C   UNL A   1      38.125  20.603  25.171  1.00  0.00     0.251 C 
ATOM     78  H   UNL A   1      40.013  20.464  25.807  1.00  0.00     0.163 HD
ATOM     79  O   UNL A   1      38.067  19.421  24.846  1.00  0.00    -0.269 OA
BRANCH  77  80
ATOM     80  C   UNL A   1      36.999  21.506  24.848  1.00  0.00     0.041 A 
ATOM     81  C   UNL A   1      37.077  22.340  23.734  1.00  0.00     0.014 A 
ATOM     82  C   UNL A   1      35.918  21.615  25.724  1.00  0.00     0.036 A 
ATOM     83  C   UNL A   1      36.049  23.251  23.478  1.00  0.00     0.002 A 
ATOM     84  C   UNL A   1      34.909  22.544  25.497  1.00  0.00     0.088 A 
ATOM     85  C   UNL A   1      34.964  23.353  24.356  1.00  0.00     0.022 A 
BRANCH  84  86
ATOM     86  S   UNL A   1      33.573  22.787  26.651  1.00  0.00     0.261 S 
ATOM     87  O   UNL A   1      34.127  22.646  27.978  1.00  0.00    -0.201 OA
ATOM     88  O   UNL A   1      32.910  24.010  26.243  1.00  0.00    -0.201 OA
BRANCH  86  89
ATOM     89  N   UNL A   1      32.440  21.581  26.387  1.00  0.00    -0.280 N 
ATOM     90  H   UNL A   1      31.751  21.468  27.080  1.00  0.00     0.180 HD
BRANCH  89  91
ATOM     91  C   UNL A   1      32.363  20.700  25.268  1.00  0.00     0.050 A 
ATOM     92  C   UNL A   1      32.029  21.276  24.036  1.00  0.00     0.027 A 
ATOM     93  C   UNL A   1      32.718  19.349  25.313  1.00  0.00     0.041 A 
ATOM     94  C   UNL A   1      32.133  20.539  22.852  1.00  0.00     0.003 A 
ATOM     95  C   UNL A   1      32.858  18.628  24.124  1.00  0.00     0.015 A 
ATOM     96  C   UNL A   1      32.575  19.219  22.893  1.00  0.00     0.015 A 
ATOM     97  I   UNL A   1      33.594  16.683  24.186  1.00  0.00    -0.044 I 
ENDBRANCH  89  91
ENDBRANCH  86  89
ENDBRANCH  84  86
ENDBRANCH  77  80
ENDBRANCH  75  76
ENDBRANCH   1  75
TORSDOF 16
ENDMDL
MODEL 3
REMARK VINA RESULT:     -11.6      0.492      8.225
REMARK SMILES O=C(NCCCNC(=O)c1cccc(S(=O)(=O)Nc2cccc(I)c2)c1)c1ccc(-c2c3nc(c(-c4c(F)cc(S(=O)(=O)[O-])cc4F)c4ccc([nH]4)c(-c4c(F)cc(S(=O)(=O)[O-])cc4F)c4nc(c(-c5c(F)cc(S(=O)(=O)[O-])cc5F)c5ccc2[nH]5)C=C4)C=C3)cc1
REMARK SMILES IDX 5 1 4 2 3 3 1 4 2 5 27 7 28 8 92 9 29 10 91 11 30 12 31 13
REMARK SMILES IDX 32 14 85 15 33 16 90 17 84 18 86 19 34 20 89 21 83 22 82 23
REMARK SMILES IDX 35 25 69 26 48 27 68 28 49 29 52 30 67 31 87 32 50 33 51 34
REMARK SMILES IDX 66 36 88 37 53 38 36 39 37 40 46 41 38 42 39 43 45 44 47 45
REMARK SMILES IDX 40 46 41 47 42 48 43 49 44 50 70 51 71 52 80 53 72 54 73 55
REMARK SMILES IDX 79 56 81 57 74 58 75 59 76 60 77 61 78 62 54 63 55 64 64 65
REMARK SMILES IDX 56 66 57 67 63 68 65 69 58 70 59 71 60 72 61 73 62 74 6 75
REMARK SMILES IDX 7 76 8 77 9 79 10 80 11 81 26 82 12 83 14 84 13 85 15 86
REMARK SMILES IDX 16 87 17 88 18 89 19 91 20 92 25 93 21 94 23 95 22 96 24 97
REMARK H PARENT 3 6 86 24 52 35 7 78 18 90
REMARK Flexibility Score: inf
ROOT
ATOM      1  C   UNL A   1      40.646  21.818  26.950  1.00  0.00     0.042 C 
ENDROOT
BRANCH   1   2
ATOM      2  C   UNL A   1      40.713  23.302  27.277  1.00  0.00     0.118 C 
BRANCH   2   3
ATOM      3  N   UNL A   1      41.288  24.090  26.195  1.00  0.00    -0.352 N 
ATOM      4  O   UNL A   1      41.751  25.940  25.001  1.00  0.00    -0.269 OA
ATOM      5  C   UNL A   1      41.432  25.454  26.082  1.00  0.00     0.251 C 
ATOM      6  H   UNL A   1      41.624  23.569  25.430  1.00  0.00     0.163 HD
BRANCH   5   7
ATOM      7  C   UNL A   1      41.170  26.323  27.253  1.00  0.00     0.039 A 
ATOM      8  C   UNL A   1      41.787  27.570  27.358  1.00  0.00     0.014 A 
ATOM      9  C   UNL A   1      40.296  25.894  28.256  1.00  0.00     0.014 A 
ATOM     10  C   UNL A   1      41.687  28.297  28.534  1.00  0.00     0.010 A 
ATOM     11  C   UNL A   1      40.098  26.689  29.392  1.00  0.00     0.010 A 
ATOM     12  C   UNL A   1      40.814  27.885  29.552  1.00  0.00    -0.014 A 
BRANCH  12  13
ATOM     13  C   UNL A   1      40.589  28.787  30.711  1.00  0.00     0.031 A 
ATOM     14  C   UNL A   1      39.489  29.811  30.712  1.00  0.00     0.074 A 
ATOM     15  C   UNL A   1      41.396  28.650  31.782  1.00  0.00     0.049 A 
ATOM     16  N   UNL A   1      39.183  30.680  31.640  1.00  0.00    -0.248 NA
ATOM     17  C   UNL A   1      38.626  29.881  29.522  1.00  0.00     0.031 C 
ATOM     18  C   UNL A   1      42.513  27.700  31.879  1.00  0.00     0.029 A 
ATOM     19  N   UNL A   1      41.407  29.289  32.994  1.00  0.00    -0.354 N 
ATOM     20  C   UNL A   1      38.120  31.421  31.139  1.00  0.00     0.074 A 
ATOM     21  C   UNL A   1      37.830  30.902  29.819  1.00  0.00     0.031 C 
ATOM     22  C   UNL A   1      43.071  27.793  33.093  1.00  0.00     0.029 A 
ATOM     23  C   UNL A   1      42.408  28.859  33.832  1.00  0.00     0.049 A 
ATOM     24  H   UNL A   1      40.758  29.989  33.241  1.00  0.00     0.167 HD
ATOM     25  C   UNL A   1      37.454  32.441  31.732  1.00  0.00     0.037 A 
ATOM     26  C   UNL A   1      42.785  29.298  35.047  1.00  0.00     0.037 A 
ATOM     27  C   UNL A   1      37.725  32.915  33.065  1.00  0.00     0.049 A 
ATOM     28  C   UNL A   1      42.035  30.435  35.669  1.00  0.00     0.074 A 
ATOM     29  C   UNL A   1      37.040  33.875  33.790  1.00  0.00     0.029 A 
ATOM     30  N   UNL A   1      38.768  32.477  33.867  1.00  0.00    -0.354 N 
ATOM     31  N   UNL A   1      40.994  31.082  35.202  1.00  0.00    -0.248 NA
ATOM     32  C   UNL A   1      42.516  30.918  36.970  1.00  0.00     0.031 C 
ATOM     33  C   UNL A   1      37.698  34.052  35.012  1.00  0.00     0.029 A 
ATOM     34  C   UNL A   1      38.770  33.176  35.063  1.00  0.00     0.049 A 
ATOM     35  H   UNL A   1      39.412  31.773  33.623  1.00  0.00     0.167 HD
ATOM     36  C   UNL A   1      40.701  32.056  36.147  1.00  0.00     0.074 A 
ATOM     37  C   UNL A   1      41.654  31.893  37.227  1.00  0.00     0.031 C 
ATOM     38  C   UNL A   1      39.737  33.007  36.117  1.00  0.00     0.037 A 
BRANCH  25  39
ATOM     39  C   UNL A   1      36.370  33.135  30.955  1.00  0.00     0.058 A 
ATOM     40  C   UNL A   1      35.014  32.987  31.279  1.00  0.00     0.135 A 
ATOM     41  C   UNL A   1      36.707  34.047  29.939  1.00  0.00     0.135 A 
ATOM     42  F   UNL A   1      34.638  32.121  32.233  1.00  0.00    -0.206 F 
ATOM     43  C   UNL A   1      34.028  33.716  30.621  1.00  0.00     0.059 A 
ATOM     44  C   UNL A   1      35.739  34.798  29.281  1.00  0.00     0.059 A 
ATOM     45  F   UNL A   1      37.991  34.224  29.591  1.00  0.00    -0.206 F 
ATOM     46  C   UNL A   1      34.400  34.624  29.627  1.00  0.00     0.060 A 
BRANCH  46  47
ATOM     47  S   UNL A   1      33.112  35.594  28.814  1.00  0.00     0.124 S 
ATOM     48  O   UNL A   1      33.908  36.527  28.022  1.00  0.00    -0.237 OA
ATOM     49  O   UNL A   1      32.387  34.579  28.057  1.00  0.00    -0.237 OA
ATOM     50  O   UNL A   1      32.376  36.186  29.927  1.00  0.00    -0.744 OA
ENDBRANCH  46  47
ENDBRANCH  25  39
BRANCH  26  51
ATOM     51  C   UNL A   1      43.969  28.697  35.712  1.00  0.00     0.058 A 
ATOM     52  C   UNL A   1      45.264  29.171  35.464  1.00  0.00     0.135 A 
ATOM     53  C   UNL A   1      43.819  27.648  36.635  1.00  0.00     0.135 A 
ATOM     54  F   UNL A   1      45.456  30.170  34.589  1.00  0.00    -0.206 F 
ATOM     55  C   UNL A   1      46.372  28.617  36.096  1.00  0.00     0.059 A 
ATOM     56  C   UNL A   1      44.908  27.098  37.299  1.00  0.00     0.059 A 
ATOM     57  F   UNL A   1      42.596  27.174  36.921  1.00  0.00    -0.206 F 
ATOM     58  C   UNL A   1      46.184  27.580  37.012  1.00  0.00     0.060 A 
BRANCH  58  59
ATOM     59  S   UNL A   1      47.619  26.892  37.864  1.00  0.00     0.124 S 
ATOM     60  O   UNL A   1      48.467  26.509  36.742  1.00  0.00    -0.237 OA
ATOM     61  O   UNL A   1      48.082  28.027  38.659  1.00  0.00    -0.237 OA
ATOM     62  O   UNL A   1      47.050  25.790  38.634  1.00  0.00    -0.744 OA
ENDBRANCH  58  59
ENDBRANCH  26  51
BRANCH  38  63
ATOM     63  C   UNL A   1      39.677  33.951  37.281  1.00  0.00     0.058 A 
ATOM     64  C   UNL A   1      40.283  35.215  37.219  1.00  0.00     0.135 A 
ATOM     65  C   UNL A   1      38.970  33.612  38.444  1.00  0.00     0.135 A 
ATOM     66  F   UNL A   1      40.982  35.577  36.131  1.00  0.00    -0.206 F 
ATOM     67  C   UNL A   1      40.201  36.109  38.280  1.00  0.00     0.059 A 
ATOM     68  C   UNL A   1      38.857  34.499  39.509  1.00  0.00     0.059 A 
ATOM     69  F   UNL A   1      38.371  32.415  38.547  1.00  0.00    -0.206 F 
ATOM     70  C   UNL A   1      39.482  35.743  39.420  1.00  0.00     0.060 A 
BRANCH  70  71
ATOM     71  S   UNL A   1      39.341  36.930  40.772  1.00  0.00     0.124 S 
ATOM     72  O   UNL A   1      38.634  36.146  41.779  1.00  0.00    -0.237 OA
ATOM     73  O   UNL A   1      40.738  37.234  41.069  1.00  0.00    -0.237 OA
ATOM     74  O   UNL A   1      38.581  38.027  40.180  1.00  0.00    -0.744 OA
ENDBRANCH  70  71
ENDBRANCH  38  63
ENDBRANCH  12  13
ENDBRANCH   5   7
ENDBRANCH   2   3
ENDBRANCH   1   2
BRANCH   1  75
ATOM     75  C   UNL A   1      41.910  21.066  27.323  1.00  0.00     0.118 C 
BRANCH  75  76
ATOM     76  N   UNL A   1      41.842  19.659  26.955  1.00  0.00    -0.352 N 
ATOM     77  C   UNL A   1      42.622  18.938  26.089  1.00  0.00     0.251 C 
ATOM     78  H   UNL A   1      41.127  19.146  27.397  1.00  0.00     0.163 HD
ATOM     79  O   UNL A   1      42.291  17.798  25.775  1.00  0.00    -0.269 OA
BRANCH  77  80
ATOM     80  C   UNL A   1      43.882  19.505  25.560  1.00  0.00     0.041 A 
ATOM     81  C   UNL A   1      44.993  18.681  25.386  1.00  0.00     0.014 A 
ATOM     82  C   UNL A   1      43.996  20.881  25.357  1.00  0.00     0.036 A 
ATOM     83  C   UNL A   1      46.205  19.235  24.964  1.00  0.00     0.002 A 
ATOM     84  C   UNL A   1      45.208  21.445  24.974  1.00  0.00     0.088 A 
ATOM     85  C   UNL A   1      46.314  20.615  24.757  1.00  0.00     0.022 A 
BRANCH  84  86
ATOM     86  S   UNL A   1      45.420  23.207  24.813  1.00  0.00     0.261 S 
ATOM     87  O   UNL A   1      46.396  23.423  23.770  1.00  0.00    -0.201 OA
ATOM     88  O   UNL A   1      44.085  23.763  24.716  1.00  0.00    -0.201 OA
BRANCH  86  89
ATOM     89  N   UNL A   1      46.018  23.788  26.267  1.00  0.00    -0.280 N 
ATOM     90  H   UNL A   1      46.968  23.612  26.451  1.00  0.00     0.180 HD
BRANCH  89  91
ATOM     91  C   UNL A   1      45.301  24.511  27.266  1.00  0.00     0.050 A 
ATOM     92  C   UNL A   1      44.399  23.778  28.047  1.00  0.00     0.027 A 
ATOM     93  C   UNL A   1      45.540  25.852  27.581  1.00  0.00     0.041 A 
ATOM     94  C   UNL A   1      43.809  24.348  29.180  1.00  0.00     0.003 A 
ATOM     95  C   UNL A   1      44.980  26.405  28.735  1.00  0.00     0.015 A 
ATOM     96  C   UNL A   1      44.122  25.657  29.541  1.00  0.00     0.015 A 
ATOM     97  I   UNL A   1      45.513  28.331  29.312  1.00  0.00    -0.044 I 
ENDBRANCH  89  91
ENDBRANCH  86  89
ENDBRANCH  84  86
ENDBRANCH  77  80
ENDBRANCH  75  76
ENDBRANCH   1  75
TORSDOF 16
ENDMDL
