MODEL 1
REMARK VINA RESULT:     -12.7      0.000      0.000
REMARK SMILES Cc1ncccc1NC(=O)Nc1ccc(C(=O)NCCCNC(=O)c2ccc(-c3c4nc(c(-c5c(F)cc(S(=O)(=O)[O-])cc5F)c5ccc([nH]5)c(-c5c(F)cc(S(=O)(=O)[O-])cc5F)c5nc(c(-c6c(F)cc(S(=O)(=O)[O-])cc6F)c6ccc3[nH]6)C=C5)C=C4)cc2)c(O)c1
REMARK SMILES IDX 20 1 19 2 18 3 16 4 17 5 15 7 12 8 13 9 93 10 14 11 91 12
REMARK SMILES IDX 11 13 8 14 9 15 10 17 7 19 1 20 2 21 3 22 4 23 6 24 5 25
REMARK SMILES IDX 92 26 21 28 22 29 23 30 24 32 25 33 26 34 90 35 27 36 89 37
REMARK SMILES IDX 28 38 29 39 30 40 83 41 31 42 88 43 82 44 84 45 32 46 87 47
REMARK SMILES IDX 81 48 80 49 33 51 67 52 46 53 66 54 47 55 50 56 65 57 85 58
REMARK SMILES IDX 48 59 49 60 64 62 86 63 51 64 34 65 35 66 44 67 36 68 37 69
REMARK SMILES IDX 43 70 45 71 38 72 39 73 40 74 41 75 42 76 68 77 69 78 78 79
REMARK SMILES IDX 70 80 71 81 77 82 79 83 72 84 73 85 74 86 75 87 76 88 52 89
REMARK SMILES IDX 53 90 62 91 54 92 55 93 61 94 63 95 56 96 57 97 58 98 59 99
REMARK SMILES IDX 60 100
REMARK H PARENT 18 6 8 16 11 18 92 27 22 31 84 50 50 61
REMARK Flexibility Score: inf
ROOT
ATOM      1  C   UNL A   1      40.295  21.741  26.251  1.00  0.00     0.042 C 
ENDROOT
BRANCH   1   2
ATOM      2  C   UNL A   1      38.774  21.685  26.202  1.00  0.00     0.118 C 
BRANCH   2   3
ATOM      3  N   UNL A   1      38.167  22.140  24.959  1.00  0.00    -0.352 N 
ATOM      4  C   UNL A   1      36.863  22.464  24.648  1.00  0.00     0.255 C 
ATOM      5  O   UNL A   1      36.627  22.900  23.522  1.00  0.00    -0.269 OA
ATOM      6  H   UNL A   1      38.798  22.233  24.209  1.00  0.00     0.163 HD
BRANCH   4   7
ATOM      7  C   UNL A   1      35.727  22.207  25.573  1.00  0.00     0.081 A 
ATOM      8  C   UNL A   1      33.233  22.214  26.834  1.00  0.00     0.046 A 
ATOM      9  C   UNL A   1      34.111  23.273  27.047  1.00  0.00     0.027 A 
ATOM     10  C   UNL A   1      33.708  21.046  26.235  1.00  0.00     0.073 A 
ATOM     11  C   UNL A   1      35.347  23.281  26.394  1.00  0.00     0.020 A 
ATOM     12  C   UNL A   1      34.966  21.039  25.628  1.00  0.00     0.130 A 
BRANCH   8  13
ATOM     13  N   UNL A   1      31.860  22.287  27.118  1.00  0.00    -0.308 N 
ATOM     14  N   UNL A   1      30.911  23.770  25.486  1.00  0.00    -0.306 N 
ATOM     15  C   UNL A   1      30.877  23.100  26.663  1.00  0.00     0.323 C 
ATOM     16  H   UNL A   1      30.279  24.525  25.460  1.00  0.00     0.171 HD
ATOM     17  O   UNL A   1      29.871  23.237  27.367  1.00  0.00    -0.248 OA
ATOM     18  H   UNL A   1      31.553  21.620  27.772  1.00  0.00     0.171 HD
BRANCH  14  19
ATOM     19  C   UNL A   1      31.650  23.631  24.289  1.00  0.00     0.064 A 
ATOM     20  C   UNL A   1      32.557  26.030  24.410  1.00  0.00     0.069 C 
ATOM     21  C   UNL A   1      32.546  24.629  23.871  1.00  0.00     0.061 A 
ATOM     22  N   UNL A   1      33.458  24.426  22.879  1.00  0.00    -0.259 NA
ATOM     23  C   UNL A   1      33.435  23.247  22.229  1.00  0.00     0.111 A 
ATOM     24  C   UNL A   1      31.554  22.501  23.475  1.00  0.00     0.030 A 
ATOM     25  C   UNL A   1      32.475  22.284  22.452  1.00  0.00     0.022 A 
ENDBRANCH  14  19
ENDBRANCH   8  13
BRANCH  12  26
ATOM     26  O   UNL A   1      35.363  19.844  25.098  1.00  0.00    -0.507 OA
ATOM     27  H   UNL A   1      36.061  19.818  24.474  1.00  0.00     0.293 HD
ENDBRANCH  12  26
ENDBRANCH   4   7
ENDBRANCH   2   3
ENDBRANCH   1   2
BRANCH   1  28
ATOM     28  C   UNL A   1      40.913  23.010  26.824  1.00  0.00     0.118 C 
BRANCH  28  29
ATOM     29  N   UNL A   1      41.524  23.882  25.833  1.00  0.00    -0.352 N 
ATOM     30  C   UNL A   1      41.840  25.223  25.852  1.00  0.00     0.251 C 
ATOM     31  H   UNL A   1      41.757  23.429  24.991  1.00  0.00     0.163 HD
ATOM     32  O   UNL A   1      42.272  25.736  24.826  1.00  0.00    -0.269 OA
BRANCH  30  33
ATOM     33  C   UNL A   1      41.635  26.061  27.062  1.00  0.00     0.039 A 
ATOM     34  C   UNL A   1      42.486  27.153  27.274  1.00  0.00     0.014 A 
ATOM     35  C   UNL A   1      40.651  25.777  28.008  1.00  0.00     0.014 A 
ATOM     36  C   UNL A   1      42.297  27.988  28.382  1.00  0.00     0.010 A 
ATOM     37  C   UNL A   1      40.386  26.676  29.040  1.00  0.00     0.010 A 
ATOM     38  C   UNL A   1      41.216  27.784  29.254  1.00  0.00    -0.014 A 
BRANCH  38  39
ATOM     39  C   UNL A   1      40.968  28.689  30.412  1.00  0.00     0.031 A 
ATOM     40  C   UNL A   1      41.804  28.568  31.664  1.00  0.00     0.074 A 
ATOM     41  C   UNL A   1      39.965  29.591  30.359  1.00  0.00     0.049 A 
ATOM     42  N   UNL A   1      41.710  29.229  32.789  1.00  0.00    -0.248 NA
ATOM     43  C   UNL A   1      42.866  27.548  31.663  1.00  0.00     0.031 C 
ATOM     44  C   UNL A   1      39.043  29.770  29.235  1.00  0.00     0.029 A 
ATOM     45  N   UNL A   1      39.551  30.528  31.274  1.00  0.00    -0.354 N 
ATOM     46  C   UNL A   1      42.691  28.705  33.623  1.00  0.00     0.074 A 
ATOM     47  C   UNL A   1      43.313  27.614  32.908  1.00  0.00     0.031 C 
ATOM     48  C   UNL A   1      38.199  30.779  29.510  1.00  0.00     0.029 A 
ATOM     49  C   UNL A   1      38.491  31.294  30.844  1.00  0.00     0.049 A 
ATOM     50  H   UNL A   1      39.973  30.641  32.156  1.00  0.00     0.167 HD
ATOM     51  C   UNL A   1      43.076  29.119  34.855  1.00  0.00     0.037 A 
ATOM     52  C   UNL A   1      37.828  32.296  31.454  1.00  0.00     0.037 A 
ATOM     53  C   UNL A   1      42.475  30.222  35.557  1.00  0.00     0.049 A 
ATOM     54  C   UNL A   1      38.266  32.728  32.830  1.00  0.00     0.074 A 
ATOM     55  C   UNL A   1      42.810  30.742  36.795  1.00  0.00     0.029 A 
ATOM     56  N   UNL A   1      41.417  30.982  35.079  1.00  0.00    -0.354 N 
ATOM     57  N   UNL A   1      39.238  32.256  33.576  1.00  0.00    -0.248 NA
ATOM     58  C   UNL A   1      37.526  33.841  33.443  1.00  0.00     0.031 C 
ATOM     59  C   UNL A   1      41.931  31.792  37.082  1.00  0.00     0.029 A 
ATOM     60  C   UNL A   1      41.081  31.959  36.001  1.00  0.00     0.049 A 
ATOM     61  H   UNL A   1      40.972  30.847  34.210  1.00  0.00     0.167 HD
ATOM     62  C   UNL A   1      39.243  33.034  34.729  1.00  0.00     0.074 A 
ATOM     63  C   UNL A   1      38.194  34.020  34.572  1.00  0.00     0.031 C 
ATOM     64  C   UNL A   1      40.041  32.941  35.822  1.00  0.00     0.037 A 
BRANCH  51  65
ATOM     65  C   UNL A   1      44.220  28.391  35.510  1.00  0.00     0.058 A 
ATOM     66  C   UNL A   1      43.998  27.303  36.370  1.00  0.00     0.135 A 
ATOM     67  C   UNL A   1      45.551  28.756  35.251  1.00  0.00     0.135 A 
ATOM     68  F   UNL A   1      42.746  26.920  36.669  1.00  0.00    -0.206 F 
ATOM     69  C   UNL A   1      45.051  26.623  36.973  1.00  0.00     0.059 A 
ATOM     70  C   UNL A   1      46.621  28.069  35.818  1.00  0.00     0.059 A 
ATOM     71  F   UNL A   1      45.824  29.789  34.439  1.00  0.00    -0.206 F 
ATOM     72  C   UNL A   1      46.360  27.011  36.689  1.00  0.00     0.060 A 
BRANCH  72  73
ATOM     73  S   UNL A   1      47.712  26.108  37.471  1.00  0.00     0.124 S 
ATOM     74  O   UNL A   1      47.088  25.667  38.715  1.00  0.00    -0.237 OA
ATOM     75  O   UNL A   1      47.990  25.059  36.495  1.00  0.00    -0.237 OA
ATOM     76  O   UNL A   1      48.758  27.117  37.617  1.00  0.00    -0.744 OA
ENDBRANCH  72  73
ENDBRANCH  51  65
BRANCH  52  77
ATOM     77  C   UNL A   1      36.696  32.982  30.771  1.00  0.00     0.058 A 
ATOM     78  C   UNL A   1      36.923  33.885  29.723  1.00  0.00     0.135 A 
ATOM     79  C   UNL A   1      35.367  32.771  31.172  1.00  0.00     0.135 A 
ATOM     80  F   UNL A   1      38.175  34.125  29.303  1.00  0.00    -0.206 F 
ATOM     81  C   UNL A   1      35.882  34.586  29.123  1.00  0.00     0.059 A 
ATOM     82  C   UNL A   1      34.305  33.435  30.565  1.00  0.00     0.059 A 
ATOM     83  F   UNL A   1      35.090  31.901  32.157  1.00  0.00    -0.206 F 
ATOM     84  C   UNL A   1      34.575  34.357  29.555  1.00  0.00     0.060 A 
BRANCH  84  85
ATOM     85  S   UNL A   1      33.228  35.265  28.764  1.00  0.00     0.124 S 
ATOM     86  O   UNL A   1      32.483  35.748  29.921  1.00  0.00    -0.237 OA
ATOM     87  O   UNL A   1      33.948  36.275  27.998  1.00  0.00    -0.237 OA
ATOM     88  O   UNL A   1      32.559  34.241  27.965  1.00  0.00    -0.744 OA
ENDBRANCH  84  85
ENDBRANCH  52  77
BRANCH  64  89
ATOM     89  C   UNL A   1      39.837  33.957  36.913  1.00  0.00     0.058 A 
ATOM     90  C   UNL A   1      39.023  33.695  38.027  1.00  0.00     0.135 A 
ATOM     91  C   UNL A   1      40.488  35.201  36.855  1.00  0.00     0.135 A 
ATOM     92  F   UNL A   1      38.376  32.523  38.130  1.00  0.00    -0.206 F 
ATOM     93  C   UNL A   1      38.829  34.645  39.024  1.00  0.00     0.059 A 
ATOM     94  C   UNL A   1      40.334  36.152  37.858  1.00  0.00     0.059 A 
ATOM     95  F   UNL A   1      41.290  35.498  35.821  1.00  0.00    -0.206 F 
ATOM     96  C   UNL A   1      39.488  35.873  38.929  1.00  0.00     0.060 A 
BRANCH  96  97
ATOM     97  S   UNL A   1      39.235  37.092  40.235  1.00  0.00     0.124 S 
ATOM     98  O   UNL A   1      38.473  36.321  41.213  1.00  0.00    -0.237 OA
ATOM     99  O   UNL A   1      40.602  37.428  40.619  1.00  0.00    -0.237 OA
ATOM    100  O   UNL A   1      38.497  38.159  39.566  1.00  0.00    -0.744 OA
ENDBRANCH  96  97
ENDBRANCH  64  89
ENDBRANCH  38  39
ENDBRANCH  30  33
ENDBRANCH  28  29
ENDBRANCH   1  28
TORSDOF 16
ENDMDL
MODEL 2
REMARK VINA RESULT:     -12.7      6.368     11.953
REMARK SMILES Cc1ncccc1NC(=O)Nc1ccc(C(=O)NCCCNC(=O)c2ccc(-c3c4nc(c(-c5c(F)cc(S(=O)(=O)[O-])cc5F)c5ccc([nH]5)c(-c5c(F)cc(S(=O)(=O)[O-])cc5F)c5nc(c(-c6c(F)cc(S(=O)(=O)[O-])cc6F)c6ccc3[nH]6)C=C5)C=C4)cc2)c(O)c1
REMARK SMILES IDX 20 1 19 2 18 3 16 4 17 5 15 7 12 8 13 9 93 10 14 11 91 12
REMARK SMILES IDX 11 13 8 14 9 15 10 17 7 19 1 20 2 21 3 22 4 23 6 24 5 25
REMARK SMILES IDX 92 26 21 28 22 29 23 30 24 32 25 33 26 34 90 35 27 36 89 37
REMARK SMILES IDX 28 38 29 39 30 40 83 41 31 42 88 43 82 44 84 45 32 46 87 47
REMARK SMILES IDX 81 48 80 49 33 51 67 52 46 53 66 54 47 55 50 56 65 57 85 58
REMARK SMILES IDX 48 59 49 60 64 62 86 63 51 64 34 65 35 66 44 67 36 68 37 69
REMARK SMILES IDX 43 70 45 71 38 72 39 73 40 74 41 75 42 76 68 77 69 78 78 79
REMARK SMILES IDX 70 80 71 81 77 82 79 83 72 84 73 85 74 86 75 87 76 88 52 89
REMARK SMILES IDX 53 90 62 91 54 92 55 93 61 94 63 95 56 96 57 97 58 98 59 99
REMARK SMILES IDX 60 100
REMARK H PARENT 18 6 8 16 11 18 92 27 22 31 84 50 50 61
REMARK Flexibility Score: inf
ROOT
ATOM      1  C   UNL A   1      34.831  30.493  27.625  1.00  0.00     0.042 C 
ENDROOT
BRANCH   1   2
ATOM      2  C   UNL A   1      33.337  30.673  27.394  1.00  0.00     0.118 C 
BRANCH   2   3
ATOM      3  N   UNL A   1      32.516  29.496  27.639  1.00  0.00    -0.352 N 
ATOM      4  C   UNL A   1      32.205  28.418  26.837  1.00  0.00     0.255 C 
ATOM      5  O   UNL A   1      31.538  27.507  27.323  1.00  0.00    -0.269 OA
ATOM      6  H   UNL A   1      32.111  29.463  28.537  1.00  0.00     0.163 HD
BRANCH   4   7
ATOM      7  C   UNL A   1      32.549  28.368  25.390  1.00  0.00     0.081 A 
ATOM      8  C   UNL A   1      32.874  27.570  22.731  1.00  0.00     0.046 A 
ATOM      9  C   UNL A   1      33.758  27.103  23.699  1.00  0.00     0.027 A 
ATOM     10  C   UNL A   1      32.026  28.635  23.041  1.00  0.00     0.073 A 
ATOM     11  C   UNL A   1      33.577  27.482  25.033  1.00  0.00     0.020 A 
ATOM     12  C   UNL A   1      31.886  29.047  24.368  1.00  0.00     0.130 A 
BRANCH   8  13
ATOM     13  N   UNL A   1      32.728  26.969  21.471  1.00  0.00    -0.308 N 
ATOM     14  N   UNL A   1      32.412  24.624  21.874  1.00  0.00    -0.306 N 
ATOM     15  C   UNL A   1      32.716  25.675  21.074  1.00  0.00     0.323 C 
ATOM     16  H   UNL A   1      32.742  23.767  21.519  1.00  0.00     0.171 HD
ATOM     17  O   UNL A   1      32.996  25.429  19.896  1.00  0.00    -0.248 OA
ATOM     18  H   UNL A   1      32.612  27.611  20.735  1.00  0.00     0.171 HD
BRANCH  14  19
ATOM     19  C   UNL A   1      31.728  24.482  23.104  1.00  0.00     0.064 A 
ATOM     20  C   UNL A   1      33.277  22.597  23.903  1.00  0.00     0.069 C 
ATOM     21  C   UNL A   1      32.229  23.649  24.118  1.00  0.00     0.061 A 
ATOM     22  N   UNL A   1      31.753  23.681  25.395  1.00  0.00    -0.259 NA
ATOM     23  C   UNL A   1      30.710  24.490  25.661  1.00  0.00     0.111 A 
ATOM     24  C   UNL A   1      30.546  25.168  23.388  1.00  0.00     0.030 A 
ATOM     25  C   UNL A   1      30.044  25.204  24.688  1.00  0.00     0.022 A 
ENDBRANCH  14  19
ENDBRANCH   8  13
BRANCH  12  26
ATOM     26  O   UNL A   1      31.062  30.118  24.573  1.00  0.00    -0.507 OA
ATOM     27  H   UNL A   1      31.418  30.984  24.602  1.00  0.00     0.293 HD
ENDBRANCH  12  26
ENDBRANCH   4   7
ENDBRANCH   2   3
ENDBRANCH   1   2
BRANCH   1  28
ATOM     28  C   UNL A   1      35.499  31.488  28.566  1.00  0.00     0.118 C 
BRANCH  28  29
ATOM     29  N   UNL A   1      35.487  31.094  29.966  1.00  0.00    -0.352 N 
ATOM     30  C   UNL A   1      36.433  30.487  30.764  1.00  0.00     0.251 C 
ATOM     31  H   UNL A   1      34.644  31.300  30.431  1.00  0.00     0.163 HD
ATOM     32  O   UNL A   1      36.120  30.179  31.908  1.00  0.00    -0.269 OA
BRANCH  30  33
ATOM     33  C   UNL A   1      37.794  30.167  30.263  1.00  0.00     0.039 A 
ATOM     34  C   UNL A   1      38.784  29.813  31.189  1.00  0.00     0.014 A 
ATOM     35  C   UNL A   1      38.128  30.242  28.912  1.00  0.00     0.014 A 
ATOM     36  C   UNL A   1      40.067  29.467  30.750  1.00  0.00     0.010 A 
ATOM     37  C   UNL A   1      39.366  29.779  28.466  1.00  0.00     0.010 A 
ATOM     38  C   UNL A   1      40.360  29.404  29.378  1.00  0.00    -0.014 A 
BRANCH  38  39
ATOM     39  C   UNL A   1      41.705  28.990  28.887  1.00  0.00     0.031 A 
ATOM     40  C   UNL A   1      42.828  29.997  28.808  1.00  0.00     0.074 A 
ATOM     41  C   UNL A   1      41.910  27.723  28.470  1.00  0.00     0.049 A 
ATOM     42  N   UNL A   1      44.049  29.842  28.365  1.00  0.00    -0.248 NA
ATOM     43  C   UNL A   1      42.530  31.368  29.257  1.00  0.00     0.031 C 
ATOM     44  C   UNL A   1      40.896  26.666  28.435  1.00  0.00     0.029 A 
ATOM     45  N   UNL A   1      43.041  27.106  27.994  1.00  0.00    -0.354 N 
ATOM     46  C   UNL A   1      44.657  31.087  28.480  1.00  0.00     0.074 A 
ATOM     47  C   UNL A   1      43.648  32.008  28.952  1.00  0.00     0.031 C 
ATOM     48  C   UNL A   1      41.458  25.526  28.001  1.00  0.00     0.029 A 
ATOM     49  C   UNL A   1      42.861  25.775  27.689  1.00  0.00     0.049 A 
ATOM     50  H   UNL A   1      43.901  27.572  27.882  1.00  0.00     0.167 HD
ATOM     51  C   UNL A   1      45.949  31.431  28.257  1.00  0.00     0.037 A 
ATOM     52  C   UNL A   1      43.728  24.861  27.211  1.00  0.00     0.037 A 
ATOM     53  C   UNL A   1      46.961  30.509  27.813  1.00  0.00     0.049 A 
ATOM     54  C   UNL A   1      45.156  25.271  26.958  1.00  0.00     0.074 A 
ATOM     55  C   UNL A   1      48.306  30.747  27.587  1.00  0.00     0.029 A 
ATOM     56  N   UNL A   1      46.742  29.168  27.533  1.00  0.00    -0.354 N 
ATOM     57  N   UNL A   1      45.723  26.442  27.131  1.00  0.00    -0.248 NA
ATOM     58  C   UNL A   1      46.066  24.231  26.458  1.00  0.00     0.031 C 
ATOM     59  C   UNL A   1      48.892  29.561  27.134  1.00  0.00     0.029 A 
ATOM     60  C   UNL A   1      47.924  28.570  27.127  1.00  0.00     0.049 A 
ATOM     61  H   UNL A   1      45.874  28.709  27.613  1.00  0.00     0.167 HD
ATOM     62  C   UNL A   1      47.062  26.269  26.791  1.00  0.00     0.074 A 
ATOM     63  C   UNL A   1      47.222  24.877  26.424  1.00  0.00     0.031 C 
ATOM     64  C   UNL A   1      48.068  27.179  26.779  1.00  0.00     0.037 A 
BRANCH  51  65
ATOM     65  C   UNL A   1      46.347  32.860  28.520  1.00  0.00     0.058 A 
ATOM     66  C   UNL A   1      46.802  33.270  29.784  1.00  0.00     0.135 A 
ATOM     67  C   UNL A   1      46.309  33.820  27.497  1.00  0.00     0.135 A 
ATOM     68  F   UNL A   1      46.841  32.400  30.806  1.00  0.00    -0.206 F 
ATOM     69  C   UNL A   1      47.176  34.587  30.033  1.00  0.00     0.059 A 
ATOM     70  C   UNL A   1      46.710  35.136  27.715  1.00  0.00     0.059 A 
ATOM     71  F   UNL A   1      45.882  33.486  26.270  1.00  0.00    -0.206 F 
ATOM     72  C   UNL A   1      47.129  35.513  28.991  1.00  0.00     0.060 A 
BRANCH  72  73
ATOM     73  S   UNL A   1      47.631  37.213  29.330  1.00  0.00     0.124 S 
ATOM     74  O   UNL A   1      47.857  37.168  30.771  1.00  0.00    -0.237 OA
ATOM     75  O   UNL A   1      48.827  37.353  28.505  1.00  0.00    -0.237 OA
ATOM     76  O   UNL A   1      46.480  38.001  28.899  1.00  0.00    -0.744 OA
ENDBRANCH  72  73
ENDBRANCH  51  65
BRANCH  52  77
ATOM     77  C   UNL A   1      43.288  23.460  26.957  1.00  0.00     0.058 A 
ATOM     78  C   UNL A   1      43.104  22.557  28.015  1.00  0.00     0.135 A 
ATOM     79  C   UNL A   1      43.071  22.988  25.654  1.00  0.00     0.135 A 
ATOM     80  F   UNL A   1      43.301  22.957  29.281  1.00  0.00    -0.206 F 
ATOM     81  C   UNL A   1      42.762  21.227  27.789  1.00  0.00     0.059 A 
ATOM     82  C   UNL A   1      42.696  21.671  25.404  1.00  0.00     0.059 A 
ATOM     83  F   UNL A   1      43.213  23.815  24.605  1.00  0.00    -0.206 F 
ATOM     84  C   UNL A   1      42.564  20.793  26.478  1.00  0.00     0.060 A 
BRANCH  84  85
ATOM     85  S   UNL A   1      42.112  19.067  26.195  1.00  0.00     0.124 S 
ATOM     86  O   UNL A   1      40.698  19.187  25.860  1.00  0.00    -0.237 OA
ATOM     87  O   UNL A   1      43.000  18.692  25.100  1.00  0.00    -0.237 OA
ATOM     88  O   UNL A   1      42.405  18.430  27.476  1.00  0.00    -0.744 OA
ENDBRANCH  84  85
ENDBRANCH  52  77
BRANCH  64  89
ATOM     89  C   UNL A   1      49.437  26.687  26.397  1.00  0.00     0.058 A 
ATOM     90  C   UNL A   1      50.274  26.034  27.317  1.00  0.00     0.135 A 
ATOM     91  C   UNL A   1      49.908  26.848  25.083  1.00  0.00     0.135 A 
ATOM     92  F   UNL A   1      49.874  25.857  28.586  1.00  0.00    -0.206 F 
ATOM     93  C   UNL A   1      51.544  25.595  26.959  1.00  0.00     0.059 A 
ATOM     94  C   UNL A   1      51.162  26.386  24.695  1.00  0.00     0.059 A 
ATOM     95  F   UNL A   1      49.144  27.451  24.159  1.00  0.00    -0.206 F 
ATOM     96  C   UNL A   1      51.980  25.778  25.645  1.00  0.00     0.060 A 
BRANCH  96  97
ATOM     97  S   UNL A   1      53.627  25.194  25.192  1.00  0.00     0.124 S 
ATOM     98  O   UNL A   1      53.474  23.749  25.329  1.00  0.00    -0.237 OA
ATOM     99  O   UNL A   1      53.769  25.689  23.827  1.00  0.00    -0.237 OA
ATOM    100  O   UNL A   1      54.496  25.830  26.178  1.00  0.00    -0.744 OA
ENDBRANCH  96  97
ENDBRANCH  64  89
ENDBRANCH  38  39
ENDBRANCH  30  33
ENDBRANCH  28  29
ENDBRANCH   1  28
TORSDOF 16
ENDMDL
MODEL 3
REMARK VINA RESULT:     -12.6      4.525     10.210
REMARK SMILES Cc1ncccc1NC(=O)Nc1ccc(C(=O)NCCCNC(=O)c2ccc(-c3c4nc(c(-c5c(F)cc(S(=O)(=O)[O-])cc5F)c5ccc([nH]5)c(-c5c(F)cc(S(=O)(=O)[O-])cc5F)c5nc(c(-c6c(F)cc(S(=O)(=O)[O-])cc6F)c6ccc3[nH]6)C=C5)C=C4)cc2)c(O)c1
REMARK SMILES IDX 20 1 19 2 18 3 16 4 17 5 15 7 12 8 13 9 93 10 14 11 91 12
REMARK SMILES IDX 11 13 8 14 9 15 10 17 7 19 1 20 2 21 3 22 4 23 6 24 5 25
REMARK SMILES IDX 92 26 21 28 22 29 23 30 24 32 25 33 26 34 90 35 27 36 89 37
REMARK SMILES IDX 28 38 29 39 30 40 83 41 31 42 88 43 82 44 84 45 32 46 87 47
REMARK SMILES IDX 81 48 80 49 33 51 67 52 46 53 66 54 47 55 50 56 65 57 85 58
REMARK SMILES IDX 48 59 49 60 64 62 86 63 51 64 34 65 35 66 44 67 36 68 37 69
REMARK SMILES IDX 43 70 45 71 38 72 39 73 40 74 41 75 42 76 68 77 69 78 78 79
REMARK SMILES IDX 70 80 71 81 77 82 79 83 72 84 73 85 74 86 75 87 76 88 52 89
REMARK SMILES IDX 53 90 62 91 54 92 55 93 61 94 63 95 56 96 57 97 58 98 59 99
REMARK SMILES IDX 60 100
REMARK H PARENT 18 6 8 16 11 18 92 27 22 31 84 50 50 61
REMARK Flexibility Score: inf
ROOT
ATOM      1  C   UNL A   1      34.041  28.211  25.420  1.00  0.00     0.042 C 
ENDROOT
BRANCH   1   2
ATOM      2  C   UNL A   1      32.966  27.939  24.377  1.00  0.00     0.118 C 
BRANCH   2   3
ATOM      3  N   UNL A   1      32.106  26.794  24.643  1.00  0.00    -0.352 N 
ATOM      4  C   UNL A   1      32.387  25.449  24.745  1.00  0.00     0.255 C 
ATOM      5  O   UNL A   1      31.473  24.687  25.056  1.00  0.00    -0.269 OA
ATOM      6  H   UNL A   1      31.156  27.021  24.773  1.00  0.00     0.163 HD
BRANCH   4   7
ATOM      7  C   UNL A   1      33.714  24.875  24.391  1.00  0.00     0.081 A 
ATOM      8  C   UNL A   1      35.971  23.236  24.206  1.00  0.00     0.046 A 
ATOM      9  C   UNL A   1      35.816  24.067  25.311  1.00  0.00     0.027 A 
ATOM     10  C   UNL A   1      35.159  23.435  23.087  1.00  0.00     0.073 A 
ATOM     11  C   UNL A   1      34.673  24.866  25.416  1.00  0.00     0.020 A 
ATOM     12  C   UNL A   1      34.047  24.275  23.176  1.00  0.00     0.130 A 
BRANCH   8  13
ATOM     13  N   UNL A   1      36.851  22.144  24.183  1.00  0.00    -0.308 N 
ATOM     14  N   UNL A   1      35.801  20.403  25.458  1.00  0.00    -0.306 N 
ATOM     15  C   UNL A   1      36.879  20.981  24.875  1.00  0.00     0.323 C 
ATOM     16  H   UNL A   1      36.048  19.750  26.154  1.00  0.00     0.171 HD
ATOM     17  O   UNL A   1      37.962  20.396  24.978  1.00  0.00    -0.248 OA
ATOM     18  H   UNL A   1      37.591  22.242  23.542  1.00  0.00     0.171 HD
BRANCH  14  19
ATOM     19  C   UNL A   1      34.402  20.527  25.294  1.00  0.00     0.064 A 
ATOM     20  C   UNL A   1      34.105  21.709  27.554  1.00  0.00     0.069 C 
ATOM     21  C   UNL A   1      33.632  21.279  26.196  1.00  0.00     0.061 A 
ATOM     22  N   UNL A   1      32.343  21.637  25.938  1.00  0.00    -0.259 NA
ATOM     23  C   UNL A   1      31.773  21.178  24.807  1.00  0.00     0.111 A 
ATOM     24  C   UNL A   1      33.717  19.938  24.230  1.00  0.00     0.030 A 
ATOM     25  C   UNL A   1      32.396  20.289  23.958  1.00  0.00     0.022 A 
ENDBRANCH  14  19
ENDBRANCH   8  13
BRANCH  12  26
ATOM     26  O   UNL A   1      33.331  24.437  22.024  1.00  0.00    -0.507 OA
ATOM     27  H   UNL A   1      33.756  24.352  21.193  1.00  0.00     0.293 HD
ENDBRANCH  12  26
ENDBRANCH   4   7
ENDBRANCH   2   3
ENDBRANCH   1   2
BRANCH   1  28
ATOM     28  C   UNL A   1      33.572  28.354  26.863  1.00  0.00     0.118 C 
BRANCH  28  29
ATOM     29  N   UNL A   1      33.512  29.726  27.343  1.00  0.00    -0.352 N 
ATOM     30  C   UNL A   1      34.437  30.521  27.985  1.00  0.00     0.251 C 
ATOM     31  H   UNL A   1      32.650  30.170  27.179  1.00  0.00     0.163 HD
ATOM     32  O   UNL A   1      34.087  31.631  28.368  1.00  0.00    -0.269 OA
BRANCH  30  33
ATOM     33  C   UNL A   1      35.822  30.054  28.254  1.00  0.00     0.039 A 
ATOM     34  C   UNL A   1      36.766  30.123  27.222  1.00  0.00     0.014 A 
ATOM     35  C   UNL A   1      36.203  29.518  29.483  1.00  0.00     0.014 A 
ATOM     36  C   UNL A   1      38.089  29.730  27.451  1.00  0.00     0.010 A 
ATOM     37  C   UNL A   1      37.544  29.244  29.747  1.00  0.00     0.010 A 
ATOM     38  C   UNL A   1      38.504  29.326  28.731  1.00  0.00    -0.014 A 
BRANCH  38  39
ATOM     39  C   UNL A   1      39.919  28.950  29.009  1.00  0.00     0.031 A 
ATOM     40  C   UNL A   1      40.857  29.942  29.653  1.00  0.00     0.074 A 
ATOM     41  C   UNL A   1      40.376  27.732  28.647  1.00  0.00     0.049 A 
ATOM     42  N   UNL A   1      42.130  29.819  29.930  1.00  0.00    -0.248 NA
ATOM     43  C   UNL A   1      40.299  31.261  30.002  1.00  0.00     0.031 C 
ATOM     44  C   UNL A   1      39.592  26.700  27.963  1.00  0.00     0.029 A 
ATOM     45  N   UNL A   1      41.612  27.154  28.802  1.00  0.00    -0.354 N 
ATOM     46  C   UNL A   1      42.520  31.036  30.479  1.00  0.00     0.074 A 
ATOM     47  C   UNL A   1      41.374  31.913  30.418  1.00  0.00     0.031 C 
ATOM     48  C   UNL A   1      40.353  25.607  27.792  1.00  0.00     0.029 A 
ATOM     49  C   UNL A   1      41.689  25.868  28.317  1.00  0.00     0.049 A 
ATOM     50  H   UNL A   1      42.373  27.617  29.221  1.00  0.00     0.167 HD
ATOM     51  C   UNL A   1      43.710  31.383  31.028  1.00  0.00     0.037 A 
ATOM     52  C   UNL A   1      42.718  24.999  28.297  1.00  0.00     0.037 A 
ATOM     53  C   UNL A   1      44.843  30.500  31.114  1.00  0.00     0.049 A 
ATOM     54  C   UNL A   1      44.035  25.413  28.902  1.00  0.00     0.074 A 
ATOM     55  C   UNL A   1      46.084  30.742  31.679  1.00  0.00     0.029 A 
ATOM     56  N   UNL A   1      44.874  29.201  30.629  1.00  0.00    -0.354 N 
ATOM     57  N   UNL A   1      44.363  26.550  29.470  1.00  0.00    -0.248 NA
ATOM     58  C   UNL A   1      45.119  24.420  28.875  1.00  0.00     0.031 C 
ATOM     59  C   UNL A   1      46.876  29.604  31.501  1.00  0.00     0.029 A 
ATOM     60  C   UNL A   1      46.114  28.633  30.871  1.00  0.00     0.049 A 
ATOM     61  H   UNL A   1      44.123  28.749  30.179  1.00  0.00     0.167 HD
ATOM     62  C   UNL A   1      45.680  26.395  29.894  1.00  0.00     0.074 A 
ATOM     63  C   UNL A   1      46.078  25.049  29.537  1.00  0.00     0.031 C 
ATOM     64  C   UNL A   1      46.488  27.287  30.520  1.00  0.00     0.037 A 
BRANCH  51  65
ATOM     65  C   UNL A   1      43.835  32.768  31.605  1.00  0.00     0.058 A 
ATOM     66  C   UNL A   1      44.190  33.865  30.802  1.00  0.00     0.135 A 
ATOM     67  C   UNL A   1      43.563  33.014  32.960  1.00  0.00     0.135 A 
ATOM     68  F   UNL A   1      44.479  33.688  29.503  1.00  0.00    -0.206 F 
ATOM     69  C   UNL A   1      44.301  35.148  31.328  1.00  0.00     0.059 A 
ATOM     70  C   UNL A   1      43.636  34.295  33.501  1.00  0.00     0.059 A 
ATOM     71  F   UNL A   1      43.220  32.004  33.776  1.00  0.00    -0.206 F 
ATOM     72  C   UNL A   1      44.020  35.354  32.678  1.00  0.00     0.060 A 
BRANCH  72  73
ATOM     73  S   UNL A   1      44.157  37.028  33.337  1.00  0.00     0.124 S 
ATOM     74  O   UNL A   1      42.820  37.237  33.885  1.00  0.00    -0.237 OA
ATOM     75  O   UNL A   1      45.229  36.889  34.318  1.00  0.00    -0.237 OA
ATOM     76  O   UNL A   1      44.486  37.832  32.163  1.00  0.00    -0.744 OA
ENDBRANCH  72  73
ENDBRANCH  51  65
BRANCH  52  77
ATOM     77  C   UNL A   1      42.551  23.641  27.708  1.00  0.00     0.058 A 
ATOM     78  C   UNL A   1      42.301  22.525  28.520  1.00  0.00     0.135 A 
ATOM     79  C   UNL A   1      42.668  23.425  26.326  1.00  0.00     0.135 A 
ATOM     80  F   UNL A   1      42.184  22.675  29.849  1.00  0.00    -0.206 F 
ATOM     81  C   UNL A   1      42.213  21.241  27.992  1.00  0.00     0.059 A 
ATOM     82  C   UNL A   1      42.551  22.155  25.769  1.00  0.00     0.059 A 
ATOM     83  F   UNL A   1      42.886  24.461  25.499  1.00  0.00    -0.206 F 
ATOM     84  C   UNL A   1      42.344  21.066  26.614  1.00  0.00     0.060 A 
BRANCH  84  85
ATOM     85  S   UNL A   1      42.219  19.396  25.935  1.00  0.00     0.124 S 
ATOM     86  O   UNL A   1      43.053  19.502  24.744  1.00  0.00    -0.237 OA
ATOM     87  O   UNL A   1      42.755  18.583  27.021  1.00  0.00    -0.237 OA
ATOM     88  O   UNL A   1      40.788  19.240  25.693  1.00  0.00    -0.744 OA
ENDBRANCH  84  85
ENDBRANCH  52  77
BRANCH  64  89
ATOM     89  C   UNL A   1      47.869  26.820  30.895  1.00  0.00     0.058 A 
ATOM     90  C   UNL A   1      48.946  26.895  29.998  1.00  0.00     0.135 A 
ATOM     91  C   UNL A   1      48.121  26.315  32.182  1.00  0.00     0.135 A 
ATOM     92  F   UNL A   1      48.758  27.366  28.755  1.00  0.00    -0.206 F 
ATOM     93  C   UNL A   1      50.216  26.447  30.348  1.00  0.00     0.059 A 
ATOM     94  C   UNL A   1      49.391  25.893  32.564  1.00  0.00     0.059 A 
ATOM     95  F   UNL A   1      47.132  26.234  33.084  1.00  0.00    -0.206 F 
ATOM     96  C   UNL A   1      50.427  25.946  31.634  1.00  0.00     0.060 A 
BRANCH  96  97
ATOM     97  S   UNL A   1      52.082  25.379  32.078  1.00  0.00     0.124 S 
ATOM     98  O   UNL A   1      51.892  23.932  32.132  1.00  0.00    -0.237 OA
ATOM     99  O   UNL A   1      52.890  25.871  30.967  1.00  0.00    -0.237 OA
ATOM    100  O   UNL A   1      52.330  26.027  33.362  1.00  0.00    -0.744 OA
ENDBRANCH  96  97
ENDBRANCH  64  89
ENDBRANCH  38  39
ENDBRANCH  30  33
ENDBRANCH  28  29
ENDBRANCH   1  28
TORSDOF 16
ENDMDL
