MODEL 1
REMARK VINA RESULT:     -10.3      0.000      0.000
REMARK SMILES O=C(CCOc1cccc(/C=C2\CCn3c2nc2cc(Cl)ccc2c3=O)c1)NCCCNC(=O)c1ccc(-c2c3nc(c(-c4c(F)cc(S(=O)(=O)[O-])cc4F)c4ccc([nH]4)c(-c4c(F)cc(S(=O)(=O)[O-])cc4F)c4nc(c(-c5c(F)cc(S(=O)(=O)[O-])cc5F)c5ccc2[nH]5)C=C4)C=C3)cc1
REMARK SMILES IDX 29 1 28 2 1 3 2 4 3 6 4 7 5 8 6 9 7 10 27 11 8 12 10 13 9 14
REMARK SMILES IDX 11 15 12 16 13 17 16 18 14 19 15 20 17 21 25 22 18 23 24 24
REMARK SMILES IDX 26 25 19 26 23 27 20 28 22 29 21 30 30 31 31 32 32 33 33 34
REMARK SMILES IDX 34 36 35 37 36 38 100 39 37 40 99 41 38 42 39 43 40 44 93 45
REMARK SMILES IDX 41 46 98 47 92 48 94 49 42 50 97 51 91 52 90 53 43 55 77 56
REMARK SMILES IDX 56 57 76 58 57 59 60 60 75 61 95 62 58 63 59 64 74 66 96 67
REMARK SMILES IDX 61 68 44 69 45 70 54 71 46 72 47 73 53 74 55 75 48 76 49 77
REMARK SMILES IDX 50 78 51 79 52 80 78 81 79 82 88 83 80 84 81 85 87 86 89 87
REMARK SMILES IDX 82 88 83 89 84 90 85 91 86 92 62 93 63 94 72 95 64 96 65 97
REMARK SMILES IDX 71 98 73 99 66 100 67 101 68 102 69 103 70 104
REMARK H PARENT 28 5 32 35 94 54 60 65
REMARK Flexibility Score: inf
ROOT
ATOM      1  C   UNL A   1      44.090  22.996  27.923  1.00  0.00     0.117 C 
ENDROOT
BRANCH   1   2
ATOM      2  N   UNL A   1      44.658  22.678  26.638  1.00  0.00    -0.356 N 
ATOM      3  O   UNL A   1      42.914  23.522  25.399  1.00  0.00    -0.275 OA
ATOM      4  C   UNL A   1      44.061  23.097  25.476  1.00  0.00     0.223 C 
ATOM      5  H   UNL A   1      45.488  22.150  26.594  1.00  0.00     0.163 HD
BRANCH   4   6
ATOM      6  C   UNL A   1      45.022  23.151  24.323  1.00  0.00     0.141 C 
BRANCH   6   7
ATOM      7  C   UNL A   1      46.409  23.434  24.901  1.00  0.00     0.239 C 
BRANCH   7   8
ATOM      8  O   UNL A   1      47.054  24.502  24.200  1.00  0.00    -0.493 OA
BRANCH   8   9
ATOM      9  C   UNL A   1      47.377  25.649  24.881  1.00  0.00     0.119 A 
ATOM     10  C   UNL A   1      48.740  25.876  25.016  1.00  0.00     0.046 A 
ATOM     11  C   UNL A   1      46.475  26.456  25.600  1.00  0.00     0.054 A 
ATOM     12  C   UNL A   1      49.187  26.967  25.762  1.00  0.00     0.004 A 
ATOM     13  C   UNL A   1      46.922  27.369  26.591  1.00  0.00    -0.022 A 
ATOM     14  C   UNL A   1      48.278  27.733  26.522  1.00  0.00     0.008 A 
BRANCH  13  15
ATOM     15  C   UNL A   1      46.052  27.577  27.874  1.00  0.00     0.015 C 
ATOM     16  C   UNL A   1      45.082  28.557  27.965  1.00  0.00    -0.003 C 
ATOM     17  C   UNL A   1      44.491  29.052  26.692  1.00  0.00     0.061 C 
ATOM     18  C   UNL A   1      45.429  29.958  28.592  1.00  0.00     0.139 A 
ATOM     19  C   UNL A   1      45.620  29.960  26.147  1.00  0.00     0.132 C 
ATOM     20  N   UNL A   1      46.520  30.409  27.316  1.00  0.00    -0.292 N 
ATOM     21  N   UNL A   1      45.032  30.887  29.641  1.00  0.00    -0.230 NA
ATOM     22  C   UNL A   1      47.609  31.855  27.371  1.00  0.00     0.261 A 
ATOM     23  C   UNL A   1      45.891  32.487  29.959  1.00  0.00     0.080 A 
ATOM     24  C   UNL A   1      47.160  33.079  28.823  1.00  0.00     0.066 A 
ATOM     25  O   UNL A   1      48.487  32.001  26.532  1.00  0.00    -0.269 OA
ATOM     26  C   UNL A   1      45.835  33.069  31.197  1.00  0.00     0.049 A 
ATOM     27  C   UNL A   1      48.044  34.056  29.185  1.00  0.00     0.017 A 
ATOM     28  C   UNL A   1      46.853  34.023  31.450  1.00  0.00     0.043 A 
ATOM     29  C   UNL A   1      47.880  34.487  30.516  1.00  0.00     0.021 A 
ATOM     30  Cl  UNL A   1      46.991  34.611  33.082  1.00  0.00    -0.084 Cl
ENDBRANCH  13  15
ENDBRANCH   8   9
ENDBRANCH   7   8
ENDBRANCH   6   7
ENDBRANCH   4   6
ENDBRANCH   1   2
BRANCH   1  31
ATOM     31  C   UNL A   1      42.694  22.324  28.380  1.00  0.00     0.042 C 
BRANCH  31  32
ATOM     32  C   UNL A   1      40.761  21.729  27.504  1.00  0.00     0.118 C 
BRANCH  32  33
ATOM     33  N   UNL A   1      39.968  22.560  26.218  1.00  0.00    -0.352 N 
ATOM     34  C   UNL A   1      39.045  23.557  26.223  1.00  0.00     0.251 C 
ATOM     35  H   UNL A   1      40.232  22.258  25.319  1.00  0.00     0.163 HD
ATOM     36  O   UNL A   1      38.010  23.509  25.573  1.00  0.00    -0.269 OA
BRANCH  34  37
ATOM     37  C   UNL A   1      39.448  24.732  26.911  1.00  0.00     0.039 A 
ATOM     38  C   UNL A   1      40.291  25.647  26.298  1.00  0.00     0.014 A 
ATOM     39  C   UNL A   1      38.955  24.818  28.214  1.00  0.00     0.014 A 
ATOM     40  C   UNL A   1      40.653  26.737  27.045  1.00  0.00     0.010 A 
ATOM     41  C   UNL A   1      39.264  25.928  28.928  1.00  0.00     0.010 A 
ATOM     42  C   UNL A   1      40.135  26.856  28.346  1.00  0.00    -0.014 A 
BRANCH  42  43
ATOM     43  C   UNL A   1      40.545  27.949  29.199  1.00  0.00     0.031 A 
ATOM     44  C   UNL A   1      41.824  27.792  29.943  1.00  0.00     0.074 A 
ATOM     45  C   UNL A   1      39.667  28.946  29.346  1.00  0.00     0.049 A 
ATOM     46  N   UNL A   1      42.328  28.562  30.859  1.00  0.00    -0.248 NA
ATOM     47  C   UNL A   1      42.614  26.573  29.667  1.00  0.00     0.031 C 
ATOM     48  C   UNL A   1      38.364  29.040  28.672  1.00  0.00     0.029 A 
ATOM     49  N   UNL A   1      39.731  30.059  30.118  1.00  0.00    -0.354 N 
ATOM     50  C   UNL A   1      43.480  27.918  31.283  1.00  0.00     0.074 A 
ATOM     51  C   UNL A   1      43.566  26.660  30.582  1.00  0.00     0.031 C 
ATOM     52  C   UNL A   1      37.765  30.180  29.044  1.00  0.00     0.029 A 
ATOM     53  C   UNL A   1      38.631  30.864  29.994  1.00  0.00     0.049 A 
ATOM     54  H   UNL A   1      40.492  30.266  30.707  1.00  0.00     0.167 HD
ATOM     55  C   UNL A   1      44.392  28.380  32.164  1.00  0.00     0.037 A 
ATOM     56  C   UNL A   1      38.385  32.037  30.596  1.00  0.00     0.037 A 
ATOM     57  C   UNL A   1      44.248  29.661  32.797  1.00  0.00     0.049 A 
ATOM     58  C   UNL A   1      39.459  32.562  31.504  1.00  0.00     0.074 A 
ATOM     59  C   UNL A   1      45.104  30.300  33.671  1.00  0.00     0.029 A 
ATOM     60  N   UNL A   1      43.161  30.509  32.601  1.00  0.00    -0.354 N 
ATOM     61  N   UNL A   1      40.584  31.986  31.869  1.00  0.00    -0.248 NA
ATOM     62  C   UNL A   1      39.250  33.899  32.058  1.00  0.00     0.031 C 
ATOM     63  C   UNL A   1      44.520  31.523  34.023  1.00  0.00     0.029 A 
ATOM     64  C   UNL A   1      43.321  31.667  33.334  1.00  0.00     0.049 A 
ATOM     65  H   UNL A   1      42.389  30.310  32.023  1.00  0.00     0.167 HD
ATOM     66  C   UNL A   1      41.234  32.900  32.684  1.00  0.00     0.074 A 
ATOM     67  C   UNL A   1      40.379  34.075  32.730  1.00  0.00     0.031 C 
ATOM     68  C   UNL A   1      42.418  32.793  33.339  1.00  0.00     0.037 A 
BRANCH  55  69
ATOM     69  C   UNL A   1      45.577  27.508  32.457  1.00  0.00     0.058 A 
ATOM     70  C   UNL A   1      45.510  26.456  33.389  1.00  0.00     0.135 A 
ATOM     71  C   UNL A   1      46.805  27.731  31.816  1.00  0.00     0.135 A 
ATOM     72  F   UNL A   1      44.371  26.215  34.058  1.00  0.00    -0.206 F 
ATOM     73  C   UNL A   1      46.621  25.676  33.692  1.00  0.00     0.059 A 
ATOM     74  C   UNL A   1      47.922  26.943  32.081  1.00  0.00     0.059 A 
ATOM     75  F   UNL A   1      46.935  28.734  30.934  1.00  0.00    -0.206 F 
ATOM     76  C   UNL A   1      47.824  25.926  33.030  1.00  0.00     0.060 A 
BRANCH  76  77
ATOM     77  S   UNL A   1      49.251  24.890  33.416  1.00  0.00     0.124 S 
ATOM     78  O   UNL A   1      49.814  24.663  32.089  1.00  0.00    -0.237 OA
ATOM     79  O   UNL A   1      50.033  25.752  34.297  1.00  0.00    -0.237 OA
ATOM     80  O   UNL A   1      48.657  23.720  34.055  1.00  0.00    -0.744 OA
ENDBRANCH  76  77
ENDBRANCH  55  69
BRANCH  56  81
ATOM     81  C   UNL A   1      37.145  32.780  30.281  1.00  0.00     0.058 A 
ATOM     82  C   UNL A   1      37.090  33.646  29.180  1.00  0.00     0.135 A 
ATOM     83  C   UNL A   1      35.970  32.589  31.024  1.00  0.00     0.135 A 
ATOM     84  F   UNL A   1      38.183  33.839  28.425  1.00  0.00    -0.206 F 
ATOM     85  C   UNL A   1      35.925  34.323  28.844  1.00  0.00     0.059 A 
ATOM     86  C   UNL A   1      34.783  33.235  30.692  1.00  0.00     0.059 A 
ATOM     87  F   UNL A   1      35.959  31.733  32.058  1.00  0.00    -0.206 F 
ATOM     88  C   UNL A   1      34.775  34.111  29.608  1.00  0.00     0.060 A 
BRANCH  88  89
ATOM     89  S   UNL A   1      33.260  34.972  29.142  1.00  0.00     0.124 S 
ATOM     90  O   UNL A   1      32.553  35.031  30.416  1.00  0.00    -0.237 OA
ATOM     91  O   UNL A   1      33.771  36.242  28.635  1.00  0.00    -0.237 OA
ATOM     92  O   UNL A   1      32.672  34.095  28.133  1.00  0.00    -0.744 OA
ENDBRANCH  88  89
ENDBRANCH  56  81
BRANCH  68  93
ATOM     93  C   UNL A   1      42.836  33.994  34.130  1.00  0.00     0.058 A 
ATOM     94  C   UNL A   1      43.442  35.099  33.515  1.00  0.00     0.135 A 
ATOM     95  C   UNL A   1      42.623  34.034  35.515  1.00  0.00     0.135 A 
ATOM     96  F   UNL A   1      43.667  35.100  32.191  1.00  0.00    -0.206 F 
ATOM     97  C   UNL A   1      43.873  36.188  34.259  1.00  0.00     0.059 A 
ATOM     98  C   UNL A   1      43.015  35.127  36.274  1.00  0.00     0.059 A 
ATOM     99  F   UNL A   1      42.030  33.004  36.141  1.00  0.00    -0.206 F 
ATOM    100  C   UNL A   1      43.663  36.187  35.640  1.00  0.00     0.060 A 
BRANCH 100 101
ATOM    101  S   UNL A   1      44.245  37.597  36.600  1.00  0.00     0.124 S 
ATOM    102  O   UNL A   1      45.542  37.115  37.063  1.00  0.00    -0.237 OA
ATOM    103  O   UNL A   1      44.281  38.662  35.604  1.00  0.00    -0.237 OA
ATOM    104  O   UNL A   1      43.224  37.746  37.633  1.00  0.00    -0.744 OA
ENDBRANCH 100 101
ENDBRANCH  68  93
ENDBRANCH  42  43
ENDBRANCH  34  37
ENDBRANCH  32  33
ENDBRANCH  31  32
ENDBRANCH   1  31
TORSDOF 17
ENDMDL
MODEL 2
REMARK VINA RESULT:     -10.2      5.361     13.296
REMARK SMILES O=C(CCOc1cccc(/C=C2\CCn3c2nc2cc(Cl)ccc2c3=O)c1)NCCCNC(=O)c1ccc(-c2c3nc(c(-c4c(F)cc(S(=O)(=O)[O-])cc4F)c4ccc([nH]4)c(-c4c(F)cc(S(=O)(=O)[O-])cc4F)c4nc(c(-c5c(F)cc(S(=O)(=O)[O-])cc5F)c5ccc2[nH]5)C=C4)C=C3)cc1
REMARK SMILES IDX 29 1 28 2 1 3 2 4 3 6 4 7 5 8 6 9 7 10 27 11 8 12 10 13 9 14
REMARK SMILES IDX 11 15 12 16 13 17 16 18 14 19 15 20 17 21 25 22 18 23 24 24
REMARK SMILES IDX 26 25 19 26 23 27 20 28 22 29 21 30 30 31 31 32 32 33 33 34
REMARK SMILES IDX 34 36 35 37 36 38 100 39 37 40 99 41 38 42 39 43 40 44 93 45
REMARK SMILES IDX 41 46 98 47 92 48 94 49 42 50 97 51 91 52 90 53 43 55 77 56
REMARK SMILES IDX 56 57 76 58 57 59 60 60 75 61 95 62 58 63 59 64 74 66 96 67
REMARK SMILES IDX 61 68 44 69 45 70 54 71 46 72 47 73 53 74 55 75 48 76 49 77
REMARK SMILES IDX 50 78 51 79 52 80 78 81 79 82 88 83 80 84 81 85 87 86 89 87
REMARK SMILES IDX 82 88 83 89 84 90 85 91 86 92 62 93 63 94 72 95 64 96 65 97
REMARK SMILES IDX 71 98 73 99 66 100 67 101 68 102 69 103 70 104
REMARK H PARENT 28 5 32 35 94 54 60 65
REMARK Flexibility Score: inf
ROOT
ATOM      1  C   UNL A   1      44.822  34.421  33.196  1.00  0.00     0.117 C 
ENDROOT
BRANCH   1   2
ATOM      2  N   UNL A   1      43.447  33.992  33.145  1.00  0.00    -0.356 N 
ATOM      3  O   UNL A   1      42.543  36.067  33.557  1.00  0.00    -0.275 OA
ATOM      4  C   UNL A   1      42.420  34.899  33.203  1.00  0.00     0.223 C 
ATOM      5  H   UNL A   1      43.242  33.032  33.067  1.00  0.00     0.163 HD
BRANCH   4   6
ATOM      6  C   UNL A   1      41.145  34.364  32.614  1.00  0.00     0.141 C 
BRANCH   6   7
ATOM      7  C   UNL A   1      41.372  34.207  31.110  1.00  0.00     0.239 C 
BRANCH   7   8
ATOM      8  O   UNL A   1      42.484  34.994  30.670  1.00  0.00    -0.493 OA
BRANCH   8   9
ATOM      9  C   UNL A   1      42.362  35.739  29.523  1.00  0.00     0.119 A 
ATOM     10  C   UNL A   1      41.474  35.221  28.590  1.00  0.00     0.046 A 
ATOM     11  C   UNL A   1      43.190  36.816  29.154  1.00  0.00     0.054 A 
ATOM     12  C   UNL A   1      41.331  35.848  27.352  1.00  0.00     0.004 A 
ATOM     13  C   UNL A   1      43.270  37.265  27.811  1.00  0.00    -0.022 A 
ATOM     14  C   UNL A   1      42.205  36.889  26.974  1.00  0.00     0.008 A 
BRANCH  13  15
ATOM     15  C   UNL A   1      44.648  37.758  27.260  1.00  0.00     0.015 C 
ATOM     16  C   UNL A   1      45.117  39.041  27.467  1.00  0.00    -0.003 C 
ATOM     17  C   UNL A   1      44.588  39.779  28.646  1.00  0.00     0.061 C 
ATOM     18  C   UNL A   1      44.863  40.160  26.389  1.00  0.00     0.139 A 
ATOM     19  C   UNL A   1      43.171  40.176  28.164  1.00  0.00     0.132 C 
ATOM     20  N   UNL A   1      43.141  40.181  26.623  1.00  0.00    -0.292 N 
ATOM     21  N   UNL A   1      45.546  41.131  25.545  1.00  0.00    -0.230 NA
ATOM     22  C   UNL A   1      41.978  41.064  25.551  1.00  0.00     0.261 A 
ATOM     23  C   UNL A   1      44.671  42.238  24.358  1.00  0.00     0.080 A 
ATOM     24  C   UNL A   1      42.869  42.310  24.341  1.00  0.00     0.066 A 
ATOM     25  O   UNL A   1      40.774  40.876  25.655  1.00  0.00    -0.269 OA
ATOM     26  C   UNL A   1      45.330  42.746  23.271  1.00  0.00     0.049 A 
ATOM     27  C   UNL A   1      42.184  42.835  23.282  1.00  0.00     0.017 A 
ATOM     28  C   UNL A   1      44.486  43.201  22.225  1.00  0.00     0.043 A 
ATOM     29  C   UNL A   1      43.024  43.246  22.228  1.00  0.00     0.021 A 
ATOM     30  Cl  UNL A   1      45.255  43.622  20.723  1.00  0.00    -0.084 Cl
ENDBRANCH  13  15
ENDBRANCH   8   9
ENDBRANCH   7   8
ENDBRANCH   6   7
ENDBRANCH   4   6
ENDBRANCH   1   2
BRANCH   1  31
ATOM     31  C   UNL A   1      45.528  35.032  31.879  1.00  0.00     0.042 C 
BRANCH  31  32
ATOM     32  C   UNL A   1      46.244  36.972  31.116  1.00  0.00     0.118 C 
BRANCH  32  33
ATOM     33  N   UNL A   1      47.189  37.177  29.688  1.00  0.00    -0.352 N 
ATOM     34  C   UNL A   1      48.099  36.367  29.086  1.00  0.00     0.251 C 
ATOM     35  H   UNL A   1      47.043  38.034  29.227  1.00  0.00     0.163 HD
ATOM     36  O   UNL A   1      49.209  36.752  28.743  1.00  0.00    -0.269 OA
BRANCH  34  37
ATOM     37  C   UNL A   1      47.607  35.082  28.735  1.00  0.00     0.039 A 
ATOM     38  C   UNL A   1      46.847  34.915  27.586  1.00  0.00     0.014 A 
ATOM     39  C   UNL A   1      47.927  34.086  29.658  1.00  0.00     0.014 A 
ATOM     40  C   UNL A   1      46.387  33.647  27.341  1.00  0.00     0.010 A 
ATOM     41  C   UNL A   1      47.524  32.822  29.379  1.00  0.00     0.010 A 
ATOM     42  C   UNL A   1      46.732  32.626  28.242  1.00  0.00    -0.014 A 
BRANCH  42  43
ATOM     43  C   UNL A   1      46.212  31.289  28.066  1.00  0.00     0.031 A 
ATOM     44  C   UNL A   1      44.783  31.061  28.412  1.00  0.00     0.074 A 
ATOM     45  C   UNL A   1      47.101  30.347  27.735  1.00  0.00     0.049 A 
ATOM     46  N   UNL A   1      44.132  29.939  28.467  1.00  0.00    -0.248 NA
ATOM     47  C   UNL A   1      43.994  32.245  28.811  1.00  0.00     0.031 C 
ATOM     48  C   UNL A   1      48.532  30.575  27.487  1.00  0.00     0.029 A 
ATOM     49  N   UNL A   1      46.936  29.011  27.567  1.00  0.00    -0.354 N 
ATOM     50  C   UNL A   1      42.866  30.274  28.923  1.00  0.00     0.074 A 
ATOM     51  C   UNL A   1      42.858  31.690  29.202  1.00  0.00     0.031 C 
ATOM     52  C   UNL A   1      49.107  29.408  27.164  1.00  0.00     0.029 A 
ATOM     53  C   UNL A   1      48.091  28.366  27.215  1.00  0.00     0.049 A 
ATOM     54  H   UNL A   1      46.073  28.553  27.686  1.00  0.00     0.167 HD
ATOM     55  C   UNL A   1      41.806  29.450  29.057  1.00  0.00     0.037 A 
ATOM     56  C   UNL A   1      48.271  27.063  26.957  1.00  0.00     0.037 A 
ATOM     57  C   UNL A   1      41.888  28.054  28.727  1.00  0.00     0.049 A 
ATOM     58  C   UNL A   1      47.053  26.190  27.031  1.00  0.00     0.074 A 
ATOM     59  C   UNL A   1      40.897  27.095  28.755  1.00  0.00     0.029 A 
ATOM     60  N   UNL A   1      43.051  27.425  28.292  1.00  0.00    -0.354 N 
ATOM     61  N   UNL A   1      45.832  26.508  27.406  1.00  0.00    -0.248 NA
ATOM     62  C   UNL A   1      47.221  24.796  26.623  1.00  0.00     0.031 C 
ATOM     63  C   UNL A   1      41.469  25.880  28.361  1.00  0.00     0.029 A 
ATOM     64  C   UNL A   1      42.806  26.090  28.045  1.00  0.00     0.049 A 
ATOM     65  H   UNL A   1      43.923  27.868  28.178  1.00  0.00     0.167 HD
ATOM     66  C   UNL A   1      45.076  25.356  27.262  1.00  0.00     0.074 A 
ATOM     67  C   UNL A   1      45.980  24.345  26.738  1.00  0.00     0.031 C 
ATOM     68  C   UNL A   1      43.763  25.138  27.533  1.00  0.00     0.037 A 
BRANCH  55  69
ATOM     69  C   UNL A   1      40.522  30.047  29.556  1.00  0.00     0.058 A 
ATOM     70  C   UNL A   1      40.376  30.479  30.887  1.00  0.00     0.135 A 
ATOM     71  C   UNL A   1      39.414  30.174  28.705  1.00  0.00     0.135 A 
ATOM     72  F   UNL A   1      41.391  30.352  31.757  1.00  0.00    -0.206 F 
ATOM     73  C   UNL A   1      39.172  30.991  31.360  1.00  0.00     0.059 A 
ATOM     74  C   UNL A   1      38.209  30.712  29.149  1.00  0.00     0.059 A 
ATOM     75  F   UNL A   1      39.489  29.758  27.431  1.00  0.00    -0.206 F 
ATOM     76  C   UNL A   1      38.094  31.106  30.482  1.00  0.00     0.060 A 
BRANCH  76  77
ATOM     77  S   UNL A   1      36.546  31.796  31.104  1.00  0.00     0.124 S 
ATOM     78  O   UNL A   1      36.915  33.191  31.322  1.00  0.00    -0.237 OA
ATOM     79  O   UNL A   1      35.628  31.550  29.996  1.00  0.00    -0.237 OA
ATOM     80  O   UNL A   1      36.289  31.017  32.311  1.00  0.00    -0.744 OA
ENDBRANCH  76  77
ENDBRANCH  55  69
BRANCH  56  81
ATOM     81  C   UNL A   1      49.603  26.573  26.537  1.00  0.00     0.058 A 
ATOM     82  C   UNL A   1      50.507  26.064  27.480  1.00  0.00     0.135 A 
ATOM     83  C   UNL A   1      49.975  26.534  25.185  1.00  0.00     0.135 A 
ATOM     84  F   UNL A   1      50.184  26.056  28.782  1.00  0.00    -0.206 F 
ATOM     85  C   UNL A   1      51.747  25.563  27.102  1.00  0.00     0.059 A 
ATOM     86  C   UNL A   1      51.199  26.014  24.778  1.00  0.00     0.059 A 
ATOM     87  F   UNL A   1      49.124  26.966  24.240  1.00  0.00    -0.206 F 
ATOM     88  C   UNL A   1      52.085  25.544  25.747  1.00  0.00     0.060 A 
BRANCH  88  89
ATOM     89  S   UNL A   1      53.685  24.862  25.266  1.00  0.00     0.124 S 
ATOM     90  O   UNL A   1      54.007  25.668  24.095  1.00  0.00    -0.237 OA
ATOM     91  O   UNL A   1      54.494  25.111  26.455  1.00  0.00    -0.237 OA
ATOM     92  O   UNL A   1      53.385  23.457  25.004  1.00  0.00    -0.744 OA
ENDBRANCH  88  89
ENDBRANCH  56  81
BRANCH  68  93
ATOM     93  C   UNL A   1      43.258  23.758  27.240  1.00  0.00     0.058 A 
ATOM     94  C   UNL A   1      43.124  22.799  28.254  1.00  0.00     0.135 A 
ATOM     95  C   UNL A   1      42.904  23.401  25.931  1.00  0.00     0.135 A 
ATOM     96  F   UNL A   1      43.456  23.099  29.520  1.00  0.00    -0.206 F 
ATOM     97  C   UNL A   1      42.705  21.508  27.969  1.00  0.00     0.059 A 
ATOM     98  C   UNL A   1      42.449  22.126  25.629  1.00  0.00     0.059 A 
ATOM     99  F   UNL A   1      43.000  24.296  24.934  1.00  0.00    -0.206 F 
ATOM    100  C   UNL A   1      42.378  21.179  26.651  1.00  0.00     0.060 A 
BRANCH 100 101
ATOM    101  S   UNL A   1      41.853  19.494  26.288  1.00  0.00     0.124 S 
ATOM    102  O   UNL A   1      42.608  19.213  25.071  1.00  0.00    -0.237 OA
ATOM    103  O   UNL A   1      42.278  18.769  27.481  1.00  0.00    -0.237 OA
ATOM    104  O   UNL A   1      40.409  19.619  26.118  1.00  0.00    -0.744 OA
ENDBRANCH 100 101
ENDBRANCH  68  93
ENDBRANCH  42  43
ENDBRANCH  34  37
ENDBRANCH  32  33
ENDBRANCH  31  32
ENDBRANCH   1  31
TORSDOF 17
ENDMDL
MODEL 3
REMARK VINA RESULT:     -10.2      5.471     13.123
REMARK SMILES O=C(CCOc1cccc(/C=C2\CCn3c2nc2cc(Cl)ccc2c3=O)c1)NCCCNC(=O)c1ccc(-c2c3nc(c(-c4c(F)cc(S(=O)(=O)[O-])cc4F)c4ccc([nH]4)c(-c4c(F)cc(S(=O)(=O)[O-])cc4F)c4nc(c(-c5c(F)cc(S(=O)(=O)[O-])cc5F)c5ccc2[nH]5)C=C4)C=C3)cc1
REMARK SMILES IDX 29 1 28 2 1 3 2 4 3 6 4 7 5 8 6 9 7 10 27 11 8 12 10 13 9 14
REMARK SMILES IDX 11 15 12 16 13 17 16 18 14 19 15 20 17 21 25 22 18 23 24 24
REMARK SMILES IDX 26 25 19 26 23 27 20 28 22 29 21 30 30 31 31 32 32 33 33 34
REMARK SMILES IDX 34 36 35 37 36 38 100 39 37 40 99 41 38 42 39 43 40 44 93 45
REMARK SMILES IDX 41 46 98 47 92 48 94 49 42 50 97 51 91 52 90 53 43 55 77 56
REMARK SMILES IDX 56 57 76 58 57 59 60 60 75 61 95 62 58 63 59 64 74 66 96 67
REMARK SMILES IDX 61 68 44 69 45 70 54 71 46 72 47 73 53 74 55 75 48 76 49 77
REMARK SMILES IDX 50 78 51 79 52 80 78 81 79 82 88 83 80 84 81 85 87 86 89 87
REMARK SMILES IDX 82 88 83 89 84 90 85 91 86 92 62 93 63 94 72 95 64 96 65 97
REMARK SMILES IDX 71 98 73 99 66 100 67 101 68 102 69 103 70 104
REMARK H PARENT 28 5 32 35 94 54 60 65
REMARK Flexibility Score: inf
ROOT
ATOM      1  C   UNL A   1      35.459  29.711  27.441  1.00  0.00     0.117 C 
ENDROOT
BRANCH   1   2
ATOM      2  N   UNL A   1      34.062  29.365  27.479  1.00  0.00    -0.356 N 
ATOM      3  O   UNL A   1      33.285  31.527  27.371  1.00  0.00    -0.275 OA
ATOM      4  C   UNL A   1      33.091  30.319  27.306  1.00  0.00     0.223 C 
ATOM      5  H   UNL A   1      33.799  28.428  27.633  1.00  0.00     0.163 HD
BRANCH   4   6
ATOM      6  C   UNL A   1      31.784  29.734  26.850  1.00  0.00     0.141 C 
BRANCH   6   7
ATOM      7  C   UNL A   1      31.432  30.398  25.519  1.00  0.00     0.239 C 
BRANCH   7   8
ATOM      8  O   UNL A   1      30.901  29.447  24.591  1.00  0.00    -0.493 OA
BRANCH   8   9
ATOM      9  C   UNL A   1      31.618  28.308  24.319  1.00  0.00     0.119 A 
ATOM     10  C   UNL A   1      32.596  28.461  23.344  1.00  0.00     0.046 A 
ATOM     11  C   UNL A   1      31.306  27.014  24.777  1.00  0.00     0.054 A 
ATOM     12  C   UNL A   1      33.331  27.351  22.925  1.00  0.00     0.004 A 
ATOM     13  C   UNL A   1      31.830  25.856  24.146  1.00  0.00    -0.022 A 
ATOM     14  C   UNL A   1      32.971  26.055  23.349  1.00  0.00     0.008 A 
BRANCH  13  15
ATOM     15  C   UNL A   1      30.927  24.584  24.031  1.00  0.00     0.015 C 
ATOM     16  C   UNL A   1      30.790  23.673  25.061  1.00  0.00    -0.003 C 
ATOM     17  C   UNL A   1      31.053  24.160  26.442  1.00  0.00     0.061 C 
ATOM     18  C   UNL A   1      31.705  22.393  25.113  1.00  0.00     0.139 A 
ATOM     19  C   UNL A   1      32.600  24.233  26.466  1.00  0.00     0.132 C 
ATOM     20  N   UNL A   1      33.169  23.289  25.388  1.00  0.00    -0.292 N 
ATOM     21  N   UNL A   1      31.659  20.939  25.171  1.00  0.00    -0.230 NA
ATOM     22  C   UNL A   1      34.830  22.568  25.327  1.00  0.00     0.261 A 
ATOM     23  C   UNL A   1      33.165  19.875  25.172  1.00  0.00     0.080 A 
ATOM     24  C   UNL A   1      34.802  20.617  25.312  1.00  0.00     0.066 A 
ATOM     25  O   UNL A   1      35.819  23.289  25.334  1.00  0.00    -0.269 OA
ATOM     26  C   UNL A   1      33.098  18.580  24.732  1.00  0.00     0.049 A 
ATOM     27  C   UNL A   1      35.932  19.924  24.979  1.00  0.00     0.017 A 
ATOM     28  C   UNL A   1      34.345  18.012  24.367  1.00  0.00     0.043 A 
ATOM     29  C   UNL A   1      35.665  18.633  24.484  1.00  0.00     0.021 A 
ATOM     30  Cl  UNL A   1      34.301  16.468  23.568  1.00  0.00    -0.084 Cl
ENDBRANCH  13  15
ENDBRANCH   8   9
ENDBRANCH   7   8
ENDBRANCH   6   7
ENDBRANCH   4   6
ENDBRANCH   1   2
BRANCH   1  31
ATOM     31  C   UNL A   1      36.408  29.389  28.707  1.00  0.00     0.042 C 
BRANCH  31  32
ATOM     32  C   UNL A   1      36.606  29.944  30.830  1.00  0.00     0.118 C 
BRANCH  32  33
ATOM     33  N   UNL A   1      37.390  31.369  31.404  1.00  0.00    -0.352 N 
ATOM     34  C   UNL A   1      38.494  31.541  32.177  1.00  0.00     0.251 C 
ATOM     35  H   UNL A   1      36.960  32.208  31.120  1.00  0.00     0.163 HD
ATOM     36  O   UNL A   1      38.513  32.271  33.159  1.00  0.00    -0.269 OA
BRANCH  34  37
ATOM     37  C   UNL A   1      39.673  30.938  31.666  1.00  0.00     0.039 A 
ATOM     38  C   UNL A   1      40.423  30.084  32.462  1.00  0.00     0.014 A 
ATOM     39  C   UNL A   1      39.985  31.327  30.363  1.00  0.00     0.014 A 
ATOM     40  C   UNL A   1      41.562  29.571  31.899  1.00  0.00     0.010 A 
ATOM     41  C   UNL A   1      41.078  30.769  29.788  1.00  0.00     0.010 A 
ATOM     42  C   UNL A   1      41.870  29.924  30.574  1.00  0.00    -0.014 A 
BRANCH  42  43
ATOM     43  C   UNL A   1      43.097  29.468  29.962  1.00  0.00     0.031 A 
ATOM     44  C   UNL A   1      43.086  28.122  29.329  1.00  0.00     0.074 A 
ATOM     45  C   UNL A   1      44.171  30.244  30.141  1.00  0.00     0.049 A 
ATOM     46  N   UNL A   1      44.082  27.447  28.842  1.00  0.00    -0.248 NA
ATOM     47  C   UNL A   1      41.791  27.410  29.293  1.00  0.00     0.031 C 
ATOM     48  C   UNL A   1      44.184  31.531  30.852  1.00  0.00     0.029 A 
ATOM     49  N   UNL A   1      45.457  30.057  29.754  1.00  0.00    -0.354 N 
ATOM     50  C   UNL A   1      43.545  26.227  28.460  1.00  0.00     0.074 A 
ATOM     51  C   UNL A   1      42.152  26.222  28.836  1.00  0.00     0.031 C 
ATOM     52  C   UNL A   1      45.427  32.032  30.818  1.00  0.00     0.029 A 
ATOM     53  C   UNL A   1      46.283  31.088  30.114  1.00  0.00     0.049 A 
ATOM     54  H   UNL A   1      45.765  29.260  29.264  1.00  0.00     0.167 HD
ATOM     55  C   UNL A   1      44.180  25.225  27.819  1.00  0.00     0.037 A 
ATOM     56  C   UNL A   1      47.595  31.227  29.871  1.00  0.00     0.037 A 
ATOM     57  C   UNL A   1      45.565  25.322  27.450  1.00  0.00     0.049 A 
ATOM     58  C   UNL A   1      48.251  30.134  29.080  1.00  0.00     0.074 A 
ATOM     59  C   UNL A   1      46.344  24.422  26.752  1.00  0.00     0.029 A 
ATOM     60  N   UNL A   1      46.376  26.413  27.751  1.00  0.00    -0.354 N 
ATOM     61  N   UNL A   1      47.736  28.998  28.661  1.00  0.00    -0.248 NA
ATOM     62  C   UNL A   1      49.647  30.346  28.704  1.00  0.00     0.031 C 
ATOM     63  C   UNL A   1      47.633  24.959  26.655  1.00  0.00     0.029 A 
ATOM     64  C   UNL A   1      47.647  26.214  27.253  1.00  0.00     0.049 A 
ATOM     65  H   UNL A   1      46.084  27.211  28.249  1.00  0.00     0.167 HD
ATOM     66  C   UNL A   1      48.742  28.362  27.950  1.00  0.00     0.074 A 
ATOM     67  C   UNL A   1      49.884  29.262  27.979  1.00  0.00     0.031 C 
ATOM     68  C   UNL A   1      48.740  27.154  27.331  1.00  0.00     0.037 A 
BRANCH  55  69
ATOM     69  C   UNL A   1      43.383  23.997  27.489  1.00  0.00     0.058 A 
ATOM     70  C   UNL A   1      42.790  23.816  26.226  1.00  0.00     0.135 A 
ATOM     71  C   UNL A   1      43.188  22.991  28.448  1.00  0.00     0.135 A 
ATOM     72  F   UNL A   1      42.914  24.760  25.278  1.00  0.00    -0.206 F 
ATOM     73  C   UNL A   1      42.015  22.698  25.935  1.00  0.00     0.059 A 
ATOM     74  C   UNL A   1      42.442  21.849  28.169  1.00  0.00     0.059 A 
ATOM     75  F   UNL A   1      43.711  23.119  29.677  1.00  0.00    -0.206 F 
ATOM     76  C   UNL A   1      41.849  21.718  26.915  1.00  0.00     0.060 A 
BRANCH  76  77
ATOM     77  S   UNL A   1      40.861  20.260  26.514  1.00  0.00     0.124 S 
ATOM     78  O   UNL A   1      39.633  20.869  26.014  1.00  0.00    -0.237 OA
ATOM     79  O   UNL A   1      41.688  19.589  25.516  1.00  0.00    -0.237 OA
ATOM     80  O   UNL A   1      40.744  19.569  27.793  1.00  0.00    -0.744 OA
ENDBRANCH  76  77
ENDBRANCH  55  69
BRANCH  56  81
ATOM     81  C   UNL A   1      48.296  32.456  30.305  1.00  0.00     0.058 A 
ATOM     82  C   UNL A   1      49.047  32.471  31.488  1.00  0.00     0.135 A 
ATOM     83  C   UNL A   1      48.294  33.616  29.515  1.00  0.00     0.135 A 
ATOM     84  F   UNL A   1      49.101  31.376  32.262  1.00  0.00    -0.206 F 
ATOM     85  C   UNL A   1      49.745  33.602  31.893  1.00  0.00     0.059 A 
ATOM     86  C   UNL A   1      49.005  34.753  29.885  1.00  0.00     0.059 A 
ATOM     87  F   UNL A   1      47.628  33.636  28.349  1.00  0.00    -0.206 F 
ATOM     88  C   UNL A   1      49.716  34.741  31.084  1.00  0.00     0.060 A 
BRANCH  88  89
ATOM     89  S   UNL A   1      50.653  36.192  31.604  1.00  0.00     0.124 S 
ATOM     90  O   UNL A   1      50.010  37.248  30.831  1.00  0.00    -0.237 OA
ATOM     91  O   UNL A   1      50.409  36.215  33.043  1.00  0.00    -0.237 OA
ATOM     92  O   UNL A   1      52.022  35.867  31.214  1.00  0.00    -0.744 OA
ENDBRANCH  88  89
ENDBRANCH  56  81
BRANCH  68  93
ATOM     93  C   UNL A   1      50.010  26.777  26.632  1.00  0.00     0.058 A 
ATOM     94  C   UNL A   1      50.216  27.078  25.278  1.00  0.00     0.135 A 
ATOM     95  C   UNL A   1      51.027  26.112  27.331  1.00  0.00     0.135 A 
ATOM     96  F   UNL A   1      49.265  27.711  24.572  1.00  0.00    -0.206 F 
ATOM     97  C   UNL A   1      51.373  26.682  24.623  1.00  0.00     0.059 A 
ATOM     98  C   UNL A   1      52.207  25.737  26.705  1.00  0.00     0.059 A 
ATOM     99  F   UNL A   1      50.878  25.821  28.634  1.00  0.00    -0.206 F 
ATOM    100  C   UNL A   1      52.358  26.004  25.344  1.00  0.00     0.060 A 
BRANCH 100 101
ATOM    101  S   UNL A   1      53.849  25.476  24.479  1.00  0.00     0.124 S 
ATOM    102  O   UNL A   1      54.872  26.263  25.160  1.00  0.00    -0.237 OA
ATOM    103  O   UNL A   1      53.871  24.041  24.741  1.00  0.00    -0.237 OA
ATOM    104  O   UNL A   1      53.586  25.851  23.093  1.00  0.00    -0.744 OA
ENDBRANCH 100 101
ENDBRANCH  68  93
ENDBRANCH  42  43
ENDBRANCH  34  37
ENDBRANCH  32  33
ENDBRANCH  31  32
ENDBRANCH   1  31
TORSDOF 17
ENDMDL
