MODEL 1
REMARK VINA RESULT:     -13.4      0.000      0.000
REMARK SMILES COc1ccccc1OC1CCN(c2cccc(C(=O)NCCCNC(=O)c3ccc(-c4c5nc(c(-c6c(F)cc(S(=O)(=O)[O-])cc6F)c6ccc([nH]6)c(-c6c(F)cc(S(=O)(=O)[O-])cc6F)c6nc(c(-c7c(F)cc(S(=O)(=O)[O-])cc7F)c7ccc4[nH]7)C=C6)C=C5)cc3)n2)CC1
REMARK SMILES IDX 22 1 21 2 19 3 20 4 18 6 14 7 15 8 94 9 16 10 17 11 13 12
REMARK SMILES IDX 10 13 11 14 96 15 12 16 95 17 9 18 8 19 3 20 4 21 5 22 7 23
REMARK SMILES IDX 6 24 2 25 1 26 23 27 24 28 25 29 26 30 27 32 28 33 29 34
REMARK SMILES IDX 93 35 30 36 92 37 31 38 32 39 33 40 86 41 34 42 91 43 85 44
REMARK SMILES IDX 87 45 35 46 90 47 84 48 83 49 36 51 70 52 49 53 69 54 50 55
REMARK SMILES IDX 53 56 68 57 88 58 51 59 52 60 67 62 89 63 54 64 37 65 38 66
REMARK SMILES IDX 47 67 39 68 40 69 46 70 48 71 41 72 42 73 43 74 44 75 45 76
REMARK SMILES IDX 71 77 72 78 81 79 73 80 74 81 80 82 82 83 75 84 76 85 77 86
REMARK SMILES IDX 78 87 79 88 55 89 56 90 65 91 57 92 58 93 64 94 66 95 59 96
REMARK SMILES IDX 60 97 61 98 62 99 63 100
REMARK H PARENT 21 5 25 31 87 50 53 61
REMARK Flexibility Score: inf
ROOT
ATOM      1  C   UNL A   1      36.668  22.745  25.870  1.00  0.00     0.118 C 
ENDROOT
BRANCH   1   2
ATOM      2  N   UNL A   1      37.056  21.409  25.490  1.00  0.00    -0.351 N 
ATOM      3  C   UNL A   1      36.332  20.315  25.091  1.00  0.00     0.269 C 
ATOM      4  O   UNL A   1      36.994  19.301  24.856  1.00  0.00    -0.268 OA
ATOM      5  H   UNL A   1      38.028  21.251  25.524  1.00  0.00     0.163 HD
BRANCH   3   6
ATOM      6  C   UNL A   1      34.840  20.315  24.870  1.00  0.00     0.130 A 
ATOM      7  C   UNL A   1      33.023  21.761  24.698  1.00  0.00     0.129 A 
ATOM      8  C   UNL A   1      32.128  20.707  24.747  1.00  0.00     0.047 A 
ATOM      9  N   UNL A   1      34.347  21.569  24.768  1.00  0.00    -0.226 NA
ATOM     10  C   UNL A   1      32.624  19.411  24.773  1.00  0.00     0.006 A 
ATOM     11  C   UNL A   1      34.003  19.211  24.811  1.00  0.00     0.034 A 
BRANCH   7  12
ATOM     12  N   UNL A   1      32.593  23.059  24.599  1.00  0.00    -0.356 N 
ATOM     13  C   UNL A   1      30.125  25.906  24.220  1.00  0.00     0.177 C 
ATOM     14  C   UNL A   1      30.437  25.089  25.957  1.00  0.00     0.066 C 
ATOM     15  C   UNL A   1      30.892  25.029  22.659  1.00  0.00     0.066 C 
ATOM     16  C   UNL A   1      31.855  23.773  26.131  1.00  0.00     0.122 C 
ATOM     17  C   UNL A   1      32.315  23.731  22.916  1.00  0.00     0.122 C 
BRANCH  13  18
ATOM     18  O   UNL A   1      30.752  27.223  24.276  1.00  0.00    -0.486 OA
BRANCH  18  19
ATOM     19  C   UNL A   1      29.998  28.096  23.517  1.00  0.00     0.161 A 
ATOM     20  C   UNL A   1      30.638  29.048  22.714  1.00  0.00     0.160 A 
ATOM     21  C   UNL A   1      29.874  29.928  21.948  1.00  0.00     0.050 A 
ATOM     22  C   UNL A   1      28.482  29.826  21.966  1.00  0.00     0.004 A 
ATOM     23  C   UNL A   1      28.613  27.996  23.548  1.00  0.00     0.050 A 
ATOM     24  C   UNL A   1      27.853  28.861  22.760  1.00  0.00     0.004 A 
BRANCH  20  25
ATOM     25  O   UNL A   1      32.012  28.930  22.792  1.00  0.00    -0.493 OA
ATOM     26  C   UNL A   1      33.851  28.703  22.814  1.00  0.00     0.278 C 
ENDBRANCH  20  25
ENDBRANCH  18  19
ENDBRANCH  13  18
ENDBRANCH   7  12
ENDBRANCH   3   6
ENDBRANCH   1   2
BRANCH   1  27
ATOM     27  C   UNL A   1      37.788  23.731  25.555  1.00  0.00     0.042 C 
BRANCH  27  28
ATOM     28  C   UNL A   1      38.795  23.820  26.695  1.00  0.00     0.118 C 
BRANCH  28  29
ATOM     29  N   UNL A   1      40.162  23.879  26.184  1.00  0.00    -0.352 N 
ATOM     30  C   UNL A   1      41.102  24.867  26.322  1.00  0.00     0.251 C 
ATOM     31  H   UNL A   1      40.450  23.095  25.665  1.00  0.00     0.163 HD
ATOM     32  O   UNL A   1      42.070  24.898  25.570  1.00  0.00    -0.269 OA
BRANCH  30  33
ATOM     33  C   UNL A   1      40.940  25.876  27.384  1.00  0.00     0.039 A 
ATOM     34  C   UNL A   1      40.003  25.667  28.399  1.00  0.00     0.014 A 
ATOM     35  C   UNL A   1      41.710  27.041  27.358  1.00  0.00     0.014 A 
ATOM     36  C   UNL A   1      39.877  26.610  29.419  1.00  0.00     0.010 A 
ATOM     37  C   UNL A   1      41.657  27.923  28.424  1.00  0.00     0.010 A 
ATOM     38  C   UNL A   1      40.723  27.730  29.452  1.00  0.00    -0.014 A 
BRANCH  38  39
ATOM     39  C   UNL A   1      40.636  28.752  30.521  1.00  0.00     0.031 A 
ATOM     40  C   UNL A   1      41.535  28.637  31.721  1.00  0.00     0.074 A 
ATOM     41  C   UNL A   1      39.691  29.707  30.458  1.00  0.00     0.049 A 
ATOM     42  N   UNL A   1      41.531  29.333  32.828  1.00  0.00    -0.248 NA
ATOM     43  C   UNL A   1      42.550  27.571  31.687  1.00  0.00     0.031 C 
ATOM     44  C   UNL A   1      38.744  29.893  29.357  1.00  0.00     0.029 A 
ATOM     45  N   UNL A   1      39.359  30.694  31.351  1.00  0.00    -0.354 N 
ATOM     46  C   UNL A   1      42.519  28.771  33.628  1.00  0.00     0.074 A 
ATOM     47  C   UNL A   1      43.053  27.637  32.908  1.00  0.00     0.031 C 
ATOM     48  C   UNL A   1      37.958  30.946  29.628  1.00  0.00     0.029 A 
ATOM     49  C   UNL A   1      38.305  31.475  30.943  1.00  0.00     0.049 A 
ATOM     50  H   UNL A   1      39.832  30.830  32.204  1.00  0.00     0.167 HD
ATOM     51  C   UNL A   1      42.954  29.178  34.843  1.00  0.00     0.037 A 
ATOM     52  C   UNL A   1      37.681  32.493  31.567  1.00  0.00     0.037 A 
ATOM     53  C   UNL A   1      42.417  30.318  35.538  1.00  0.00     0.049 A 
ATOM     54  C   UNL A   1      38.160  32.913  32.930  1.00  0.00     0.074 A 
ATOM     55  C   UNL A   1      42.816  30.854  36.748  1.00  0.00     0.029 A 
ATOM     56  N   UNL A   1      41.355  31.091  35.087  1.00  0.00    -0.354 N 
ATOM     57  N   UNL A   1      39.130  32.408  33.655  1.00  0.00    -0.248 NA
ATOM     58  C   UNL A   1      37.463  34.042  33.560  1.00  0.00     0.031 C 
ATOM     59  C   UNL A   1      41.953  31.908  37.062  1.00  0.00     0.029 A 
ATOM     60  C   UNL A   1      41.066  32.083  36.009  1.00  0.00     0.049 A 
ATOM     61  H   UNL A   1      40.879  30.955  34.236  1.00  0.00     0.167 HD
ATOM     62  C   UNL A   1      39.192  33.186  34.806  1.00  0.00     0.074 A 
ATOM     63  C   UNL A   1      38.155  34.191  34.682  1.00  0.00     0.031 C 
ATOM     64  C   UNL A   1      40.037  33.085  35.862  1.00  0.00     0.037 A 
BRANCH  51  65
ATOM     65  C   UNL A   1      44.045  28.370  35.498  1.00  0.00     0.058 A 
ATOM     66  C   UNL A   1      45.406  28.607  35.240  1.00  0.00     0.135 A 
ATOM     67  C   UNL A   1      43.724  27.331  36.388  1.00  0.00     0.135 A 
ATOM     68  F   UNL A   1      45.776  29.577  34.388  1.00  0.00    -0.206 F 
ATOM     69  C   UNL A   1      46.403  27.811  35.795  1.00  0.00     0.059 A 
ATOM     70  C   UNL A   1      44.706  26.549  36.987  1.00  0.00     0.059 A 
ATOM     71  F   UNL A   1      42.442  27.059  36.676  1.00  0.00    -0.206 F 
ATOM     72  C   UNL A   1      46.042  26.781  36.664  1.00  0.00     0.060 A 
BRANCH  72  73
ATOM     73  S   UNL A   1      47.345  25.736  37.349  1.00  0.00     0.124 S 
ATOM     74  O   UNL A   1      48.522  26.581  37.162  1.00  0.00    -0.237 OA
ATOM     75  O   UNL A   1      46.906  25.558  38.729  1.00  0.00    -0.237 OA
ATOM     76  O   UNL A   1      47.295  24.538  36.516  1.00  0.00    -0.744 OA
ENDBRANCH  72  73
ENDBRANCH  51  65
BRANCH  52  77
ATOM     77  C   UNL A   1      36.570  33.206  30.881  1.00  0.00     0.058 A 
ATOM     78  C   UNL A   1      35.248  33.065  31.327  1.00  0.00     0.135 A 
ATOM     79  C   UNL A   1      36.809  34.076  29.806  1.00  0.00     0.135 A 
ATOM     80  F   UNL A   1      34.968  32.241  32.348  1.00  0.00    -0.206 F 
ATOM     81  C   UNL A   1      34.200  33.760  30.730  1.00  0.00     0.059 A 
ATOM     82  C   UNL A   1      35.781  34.801  29.211  1.00  0.00     0.059 A 
ATOM     83  F   UNL A   1      38.059  34.259  29.353  1.00  0.00    -0.206 F 
ATOM     84  C   UNL A   1      34.480  34.634  29.679  1.00  0.00     0.060 A 
BRANCH  84  85
ATOM     85  S   UNL A   1      33.120  35.586  28.968  1.00  0.00     0.124 S 
ATOM     86  O   UNL A   1      32.370  35.965  30.160  1.00  0.00    -0.237 OA
ATOM     87  O   UNL A   1      33.830  36.666  28.289  1.00  0.00    -0.237 OA
ATOM     88  O   UNL A   1      32.462  34.628  28.085  1.00  0.00    -0.744 OA
ENDBRANCH  84  85
ENDBRANCH  52  77
BRANCH  64  89
ATOM     89  C   UNL A   1      39.931  34.123  36.948  1.00  0.00     0.058 A 
ATOM     90  C   UNL A   1      40.498  35.399  36.821  1.00  0.00     0.135 A 
ATOM     91  C   UNL A   1      39.169  33.854  38.098  1.00  0.00     0.135 A 
ATOM     92  F   UNL A   1      41.243  35.705  35.748  1.00  0.00    -0.206 F 
ATOM     93  C   UNL A   1      40.325  36.369  37.803  1.00  0.00     0.059 A 
ATOM     94  C   UNL A   1      38.954  34.820  39.075  1.00  0.00     0.059 A 
ATOM     95  F   UNL A   1      38.596  32.651  38.265  1.00  0.00    -0.206 F 
ATOM     96  C   UNL A   1      39.542  36.072  38.921  1.00  0.00     0.060 A 
BRANCH  96  97
ATOM     97  S   UNL A   1      39.275  37.362  40.156  1.00  0.00     0.124 S 
ATOM     98  O   UNL A   1      38.558  36.633  41.196  1.00  0.00    -0.237 OA
ATOM     99  O   UNL A   1      40.640  37.761  40.486  1.00  0.00    -0.237 OA
ATOM    100  O   UNL A   1      38.492  38.364  39.438  1.00  0.00    -0.744 OA
ENDBRANCH  96  97
ENDBRANCH  64  89
ENDBRANCH  38  39
ENDBRANCH  30  33
ENDBRANCH  28  29
ENDBRANCH  27  28
ENDBRANCH   1  27
TORSDOF 17
ENDMDL
MODEL 2
REMARK VINA RESULT:     -13.3      6.426     12.318
REMARK SMILES COc1ccccc1OC1CCN(c2cccc(C(=O)NCCCNC(=O)c3ccc(-c4c5nc(c(-c6c(F)cc(S(=O)(=O)[O-])cc6F)c6ccc([nH]6)c(-c6c(F)cc(S(=O)(=O)[O-])cc6F)c6nc(c(-c7c(F)cc(S(=O)(=O)[O-])cc7F)c7ccc4[nH]7)C=C6)C=C5)cc3)n2)CC1
REMARK SMILES IDX 22 1 21 2 19 3 20 4 18 6 14 7 15 8 94 9 16 10 17 11 13 12
REMARK SMILES IDX 10 13 11 14 96 15 12 16 95 17 9 18 8 19 3 20 4 21 5 22 7 23
REMARK SMILES IDX 6 24 2 25 1 26 23 27 24 28 25 29 26 30 27 32 28 33 29 34
REMARK SMILES IDX 93 35 30 36 92 37 31 38 32 39 33 40 86 41 34 42 91 43 85 44
REMARK SMILES IDX 87 45 35 46 90 47 84 48 83 49 36 51 70 52 49 53 69 54 50 55
REMARK SMILES IDX 53 56 68 57 88 58 51 59 52 60 67 62 89 63 54 64 37 65 38 66
REMARK SMILES IDX 47 67 39 68 40 69 46 70 48 71 41 72 42 73 43 74 44 75 45 76
REMARK SMILES IDX 71 77 72 78 81 79 73 80 74 81 80 82 82 83 75 84 76 85 77 86
REMARK SMILES IDX 78 87 79 88 55 89 56 90 65 91 57 92 58 93 64 94 66 95 59 96
REMARK SMILES IDX 60 97 61 98 62 99 63 100
REMARK H PARENT 21 5 25 31 87 50 53 61
REMARK Flexibility Score: inf
ROOT
ATOM      1  C   UNL A   1      33.327  30.440  27.199  1.00  0.00     0.118 C 
ENDROOT
BRANCH   1   2
ATOM      2  N   UNL A   1      32.397  29.424  27.627  1.00  0.00    -0.351 N 
ATOM      3  C   UNL A   1      31.811  28.373  26.971  1.00  0.00     0.269 C 
ATOM      4  O   UNL A   1      31.031  27.697  27.647  1.00  0.00    -0.268 OA
ATOM      5  H   UNL A   1      32.132  29.500  28.573  1.00  0.00     0.163 HD
BRANCH   3   6
ATOM      6  C   UNL A   1      32.114  27.981  25.547  1.00  0.00     0.130 A 
ATOM      7  C   UNL A   1      32.928  26.206  24.278  1.00  0.00     0.129 A 
ATOM      8  C   UNL A   1      33.016  27.001  23.149  1.00  0.00     0.047 A 
ATOM      9  N   UNL A   1      32.496  26.688  25.451  1.00  0.00    -0.226 NA
ATOM     10  C   UNL A   1      32.552  28.308  23.215  1.00  0.00     0.006 A 
ATOM     11  C   UNL A   1      32.072  28.799  24.427  1.00  0.00     0.034 A 
BRANCH   7  12
ATOM     12  N   UNL A   1      33.302  24.888  24.254  1.00  0.00    -0.356 N 
ATOM     13  C   UNL A   1      33.039  21.165  24.896  1.00  0.00     0.177 C 
ATOM     14  C   UNL A   1      32.143  21.974  23.371  1.00  0.00     0.066 C 
ATOM     15  C   UNL A   1      33.818  22.360  26.224  1.00  0.00     0.066 C 
ATOM     16  C   UNL A   1      32.475  23.847  22.976  1.00  0.00     0.122 C 
ATOM     17  C   UNL A   1      34.128  24.217  25.747  1.00  0.00     0.122 C 
BRANCH  13  18
ATOM     18  O   UNL A   1      34.158  20.406  24.349  1.00  0.00    -0.486 OA
BRANCH  18  19
ATOM     19  C   UNL A   1      33.879  19.060  24.486  1.00  0.00     0.161 A 
ATOM     20  C   UNL A   1      34.929  18.145  24.629  1.00  0.00     0.160 A 
ATOM     21  C   UNL A   1      34.644  16.787  24.767  1.00  0.00     0.050 A 
ATOM     22  C   UNL A   1      33.314  16.362  24.794  1.00  0.00     0.004 A 
ATOM     23  C   UNL A   1      32.554  18.644  24.501  1.00  0.00     0.050 A 
ATOM     24  C   UNL A   1      32.273  17.286  24.666  1.00  0.00     0.004 A 
BRANCH  20  25
ATOM     25  O   UNL A   1      36.154  18.782  24.644  1.00  0.00    -0.493 OA
ATOM     26  C   UNL A   1      37.747  19.728  24.629  1.00  0.00     0.278 C 
ENDBRANCH  20  25
ENDBRANCH  18  19
ENDBRANCH  13  18
ENDBRANCH   7  12
ENDBRANCH   3   6
ENDBRANCH   1   2
BRANCH   1  27
ATOM     27  C   UNL A   1      34.762  29.955  27.381  1.00  0.00     0.042 C 
BRANCH  27  28
ATOM     28  C   UNL A   1      35.628  31.008  28.062  1.00  0.00     0.118 C 
BRANCH  28  29
ATOM     29  N   UNL A   1      35.525  30.910  29.517  1.00  0.00    -0.352 N 
ATOM     30  C   UNL A   1      36.317  30.226  30.402  1.00  0.00     0.251 C 
ATOM     31  H   UNL A   1      34.779  31.408  29.919  1.00  0.00     0.163 HD
ATOM     32  O   UNL A   1      35.905  29.991  31.533  1.00  0.00    -0.269 OA
BRANCH  30  33
ATOM     33  C   UNL A   1      37.661  29.791  29.982  1.00  0.00     0.039 A 
ATOM     34  C   UNL A   1      38.036  29.901  28.642  1.00  0.00     0.014 A 
ATOM     35  C   UNL A   1      38.542  29.254  30.924  1.00  0.00     0.014 A 
ATOM     36  C   UNL A   1      39.322  29.517  28.256  1.00  0.00     0.010 A 
ATOM     37  C   UNL A   1      39.847  28.971  30.560  1.00  0.00     0.010 A 
ATOM     38  C   UNL A   1      40.243  29.076  29.220  1.00  0.00    -0.014 A 
BRANCH  38  39
ATOM     39  C   UNL A   1      41.622  28.670  28.861  1.00  0.00     0.031 A 
ATOM     40  C   UNL A   1      42.709  29.709  28.831  1.00  0.00     0.074 A 
ATOM     41  C   UNL A   1      41.868  27.407  28.471  1.00  0.00     0.049 A 
ATOM     42  N   UNL A   1      43.943  29.604  28.415  1.00  0.00    -0.248 NA
ATOM     43  C   UNL A   1      42.346  31.059  29.296  1.00  0.00     0.031 C 
ATOM     44  C   UNL A   1      40.882  26.325  28.430  1.00  0.00     0.029 A 
ATOM     45  N   UNL A   1      43.022  26.822  28.015  1.00  0.00    -0.354 N 
ATOM     46  C   UNL A   1      44.491  30.875  28.541  1.00  0.00     0.074 A 
ATOM     47  C   UNL A   1      43.438  31.747  29.007  1.00  0.00     0.031 C 
ATOM     48  C   UNL A   1      41.480  25.203  28.001  1.00  0.00     0.029 A 
ATOM     49  C   UNL A   1      42.874  25.497  27.683  1.00  0.00     0.049 A 
ATOM     50  H   UNL A   1      43.875  27.306  27.934  1.00  0.00     0.167 HD
ATOM     51  C   UNL A   1      45.765  31.272  28.310  1.00  0.00     0.037 A 
ATOM     52  C   UNL A   1      43.761  24.624  27.167  1.00  0.00     0.037 A 
ATOM     53  C   UNL A   1      46.803  30.385  27.857  1.00  0.00     0.049 A 
ATOM     54  C   UNL A   1      45.163  25.091  26.889  1.00  0.00     0.074 A 
ATOM     55  C   UNL A   1      48.140  30.664  27.641  1.00  0.00     0.029 A 
ATOM     56  N   UNL A   1      46.617  29.045  27.541  1.00  0.00    -0.354 N 
ATOM     57  N   UNL A   1      45.686  26.282  27.062  1.00  0.00    -0.248 NA
ATOM     58  C   UNL A   1      46.099  24.096  26.347  1.00  0.00     0.031 C 
ATOM     59  C   UNL A   1      48.747  29.514  27.129  1.00  0.00     0.029 A 
ATOM     60  C   UNL A   1      47.809  28.492  27.103  1.00  0.00     0.049 A 
ATOM     61  H   UNL A   1      45.764  28.560  27.618  1.00  0.00     0.167 HD
ATOM     62  C   UNL A   1      47.022  26.170  26.696  1.00  0.00     0.074 A 
ATOM     63  C   UNL A   1      47.225  24.795  26.285  1.00  0.00     0.031 C 
ATOM     64  C   UNL A   1      47.995  27.115  26.711  1.00  0.00     0.037 A 
BRANCH  51  65
ATOM     65  C   UNL A   1      46.088  32.729  28.521  1.00  0.00     0.058 A 
ATOM     66  C   UNL A   1      45.963  33.678  27.491  1.00  0.00     0.135 A 
ATOM     67  C   UNL A   1      46.544  33.183  29.770  1.00  0.00     0.135 A 
ATOM     68  F   UNL A   1      45.544  33.303  26.272  1.00  0.00    -0.206 F 
ATOM     69  C   UNL A   1      46.330  35.007  27.676  1.00  0.00     0.059 A 
ATOM     70  C   UNL A   1      46.878  34.515  29.989  1.00  0.00     0.059 A 
ATOM     71  F   UNL A   1      46.682  32.324  30.793  1.00  0.00    -0.206 F 
ATOM     72  C   UNL A   1      46.791  35.415  28.927  1.00  0.00     0.060 A 
BRANCH  72  73
ATOM     73  S   UNL A   1      47.295  37.135  29.140  1.00  0.00     0.124 S 
ATOM     74  O   UNL A   1      46.437  37.554  30.245  1.00  0.00    -0.237 OA
ATOM     75  O   UNL A   1      48.715  37.005  29.455  1.00  0.00    -0.237 OA
ATOM     76  O   UNL A   1      46.994  37.741  27.847  1.00  0.00    -0.744 OA
ENDBRANCH  72  73
ENDBRANCH  51  65
BRANCH  52  77
ATOM     77  C   UNL A   1      43.351  23.214  26.928  1.00  0.00     0.058 A 
ATOM     78  C   UNL A   1      43.196  22.725  25.623  1.00  0.00     0.135 A 
ATOM     79  C   UNL A   1      43.154  22.316  27.989  1.00  0.00     0.135 A 
ATOM     80  F   UNL A   1      43.367  23.546  24.576  1.00  0.00    -0.206 F 
ATOM     81  C   UNL A   1      42.860  21.398  25.376  1.00  0.00     0.059 A 
ATOM     82  C   UNL A   1      42.844  20.978  27.767  1.00  0.00     0.059 A 
ATOM     83  F   UNL A   1      43.308  22.729  29.257  1.00  0.00    -0.206 F 
ATOM     84  C   UNL A   1      42.696  20.530  26.456  1.00  0.00     0.060 A 
BRANCH  84  85
ATOM     85  S   UNL A   1      42.337  18.793  26.116  1.00  0.00     0.124 S 
ATOM     86  O   UNL A   1      40.924  18.847  25.765  1.00  0.00    -0.237 OA
ATOM     87  O   UNL A   1      43.259  18.502  25.022  1.00  0.00    -0.237 OA
ATOM     88  O   UNL A   1      42.650  18.131  27.379  1.00  0.00    -0.744 OA
ENDBRANCH  84  85
ENDBRANCH  52  77
BRANCH  64  89
ATOM     89  C   UNL A   1      49.390  26.693  26.334  1.00  0.00     0.058 A 
ATOM     90  C   UNL A   1      50.240  26.031  27.231  1.00  0.00     0.135 A 
ATOM     91  C   UNL A   1      49.845  26.882  25.018  1.00  0.00     0.135 A 
ATOM     92  F   UNL A   1      49.859  25.833  28.503  1.00  0.00    -0.206 F 
ATOM     93  C   UNL A   1      51.498  25.581  26.841  1.00  0.00     0.059 A 
ATOM     94  C   UNL A   1      51.084  26.410  24.597  1.00  0.00     0.059 A 
ATOM     95  F   UNL A   1      49.068  27.502  24.115  1.00  0.00    -0.206 F 
ATOM     96  C   UNL A   1      51.905  25.767  25.518  1.00  0.00     0.060 A 
BRANCH  96  97
ATOM     97  S   UNL A   1      53.514  25.123  25.011  1.00  0.00     0.124 S 
ATOM     98  O   UNL A   1      53.510  25.409  23.581  1.00  0.00    -0.237 OA
ATOM     99  O   UNL A   1      54.434  25.921  25.815  1.00  0.00    -0.237 OA
ATOM    100  O   UNL A   1      53.443  23.709  25.369  1.00  0.00    -0.744 OA
ENDBRANCH  96  97
ENDBRANCH  64  89
ENDBRANCH  38  39
ENDBRANCH  30  33
ENDBRANCH  28  29
ENDBRANCH  27  28
ENDBRANCH   1  27
TORSDOF 17
ENDMDL
MODEL 3
REMARK VINA RESULT:     -12.9      6.099     10.711
REMARK SMILES COc1ccccc1OC1CCN(c2cccc(C(=O)NCCCNC(=O)c3ccc(-c4c5nc(c(-c6c(F)cc(S(=O)(=O)[O-])cc6F)c6ccc([nH]6)c(-c6c(F)cc(S(=O)(=O)[O-])cc6F)c6nc(c(-c7c(F)cc(S(=O)(=O)[O-])cc7F)c7ccc4[nH]7)C=C6)C=C5)cc3)n2)CC1
REMARK SMILES IDX 22 1 21 2 19 3 20 4 18 6 14 7 15 8 94 9 16 10 17 11 13 12
REMARK SMILES IDX 10 13 11 14 96 15 12 16 95 17 9 18 8 19 3 20 4 21 5 22 7 23
REMARK SMILES IDX 6 24 2 25 1 26 23 27 24 28 25 29 26 30 27 32 28 33 29 34
REMARK SMILES IDX 93 35 30 36 92 37 31 38 32 39 33 40 86 41 34 42 91 43 85 44
REMARK SMILES IDX 87 45 35 46 90 47 84 48 83 49 36 51 70 52 49 53 69 54 50 55
REMARK SMILES IDX 53 56 68 57 88 58 51 59 52 60 67 62 89 63 54 64 37 65 38 66
REMARK SMILES IDX 47 67 39 68 40 69 46 70 48 71 41 72 42 73 43 74 44 75 45 76
REMARK SMILES IDX 71 77 72 78 81 79 73 80 74 81 80 82 82 83 75 84 76 85 77 86
REMARK SMILES IDX 78 87 79 88 55 89 56 90 65 91 57 92 58 93 64 94 66 95 59 96
REMARK SMILES IDX 60 97 61 98 62 99 63 100
REMARK H PARENT 21 5 25 31 87 50 53 61
REMARK Flexibility Score: inf
ROOT
ATOM      1  C   UNL A   1      37.280  21.080  24.407  1.00  0.00     0.118 C 
ENDROOT
BRANCH   1   2
ATOM      2  N   UNL A   1      37.605  22.321  25.065  1.00  0.00    -0.351 N 
ATOM      3  C   UNL A   1      36.846  23.223  25.765  1.00  0.00     0.269 C 
ATOM      4  O   UNL A   1      37.454  24.210  26.186  1.00  0.00    -0.268 OA
ATOM      5  H   UNL A   1      38.557  22.569  25.000  1.00  0.00     0.163 HD
BRANCH   3   6
ATOM      6  C   UNL A   1      35.385  23.037  26.087  1.00  0.00     0.130 A 
ATOM      7  C   UNL A   1      33.372  24.206  26.165  1.00  0.00     0.129 A 
ATOM      8  C   UNL A   1      32.743  23.160  26.814  1.00  0.00     0.047 A 
ATOM      9  N   UNL A   1      34.665  24.150  25.819  1.00  0.00    -0.226 NA
ATOM     10  C   UNL A   1      33.449  21.983  27.024  1.00  0.00     0.006 A 
ATOM     11  C   UNL A   1      34.785  21.912  26.633  1.00  0.00     0.034 A 
BRANCH   7  12
ATOM     12  N   UNL A   1      32.705  25.366  25.866  1.00  0.00    -0.356 N 
ATOM     13  C   UNL A   1      30.902  27.909  23.715  1.00  0.00     0.177 C 
ATOM     14  C   UNL A   1      29.954  26.371  24.439  1.00  0.00     0.066 C 
ATOM     15  C   UNL A   1      32.843  27.936  23.887  1.00  0.00     0.066 C 
ATOM     16  C   UNL A   1      30.875  25.212  25.696  1.00  0.00     0.122 C 
ATOM     17  C   UNL A   1      33.687  26.752  25.176  1.00  0.00     0.122 C 
BRANCH  13  18
ATOM     18  O   UNL A   1      30.426  29.065  24.467  1.00  0.00    -0.486 OA
BRANCH  18  19
ATOM     19  C   UNL A   1      29.647  29.838  23.629  1.00  0.00     0.161 A 
ATOM     20  C   UNL A   1      29.514  31.210  23.875  1.00  0.00     0.160 A 
ATOM     21  C   UNL A   1      28.727  31.988  23.026  1.00  0.00     0.050 A 
ATOM     22  C   UNL A   1      28.109  31.394  21.924  1.00  0.00     0.004 A 
ATOM     23  C   UNL A   1      29.027  29.239  22.540  1.00  0.00     0.050 A 
ATOM     24  C   UNL A   1      28.261  30.026  21.679  1.00  0.00     0.004 A 
BRANCH  20  25
ATOM     25  O   UNL A   1      30.259  31.600  24.971  1.00  0.00    -0.493 OA
ATOM     26  C   UNL A   1      31.255  32.019  26.475  1.00  0.00     0.278 C 
ENDBRANCH  20  25
ENDBRANCH  18  19
ENDBRANCH  13  18
ENDBRANCH   7  12
ENDBRANCH   3   6
ENDBRANCH   1   2
BRANCH   1  27
ATOM     27  C   UNL A   1      38.087  19.934  25.009  1.00  0.00     0.042 C 
BRANCH  27  28
ATOM     28  C   UNL A   1      39.267  20.447  25.825  1.00  0.00     0.118 C 
BRANCH  28  29
ATOM     29  N   UNL A   1      40.252  19.391  26.044  1.00  0.00    -0.352 N 
ATOM     30  C   UNL A   1      41.617  19.478  26.139  1.00  0.00     0.251 C 
ATOM     31  H   UNL A   1      39.882  18.484  26.137  1.00  0.00     0.163 HD
ATOM     32  O   UNL A   1      42.304  18.471  26.002  1.00  0.00    -0.269 OA
BRANCH  30  33
ATOM     33  C   UNL A   1      42.240  20.784  26.417  1.00  0.00     0.039 A 
ATOM     34  C   UNL A   1      42.647  21.595  25.356  1.00  0.00     0.014 A 
ATOM     35  C   UNL A   1      42.436  21.192  27.738  1.00  0.00     0.014 A 
ATOM     36  C   UNL A   1      43.208  22.844  25.624  1.00  0.00     0.010 A 
ATOM     37  C   UNL A   1      42.896  22.471  28.001  1.00  0.00     0.010 A 
ATOM     38  C   UNL A   1      43.310  23.301  26.949  1.00  0.00    -0.014 A 
BRANCH  38  39
ATOM     39  C   UNL A   1      43.885  24.624  27.283  1.00  0.00     0.031 A 
ATOM     40  C   UNL A   1      42.968  25.737  27.712  1.00  0.00     0.074 A 
ATOM     41  C   UNL A   1      45.200  24.847  27.104  1.00  0.00     0.049 A 
ATOM     42  N   UNL A   1      43.238  26.999  27.915  1.00  0.00    -0.248 NA
ATOM     43  C   UNL A   1      41.549  25.388  27.898  1.00  0.00     0.031 C 
ATOM     44  C   UNL A   1      46.176  23.850  26.661  1.00  0.00     0.029 A 
ATOM     45  N   UNL A   1      45.940  25.991  27.257  1.00  0.00    -0.354 N 
ATOM     46  C   UNL A   1      42.022  27.597  28.224  1.00  0.00     0.074 A 
ATOM     47  C   UNL A   1      41.006  26.575  28.115  1.00  0.00     0.031 C 
ATOM     48  C   UNL A   1      47.390  24.420  26.605  1.00  0.00     0.029 A 
ATOM     49  C   UNL A   1      47.270  25.833  26.951  1.00  0.00     0.049 A 
ATOM     50  H   UNL A   1      45.554  26.846  27.556  1.00  0.00     0.167 HD
ATOM     51  C   UNL A   1      41.779  28.878  28.588  1.00  0.00     0.037 A 
ATOM     52  C   UNL A   1      48.274  26.730  26.940  1.00  0.00     0.037 A 
ATOM     53  C   UNL A   1      42.807  29.879  28.702  1.00  0.00     0.049 A 
ATOM     54  C   UNL A   1      47.980  28.156  27.318  1.00  0.00     0.074 A 
ATOM     55  C   UNL A   1      42.685  31.193  29.113  1.00  0.00     0.029 A 
ATOM     56  N   UNL A   1      44.146  29.677  28.394  1.00  0.00    -0.354 N 
ATOM     57  N   UNL A   1      46.836  28.699  27.661  1.00  0.00    -0.248 NA
ATOM     58  C   UNL A   1      49.113  29.091  27.311  1.00  0.00     0.031 C 
ATOM     59  C   UNL A   1      43.937  31.805  28.988  1.00  0.00     0.029 A 
ATOM     60  C   UNL A   1      44.856  30.851  28.578  1.00  0.00     0.049 A 
ATOM     61  H   UNL A   1      44.533  28.824  28.091  1.00  0.00     0.167 HD
ATOM     62  C   UNL A   1      47.118  30.028  27.956  1.00  0.00     0.074 A 
ATOM     63  C   UNL A   1      48.540  30.207  27.744  1.00  0.00     0.031 C 
ATOM     64  C   UNL A   1      46.277  31.007  28.375  1.00  0.00     0.037 A 
BRANCH  51  65
ATOM     65  C   UNL A   1      40.348  29.265  28.861  1.00  0.00     0.058 A 
ATOM     66  C   UNL A   1      39.420  29.468  27.825  1.00  0.00     0.135 A 
ATOM     67  C   UNL A   1      39.900  29.448  30.180  1.00  0.00     0.135 A 
ATOM     68  F   UNL A   1      39.791  29.321  26.543  1.00  0.00    -0.206 F 
ATOM     69  C   UNL A   1      38.120  29.892  28.084  1.00  0.00     0.059 A 
ATOM     70  C   UNL A   1      38.594  29.833  30.464  1.00  0.00     0.059 A 
ATOM     71  F   UNL A   1      40.740  29.266  31.211  1.00  0.00    -0.206 F 
ATOM     72  C   UNL A   1      37.718  30.077  29.407  1.00  0.00     0.060 A 
BRANCH  72  73
ATOM     73  S   UNL A   1      36.040  30.659  29.723  1.00  0.00     0.124 S 
ATOM     74  O   UNL A   1      35.704  29.928  30.941  1.00  0.00    -0.237 OA
ATOM     75  O   UNL A   1      36.235  32.097  29.881  1.00  0.00    -0.237 OA
ATOM     76  O   UNL A   1      35.307  30.255  28.527  1.00  0.00    -0.744 OA
ENDBRANCH  72  73
ENDBRANCH  51  65
BRANCH  52  77
ATOM     77  C   UNL A   1      49.653  26.285  26.600  1.00  0.00     0.058 A 
ATOM     78  C   UNL A   1      50.111  26.326  25.275  1.00  0.00     0.135 A 
ATOM     79  C   UNL A   1      50.553  25.862  27.590  1.00  0.00     0.135 A 
ATOM     80  F   UNL A   1      49.287  26.718  24.293  1.00  0.00    -0.206 F 
ATOM     81  C   UNL A   1      51.412  25.960  24.942  1.00  0.00     0.059 A 
ATOM     82  C   UNL A   1      51.866  25.517  27.286  1.00  0.00     0.059 A 
ATOM     83  F   UNL A   1      50.169  25.822  28.876  1.00  0.00    -0.206 F 
ATOM     84  C   UNL A   1      52.285  25.567  25.957  1.00  0.00     0.060 A 
BRANCH  84  85
ATOM     85  S   UNL A   1      53.991  25.172  25.519  1.00  0.00     0.124 S 
ATOM     86  O   UNL A   1      53.810  24.047  24.609  1.00  0.00    -0.237 OA
ATOM     87  O   UNL A   1      54.444  26.420  24.912  1.00  0.00    -0.237 OA
ATOM     88  O   UNL A   1      54.604  24.851  26.805  1.00  0.00    -0.744 OA
ENDBRANCH  84  85
ENDBRANCH  52  77
BRANCH  64  89
ATOM     89  C   UNL A   1      46.873  32.351  28.701  1.00  0.00     0.058 A 
ATOM     90  C   UNL A   1      47.353  32.666  29.981  1.00  0.00     0.135 A 
ATOM     91  C   UNL A   1      47.041  33.305  27.684  1.00  0.00     0.135 A 
ATOM     92  F   UNL A   1      47.210  31.795  30.991  1.00  0.00    -0.206 F 
ATOM     93  C   UNL A   1      47.969  33.886  30.243  1.00  0.00     0.059 A 
ATOM     94  C   UNL A   1      47.684  34.516  27.915  1.00  0.00     0.059 A 
ATOM     95  F   UNL A   1      46.607  33.050  26.438  1.00  0.00    -0.206 F 
ATOM     96  C   UNL A   1      48.139  34.800  29.200  1.00  0.00     0.060 A 
BRANCH  96  97
ATOM     97  S   UNL A   1      48.995  36.352  29.542  1.00  0.00     0.124 S 
ATOM     98  O   UNL A   1      48.410  37.239  28.543  1.00  0.00    -0.237 OA
ATOM     99  O   UNL A   1      48.614  36.617  30.926  1.00  0.00    -0.237 OA
ATOM    100  O   UNL A   1      50.401  36.017  29.338  1.00  0.00    -0.744 OA
ENDBRANCH  96  97
ENDBRANCH  64  89
ENDBRANCH  38  39
ENDBRANCH  30  33
ENDBRANCH  28  29
ENDBRANCH  27  28
ENDBRANCH   1  27
TORSDOF 17
ENDMDL
