MODEL 1
REMARK VINA RESULT:     -12.5      0.000      0.000
REMARK SMILES Nc1c(Nc2ncc(C(F)(F)F)cc2Cl)ncnc1N1CCC(C(=O)NCCCNC(=O)c2ccc(-c3c4nc(c(-c5c(F)cc(S(=O)(=O)[O-])cc5F)c5ccc([nH]5)c(-c5c(F)cc(S(=O)(=O)[O-])cc5F)c5nc(c(-c6c(F)cc(S(=O)(=O)[O-])cc6F)c6ccc3[nH]6)C=C5)C=C4)cc2)CC1
REMARK SMILES IDX 27 1 26 2 24 3 25 4 23 6 20 7 21 8 100 9 22 10 99 11 19 12
REMARK SMILES IDX 2 13 3 14 16 15 18 16 17 17 1 18 4 21 5 23 6 24 14 25 7 26
REMARK SMILES IDX 13 27 15 28 8 29 9 30 10 31 11 32 12 33 28 34 29 35 30 36
REMARK SMILES IDX 31 37 32 39 33 40 34 41 98 42 35 43 97 44 36 45 37 46 38 47
REMARK SMILES IDX 91 48 39 49 96 50 90 51 92 52 40 53 95 54 89 55 88 56 41 58
REMARK SMILES IDX 75 59 54 60 74 61 55 62 58 63 73 64 93 65 56 66 57 67 72 69
REMARK SMILES IDX 94 70 59 71 42 72 43 73 52 74 44 75 45 76 51 77 53 78 46 79
REMARK SMILES IDX 47 80 48 81 49 82 50 83 76 84 77 85 86 86 78 87 79 88 85 89
REMARK SMILES IDX 87 90 80 91 81 92 82 93 83 94 84 95 60 96 61 97 70 98 62 99
REMARK SMILES IDX 63 100 69 101 71 102 64 103 65 104 66 105 67 106 68 107
REMARK H PARENT 26 5 1 19 1 20 4 22 30 38 92 57 58 68
REMARK Flexibility Score: inf
ROOT
ATOM      1  C   UNL A   1      31.609  31.583  26.547  1.00  0.00     0.117 C 
ENDROOT
BRANCH   1   2
ATOM      2  N   UNL A   1      32.910  30.994  26.836  1.00  0.00    -0.356 N 
ATOM      3  C   UNL A   1      33.417  29.762  26.578  1.00  0.00     0.223 C 
ATOM      4  O   UNL A   1      34.564  29.523  26.967  1.00  0.00    -0.275 OA
ATOM      5  H   UNL A   1      33.531  31.597  27.304  1.00  0.00     0.163 HD
BRANCH   3   6
ATOM      6  C   UNL A   1      32.637  28.709  25.809  1.00  0.00     0.082 C 
ATOM      7  N   UNL A   1      31.953  26.008  25.191  1.00  0.00    -0.355 N 
ATOM      8  C   UNL A   1      32.758  26.744  24.226  1.00  0.00     0.119 C 
ATOM      9  C   UNL A   1      31.024  26.760  26.023  1.00  0.00     0.119 C 
ATOM     10  C   UNL A   1      33.534  27.865  24.900  1.00  0.00     0.035 C 
ATOM     11  C   UNL A   1      31.727  27.901  26.742  1.00  0.00     0.035 C 
BRANCH   7  12
ATOM     12  C   UNL A   1      32.441  24.788  25.655  1.00  0.00     0.157 A 
ATOM     13  C   UNL A   1      31.706  23.614  25.412  1.00  0.00     0.118 A 
ATOM     14  C   UNL A   1      32.296  22.414  25.833  1.00  0.00     0.160 A 
ATOM     15  N   UNL A   1      33.461  22.380  26.496  1.00  0.00    -0.217 NA
ATOM     16  N   UNL A   1      33.625  24.764  26.293  1.00  0.00    -0.217 NA
ATOM     17  C   UNL A   1      34.069  23.558  26.685  1.00  0.00     0.226 A 
BRANCH  13  18
ATOM     18  N   UNL A   1      30.544  23.613  24.612  1.00  0.00    -0.393 N 
ATOM     19  H   UNL A   1      29.666  23.434  25.020  1.00  0.00     0.156 HD
ATOM     20  H   UNL A   1      30.612  23.792  23.647  1.00  0.00     0.156 HD
ENDBRANCH  13  18
BRANCH  14  21
ATOM     21  N   UNL A   1      31.647  21.210  25.457  1.00  0.00    -0.322 N 
ATOM     22  H   UNL A   1      30.666  21.203  25.545  1.00  0.00     0.170 HD
BRANCH  21  23
ATOM     23  C   UNL A   1      32.225  20.036  24.980  1.00  0.00     0.150 A 
ATOM     24  N   UNL A   1      32.658  19.199  25.959  1.00  0.00    -0.237 NA
ATOM     25  C   UNL A   1      32.387  19.719  23.626  1.00  0.00     0.084 A 
ATOM     26  C   UNL A   1      33.158  17.995  25.598  1.00  0.00     0.126 A 
ATOM     27  C   UNL A   1      32.929  18.477  23.284  1.00  0.00     0.039 A 
ATOM     28  Cl  UNL A   1      32.078  20.834  22.343  1.00  0.00    -0.080 Cl
ATOM     29  C   UNL A   1      33.308  17.580  24.286  1.00  0.00     0.075 A 
BRANCH  29  30
ATOM     30  C   UNL A   1      33.877  16.227  23.997  1.00  0.00     0.417 C 
ATOM     31  F   UNL A   1      35.030  15.998  24.686  1.00  0.00    -0.166 F 
ATOM     32  F   UNL A   1      33.034  15.217  24.337  1.00  0.00    -0.166 F 
ATOM     33  F   UNL A   1      34.189  16.037  22.686  1.00  0.00    -0.166 F 
ENDBRANCH  29  30
ENDBRANCH  21  23
ENDBRANCH  14  21
ENDBRANCH   7  12
ENDBRANCH   3   6
ENDBRANCH   1   2
BRANCH   1  34
ATOM     34  C   UNL A   1      31.563  33.067  26.882  1.00  0.00     0.042 C 
BRANCH  34  35
ATOM     35  C   UNL A   1      32.868  33.598  27.458  1.00  0.00     0.118 C 
BRANCH  35  36
ATOM     36  N   UNL A   1      32.698  34.877  28.137  1.00  0.00    -0.352 N 
ATOM     37  C   UNL A   1      33.230  35.326  29.320  1.00  0.00     0.251 C 
ATOM     38  H   UNL A   1      32.111  35.518  27.674  1.00  0.00     0.163 HD
ATOM     39  O   UNL A   1      32.794  36.355  29.830  1.00  0.00    -0.269 OA
BRANCH  37  40
ATOM     40  C   UNL A   1      34.305  34.563  29.990  1.00  0.00     0.039 A 
ATOM     41  C   UNL A   1      35.597  34.606  29.462  1.00  0.00     0.014 A 
ATOM     42  C   UNL A   1      34.038  33.798  31.127  1.00  0.00     0.014 A 
ATOM     43  C   UNL A   1      36.633  33.940  30.120  1.00  0.00     0.010 A 
ATOM     44  C   UNL A   1      35.086  33.215  31.834  1.00  0.00     0.010 A 
ATOM     45  C   UNL A   1      36.393  33.270  31.331  1.00  0.00    -0.014 A 
BRANCH  45  46
ATOM     46  C   UNL A   1      37.496  32.605  32.069  1.00  0.00     0.031 A 
ATOM     47  C   UNL A   1      38.202  31.420  31.468  1.00  0.00     0.074 A 
ATOM     48  C   UNL A   1      37.838  33.047  33.295  1.00  0.00     0.049 A 
ATOM     49  N   UNL A   1      39.186  30.713  31.957  1.00  0.00    -0.248 NA
ATOM     50  C   UNL A   1      37.722  30.953  30.156  1.00  0.00     0.031 C 
ATOM     51  C   UNL A   1      37.191  34.151  34.006  1.00  0.00     0.029 A 
ATOM     52  N   UNL A   1      38.820  32.629  34.158  1.00  0.00    -0.354 N 
ATOM     53  C   UNL A   1      39.444  29.723  31.016  1.00  0.00     0.074 A 
ATOM     54  C   UNL A   1      38.465  29.873  29.964  1.00  0.00     0.031 C 
ATOM     55  C   UNL A   1      37.824  34.355  35.173  1.00  0.00     0.029 A 
ATOM     56  C   UNL A   1      38.899  33.377  35.308  1.00  0.00     0.049 A 
ATOM     57  H   UNL A   1      39.411  31.864  33.972  1.00  0.00     0.167 HD
ATOM     58  C   UNL A   1      40.430  28.795  31.010  1.00  0.00     0.037 A 
ATOM     59  C   UNL A   1      39.752  33.294  36.349  1.00  0.00     0.037 A 
ATOM     60  C   UNL A   1      41.417  28.666  32.048  1.00  0.00     0.049 A 
ATOM     61  C   UNL A   1      40.831  32.247  36.331  1.00  0.00     0.074 A 
ATOM     62  C   UNL A   1      42.488  27.792  32.112  1.00  0.00     0.029 A 
ATOM     63  N   UNL A   1      41.453  29.433  33.204  1.00  0.00    -0.354 N 
ATOM     64  N   UNL A   1      41.099  31.359  35.403  1.00  0.00    -0.248 NA
ATOM     65  C   UNL A   1      41.722  32.187  37.497  1.00  0.00     0.031 C 
ATOM     66  C   UNL A   1      43.151  28.006  33.325  1.00  0.00     0.029 A 
ATOM     67  C   UNL A   1      42.515  29.038  33.999  1.00  0.00     0.049 A 
ATOM     68  H   UNL A   1      40.817  30.150  33.426  1.00  0.00     0.167 HD
ATOM     69  C   UNL A   1      42.198  30.645  35.865  1.00  0.00     0.074 A 
ATOM     70  C   UNL A   1      42.553  31.212  37.151  1.00  0.00     0.031 C 
ATOM     71  C   UNL A   1      42.852  29.614  35.278  1.00  0.00     0.037 A 
BRANCH  58  72
ATOM     72  C   UNL A   1      40.499  27.868  29.829  1.00  0.00     0.058 A 
ATOM     73  C   UNL A   1      39.598  26.800  29.687  1.00  0.00     0.135 A 
ATOM     74  C   UNL A   1      41.462  28.051  28.824  1.00  0.00     0.135 A 
ATOM     75  F   UNL A   1      38.668  26.570  30.629  1.00  0.00    -0.206 F 
ATOM     76  C   UNL A   1      39.671  25.924  28.610  1.00  0.00     0.059 A 
ATOM     77  C   UNL A   1      41.536  27.202  27.723  1.00  0.00     0.059 A 
ATOM     78  F   UNL A   1      42.347  29.056  28.911  1.00  0.00    -0.206 F 
ATOM     79  C   UNL A   1      40.647  26.132  27.634  1.00  0.00     0.060 A 
BRANCH  79  80
ATOM     80  S   UNL A   1      40.735  24.977  26.250  1.00  0.00     0.124 S 
ATOM     81  O   UNL A   1      41.254  25.834  25.188  1.00  0.00    -0.237 OA
ATOM     82  O   UNL A   1      41.654  23.961  26.749  1.00  0.00    -0.237 OA
ATOM     83  O   UNL A   1      39.353  24.541  26.083  1.00  0.00    -0.744 OA
ENDBRANCH  79  80
ENDBRANCH  58  72
BRANCH  59  84
ATOM     84  C   UNL A   1      39.647  34.272  37.463  1.00  0.00     0.058 A 
ATOM     85  C   UNL A   1      38.990  33.930  38.654  1.00  0.00     0.135 A 
ATOM     86  C   UNL A   1      40.244  35.539  37.385  1.00  0.00     0.135 A 
ATOM     87  F   UNL A   1      38.399  32.732  38.773  1.00  0.00    -0.206 F 
ATOM     88  C   UNL A   1      38.932  34.807  39.732  1.00  0.00     0.059 A 
ATOM     89  C   UNL A   1      40.217  36.427  38.457  1.00  0.00     0.059 A 
ATOM     90  F   UNL A   1      40.897  35.908  36.272  1.00  0.00    -0.206 F 
ATOM     91  C   UNL A   1      39.558  36.051  39.627  1.00  0.00     0.060 A 
BRANCH  91  92
ATOM     92  S   UNL A   1      39.543  37.147  41.063  1.00  0.00     0.124 S 
ATOM     93  O   UNL A   1      38.809  36.346  42.037  1.00  0.00    -0.237 OA
ATOM     94  O   UNL A   1      40.969  37.322  41.326  1.00  0.00    -0.237 OA
ATOM     95  O   UNL A   1      38.852  38.334  40.573  1.00  0.00    -0.744 OA
ENDBRANCH  91  92
ENDBRANCH  59  84
BRANCH  71  96
ATOM     96  C   UNL A   1      44.022  29.020  36.010  1.00  0.00     0.058 A 
ATOM     97  C   UNL A   1      43.879  27.868  36.796  1.00  0.00     0.135 A 
ATOM     98  C   UNL A   1      45.314  29.542  35.834  1.00  0.00     0.135 A 
ATOM     99  F   UNL A   1      42.663  27.336  37.001  1.00  0.00    -0.206 F 
ATOM    100  C   UNL A   1      44.978  27.250  37.382  1.00  0.00     0.059 A 
ATOM    101  C   UNL A   1      46.430  28.928  36.393  1.00  0.00     0.059 A 
ATOM    102  F   UNL A   1      45.503  30.639  35.083  1.00  0.00    -0.206 F 
ATOM    103  C   UNL A   1      46.251  27.781  37.165  1.00  0.00     0.060 A 
BRANCH 103 104
ATOM    104  S   UNL A   1      47.674  26.920  37.867  1.00  0.00     0.124 S 
ATOM    105  O   UNL A   1      47.176  25.552  37.961  1.00  0.00    -0.237 OA
ATOM    106  O   UNL A   1      48.705  27.152  36.860  1.00  0.00    -0.237 OA
ATOM    107  O   UNL A   1      47.889  27.599  39.141  1.00  0.00    -0.744 OA
ENDBRANCH 103 104
ENDBRANCH  71  96
ENDBRANCH  45  46
ENDBRANCH  37  40
ENDBRANCH  35  36
ENDBRANCH  34  35
ENDBRANCH   1  34
TORSDOF 18
ENDMDL
MODEL 2
REMARK VINA RESULT:     -12.2      6.123     10.723
REMARK SMILES Nc1c(Nc2ncc(C(F)(F)F)cc2Cl)ncnc1N1CCC(C(=O)NCCCNC(=O)c2ccc(-c3c4nc(c(-c5c(F)cc(S(=O)(=O)[O-])cc5F)c5ccc([nH]5)c(-c5c(F)cc(S(=O)(=O)[O-])cc5F)c5nc(c(-c6c(F)cc(S(=O)(=O)[O-])cc6F)c6ccc3[nH]6)C=C5)C=C4)cc2)CC1
REMARK SMILES IDX 27 1 26 2 24 3 25 4 23 6 20 7 21 8 100 9 22 10 99 11 19 12
REMARK SMILES IDX 2 13 3 14 16 15 18 16 17 17 1 18 4 21 5 23 6 24 14 25 7 26
REMARK SMILES IDX 13 27 15 28 8 29 9 30 10 31 11 32 12 33 28 34 29 35 30 36
REMARK SMILES IDX 31 37 32 39 33 40 34 41 98 42 35 43 97 44 36 45 37 46 38 47
REMARK SMILES IDX 91 48 39 49 96 50 90 51 92 52 40 53 95 54 89 55 88 56 41 58
REMARK SMILES IDX 75 59 54 60 74 61 55 62 58 63 73 64 93 65 56 66 57 67 72 69
REMARK SMILES IDX 94 70 59 71 42 72 43 73 52 74 44 75 45 76 51 77 53 78 46 79
REMARK SMILES IDX 47 80 48 81 49 82 50 83 76 84 77 85 86 86 78 87 79 88 85 89
REMARK SMILES IDX 87 90 80 91 81 92 82 93 83 94 84 95 60 96 61 97 70 98 62 99
REMARK SMILES IDX 63 100 69 101 71 102 64 103 65 104 66 105 67 106 68 107
REMARK H PARENT 26 5 1 19 1 20 4 22 30 38 92 57 58 68
REMARK Flexibility Score: inf
ROOT
ATOM      1  C   UNL A   1      33.720  31.105  27.338  1.00  0.00     0.117 C 
ENDROOT
BRANCH   1   2
ATOM      2  N   UNL A   1      32.797  30.020  27.643  1.00  0.00    -0.356 N 
ATOM      3  C   UNL A   1      32.183  29.110  26.845  1.00  0.00     0.223 C 
ATOM      4  O   UNL A   1      31.417  28.304  27.381  1.00  0.00    -0.275 OA
ATOM      5  H   UNL A   1      32.579  29.933  28.599  1.00  0.00     0.163 HD
BRANCH   3   6
ATOM      6  C   UNL A   1      32.440  29.041  25.349  1.00  0.00     0.082 C 
ATOM      7  N   UNL A   1      32.901  27.615  22.920  1.00  0.00    -0.355 N 
ATOM      8  C   UNL A   1      34.027  28.315  23.522  1.00  0.00     0.119 C 
ATOM      9  C   UNL A   1      31.565  28.150  23.138  1.00  0.00     0.119 C 
ATOM     10  C   UNL A   1      33.830  28.487  25.020  1.00  0.00     0.035 C 
ATOM     11  C   UNL A   1      31.284  28.345  24.620  1.00  0.00     0.035 C 
BRANCH   7  12
ATOM     12  C   UNL A   1      33.049  26.256  22.644  1.00  0.00     0.157 A 
ATOM     13  C   UNL A   1      33.005  25.329  23.700  1.00  0.00     0.118 A 
ATOM     14  C   UNL A   1      33.077  23.976  23.342  1.00  0.00     0.160 A 
ATOM     15  N   UNL A   1      33.251  23.577  22.072  1.00  0.00    -0.217 NA
ATOM     16  N   UNL A   1      33.193  25.867  21.364  1.00  0.00    -0.217 NA
ATOM     17  C   UNL A   1      33.292  24.545  21.148  1.00  0.00     0.226 A 
BRANCH  13  18
ATOM     18  N   UNL A   1      32.702  25.717  25.022  1.00  0.00    -0.393 N 
ATOM     19  H   UNL A   1      32.369  26.625  25.204  1.00  0.00     0.156 HD
ATOM     20  H   UNL A   1      32.823  25.078  25.761  1.00  0.00     0.156 HD
ENDBRANCH  13  18
BRANCH  14  21
ATOM     21  N   UNL A   1      32.877  23.023  24.374  1.00  0.00    -0.322 N 
ATOM     22  H   UNL A   1      32.413  23.350  25.179  1.00  0.00     0.170 HD
BRANCH  21  23
ATOM     23  C   UNL A   1      33.255  21.684  24.389  1.00  0.00     0.150 A 
ATOM     24  N   UNL A   1      32.299  20.837  23.924  1.00  0.00    -0.237 NA
ATOM     25  C   UNL A   1      34.486  21.206  24.855  1.00  0.00     0.084 A 
ATOM     26  C   UNL A   1      32.602  19.522  23.820  1.00  0.00     0.126 A 
ATOM     27  C   UNL A   1      34.761  19.839  24.757  1.00  0.00     0.039 A 
ATOM     28  Cl  UNL A   1      35.643  22.194  25.674  1.00  0.00    -0.080 Cl
ATOM     29  C   UNL A   1      33.811  18.973  24.210  1.00  0.00     0.075 A 
BRANCH  29  30
ATOM     30  C   UNL A   1      34.041  17.503  24.056  1.00  0.00     0.417 C 
ATOM     31  F   UNL A   1      34.220  17.146  22.752  1.00  0.00    -0.166 F 
ATOM     32  F   UNL A   1      35.147  17.070  24.715  1.00  0.00    -0.166 F 
ATOM     33  F   UNL A   1      33.007  16.740  24.505  1.00  0.00    -0.166 F 
ENDBRANCH  29  30
ENDBRANCH  21  23
ENDBRANCH  14  21
ENDBRANCH   7  12
ENDBRANCH   3   6
ENDBRANCH   1   2
BRANCH   1  34
ATOM     34  C   UNL A   1      35.169  30.718  27.600  1.00  0.00     0.042 C 
BRANCH  34  35
ATOM     35  C   UNL A   1      35.851  31.593  28.643  1.00  0.00     0.118 C 
BRANCH  35  36
ATOM     36  N   UNL A   1      35.747  31.042  29.988  1.00  0.00    -0.352 N 
ATOM     37  C   UNL A   1      36.599  30.207  30.668  1.00  0.00     0.251 C 
ATOM     38  H   UNL A   1      34.940  31.310  30.486  1.00  0.00     0.163 HD
ATOM     39  O   UNL A   1      36.226  29.682  31.714  1.00  0.00    -0.269 OA
BRANCH  37  40
ATOM     40  C   UNL A   1      37.947  29.923  30.132  1.00  0.00     0.039 A 
ATOM     41  C   UNL A   1      39.036  29.911  31.007  1.00  0.00     0.014 A 
ATOM     42  C   UNL A   1      38.140  29.679  28.771  1.00  0.00     0.014 A 
ATOM     43  C   UNL A   1      40.304  29.584  30.523  1.00  0.00     0.010 A 
ATOM     44  C   UNL A   1      39.383  29.260  28.309  1.00  0.00     0.010 A 
ATOM     45  C   UNL A   1      40.482  29.220  29.179  1.00  0.00    -0.014 A 
BRANCH  45  46
ATOM     46  C   UNL A   1      41.815  28.815  28.665  1.00  0.00     0.031 A 
ATOM     47  C   UNL A   1      42.932  29.819  28.589  1.00  0.00     0.074 A 
ATOM     48  C   UNL A   1      42.008  27.553  28.235  1.00  0.00     0.049 A 
ATOM     49  N   UNL A   1      44.161  29.654  28.175  1.00  0.00    -0.248 NA
ATOM     50  C   UNL A   1      42.622  31.196  29.011  1.00  0.00     0.031 C 
ATOM     51  C   UNL A   1      40.986  26.504  28.208  1.00  0.00     0.029 A 
ATOM     52  N   UNL A   1      43.131  26.933  27.748  1.00  0.00    -0.354 N 
ATOM     53  C   UNL A   1      44.768  30.899  28.287  1.00  0.00     0.074 A 
ATOM     54  C   UNL A   1      43.754  31.827  28.736  1.00  0.00     0.031 C 
ATOM     55  C   UNL A   1      41.541  25.360  27.776  1.00  0.00     0.029 A 
ATOM     56  C   UNL A   1      42.948  25.600  27.466  1.00  0.00     0.049 A 
ATOM     57  H   UNL A   1      43.988  27.399  27.612  1.00  0.00     0.167 HD
ATOM     58  C   UNL A   1      46.062  31.234  28.072  1.00  0.00     0.037 A 
ATOM     59  C   UNL A   1      43.818  24.672  27.020  1.00  0.00     0.037 A 
ATOM     60  C   UNL A   1      47.073  30.302  27.649  1.00  0.00     0.049 A 
ATOM     61  C   UNL A   1      45.247  25.067  26.772  1.00  0.00     0.074 A 
ATOM     62  C   UNL A   1      48.423  30.529  27.451  1.00  0.00     0.029 A 
ATOM     63  N   UNL A   1      46.843  28.965  27.359  1.00  0.00    -0.354 N 
ATOM     64  N   UNL A   1      45.819  26.235  26.944  1.00  0.00    -0.248 NA
ATOM     65  C   UNL A   1      46.150  24.023  26.270  1.00  0.00     0.031 C 
ATOM     66  C   UNL A   1      49.004  29.337  27.006  1.00  0.00     0.029 A 
ATOM     67  C   UNL A   1      48.022  28.358  26.962  1.00  0.00     0.049 A 
ATOM     68  H   UNL A   1      45.970  28.515  27.424  1.00  0.00     0.167 HD
ATOM     69  C   UNL A   1      47.151  26.064  26.586  1.00  0.00     0.074 A 
ATOM     70  C   UNL A   1      47.304  24.676  26.199  1.00  0.00     0.031 C 
ATOM     71  C   UNL A   1      48.155  26.975  26.579  1.00  0.00     0.037 A 
BRANCH  58  72
ATOM     72  C   UNL A   1      46.456  32.664  28.317  1.00  0.00     0.058 A 
ATOM     73  C   UNL A   1      46.392  33.624  27.294  1.00  0.00     0.135 A 
ATOM     74  C   UNL A   1      46.889  33.085  29.584  1.00  0.00     0.135 A 
ATOM     75  F   UNL A   1      46.000  33.270  26.058  1.00  0.00    -0.206 F 
ATOM     76  C   UNL A   1      46.778  34.942  27.507  1.00  0.00     0.059 A 
ATOM     77  C   UNL A   1      47.254  34.406  29.827  1.00  0.00     0.059 A 
ATOM     78  F   UNL A   1      46.970  32.208  30.597  1.00  0.00    -0.206 F 
ATOM     79  C   UNL A   1      47.211  35.323  28.778  1.00  0.00     0.060 A 
BRANCH  79  80
ATOM     80  S   UNL A   1      47.719  37.036  29.032  1.00  0.00     0.124 S 
ATOM     81  O   UNL A   1      47.258  37.278  30.396  1.00  0.00    -0.237 OA
ATOM     82  O   UNL A   1      49.165  36.962  28.858  1.00  0.00    -0.237 OA
ATOM     83  O   UNL A   1      47.001  37.762  27.990  1.00  0.00    -0.744 OA
ENDBRANCH  79  80
ENDBRANCH  58  72
BRANCH  59  84
ATOM     84  C   UNL A   1      43.364  23.268  26.840  1.00  0.00     0.058 A 
ATOM     85  C   UNL A   1      43.173  22.740  25.555  1.00  0.00     0.135 A 
ATOM     86  C   UNL A   1      43.168  22.414  27.935  1.00  0.00     0.135 A 
ATOM     87  F   UNL A   1      43.344  23.520  24.477  1.00  0.00    -0.206 F 
ATOM     88  C   UNL A   1      42.809  21.412  25.360  1.00  0.00     0.059 A 
ATOM     89  C   UNL A   1      42.822  21.076  27.765  1.00  0.00     0.059 A 
ATOM     90  F   UNL A   1      43.353  22.868  29.184  1.00  0.00    -0.206 F 
ATOM     91  C   UNL A   1      42.644  20.585  26.473  1.00  0.00     0.060 A 
BRANCH  91  92
ATOM     92  S   UNL A   1      42.249  18.843  26.201  1.00  0.00     0.124 S 
ATOM     93  O   UNL A   1      42.450  18.284  27.533  1.00  0.00    -0.237 OA
ATOM     94  O   UNL A   1      40.865  18.914  25.740  1.00  0.00    -0.237 OA
ATOM     95  O   UNL A   1      43.219  18.432  25.191  1.00  0.00    -0.744 OA
ENDBRANCH  91  92
ENDBRANCH  59  84
BRANCH  71  96
ATOM     96  C   UNL A   1      49.515  26.512  26.139  1.00  0.00     0.058 A 
ATOM     97  C   UNL A   1      49.956  26.700  24.821  1.00  0.00     0.135 A 
ATOM     98  C   UNL A   1      50.423  25.980  27.069  1.00  0.00     0.135 A 
ATOM     99  F   UNL A   1      49.122  27.197  23.894  1.00  0.00    -0.206 F 
ATOM    100  C   UNL A   1      51.253  26.377  24.439  1.00  0.00     0.059 A 
ATOM    101  C   UNL A   1      51.731  25.671  26.714  1.00  0.00     0.059 A 
ATOM    102  F   UNL A   1      50.050  25.790  28.345  1.00  0.00    -0.206 F 
ATOM    103  C   UNL A   1      52.138  25.874  25.395  1.00  0.00     0.060 A 
BRANCH 103 104
ATOM    104  S   UNL A   1      53.841  25.537  24.901  1.00  0.00     0.124 S 
ATOM    105  O   UNL A   1      54.590  26.095  26.021  1.00  0.00    -0.237 OA
ATOM    106  O   UNL A   1      53.850  24.081  24.794  1.00  0.00    -0.237 OA
ATOM    107  O   UNL A   1      53.976  26.252  23.635  1.00  0.00    -0.744 OA
ENDBRANCH 103 104
ENDBRANCH  71  96
ENDBRANCH  45  46
ENDBRANCH  37  40
ENDBRANCH  35  36
ENDBRANCH  34  35
ENDBRANCH   1  34
TORSDOF 18
ENDMDL
MODEL 3
REMARK VINA RESULT:     -12.1      0.937      8.025
REMARK SMILES Nc1c(Nc2ncc(C(F)(F)F)cc2Cl)ncnc1N1CCC(C(=O)NCCCNC(=O)c2ccc(-c3c4nc(c(-c5c(F)cc(S(=O)(=O)[O-])cc5F)c5ccc([nH]5)c(-c5c(F)cc(S(=O)(=O)[O-])cc5F)c5nc(c(-c6c(F)cc(S(=O)(=O)[O-])cc6F)c6ccc3[nH]6)C=C5)C=C4)cc2)CC1
REMARK SMILES IDX 27 1 26 2 24 3 25 4 23 6 20 7 21 8 100 9 22 10 99 11 19 12
REMARK SMILES IDX 2 13 3 14 16 15 18 16 17 17 1 18 4 21 5 23 6 24 14 25 7 26
REMARK SMILES IDX 13 27 15 28 8 29 9 30 10 31 11 32 12 33 28 34 29 35 30 36
REMARK SMILES IDX 31 37 32 39 33 40 34 41 98 42 35 43 97 44 36 45 37 46 38 47
REMARK SMILES IDX 91 48 39 49 96 50 90 51 92 52 40 53 95 54 89 55 88 56 41 58
REMARK SMILES IDX 75 59 54 60 74 61 55 62 58 63 73 64 93 65 56 66 57 67 72 69
REMARK SMILES IDX 94 70 59 71 42 72 43 73 52 74 44 75 45 76 51 77 53 78 46 79
REMARK SMILES IDX 47 80 48 81 49 82 50 83 76 84 77 85 86 86 78 87 79 88 85 89
REMARK SMILES IDX 87 90 80 91 81 92 82 93 83 94 84 95 60 96 61 97 70 98 62 99
REMARK SMILES IDX 63 100 69 101 71 102 64 103 65 104 66 105 67 106 68 107
REMARK H PARENT 26 5 1 19 1 20 4 22 30 38 92 57 58 68
REMARK Flexibility Score: inf
ROOT
ATOM      1  C   UNL A   1      31.576  31.311  26.527  1.00  0.00     0.117 C 
ENDROOT
BRANCH   1   2
ATOM      2  N   UNL A   1      32.705  30.618  27.135  1.00  0.00    -0.356 N 
ATOM      3  C   UNL A   1      33.252  29.400  26.887  1.00  0.00     0.223 C 
ATOM      4  O   UNL A   1      34.208  29.051  27.586  1.00  0.00    -0.275 OA
ATOM      5  H   UNL A   1      33.148  31.122  27.854  1.00  0.00     0.163 HD
BRANCH   3   6
ATOM      6  C   UNL A   1      32.750  28.498  25.773  1.00  0.00     0.082 C 
ATOM      7  N   UNL A   1      31.966  25.962  24.724  1.00  0.00    -0.355 N 
ATOM      8  C   UNL A   1      33.246  26.509  24.297  1.00  0.00     0.119 C 
ATOM      9  C   UNL A   1      30.906  26.895  25.079  1.00  0.00     0.119 C 
ATOM     10  C   UNL A   1      33.802  27.477  25.329  1.00  0.00     0.035 C 
ATOM     11  C   UNL A   1      31.382  27.899  26.119  1.00  0.00     0.035 C 
BRANCH   7  12
ATOM     12  C   UNL A   1      31.953  24.682  25.277  1.00  0.00     0.157 A 
ATOM     13  C   UNL A   1      31.903  23.565  24.425  1.00  0.00     0.118 A 
ATOM     14  C   UNL A   1      31.978  22.309  25.044  1.00  0.00     0.160 A 
ATOM     15  N   UNL A   1      32.020  22.166  26.377  1.00  0.00    -0.217 NA
ATOM     16  N   UNL A   1      32.026  24.552  26.614  1.00  0.00    -0.217 NA
ATOM     17  C   UNL A   1      32.050  23.298  27.093  1.00  0.00     0.226 A 
BRANCH  13  18
ATOM     18  N   UNL A   1      31.982  23.691  23.023  1.00  0.00    -0.393 N 
ATOM     19  H   UNL A   1      31.995  24.583  22.609  1.00  0.00     0.156 HD
ATOM     20  H   UNL A   1      32.023  22.885  22.458  1.00  0.00     0.156 HD
ENDBRANCH  13  18
BRANCH  14  21
ATOM     21  N   UNL A   1      32.088  21.177  24.196  1.00  0.00    -0.322 N 
ATOM     22  H   UNL A   1      31.612  21.234  23.335  1.00  0.00     0.170 HD
BRANCH  21  23
ATOM     23  C   UNL A   1      32.786  19.995  24.429  1.00  0.00     0.150 A 
ATOM     24  N   UNL A   1      31.987  18.909  24.600  1.00  0.00    -0.237 NA
ATOM     25  C   UNL A   1      34.181  19.894  24.510  1.00  0.00     0.084 A 
ATOM     26  C   UNL A   1      32.574  17.699  24.748  1.00  0.00     0.126 A 
ATOM     27  C   UNL A   1      34.756  18.633  24.688  1.00  0.00     0.039 A 
ATOM     28  Cl  UNL A   1      35.235  21.262  24.539  1.00  0.00    -0.080 Cl
ATOM     29  C   UNL A   1      33.943  17.502  24.791  1.00  0.00     0.075 A 
BRANCH  29  30
ATOM     30  C   UNL A   1      34.487  16.119  24.963  1.00  0.00     0.417 C 
ATOM     31  F   UNL A   1      34.870  15.567  23.776  1.00  0.00    -0.166 F 
ATOM     32  F   UNL A   1      35.585  16.080  25.762  1.00  0.00    -0.166 F 
ATOM     33  F   UNL A   1      33.593  15.245  25.502  1.00  0.00    -0.166 F 
ENDBRANCH  29  30
ENDBRANCH  21  23
ENDBRANCH  14  21
ENDBRANCH   7  12
ENDBRANCH   3   6
ENDBRANCH   1   2
BRANCH   1  34
ATOM     34  C   UNL A   1      31.599  32.806  26.813  1.00  0.00     0.042 C 
BRANCH  34  35
ATOM     35  C   UNL A   1      32.916  33.289  27.404  1.00  0.00     0.118 C 
BRANCH  35  36
ATOM     36  N   UNL A   1      32.793  34.592  28.046  1.00  0.00    -0.352 N 
ATOM     37  C   UNL A   1      33.427  35.091  29.158  1.00  0.00     0.251 C 
ATOM     38  H   UNL A   1      32.158  35.210  27.617  1.00  0.00     0.163 HD
ATOM     39  O   UNL A   1      33.026  36.135  29.667  1.00  0.00    -0.269 OA
BRANCH  37  40
ATOM     40  C   UNL A   1      34.567  34.363  29.754  1.00  0.00     0.039 A 
ATOM     41  C   UNL A   1      35.847  34.563  29.232  1.00  0.00     0.014 A 
ATOM     42  C   UNL A   1      34.376  33.478  30.817  1.00  0.00     0.014 A 
ATOM     43  C   UNL A   1      36.941  33.929  29.824  1.00  0.00     0.010 A 
ATOM     44  C   UNL A   1      35.474  32.923  31.466  1.00  0.00     0.010 A 
ATOM     45  C   UNL A   1      36.768  33.134  30.969  1.00  0.00    -0.014 A 
BRANCH  45  46
ATOM     46  C   UNL A   1      37.929  32.500  31.642  1.00  0.00     0.031 A 
ATOM     47  C   UNL A   1      38.432  33.041  32.953  1.00  0.00     0.074 A 
ATOM     48  C   UNL A   1      38.551  31.458  31.056  1.00  0.00     0.049 A 
ATOM     49  N   UNL A   1      39.425  32.620  33.691  1.00  0.00    -0.248 NA
ATOM     50  C   UNL A   1      37.743  34.225  33.494  1.00  0.00     0.031 C 
ATOM     51  C   UNL A   1      38.191  30.879  29.760  1.00  0.00     0.029 A 
ATOM     52  N   UNL A   1      39.611  30.694  31.476  1.00  0.00    -0.354 N 
ATOM     53  C   UNL A   1      39.480  33.484  34.778  1.00  0.00     0.074 A 
ATOM     54  C   UNL A   1      38.470  34.496  34.567  1.00  0.00     0.031 C 
ATOM     55  C   UNL A   1      38.983  29.822  29.515  1.00  0.00     0.029 A 
ATOM     56  C   UNL A   1      39.926  29.667  30.618  1.00  0.00     0.049 A 
ATOM     57  H   UNL A   1      40.101  30.865  32.313  1.00  0.00     0.167 HD
ATOM     58  C   UNL A   1      40.274  33.418  35.873  1.00  0.00     0.037 A 
ATOM     59  C   UNL A   1      40.860  28.701  30.716  1.00  0.00     0.037 A 
ATOM     60  C   UNL A   1      41.261  32.395  36.090  1.00  0.00     0.049 A 
ATOM     61  C   UNL A   1      41.744  28.655  31.932  1.00  0.00     0.074 A 
ATOM     62  C   UNL A   1      42.082  32.210  37.188  1.00  0.00     0.029 A 
ATOM     63  N   UNL A   1      41.560  31.383  35.189  1.00  0.00    -0.354 N 
ATOM     64  N   UNL A   1      41.739  29.443  32.981  1.00  0.00    -0.248 NA
ATOM     65  C   UNL A   1      42.758  27.594  31.980  1.00  0.00     0.031 C 
ATOM     66  C   UNL A   1      42.904  31.107  36.936  1.00  0.00     0.029 A 
ATOM     67  C   UNL A   1      42.568  30.582  35.697  1.00  0.00     0.049 A 
ATOM     68  H   UNL A   1      41.121  31.254  34.318  1.00  0.00     0.167 HD
ATOM     69  C   UNL A   1      42.737  28.964  33.821  1.00  0.00     0.074 A 
ATOM     70  C   UNL A   1      43.318  27.811  33.164  1.00  0.00     0.031 C 
ATOM     71  C   UNL A   1      43.135  29.438  35.027  1.00  0.00     0.037 A 
BRANCH  58  72
ATOM     72  C   UNL A   1      40.085  34.473  36.927  1.00  0.00     0.058 A 
ATOM     73  C   UNL A   1      40.861  35.643  36.936  1.00  0.00     0.135 A 
ATOM     74  C   UNL A   1      39.113  34.323  37.930  1.00  0.00     0.135 A 
ATOM     75  F   UNL A   1      41.816  35.829  36.010  1.00  0.00    -0.206 F 
ATOM     76  C   UNL A   1      40.708  36.611  37.922  1.00  0.00     0.059 A 
ATOM     77  C   UNL A   1      38.924  35.293  38.911  1.00  0.00     0.059 A 
ATOM     78  F   UNL A   1      38.344  33.224  37.968  1.00  0.00    -0.206 F 
ATOM     79  C   UNL A   1      39.737  36.425  38.908  1.00  0.00     0.060 A 
BRANCH  79  80
ATOM     80  S   UNL A   1      39.562  37.686  40.187  1.00  0.00     0.124 S 
ATOM     81  O   UNL A   1      40.603  38.636  39.804  1.00  0.00    -0.237 OA
ATOM     82  O   UNL A   1      38.189  38.139  39.993  1.00  0.00    -0.237 OA
ATOM     83  O   UNL A   1      39.809  36.953  41.424  1.00  0.00    -0.744 OA
ENDBRANCH  79  80
ENDBRANCH  58  72
BRANCH  59  84
ATOM     84  C   UNL A   1      40.962  27.668  29.652  1.00  0.00     0.058 A 
ATOM     85  C   UNL A   1      42.050  27.659  28.767  1.00  0.00     0.135 A 
ATOM     86  C   UNL A   1      40.012  26.643  29.531  1.00  0.00     0.135 A 
ATOM     87  F   UNL A   1      42.981  28.622  28.840  1.00  0.00    -0.206 F 
ATOM     88  C   UNL A   1      42.198  26.668  27.803  1.00  0.00     0.059 A 
ATOM     89  C   UNL A   1      40.147  25.629  28.587  1.00  0.00     0.059 A 
ATOM     90  F   UNL A   1      38.960  26.600  30.363  1.00  0.00    -0.206 F 
ATOM     91  C   UNL A   1      41.244  25.650  27.727  1.00  0.00     0.060 A 
BRANCH  91  92
ATOM     92  S   UNL A   1      41.491  24.326  26.524  1.00  0.00     0.124 S 
ATOM     93  O   UNL A   1      42.167  25.033  25.442  1.00  0.00    -0.237 OA
ATOM     94  O   UNL A   1      42.308  23.379  27.277  1.00  0.00    -0.237 OA
ATOM     95  O   UNL A   1      40.132  23.878  26.233  1.00  0.00    -0.744 OA
ENDBRANCH  91  92
ENDBRANCH  59  84
BRANCH  71  96
ATOM     96  C   UNL A   1      44.254  28.719  35.726  1.00  0.00     0.058 A 
ATOM     97  C   UNL A   1      45.590  29.109  35.552  1.00  0.00     0.135 A 
ATOM     98  C   UNL A   1      43.979  27.707  36.660  1.00  0.00     0.135 A 
ATOM     99  F   UNL A   1      45.904  30.065  34.664  1.00  0.00    -0.206 F 
ATOM    100  C   UNL A   1      46.616  28.522  36.282  1.00  0.00     0.059 A 
ATOM    101  C   UNL A   1      44.987  27.122  37.417  1.00  0.00     0.059 A 
ATOM    102  F   UNL A   1      42.714  27.306  36.868  1.00  0.00    -0.206 F 
ATOM    103  C   UNL A   1      46.304  27.536  37.222  1.00  0.00     0.060 A 
BRANCH 103 104
ATOM    104  S   UNL A   1      47.639  26.842  38.219  1.00  0.00     0.124 S 
ATOM    105  O   UNL A   1      48.704  27.817  38.008  1.00  0.00    -0.237 OA
ATOM    106  O   UNL A   1      47.052  26.824  39.555  1.00  0.00    -0.237 OA
ATOM    107  O   UNL A   1      47.863  25.529  37.622  1.00  0.00    -0.744 OA
ENDBRANCH 103 104
ENDBRANCH  71  96
ENDBRANCH  45  46
ENDBRANCH  37  40
ENDBRANCH  35  36
ENDBRANCH  34  35
ENDBRANCH   1  34
TORSDOF 18
ENDMDL
