MODEL 1
REMARK VINA RESULT:     -11.6      0.000      0.000
REMARK SMILES CC1(C)[C@H](C(=O)NCCCNC(=O)c2ccc(-c3c4nc(c(-c5c(F)cc(S(=O)(=O)[O-])cc5F)c5ccc([nH]5)c(-c5c(F)cc(S(=O)(=O)[O-])cc5F)c5nc(c(-c6c(F)cc(S(=O)(=O)[O-])cc6F)c6ccc3[nH]6)C=C5)C=C4)cc2)[C@H]1C(=O)Nc1cccc2[nH]ccc12
REMARK SMILES IDX 9 1 8 2 7 3 5 4 6 5 4 7 1 8 2 9 3 10 80 11 81 12 82 13 83 14
REMARK SMILES IDX 84 16 85 17 92 18 86 19 88 20 91 21 87 22 89 23 90 24 10 26
REMARK SMILES IDX 11 27 12 28 13 30 14 31 15 32 79 33 16 34 78 35 17 36 18 37
REMARK SMILES IDX 19 38 72 39 20 40 77 41 71 42 73 43 21 44 76 45 70 46 69 47
REMARK SMILES IDX 22 49 56 50 35 51 55 52 36 53 39 54 54 55 74 56 37 57 38 58
REMARK SMILES IDX 53 60 75 61 40 62 23 63 24 64 33 65 25 66 26 67 32 68 34 69
REMARK SMILES IDX 27 70 28 71 29 72 30 73 31 74 57 75 58 76 67 77 59 78 60 79
REMARK SMILES IDX 66 80 68 81 61 82 62 83 63 84 64 85 65 86 41 87 42 88 51 89
REMARK SMILES IDX 43 90 44 91 50 92 52 93 45 94 46 95 47 96 48 97 49 98
REMARK H PARENT 7 6 83 15 89 25 11 29 73 48 39 59
REMARK Flexibility Score: inf
ROOT
ATOM      1  C   UNL A   1      34.259  28.228  25.274  1.00  0.00     0.042 C 
ENDROOT
BRANCH   1   2
ATOM      2  C   UNL A   1      33.304  28.693  24.178  1.00  0.00     0.117 C 
BRANCH   2   3
ATOM      3  N   UNL A   1      33.474  27.936  22.961  1.00  0.00    -0.356 N 
ATOM      4  C   UNL A   1      33.309  26.628  22.614  1.00  0.00     0.224 C 
ATOM      5  O   UNL A   1      33.544  26.372  21.428  1.00  0.00    -0.275 OA
ATOM      6  H   UNL A   1      33.780  28.492  22.208  1.00  0.00     0.163 HD
BRANCH   4   7
ATOM      7  C   UNL A   1      32.872  25.490  23.467  1.00  0.00     0.098 C 
ATOM      8  C   UNL A   1      31.451  23.405  23.430  1.00  0.00     0.013 C 
ATOM      9  C   UNL A   1      32.822  23.983  23.187  1.00  0.00    -0.011 C 
ATOM     10  C   UNL A   1      33.551  23.099  22.214  1.00  0.00     0.013 C 
ATOM     11  C   UNL A   1      33.749  24.592  24.258  1.00  0.00     0.098 C 
BRANCH  11  12
ATOM     12  C   UNL A   1      33.724  24.190  25.697  1.00  0.00     0.228 C 
ATOM     13  O   UNL A   1      32.804  24.642  26.382  1.00  0.00    -0.274 OA
ATOM     14  N   UNL A   1      34.466  23.160  26.225  1.00  0.00    -0.325 N 
ATOM     15  H   UNL A   1      33.982  22.573  26.848  1.00  0.00     0.169 HD
BRANCH  14  16
ATOM     16  C   UNL A   1      35.803  22.822  26.007  1.00  0.00     0.050 A 
ATOM     17  C   UNL A   1      36.764  23.830  26.139  1.00  0.00     0.027 A 
ATOM     18  C   UNL A   1      36.210  21.566  25.501  1.00  0.00     0.023 A 
ATOM     19  C   UNL A   1      38.120  23.544  25.987  1.00  0.00     0.004 A 
ATOM     20  C   UNL A   1      37.577  21.288  25.430  1.00  0.00     0.047 A 
ATOM     21  C   UNL A   1      35.546  20.430  24.947  1.00  0.00     0.030 A 
ATOM     22  C   UNL A   1      38.556  22.250  25.694  1.00  0.00     0.027 A 
ATOM     23  N   UNL A   1      37.706  19.958  25.093  1.00  0.00    -0.361 N 
ATOM     24  C   UNL A   1      36.485  19.442  24.750  1.00  0.00     0.083 A 
ATOM     25  H   UNL A   1      38.551  19.453  25.099  1.00  0.00     0.166 HD
ENDBRANCH  14  16
ENDBRANCH  11  12
ENDBRANCH   4   7
ENDBRANCH   2   3
ENDBRANCH   1   2
BRANCH   1  26
ATOM     26  C   UNL A   1      33.689  28.318  26.683  1.00  0.00     0.118 C 
BRANCH  26  27
ATOM     27  N   UNL A   1      33.516  29.693  27.123  1.00  0.00    -0.352 N 
ATOM     28  C   UNL A   1      34.327  30.495  27.888  1.00  0.00     0.251 C 
ATOM     29  H   UNL A   1      32.680  30.119  26.825  1.00  0.00     0.163 HD
ATOM     30  O   UNL A   1      33.871  31.545  28.336  1.00  0.00    -0.269 OA
BRANCH  28  31
ATOM     31  C   UNL A   1      35.728  30.115  28.185  1.00  0.00     0.039 A 
ATOM     32  C   UNL A   1      36.688  30.226  27.173  1.00  0.00     0.014 A 
ATOM     33  C   UNL A   1      36.094  29.590  29.427  1.00  0.00     0.014 A 
ATOM     34  C   UNL A   1      38.014  29.859  27.422  1.00  0.00     0.010 A 
ATOM     35  C   UNL A   1      37.431  29.308  29.701  1.00  0.00     0.010 A 
ATOM     36  C   UNL A   1      38.404  29.422  28.698  1.00  0.00    -0.014 A 
BRANCH  36  37
ATOM     37  C   UNL A   1      39.809  29.042  28.999  1.00  0.00     0.031 A 
ATOM     38  C   UNL A   1      40.747  30.057  29.601  1.00  0.00     0.074 A 
ATOM     39  C   UNL A   1      40.258  27.812  28.677  1.00  0.00     0.049 A 
ATOM     40  N   UNL A   1      42.032  29.964  29.829  1.00  0.00    -0.248 NA
ATOM     41  C   UNL A   1      40.168  31.360  29.969  1.00  0.00     0.031 C 
ATOM     42  C   UNL A   1      39.458  26.752  28.060  1.00  0.00     0.029 A 
ATOM     43  N   UNL A   1      41.503  27.248  28.812  1.00  0.00    -0.354 N 
ATOM     44  C   UNL A   1      42.415  31.196  30.350  1.00  0.00     0.074 A 
ATOM     45  C   UNL A   1      41.239  32.038  30.352  1.00  0.00     0.031 C 
ATOM     46  C   UNL A   1      40.225  25.663  27.887  1.00  0.00     0.029 A 
ATOM     47  C   UNL A   1      41.580  25.958  28.339  1.00  0.00     0.049 A 
ATOM     48  H   UNL A   1      42.269  27.724  29.209  1.00  0.00     0.167 HD
ATOM     49  C   UNL A   1      43.629  31.581  30.810  1.00  0.00     0.037 A 
ATOM     50  C   UNL A   1      42.629  25.115  28.268  1.00  0.00     0.037 A 
ATOM     51  C   UNL A   1      44.786  30.725  30.838  1.00  0.00     0.049 A 
ATOM     52  C   UNL A   1      43.971  25.571  28.777  1.00  0.00     0.074 A 
ATOM     53  C   UNL A   1      46.054  31.009  31.317  1.00  0.00     0.029 A 
ATOM     54  N   UNL A   1      44.815  29.418  30.378  1.00  0.00    -0.354 N 
ATOM     55  N   UNL A   1      44.305  26.728  29.299  1.00  0.00    -0.248 NA
ATOM     56  C   UNL A   1      45.078  24.608  28.693  1.00  0.00     0.031 C 
ATOM     57  C   UNL A   1      46.858  29.881  31.116  1.00  0.00     0.029 A 
ATOM     58  C   UNL A   1      46.079  28.883  30.554  1.00  0.00     0.049 A 
ATOM     59  H   UNL A   1      44.049  28.941  29.984  1.00  0.00     0.167 HD
ATOM     60  C   UNL A   1      45.649  26.617  29.639  1.00  0.00     0.074 A 
ATOM     61  C   UNL A   1      46.064  25.281  29.269  1.00  0.00     0.031 C 
ATOM     62  C   UNL A   1      46.466  27.539  30.206  1.00  0.00     0.037 A 
BRANCH  49  63
ATOM     63  C   UNL A   1      43.766  32.982  31.343  1.00  0.00     0.058 A 
ATOM     64  C   UNL A   1      43.578  33.270  32.704  1.00  0.00     0.135 A 
ATOM     65  C   UNL A   1      44.140  34.038  30.496  1.00  0.00     0.135 A 
ATOM     66  F   UNL A   1      43.204  32.302  33.555  1.00  0.00    -0.206 F 
ATOM     67  C   UNL A   1      43.737  34.559  33.204  1.00  0.00     0.059 A 
ATOM     68  C   UNL A   1      44.332  35.329  30.980  1.00  0.00     0.059 A 
ATOM     69  F   UNL A   1      44.330  33.820  29.185  1.00  0.00    -0.206 F 
ATOM     70  C   UNL A   1      44.116  35.581  32.334  1.00  0.00     0.060 A 
BRANCH  70  71
ATOM     71  S   UNL A   1      44.340  37.242  33.006  1.00  0.00     0.124 S 
ATOM     72  O   UNL A   1      43.162  37.372  33.859  1.00  0.00    -0.237 OA
ATOM     73  O   UNL A   1      45.617  37.127  33.704  1.00  0.00    -0.237 OA
ATOM     74  O   UNL A   1      44.351  38.091  31.818  1.00  0.00    -0.744 OA
ENDBRANCH  70  71
ENDBRANCH  49  63
BRANCH  50  75
ATOM     75  C   UNL A   1      42.457  23.747  27.707  1.00  0.00     0.058 A 
ATOM     76  C   UNL A   1      42.333  22.633  28.551  1.00  0.00     0.135 A 
ATOM     77  C   UNL A   1      42.433  23.522  26.323  1.00  0.00     0.135 A 
ATOM     78  F   UNL A   1      42.354  22.795  29.883  1.00  0.00    -0.206 F 
ATOM     79  C   UNL A   1      42.225  21.342  28.045  1.00  0.00     0.059 A 
ATOM     80  C   UNL A   1      42.299  22.243  25.792  1.00  0.00     0.059 A 
ATOM     81  F   UNL A   1      42.528  24.554  25.471  1.00  0.00    -0.206 F 
ATOM     82  C   UNL A   1      42.212  21.157  26.662  1.00  0.00     0.060 A 
BRANCH  82  83
ATOM     83  S   UNL A   1      42.059  19.479  26.012  1.00  0.00     0.124 S 
ATOM     84  O   UNL A   1      42.557  18.686  27.130  1.00  0.00    -0.237 OA
ATOM     85  O   UNL A   1      40.628  19.381  25.747  1.00  0.00    -0.237 OA
ATOM     86  O   UNL A   1      42.910  19.501  24.825  1.00  0.00    -0.744 OA
ENDBRANCH  82  83
ENDBRANCH  50  75
BRANCH  62  87
ATOM     87  C   UNL A   1      47.876  27.121  30.516  1.00  0.00     0.058 A 
ATOM     88  C   UNL A   1      48.949  27.465  29.681  1.00  0.00     0.135 A 
ATOM     89  C   UNL A   1      48.161  26.423  31.700  1.00  0.00     0.135 A 
ATOM     90  F   UNL A   1      48.729  28.126  28.533  1.00  0.00    -0.206 F 
ATOM     91  C   UNL A   1      50.257  27.116  30.002  1.00  0.00     0.059 A 
ATOM     92  C   UNL A   1      49.464  26.088  32.055  1.00  0.00     0.059 A 
ATOM     93  F   UNL A   1      47.169  26.080  32.538  1.00  0.00    -0.206 F 
ATOM     94  C   UNL A   1      50.504  26.431  31.194  1.00  0.00     0.060 A 
BRANCH  94  95
ATOM     95  S   UNL A   1      52.211  26.027  31.622  1.00  0.00     0.124 S 
ATOM     96  O   UNL A   1      52.581  27.162  32.460  1.00  0.00    -0.237 OA
ATOM     97  O   UNL A   1      52.064  24.749  32.313  1.00  0.00    -0.237 OA
ATOM     98  O   UNL A   1      52.880  25.957  30.326  1.00  0.00    -0.744 OA
ENDBRANCH  94  95
ENDBRANCH  62  87
ENDBRANCH  36  37
ENDBRANCH  28  31
ENDBRANCH  26  27
ENDBRANCH   1  26
TORSDOF 15
ENDMDL
MODEL 2
REMARK VINA RESULT:     -11.5      1.513      3.346
REMARK SMILES CC1(C)[C@H](C(=O)NCCCNC(=O)c2ccc(-c3c4nc(c(-c5c(F)cc(S(=O)(=O)[O-])cc5F)c5ccc([nH]5)c(-c5c(F)cc(S(=O)(=O)[O-])cc5F)c5nc(c(-c6c(F)cc(S(=O)(=O)[O-])cc6F)c6ccc3[nH]6)C=C5)C=C4)cc2)[C@H]1C(=O)Nc1cccc2[nH]ccc12
REMARK SMILES IDX 9 1 8 2 7 3 5 4 6 5 4 7 1 8 2 9 3 10 80 11 81 12 82 13 83 14
REMARK SMILES IDX 84 16 85 17 92 18 86 19 88 20 91 21 87 22 89 23 90 24 10 26
REMARK SMILES IDX 11 27 12 28 13 30 14 31 15 32 79 33 16 34 78 35 17 36 18 37
REMARK SMILES IDX 19 38 72 39 20 40 77 41 71 42 73 43 21 44 76 45 70 46 69 47
REMARK SMILES IDX 22 49 56 50 35 51 55 52 36 53 39 54 54 55 74 56 37 57 38 58
REMARK SMILES IDX 53 60 75 61 40 62 23 63 24 64 33 65 25 66 26 67 32 68 34 69
REMARK SMILES IDX 27 70 28 71 29 72 30 73 31 74 57 75 58 76 67 77 59 78 60 79
REMARK SMILES IDX 66 80 68 81 61 82 62 83 63 84 64 85 65 86 41 87 42 88 51 89
REMARK SMILES IDX 43 90 44 91 50 92 52 93 45 94 46 95 47 96 48 97 49 98
REMARK H PARENT 7 6 83 15 89 25 11 29 73 48 39 59
REMARK Flexibility Score: inf
ROOT
ATOM      1  C   UNL A   1      32.766  27.787  26.092  1.00  0.00     0.042 C 
ENDROOT
BRANCH   1   2
ATOM      2  C   UNL A   1      31.315  27.513  26.479  1.00  0.00     0.117 C 
BRANCH   2   3
ATOM      3  N   UNL A   1      31.124  26.151  26.918  1.00  0.00    -0.356 N 
ATOM      4  C   UNL A   1      31.606  24.940  26.523  1.00  0.00     0.224 C 
ATOM      5  O   UNL A   1      31.206  23.979  27.189  1.00  0.00    -0.275 OA
ATOM      6  H   UNL A   1      30.501  26.082  27.678  1.00  0.00     0.163 HD
BRANCH   4   7
ATOM      7  C   UNL A   1      32.553  24.635  25.416  1.00  0.00     0.098 C 
ATOM      8  C   UNL A   1      34.994  24.200  24.948  1.00  0.00     0.013 C 
ATOM      9  C   UNL A   1      33.665  23.584  25.303  1.00  0.00    -0.011 C 
ATOM     10  C   UNL A   1      33.912  22.277  26.003  1.00  0.00     0.013 C 
ATOM     11  C   UNL A   1      32.413  23.558  24.405  1.00  0.00     0.098 C 
BRANCH  11  12
ATOM     12  C   UNL A   1      32.466  23.582  22.912  1.00  0.00     0.228 C 
ATOM     13  O   UNL A   1      32.688  22.508  22.348  1.00  0.00    -0.274 OA
ATOM     14  N   UNL A   1      32.020  24.628  22.140  1.00  0.00    -0.325 N 
ATOM     15  H   UNL A   1      31.494  24.369  21.349  1.00  0.00     0.169 HD
BRANCH  14  16
ATOM     16  C   UNL A   1      32.201  26.002  22.310  1.00  0.00     0.050 A 
ATOM     17  C   UNL A   1      33.502  26.508  22.228  1.00  0.00     0.027 A 
ATOM     18  C   UNL A   1      31.164  26.871  22.723  1.00  0.00     0.023 A 
ATOM     19  C   UNL A   1      33.741  27.877  22.335  1.00  0.00     0.004 A 
ATOM     20  C   UNL A   1      31.419  28.244  22.750  1.00  0.00     0.047 A 
ATOM     21  C   UNL A   1      29.834  26.707  23.212  1.00  0.00     0.030 A 
ATOM     22  C   UNL A   1      32.692  28.779  22.534  1.00  0.00     0.027 A 
ATOM     23  N   UNL A   1      30.220  28.877  22.995  1.00  0.00    -0.361 N 
ATOM     24  C   UNL A   1      29.264  27.955  23.325  1.00  0.00     0.083 A 
ATOM     25  H   UNL A   1      30.072  29.849  22.940  1.00  0.00     0.166 HD
ENDBRANCH  14  16
ENDBRANCH  11  12
ENDBRANCH   4   7
ENDBRANCH   2   3
ENDBRANCH   1   2
BRANCH   1  26
ATOM     26  C   UNL A   1      33.648  28.247  27.245  1.00  0.00     0.118 C 
BRANCH  26  27
ATOM     27  N   UNL A   1      33.536  29.677  27.490  1.00  0.00    -0.352 N 
ATOM     28  C   UNL A   1      34.411  30.552  28.084  1.00  0.00     0.251 C 
ATOM     29  H   UNL A   1      32.695  30.083  27.180  1.00  0.00     0.163 HD
ATOM     30  O   UNL A   1      34.010  31.670  28.400  1.00  0.00    -0.269 OA
BRANCH  28  31
ATOM     31  C   UNL A   1      35.818  30.171  28.355  1.00  0.00     0.039 A 
ATOM     32  C   UNL A   1      36.749  30.236  27.312  1.00  0.00     0.014 A 
ATOM     33  C   UNL A   1      36.216  29.690  29.605  1.00  0.00     0.014 A 
ATOM     34  C   UNL A   1      38.079  29.868  27.537  1.00  0.00     0.010 A 
ATOM     35  C   UNL A   1      37.557  29.407  29.851  1.00  0.00     0.010 A 
ATOM     36  C   UNL A   1      38.502  29.476  28.816  1.00  0.00    -0.014 A 
BRANCH  36  37
ATOM     37  C   UNL A   1      39.913  29.095  29.091  1.00  0.00     0.031 A 
ATOM     38  C   UNL A   1      40.861  30.109  29.678  1.00  0.00     0.074 A 
ATOM     39  C   UNL A   1      40.355  27.865  28.758  1.00  0.00     0.049 A 
ATOM     40  N   UNL A   1      42.149  30.016  29.882  1.00  0.00    -0.248 NA
ATOM     41  C   UNL A   1      40.288  31.411  30.059  1.00  0.00     0.031 C 
ATOM     42  C   UNL A   1      39.544  26.806  28.154  1.00  0.00     0.029 A 
ATOM     43  N   UNL A   1      41.602  27.302  28.869  1.00  0.00    -0.354 N 
ATOM     44  C   UNL A   1      42.542  31.246  30.398  1.00  0.00     0.074 A 
ATOM     45  C   UNL A   1      41.367  32.088  30.424  1.00  0.00     0.031 C 
ATOM     46  C   UNL A   1      40.308  25.718  27.965  1.00  0.00     0.029 A 
ATOM     47  C   UNL A   1      41.671  26.013  28.393  1.00  0.00     0.049 A 
ATOM     48  H   UNL A   1      42.375  27.776  29.253  1.00  0.00     0.167 HD
ATOM     49  C   UNL A   1      43.764  31.631  30.837  1.00  0.00     0.037 A 
ATOM     50  C   UNL A   1      42.719  25.170  28.301  1.00  0.00     0.037 A 
ATOM     51  C   UNL A   1      44.922  30.776  30.841  1.00  0.00     0.049 A 
ATOM     52  C   UNL A   1      44.070  25.625  28.786  1.00  0.00     0.074 A 
ATOM     53  C   UNL A   1      46.198  31.058  31.298  1.00  0.00     0.029 A 
ATOM     54  N   UNL A   1      44.942  29.469  30.378  1.00  0.00    -0.354 N 
ATOM     55  N   UNL A   1      44.413  26.781  29.304  1.00  0.00    -0.248 NA
ATOM     56  C   UNL A   1      45.175  24.663  28.680  1.00  0.00     0.031 C 
ATOM     57  C   UNL A   1      46.999  29.931  31.081  1.00  0.00     0.029 A 
ATOM     58  C   UNL A   1      46.209  28.933  30.531  1.00  0.00     0.049 A 
ATOM     59  H   UNL A   1      44.169  28.992  29.998  1.00  0.00     0.167 HD
ATOM     60  C   UNL A   1      45.763  26.669  29.619  1.00  0.00     0.074 A 
ATOM     61  C   UNL A   1      46.172  25.334  29.239  1.00  0.00     0.031 C 
ATOM     62  C   UNL A   1      46.590  27.590  30.173  1.00  0.00     0.037 A 
BRANCH  49  63
ATOM     63  C   UNL A   1      43.911  33.031  31.370  1.00  0.00     0.058 A 
ATOM     64  C   UNL A   1      44.239  34.105  30.527  1.00  0.00     0.135 A 
ATOM     65  C   UNL A   1      43.672  33.311  32.724  1.00  0.00     0.135 A 
ATOM     66  F   UNL A   1      44.496  33.891  29.227  1.00  0.00    -0.206 F 
ATOM     67  C   UNL A   1      44.344  35.405  31.012  1.00  0.00     0.059 A 
ATOM     68  C   UNL A   1      43.743  34.608  33.226  1.00  0.00     0.059 A 
ATOM     69  F   UNL A   1      43.356  32.322  33.576  1.00  0.00    -0.206 F 
ATOM     70  C   UNL A   1      44.091  35.647  32.363  1.00  0.00     0.060 A 
BRANCH  70  71
ATOM     71  S   UNL A   1      44.209  37.344  32.968  1.00  0.00     0.124 S 
ATOM     72  O   UNL A   1      44.073  38.104  31.730  1.00  0.00    -0.237 OA
ATOM     73  O   UNL A   1      43.080  37.425  33.889  1.00  0.00    -0.237 OA
ATOM     74  O   UNL A   1      45.529  37.392  33.592  1.00  0.00    -0.744 OA
ENDBRANCH  70  71
ENDBRANCH  49  63
BRANCH  50  75
ATOM     75  C   UNL A   1      42.537  23.803  27.741  1.00  0.00     0.058 A 
ATOM     76  C   UNL A   1      42.405  22.690  28.585  1.00  0.00     0.135 A 
ATOM     77  C   UNL A   1      42.510  23.578  26.356  1.00  0.00     0.135 A 
ATOM     78  F   UNL A   1      42.429  22.852  29.917  1.00  0.00    -0.206 F 
ATOM     79  C   UNL A   1      42.287  21.399  28.079  1.00  0.00     0.059 A 
ATOM     80  C   UNL A   1      42.366  22.299  25.826  1.00  0.00     0.059 A 
ATOM     81  F   UNL A   1      42.612  24.609  25.504  1.00  0.00    -0.206 F 
ATOM     82  C   UNL A   1      42.273  21.214  26.696  1.00  0.00     0.060 A 
BRANCH  82  83
ATOM     83  S   UNL A   1      42.107  19.537  26.047  1.00  0.00     0.124 S 
ATOM     84  O   UNL A   1      43.047  19.561  24.932  1.00  0.00    -0.237 OA
ATOM     85  O   UNL A   1      42.498  18.723  27.194  1.00  0.00    -0.237 OA
ATOM     86  O   UNL A   1      40.696  19.457  25.682  1.00  0.00    -0.744 OA
ENDBRANCH  82  83
ENDBRANCH  50  75
BRANCH  62  87
ATOM     87  C   UNL A   1      48.006  27.172  30.456  1.00  0.00     0.058 A 
ATOM     88  C   UNL A   1      49.040  27.393  29.535  1.00  0.00     0.135 A 
ATOM     89  C   UNL A   1      48.338  26.602  31.695  1.00  0.00     0.135 A 
ATOM     90  F   UNL A   1      48.773  27.929  28.334  1.00  0.00    -0.206 F 
ATOM     91  C   UNL A   1      50.356  27.047  29.827  1.00  0.00     0.059 A 
ATOM     92  C   UNL A   1      49.651  26.273  32.019  1.00  0.00     0.059 A 
ATOM     93  F   UNL A   1      47.385  26.379  32.615  1.00  0.00    -0.206 F 
ATOM     94  C   UNL A   1      50.651  26.492  31.074  1.00  0.00     0.060 A 
BRANCH  94  95
ATOM     95  S   UNL A   1      52.370  26.092  31.458  1.00  0.00     0.124 S 
ATOM     96  O   UNL A   1      52.996  26.196  30.144  1.00  0.00    -0.237 OA
ATOM     97  O   UNL A   1      52.726  27.136  32.414  1.00  0.00    -0.237 OA
ATOM     98  O   UNL A   1      52.290  24.744  32.012  1.00  0.00    -0.744 OA
ENDBRANCH  94  95
ENDBRANCH  62  87
ENDBRANCH  36  37
ENDBRANCH  28  31
ENDBRANCH  26  27
ENDBRANCH   1  26
TORSDOF 15
ENDMDL
MODEL 3
REMARK VINA RESULT:     -11.4      1.063      1.798
REMARK SMILES CC1(C)[C@H](C(=O)NCCCNC(=O)c2ccc(-c3c4nc(c(-c5c(F)cc(S(=O)(=O)[O-])cc5F)c5ccc([nH]5)c(-c5c(F)cc(S(=O)(=O)[O-])cc5F)c5nc(c(-c6c(F)cc(S(=O)(=O)[O-])cc6F)c6ccc3[nH]6)C=C5)C=C4)cc2)[C@H]1C(=O)Nc1cccc2[nH]ccc12
REMARK SMILES IDX 9 1 8 2 7 3 5 4 6 5 4 7 1 8 2 9 3 10 80 11 81 12 82 13 83 14
REMARK SMILES IDX 84 16 85 17 92 18 86 19 88 20 91 21 87 22 89 23 90 24 10 26
REMARK SMILES IDX 11 27 12 28 13 30 14 31 15 32 79 33 16 34 78 35 17 36 18 37
REMARK SMILES IDX 19 38 72 39 20 40 77 41 71 42 73 43 21 44 76 45 70 46 69 47
REMARK SMILES IDX 22 49 56 50 35 51 55 52 36 53 39 54 54 55 74 56 37 57 38 58
REMARK SMILES IDX 53 60 75 61 40 62 23 63 24 64 33 65 25 66 26 67 32 68 34 69
REMARK SMILES IDX 27 70 28 71 29 72 30 73 31 74 57 75 58 76 67 77 59 78 60 79
REMARK SMILES IDX 66 80 68 81 61 82 62 83 63 84 64 85 65 86 41 87 42 88 51 89
REMARK SMILES IDX 43 90 44 91 50 92 52 93 45 94 46 95 47 96 48 97 49 98
REMARK H PARENT 7 6 83 15 89 25 11 29 73 48 39 59
REMARK Flexibility Score: inf
ROOT
ATOM      1  C   UNL A   1      34.202  27.952  25.303  1.00  0.00     0.042 C 
ENDROOT
BRANCH   1   2
ATOM      2  C   UNL A   1      33.384  28.598  24.188  1.00  0.00     0.117 C 
BRANCH   2   3
ATOM      3  N   UNL A   1      33.556  27.913  22.930  1.00  0.00    -0.356 N 
ATOM      4  C   UNL A   1      33.408  26.625  22.511  1.00  0.00     0.224 C 
ATOM      5  O   UNL A   1      33.638  26.439  21.311  1.00  0.00    -0.275 OA
ATOM      6  H   UNL A   1      33.849  28.516  22.207  1.00  0.00     0.163 HD
BRANCH   4   7
ATOM      7  C   UNL A   1      32.994  25.434  23.301  1.00  0.00     0.098 C 
ATOM      8  C   UNL A   1      31.817  24.770  25.431  1.00  0.00     0.013 C 
ATOM      9  C   UNL A   1      31.658  25.081  23.966  1.00  0.00    -0.011 C 
ATOM     10  C   UNL A   1      30.244  25.527  23.720  1.00  0.00     0.013 C 
ATOM     11  C   UNL A   1      32.240  24.259  22.799  1.00  0.00     0.098 C 
BRANCH  11  12
ATOM     12  C   UNL A   1      32.515  22.792  22.878  1.00  0.00     0.228 C 
ATOM     13  O   UNL A   1      31.660  22.042  22.404  1.00  0.00    -0.274 OA
ATOM     14  N   UNL A   1      33.744  22.252  23.177  1.00  0.00    -0.325 N 
ATOM     15  H   UNL A   1      34.014  21.491  22.614  1.00  0.00     0.169 HD
BRANCH  14  16
ATOM     16  C   UNL A   1      34.665  22.622  24.158  1.00  0.00     0.050 A 
ATOM     17  C   UNL A   1      35.907  23.112  23.742  1.00  0.00     0.027 A 
ATOM     18  C   UNL A   1      34.468  22.371  25.536  1.00  0.00     0.023 A 
ATOM     19  C   UNL A   1      36.849  23.549  24.672  1.00  0.00     0.004 A 
ATOM     20  C   UNL A   1      35.395  22.885  26.445  1.00  0.00     0.047 A 
ATOM     21  C   UNL A   1      33.528  21.625  26.309  1.00  0.00     0.030 A 
ATOM     22  C   UNL A   1      36.582  23.503  26.043  1.00  0.00     0.027 A 
ATOM     23  N   UNL A   1      34.888  22.673  27.709  1.00  0.00    -0.361 N 
ATOM     24  C   UNL A   1      33.783  21.868  27.640  1.00  0.00     0.083 A 
ATOM     25  H   UNL A   1      35.264  23.047  28.538  1.00  0.00     0.166 HD
ENDBRANCH  14  16
ENDBRANCH  11  12
ENDBRANCH   4   7
ENDBRANCH   2   3
ENDBRANCH   1   2
BRANCH   1  26
ATOM     26  C   UNL A   1      33.629  28.154  26.700  1.00  0.00     0.118 C 
BRANCH  26  27
ATOM     27  N   UNL A   1      33.468  29.560  27.034  1.00  0.00    -0.352 N 
ATOM     28  C   UNL A   1      34.282  30.409  27.743  1.00  0.00     0.251 C 
ATOM     29  H   UNL A   1      32.639  29.971  26.696  1.00  0.00     0.163 HD
ATOM     30  O   UNL A   1      33.834  31.494  28.107  1.00  0.00    -0.269 OA
BRANCH  28  31
ATOM     31  C   UNL A   1      35.675  30.037  28.082  1.00  0.00     0.039 A 
ATOM     32  C   UNL A   1      35.965  29.609  29.382  1.00  0.00     0.014 A 
ATOM     33  C   UNL A   1      36.711  30.165  27.152  1.00  0.00     0.014 A 
ATOM     34  C   UNL A   1      37.274  29.266  29.732  1.00  0.00     0.010 A 
ATOM     35  C   UNL A   1      37.998  29.741  27.476  1.00  0.00     0.010 A 
ATOM     36  C   UNL A   1      38.299  29.302  28.774  1.00  0.00    -0.014 A 
BRANCH  36  37
ATOM     37  C   UNL A   1      39.698  28.927  29.110  1.00  0.00     0.031 A 
ATOM     38  C   UNL A   1      40.607  29.935  29.764  1.00  0.00     0.074 A 
ATOM     39  C   UNL A   1      40.167  27.708  28.775  1.00  0.00     0.049 A 
ATOM     40  N   UNL A   1      41.885  29.848  30.029  1.00  0.00    -0.248 NA
ATOM     41  C   UNL A   1      40.005  31.225  30.143  1.00  0.00     0.031 C 
ATOM     42  C   UNL A   1      39.395  26.655  28.111  1.00  0.00     0.029 A 
ATOM     43  N   UNL A   1      41.412  27.151  28.936  1.00  0.00    -0.354 N 
ATOM     44  C   UNL A   1      42.241  31.071  30.589  1.00  0.00     0.074 A 
ATOM     45  C   UNL A   1      41.058  31.903  30.574  1.00  0.00     0.031 C 
ATOM     46  C   UNL A   1      40.177  25.577  27.938  1.00  0.00     0.029 A 
ATOM     47  C   UNL A   1      41.515  25.873  28.438  1.00  0.00     0.049 A 
ATOM     48  H   UNL A   1      42.161  27.624  29.367  1.00  0.00     0.167 HD
ATOM     49  C   UNL A   1      43.436  31.456  31.095  1.00  0.00     0.037 A 
ATOM     50  C   UNL A   1      42.573  25.040  28.381  1.00  0.00     0.037 A 
ATOM     51  C   UNL A   1      44.600  30.609  31.140  1.00  0.00     0.049 A 
ATOM     52  C   UNL A   1      43.895  25.496  28.942  1.00  0.00     0.074 A 
ATOM     53  C   UNL A   1      45.850  30.892  31.665  1.00  0.00     0.029 A 
ATOM     54  N   UNL A   1      44.654  29.313  30.652  1.00  0.00    -0.354 N 
ATOM     55  N   UNL A   1      44.202  26.643  29.499  1.00  0.00    -0.248 NA
ATOM     56  C   UNL A   1      45.012  24.544  28.871  1.00  0.00     0.031 C 
ATOM     57  C   UNL A   1      46.669  29.776  31.465  1.00  0.00     0.029 A 
ATOM     58  C   UNL A   1      45.917  28.784  30.857  1.00  0.00     0.049 A 
ATOM     59  H   UNL A   1      43.905  28.838  30.224  1.00  0.00     0.167 HD
ATOM     60  C   UNL A   1      45.536  26.536  29.878  1.00  0.00     0.074 A 
ATOM     61  C   UNL A   1      45.974  25.211  29.493  1.00  0.00     0.031 C 
ATOM     62  C   UNL A   1      46.327  27.451  30.491  1.00  0.00     0.037 A 
BRANCH  49  63
ATOM     63  C   UNL A   1      43.545  32.845  31.663  1.00  0.00     0.058 A 
ATOM     64  C   UNL A   1      43.367  33.093  33.033  1.00  0.00     0.135 A 
ATOM     65  C   UNL A   1      43.880  33.932  30.839  1.00  0.00     0.135 A 
ATOM     66  F   UNL A   1      43.029  32.094  33.863  1.00  0.00    -0.206 F 
ATOM     67  C   UNL A   1      43.499  34.372  33.565  1.00  0.00     0.059 A 
ATOM     68  C   UNL A   1      44.045  35.215  31.355  1.00  0.00     0.059 A 
ATOM     69  F   UNL A   1      44.059  33.753  29.521  1.00  0.00    -0.206 F 
ATOM     70  C   UNL A   1      43.841  35.426  32.718  1.00  0.00     0.060 A 
BRANCH  70  71
ATOM     71  S   UNL A   1      44.031  37.075  33.431  1.00  0.00     0.124 S 
ATOM     72  O   UNL A   1      44.427  37.853  32.261  1.00  0.00    -0.237 OA
ATOM     73  O   UNL A   1      42.694  37.346  33.948  1.00  0.00    -0.237 OA
ATOM     74  O   UNL A   1      45.067  36.891  34.442  1.00  0.00    -0.744 OA
ENDBRANCH  70  71
ENDBRANCH  49  63
BRANCH  50  75
ATOM     75  C   UNL A   1      42.431  23.684  27.785  1.00  0.00     0.058 A 
ATOM     76  C   UNL A   1      42.319  22.547  28.600  1.00  0.00     0.135 A 
ATOM     77  C   UNL A   1      42.424  23.493  26.396  1.00  0.00     0.135 A 
ATOM     78  F   UNL A   1      42.325  22.676  29.936  1.00  0.00    -0.206 F 
ATOM     79  C   UNL A   1      42.238  21.267  28.061  1.00  0.00     0.059 A 
ATOM     80  C   UNL A   1      42.317  22.225  25.832  1.00  0.00     0.059 A 
ATOM     81  F   UNL A   1      42.508  24.548  25.570  1.00  0.00    -0.206 F 
ATOM     82  C   UNL A   1      42.242  21.116  26.674  1.00  0.00     0.060 A 
BRANCH  82  83
ATOM     83  S   UNL A   1      42.125  19.452  25.982  1.00  0.00     0.124 S 
ATOM     84  O   UNL A   1      42.637  18.642  27.080  1.00  0.00    -0.237 OA
ATOM     85  O   UNL A   1      40.696  19.331  25.711  1.00  0.00    -0.237 OA
ATOM     86  O   UNL A   1      42.977  19.522  24.797  1.00  0.00    -0.744 OA
ENDBRANCH  82  83
ENDBRANCH  50  75
BRANCH  62  87
ATOM     87  C   UNL A   1      47.730  27.038  30.835  1.00  0.00     0.058 A 
ATOM     88  C   UNL A   1      48.037  26.405  32.049  1.00  0.00     0.135 A 
ATOM     89  C   UNL A   1      48.767  27.221  29.907  1.00  0.00     0.135 A 
ATOM     90  F   UNL A   1      47.082  26.214  32.972  1.00  0.00    -0.206 F 
ATOM     91  C   UNL A   1      49.331  25.982  32.338  1.00  0.00     0.059 A 
ATOM     92  C   UNL A   1      50.062  26.782  30.164  1.00  0.00     0.059 A 
ATOM     93  F   UNL A   1      48.522  27.813  28.726  1.00  0.00    -0.206 F 
ATOM     94  C   UNL A   1      50.335  26.171  31.386  1.00  0.00     0.060 A 
BRANCH  94  95
ATOM     95  S   UNL A   1      51.999  25.574  31.754  1.00  0.00     0.124 S 
ATOM     96  O   UNL A   1      52.712  25.915  30.527  1.00  0.00    -0.237 OA
ATOM     97  O   UNL A   1      52.357  26.357  32.933  1.00  0.00    -0.237 OA
ATOM     98  O   UNL A   1      51.804  24.147  31.993  1.00  0.00    -0.744 OA
ENDBRANCH  94  95
ENDBRANCH  62  87
ENDBRANCH  36  37
ENDBRANCH  28  31
ENDBRANCH  26  27
ENDBRANCH   1  26
TORSDOF 15
ENDMDL
