MODEL 1
REMARK VINA RESULT:     -11.1      0.000      0.000
REMARK SMILES Cc1c(Cl)ccc2c(OCC(=O)NCCCNC(=O)c3ccc(-c4c5nc(c(-c6c(F)cc(S(=O)(=O)[O-])cc6F)c6ccc([nH]6)c(-c6c(F)cc(S(=O)(=O)[O-])cc6F)c6nc(c(-c7c(F)cc(S(=O)(=O)[O-])cc7F)c7ccc4[nH]7)C=C6)C=C5)cc3)ccnc12
REMARK SMILES IDX 15 1 14 2 13 3 11 4 12 5 10 7 9 8 8 9 1 10 2 11 3 12 89 13
REMARK SMILES IDX 4 14 5 15 7 16 88 17 6 18 87 19 86 20 16 21 17 22 18 23
REMARK SMILES IDX 19 25 20 26 21 27 85 28 22 29 84 30 23 31 24 32 25 33 78 34
REMARK SMILES IDX 26 35 83 36 77 37 79 38 27 39 82 40 76 41 75 42 28 44 62 45
REMARK SMILES IDX 41 46 61 47 42 48 45 49 60 50 80 51 43 52 44 53 59 55 81 56
REMARK SMILES IDX 46 57 29 58 30 59 39 60 31 61 32 62 38 63 40 64 33 65 34 66
REMARK SMILES IDX 35 67 36 68 37 69 63 70 64 71 73 72 65 73 66 74 72 75 74 76
REMARK SMILES IDX 67 77 68 78 69 79 70 80 71 81 47 82 48 83 57 84 49 85 50 86
REMARK SMILES IDX 56 87 58 88 51 89 52 90 53 91 54 92 55 93
REMARK H PARENT 13 6 17 24 79 43 45 54
REMARK Flexibility Score: inf
ROOT
ATOM      1  C   UNL A   1      33.884  27.811  25.346  1.00  0.00     0.042 C 
ENDROOT
BRANCH   1   2
ATOM      2  C   UNL A   1      32.501  27.876  24.706  1.00  0.00     0.117 C 
BRANCH   2   3
ATOM      3  N   UNL A   1      31.457  27.362  25.574  1.00  0.00    -0.353 N 
ATOM      4  C   UNL A   1      30.987  26.087  25.685  1.00  0.00     0.257 C 
ATOM      5  O   UNL A   1      30.090  25.856  26.500  1.00  0.00    -0.271 OA
ATOM      6  H   UNL A   1      31.029  28.025  26.163  1.00  0.00     0.163 HD
BRANCH   4   7
ATOM      7  C   UNL A   1      31.602  24.965  24.841  1.00  0.00     0.329 C 
BRANCH   7   8
ATOM      8  O   UNL A   1      32.943  24.606  25.127  1.00  0.00    -0.483 OA
BRANCH   8   9
ATOM      9  C   UNL A   1      33.332  23.298  24.968  1.00  0.00     0.131 A 
ATOM     10  C   UNL A   1      37.039  20.015  24.966  1.00  0.00     0.048 C 
ATOM     11  C   UNL A   1      36.518  21.402  25.261  1.00  0.00    -0.006 A 
ATOM     12  C   UNL A   1      37.390  22.412  25.703  1.00  0.00     0.046 A 
ATOM     13  C   UNL A   1      35.166  21.699  25.022  1.00  0.00     0.078 A 
ATOM     14  Cl  UNL A   1      39.070  22.118  25.981  1.00  0.00    -0.084 Cl
ATOM     15  C   UNL A   1      36.927  23.703  25.930  1.00  0.00     0.022 A 
ATOM     16  C   UNL A   1      34.696  23.018  25.234  1.00  0.00     0.043 A 
ATOM     17  N   UNL A   1      34.333  20.731  24.593  1.00  0.00    -0.256 NA
ATOM     18  C   UNL A   1      35.590  24.005  25.695  1.00  0.00     0.016 A 
ATOM     19  C   UNL A   1      33.038  21.023  24.374  1.00  0.00     0.115 A 
ATOM     20  C   UNL A   1      32.491  22.275  24.550  1.00  0.00     0.067 A 
ENDBRANCH   8   9
ENDBRANCH   7   8
ENDBRANCH   4   7
ENDBRANCH   2   3
ENDBRANCH   1   2
BRANCH   1  21
ATOM     21  C   UNL A   1      33.885  28.004  26.862  1.00  0.00     0.118 C 
BRANCH  21  22
ATOM     22  N   UNL A   1      33.624  29.382  27.253  1.00  0.00    -0.352 N 
ATOM     23  C   UNL A   1      34.423  30.270  27.932  1.00  0.00     0.251 C 
ATOM     24  H   UNL A   1      32.741  29.730  26.992  1.00  0.00     0.163 HD
ATOM     25  O   UNL A   1      33.946  31.328  28.336  1.00  0.00    -0.269 OA
BRANCH  23  26
ATOM     26  C   UNL A   1      35.841  29.949  28.192  1.00  0.00     0.039 A 
ATOM     27  C   UNL A   1      36.212  29.508  29.465  1.00  0.00     0.014 A 
ATOM     28  C   UNL A   1      36.807  30.115  27.196  1.00  0.00     0.014 A 
ATOM     29  C   UNL A   1      37.543  29.174  29.722  1.00  0.00     0.010 A 
ATOM     30  C   UNL A   1      38.125  29.732  27.437  1.00  0.00     0.010 A 
ATOM     31  C   UNL A   1      38.505  29.264  28.703  1.00  0.00    -0.014 A 
BRANCH  31  32
ATOM     32  C   UNL A   1      39.922  28.907  28.961  1.00  0.00     0.031 A 
ATOM     33  C   UNL A   1      40.842  29.917  29.588  1.00  0.00     0.074 A 
ATOM     34  C   UNL A   1      40.383  27.692  28.607  1.00  0.00     0.049 A 
ATOM     35  N   UNL A   1      42.115  29.811  29.867  1.00  0.00    -0.248 NA
ATOM     36  C   UNL A   1      40.257  31.222  29.938  1.00  0.00     0.031 C 
ATOM     37  C   UNL A   1      39.591  26.638  27.970  1.00  0.00     0.029 A 
ATOM     38  N   UNL A   1      41.633  27.139  28.729  1.00  0.00    -0.354 N 
ATOM     39  C   UNL A   1      42.480  31.027  30.431  1.00  0.00     0.074 A 
ATOM     40  C   UNL A   1      41.311  31.877  30.403  1.00  0.00     0.031 C 
ATOM     41  C   UNL A   1      40.369  25.559  27.776  1.00  0.00     0.029 A 
ATOM     42  C   UNL A   1      41.720  25.853  28.248  1.00  0.00     0.049 A 
ATOM     43  H   UNL A   1      42.398  27.618  29.125  1.00  0.00     0.167 HD
ATOM     44  C   UNL A   1      43.675  31.391  30.954  1.00  0.00     0.037 A 
ATOM     45  C   UNL A   1      42.770  25.010  28.195  1.00  0.00     0.037 A 
ATOM     46  C   UNL A   1      44.831  30.537  30.996  1.00  0.00     0.049 A 
ATOM     47  C   UNL A   1      44.102  25.460  28.733  1.00  0.00     0.074 A 
ATOM     48  C   UNL A   1      46.074  30.800  31.542  1.00  0.00     0.029 A 
ATOM     49  N   UNL A   1      44.886  29.254  30.473  1.00  0.00    -0.354 N 
ATOM     50  N   UNL A   1      44.416  26.596  29.310  1.00  0.00    -0.248 NA
ATOM     51  C   UNL A   1      45.224  24.518  28.609  1.00  0.00     0.031 C 
ATOM     52  C   UNL A   1      46.893  29.690  31.318  1.00  0.00     0.029 A 
ATOM     53  C   UNL A   1      46.150  28.721  30.663  1.00  0.00     0.049 A 
ATOM     54  H   UNL A   1      44.139  28.791  30.031  1.00  0.00     0.167 HD
ATOM     55  C   UNL A   1      45.765  26.498  29.633  1.00  0.00     0.074 A 
ATOM     56  C   UNL A   1      46.205  25.186  29.203  1.00  0.00     0.031 C 
ATOM     57  C   UNL A   1      46.568  27.412  30.230  1.00  0.00     0.037 A 
BRANCH  44  58
ATOM     58  C   UNL A   1      43.785  32.763  31.552  1.00  0.00     0.058 A 
ATOM     59  C   UNL A   1      44.091  33.878  30.757  1.00  0.00     0.135 A 
ATOM     60  C   UNL A   1      43.523  32.979  32.914  1.00  0.00     0.135 A 
ATOM     61  F   UNL A   1      44.370  33.722  29.452  1.00  0.00    -0.206 F 
ATOM     62  C   UNL A   1      44.145  35.159  31.292  1.00  0.00     0.059 A 
ATOM     63  C   UNL A   1      43.548  34.257  33.467  1.00  0.00     0.059 A 
ATOM     64  F   UNL A   1      43.229  31.946  33.719  1.00  0.00    -0.206 F 
ATOM     65  C   UNL A   1      43.866  35.340  32.648  1.00  0.00     0.060 A 
BRANCH  65  66
ATOM     66  S   UNL A   1      43.910  37.016  33.315  1.00  0.00     0.124 S 
ATOM     67  O   UNL A   1      42.687  37.046  34.112  1.00  0.00    -0.237 OA
ATOM     68  O   UNL A   1      45.158  37.019  34.070  1.00  0.00    -0.237 OA
ATOM     69  O   UNL A   1      43.900  37.859  32.122  1.00  0.00    -0.744 OA
ENDBRANCH  65  66
ENDBRANCH  44  58
BRANCH  45  70
ATOM     70  C   UNL A   1      42.608  23.644  27.629  1.00  0.00     0.058 A 
ATOM     71  C   UNL A   1      42.349  22.549  28.466  1.00  0.00     0.135 A 
ATOM     72  C   UNL A   1      42.721  23.402  26.251  1.00  0.00     0.135 A 
ATOM     73  F   UNL A   1      42.241  22.729  29.791  1.00  0.00    -0.206 F 
ATOM     74  C   UNL A   1      42.229  21.259  27.962  1.00  0.00     0.059 A 
ATOM     75  C   UNL A   1      42.581  22.124  25.720  1.00  0.00     0.059 A 
ATOM     76  F   UNL A   1      42.957  24.419  25.407  1.00  0.00    -0.206 F 
ATOM     77  C   UNL A   1      42.347  21.055  26.586  1.00  0.00     0.060 A 
BRANCH  77  78
ATOM     78  S   UNL A   1      42.163  19.377  25.944  1.00  0.00     0.124 S 
ATOM     79  O   UNL A   1      40.729  19.318  25.685  1.00  0.00    -0.237 OA
ATOM     80  O   UNL A   1      43.024  19.405  24.764  1.00  0.00    -0.237 OA
ATOM     81  O   UNL A   1      42.642  18.543  27.040  1.00  0.00    -0.744 OA
ENDBRANCH  77  78
ENDBRANCH  45  70
BRANCH  57  82
ATOM     82  C   UNL A   1      48.004  27.035  30.459  1.00  0.00     0.058 A 
ATOM     83  C   UNL A   1      49.006  27.403  29.549  1.00  0.00     0.135 A 
ATOM     84  C   UNL A   1      48.393  26.382  31.639  1.00  0.00     0.135 A 
ATOM     85  F   UNL A   1      48.684  28.021  28.402  1.00  0.00    -0.206 F 
ATOM     86  C   UNL A   1      50.347  27.134  29.800  1.00  0.00     0.059 A 
ATOM     87  C   UNL A   1      49.731  26.123  31.922  1.00  0.00     0.059 A 
ATOM     88  F   UNL A   1      47.472  26.017  32.545  1.00  0.00    -0.206 F 
ATOM     89  C   UNL A   1      50.701  26.501  30.995  1.00  0.00     0.060 A 
BRANCH  89  90
ATOM     90  S   UNL A   1      52.451  26.220  31.335  1.00  0.00     0.124 S 
ATOM     91  O   UNL A   1      53.025  26.272  29.995  1.00  0.00    -0.237 OA
ATOM     92  O   UNL A   1      52.782  27.341  32.210  1.00  0.00    -0.237 OA
ATOM     93  O   UNL A   1      52.468  24.908  31.975  1.00  0.00    -0.744 OA
ENDBRANCH  89  90
ENDBRANCH  57  82
ENDBRANCH  31  32
ENDBRANCH  23  26
ENDBRANCH  21  22
ENDBRANCH   1  21
TORSDOF 15
ENDMDL
MODEL 2
REMARK VINA RESULT:     -10.9      4.814     10.674
REMARK SMILES Cc1c(Cl)ccc2c(OCC(=O)NCCCNC(=O)c3ccc(-c4c5nc(c(-c6c(F)cc(S(=O)(=O)[O-])cc6F)c6ccc([nH]6)c(-c6c(F)cc(S(=O)(=O)[O-])cc6F)c6nc(c(-c7c(F)cc(S(=O)(=O)[O-])cc7F)c7ccc4[nH]7)C=C6)C=C5)cc3)ccnc12
REMARK SMILES IDX 15 1 14 2 13 3 11 4 12 5 10 7 9 8 8 9 1 10 2 11 3 12 89 13
REMARK SMILES IDX 4 14 5 15 7 16 88 17 6 18 87 19 86 20 16 21 17 22 18 23
REMARK SMILES IDX 19 25 20 26 21 27 85 28 22 29 84 30 23 31 24 32 25 33 78 34
REMARK SMILES IDX 26 35 83 36 77 37 79 38 27 39 82 40 76 41 75 42 28 44 62 45
REMARK SMILES IDX 41 46 61 47 42 48 45 49 60 50 80 51 43 52 44 53 59 55 81 56
REMARK SMILES IDX 46 57 29 58 30 59 39 60 31 61 32 62 38 63 40 64 33 65 34 66
REMARK SMILES IDX 35 67 36 68 37 69 63 70 64 71 73 72 65 73 66 74 72 75 74 76
REMARK SMILES IDX 67 77 68 78 69 79 70 80 71 81 47 82 48 83 57 84 49 85 50 86
REMARK SMILES IDX 56 87 58 88 51 89 52 90 53 91 54 92 55 93
REMARK H PARENT 13 6 17 24 79 43 45 54
REMARK Flexibility Score: inf
ROOT
ATOM      1  C   UNL A   1      37.204  23.447  25.580  1.00  0.00     0.042 C 
ENDROOT
BRANCH   1   2
ATOM      2  C   UNL A   1      35.777  23.338  26.107  1.00  0.00     0.117 C 
BRANCH   2   3
ATOM      3  N   UNL A   1      34.859  22.789  25.125  1.00  0.00    -0.353 N 
ATOM      4  C   UNL A   1      34.034  23.448  24.261  1.00  0.00     0.257 C 
ATOM      5  O   UNL A   1      33.332  22.787  23.493  1.00  0.00    -0.271 OA
ATOM      6  H   UNL A   1      34.826  21.806  25.076  1.00  0.00     0.163 HD
BRANCH   4   7
ATOM      7  C   UNL A   1      34.027  24.981  24.226  1.00  0.00     0.329 C 
BRANCH   7   8
ATOM      8  O   UNL A   1      33.450  25.647  25.336  1.00  0.00    -0.483 OA
BRANCH   8   9
ATOM      9  C   UNL A   1      32.630  26.727  25.114  1.00  0.00     0.131 A 
ATOM     10  C   UNL A   1      31.495  31.413  26.243  1.00  0.00     0.048 C 
ATOM     11  C   UNL A   1      32.437  30.235  26.333  1.00  0.00    -0.006 A 
ATOM     12  C   UNL A   1      33.582  30.298  27.146  1.00  0.00     0.046 A 
ATOM     13  C   UNL A   1      32.126  29.046  25.653  1.00  0.00     0.078 A 
ATOM     14  Cl  UNL A   1      34.000  31.720  28.034  1.00  0.00    -0.084 Cl
ATOM     15  C   UNL A   1      34.428  29.202  27.271  1.00  0.00     0.022 A 
ATOM     16  C   UNL A   1      32.975  27.921  25.794  1.00  0.00     0.043 A 
ATOM     17  N   UNL A   1      31.025  28.986  24.879  1.00  0.00    -0.256 NA
ATOM     18  C   UNL A   1      34.125  28.021  26.602  1.00  0.00     0.016 A 
ATOM     19  C   UNL A   1      30.738  27.845  24.226  1.00  0.00     0.115 A 
ATOM     20  C   UNL A   1      31.502  26.702  24.303  1.00  0.00     0.067 A 
ENDBRANCH   8   9
ENDBRANCH   7   8
ENDBRANCH   4   7
ENDBRANCH   2   3
ENDBRANCH   1   2
BRANCH   1  21
ATOM     21  C   UNL A   1      38.153  24.223  26.492  1.00  0.00     0.118 C 
BRANCH  21  22
ATOM     22  N   UNL A   1      39.551  24.057  26.120  1.00  0.00    -0.352 N 
ATOM     23  C   UNL A   1      40.652  24.793  26.484  1.00  0.00     0.251 C 
ATOM     24  H   UNL A   1      39.735  23.303  25.514  1.00  0.00     0.163 HD
ATOM     25  O   UNL A   1      41.722  24.610  25.908  1.00  0.00    -0.269 OA
BRANCH  23  26
ATOM     26  C   UNL A   1      40.549  25.812  27.548  1.00  0.00     0.039 A 
ATOM     27  C   UNL A   1      39.633  25.616  28.586  1.00  0.00     0.014 A 
ATOM     28  C   UNL A   1      41.328  26.972  27.506  1.00  0.00     0.014 A 
ATOM     29  C   UNL A   1      39.542  26.556  29.614  1.00  0.00     0.010 A 
ATOM     30  C   UNL A   1      41.274  27.882  28.560  1.00  0.00     0.010 A 
ATOM     31  C   UNL A   1      40.377  27.685  29.620  1.00  0.00    -0.014 A 
BRANCH  31  32
ATOM     32  C   UNL A   1      40.294  28.688  30.710  1.00  0.00     0.031 A 
ATOM     33  C   UNL A   1      41.219  28.584  31.889  1.00  0.00     0.074 A 
ATOM     34  C   UNL A   1      39.373  29.669  30.650  1.00  0.00     0.049 A 
ATOM     35  N   UNL A   1      41.285  29.340  32.954  1.00  0.00    -0.248 NA
ATOM     36  C   UNL A   1      42.191  27.478  31.877  1.00  0.00     0.031 C 
ATOM     37  C   UNL A   1      38.405  29.858  29.566  1.00  0.00     0.029 A 
ATOM     38  N   UNL A   1      39.096  30.692  31.522  1.00  0.00    -0.354 N 
ATOM     39  C   UNL A   1      42.307  28.809  33.732  1.00  0.00     0.074 A 
ATOM     40  C   UNL A   1      42.795  27.633  33.046  1.00  0.00     0.031 C 
ATOM     41  C   UNL A   1      37.656  30.942  29.829  1.00  0.00     0.029 A 
ATOM     42  C   UNL A   1      38.069  31.509  31.111  1.00  0.00     0.049 A 
ATOM     43  H   UNL A   1      39.588  30.828  32.364  1.00  0.00     0.167 HD
ATOM     44  C   UNL A   1      42.813  29.278  34.896  1.00  0.00     0.037 A 
ATOM     45  C   UNL A   1      37.525  32.591  31.701  1.00  0.00     0.037 A 
ATOM     46  C   UNL A   1      42.336  30.458  35.566  1.00  0.00     0.049 A 
ATOM     47  C   UNL A   1      38.070  33.058  33.024  1.00  0.00     0.074 A 
ATOM     48  C   UNL A   1      42.812  31.037  36.730  1.00  0.00     0.029 A 
ATOM     49  N   UNL A   1      41.277  31.241  35.133  1.00  0.00    -0.354 N 
ATOM     50  N   UNL A   1      39.071  32.574  33.720  1.00  0.00    -0.248 NA
ATOM     51  C   UNL A   1      37.410  34.216  33.647  1.00  0.00     0.031 C 
ATOM     52  C   UNL A   1      42.016  32.149  37.020  1.00  0.00     0.029 A 
ATOM     53  C   UNL A   1      41.068  32.284  36.019  1.00  0.00     0.049 A 
ATOM     54  H   UNL A   1      40.750  31.078  34.318  1.00  0.00     0.167 HD
ATOM     55  C   UNL A   1      39.172  33.377  34.852  1.00  0.00     0.074 A 
ATOM     56  C   UNL A   1      38.142  34.389  34.740  1.00  0.00     0.031 C 
ATOM     57  C   UNL A   1      40.038  33.283  35.890  1.00  0.00     0.037 A 
BRANCH  44  58
ATOM     58  C   UNL A   1      43.963  28.532  35.507  1.00  0.00     0.058 A 
ATOM     59  C   UNL A   1      43.747  27.502  36.436  1.00  0.00     0.135 A 
ATOM     60  C   UNL A   1      45.285  28.801  35.119  1.00  0.00     0.135 A 
ATOM     61  F   UNL A   1      42.503  27.219  36.855  1.00  0.00    -0.206 F 
ATOM     62  C   UNL A   1      44.803  26.771  36.967  1.00  0.00     0.059 A 
ATOM     63  C   UNL A   1      46.355  28.066  35.622  1.00  0.00     0.059 A 
ATOM     64  F   UNL A   1      45.546  29.779  34.238  1.00  0.00    -0.206 F 
ATOM     65  C   UNL A   1      46.103  27.057  36.550  1.00  0.00     0.060 A 
BRANCH  65  66
ATOM     66  S   UNL A   1      47.456  26.073  37.230  1.00  0.00     0.124 S 
ATOM     67  O   UNL A   1      48.592  26.974  37.048  1.00  0.00    -0.237 OA
ATOM     68  O   UNL A   1      47.028  25.865  38.609  1.00  0.00    -0.237 OA
ATOM     69  O   UNL A   1      47.464  24.878  36.391  1.00  0.00    -0.744 OA
ENDBRANCH  65  66
ENDBRANCH  44  58
BRANCH  45  70
ATOM     70  C   UNL A   1      36.411  33.325  31.043  1.00  0.00     0.058 A 
ATOM     71  C   UNL A   1      36.651  34.134  29.923  1.00  0.00     0.135 A 
ATOM     72  C   UNL A   1      35.094  33.245  31.523  1.00  0.00     0.135 A 
ATOM     73  F   UNL A   1      37.895  34.248  29.433  1.00  0.00    -0.206 F 
ATOM     74  C   UNL A   1      35.631  34.856  29.314  1.00  0.00     0.059 A 
ATOM     75  C   UNL A   1      34.053  33.940  30.916  1.00  0.00     0.059 A 
ATOM     76  F   UNL A   1      34.811  32.476  32.586  1.00  0.00    -0.206 F 
ATOM     77  C   UNL A   1      34.333  34.754  29.818  1.00  0.00     0.060 A 
BRANCH  77  78
ATOM     78  S   UNL A   1      33.015  35.678  29.000  1.00  0.00     0.124 S 
ATOM     79  O   UNL A   1      32.445  34.661  28.124  1.00  0.00    -0.237 OA
ATOM     80  O   UNL A   1      32.184  36.088  30.128  1.00  0.00    -0.237 OA
ATOM     81  O   UNL A   1      33.728  36.761  28.331  1.00  0.00    -0.744 OA
ENDBRANCH  77  78
ENDBRANCH  45  70
BRANCH  57  82
ATOM     82  C   UNL A   1      39.918  34.297  36.991  1.00  0.00     0.058 A 
ATOM     83  C   UNL A   1      40.486  35.574  36.869  1.00  0.00     0.135 A 
ATOM     84  C   UNL A   1      39.155  34.023  38.138  1.00  0.00     0.135 A 
ATOM     85  F   UNL A   1      41.232  35.882  35.796  1.00  0.00    -0.206 F 
ATOM     86  C   UNL A   1      40.303  36.546  37.847  1.00  0.00     0.059 A 
ATOM     87  C   UNL A   1      38.940  34.987  39.118  1.00  0.00     0.059 A 
ATOM     88  F   UNL A   1      38.584  32.819  38.297  1.00  0.00    -0.206 F 
ATOM     89  C   UNL A   1      39.521  36.245  38.965  1.00  0.00     0.060 A 
BRANCH  89  90
ATOM     90  S   UNL A   1      39.238  37.539  40.191  1.00  0.00     0.124 S 
ATOM     91  O   UNL A   1      38.190  38.327  39.552  1.00  0.00    -0.237 OA
ATOM     92  O   UNL A   1      38.829  36.773  41.364  1.00  0.00    -0.237 OA
ATOM     93  O   UNL A   1      40.538  38.194  40.301  1.00  0.00    -0.744 OA
ENDBRANCH  89  90
ENDBRANCH  57  82
ENDBRANCH  31  32
ENDBRANCH  23  26
ENDBRANCH  21  22
ENDBRANCH   1  21
TORSDOF 15
ENDMDL
MODEL 3
REMARK VINA RESULT:     -10.9      4.882     10.376
REMARK SMILES Cc1c(Cl)ccc2c(OCC(=O)NCCCNC(=O)c3ccc(-c4c5nc(c(-c6c(F)cc(S(=O)(=O)[O-])cc6F)c6ccc([nH]6)c(-c6c(F)cc(S(=O)(=O)[O-])cc6F)c6nc(c(-c7c(F)cc(S(=O)(=O)[O-])cc7F)c7ccc4[nH]7)C=C6)C=C5)cc3)ccnc12
REMARK SMILES IDX 15 1 14 2 13 3 11 4 12 5 10 7 9 8 8 9 1 10 2 11 3 12 89 13
REMARK SMILES IDX 4 14 5 15 7 16 88 17 6 18 87 19 86 20 16 21 17 22 18 23
REMARK SMILES IDX 19 25 20 26 21 27 85 28 22 29 84 30 23 31 24 32 25 33 78 34
REMARK SMILES IDX 26 35 83 36 77 37 79 38 27 39 82 40 76 41 75 42 28 44 62 45
REMARK SMILES IDX 41 46 61 47 42 48 45 49 60 50 80 51 43 52 44 53 59 55 81 56
REMARK SMILES IDX 46 57 29 58 30 59 39 60 31 61 32 62 38 63 40 64 33 65 34 66
REMARK SMILES IDX 35 67 36 68 37 69 63 70 64 71 73 72 65 73 66 74 72 75 74 76
REMARK SMILES IDX 67 77 68 78 69 79 70 80 71 81 47 82 48 83 57 84 49 85 50 86
REMARK SMILES IDX 56 87 58 88 51 89 52 90 53 91 54 92 55 93
REMARK H PARENT 13 6 17 24 79 43 45 54
REMARK Flexibility Score: inf
ROOT
ATOM      1  C   UNL A   1      44.498  22.941  27.045  1.00  0.00     0.042 C 
ENDROOT
BRANCH   1   2
ATOM      2  C   UNL A   1      43.120  22.291  26.991  1.00  0.00     0.117 C 
BRANCH   2   3
ATOM      3  N   UNL A   1      43.110  21.063  26.216  1.00  0.00    -0.353 N 
ATOM      4  C   UNL A   1      42.097  20.165  26.049  1.00  0.00     0.257 C 
ATOM      5  O   UNL A   1      42.293  19.179  25.334  1.00  0.00    -0.271 OA
ATOM      6  H   UNL A   1      43.948  20.848  25.747  1.00  0.00     0.163 HD
BRANCH   4   7
ATOM      7  C   UNL A   1      40.734  20.414  26.705  1.00  0.00     0.329 C 
BRANCH   7   8
ATOM      8  O   UNL A   1      39.660  20.758  25.847  1.00  0.00    -0.483 OA
BRANCH   8   9
ATOM      9  C   UNL A   1      38.994  21.942  26.053  1.00  0.00     0.131 A 
ATOM     10  C   UNL A   1      34.826  24.548  25.455  1.00  0.00     0.048 C 
ATOM     11  C   UNL A   1      35.571  23.237  25.387  1.00  0.00    -0.006 A 
ATOM     12  C   UNL A   1      34.951  22.090  24.860  1.00  0.00     0.046 A 
ATOM     13  C   UNL A   1      36.917  23.182  25.789  1.00  0.00     0.078 A 
ATOM     14  Cl  UNL A   1      33.311  22.102  24.317  1.00  0.00    -0.084 Cl
ATOM     15  C   UNL A   1      35.646  20.891  24.749  1.00  0.00     0.022 A 
ATOM     16  C   UNL A   1      37.633  21.967  25.659  1.00  0.00     0.043 A 
ATOM     17  N   UNL A   1      37.511  24.283  26.288  1.00  0.00    -0.256 NA
ATOM     18  C   UNL A   1      36.978  20.830  25.144  1.00  0.00     0.016 A 
ATOM     19  C   UNL A   1      38.798  24.220  26.677  1.00  0.00     0.115 A 
ATOM     20  C   UNL A   1      39.573  23.086  26.588  1.00  0.00     0.067 A 
ENDBRANCH   8   9
ENDBRANCH   7   8
ENDBRANCH   4   7
ENDBRANCH   2   3
ENDBRANCH   1   2
BRANCH   1  21
ATOM     21  C   UNL A   1      44.487  24.456  26.856  1.00  0.00     0.118 C 
BRANCH  21  22
ATOM     22  N   UNL A   1      43.558  24.887  25.821  1.00  0.00    -0.352 N 
ATOM     23  C   UNL A   1      42.478  25.730  25.904  1.00  0.00     0.251 C 
ATOM     24  H   UNL A   1      43.731  24.516  24.925  1.00  0.00     0.163 HD
ATOM     25  O   UNL A   1      41.701  25.817  24.955  1.00  0.00    -0.269 OA
BRANCH  23  26
ATOM     26  C   UNL A   1      42.237  26.517  27.131  1.00  0.00     0.039 A 
ATOM     27  C   UNL A   1      42.885  27.745  27.285  1.00  0.00     0.014 A 
ATOM     28  C   UNL A   1      41.403  26.029  28.141  1.00  0.00     0.014 A 
ATOM     29  C   UNL A   1      42.649  28.514  28.425  1.00  0.00     0.010 A 
ATOM     30  C   UNL A   1      41.128  26.820  29.255  1.00  0.00     0.010 A 
ATOM     31  C   UNL A   1      41.752  28.067  29.409  1.00  0.00    -0.014 A 
BRANCH  31  32
ATOM     32  C   UNL A   1      41.488  28.877  30.624  1.00  0.00     0.031 A 
ATOM     33  C   UNL A   1      40.360  29.870  30.626  1.00  0.00     0.074 A 
ATOM     34  C   UNL A   1      42.275  28.737  31.707  1.00  0.00     0.049 A 
ATOM     35  N   UNL A   1      39.986  30.691  31.572  1.00  0.00    -0.248 NA
ATOM     36  C   UNL A   1      39.553  29.963  29.398  1.00  0.00     0.031 C 
ATOM     37  C   UNL A   1      43.414  27.822  31.815  1.00  0.00     0.029 A 
ATOM     38  N   UNL A   1      42.241  29.368  32.926  1.00  0.00    -0.354 N 
ATOM     39  C   UNL A   1      38.899  31.388  31.060  1.00  0.00     0.074 A 
ATOM     40  C   UNL A   1      38.708  30.937  29.699  1.00  0.00     0.031 C 
ATOM     41  C   UNL A   1      43.957  27.937  33.039  1.00  0.00     0.029 A 
ATOM     42  C   UNL A   1      43.224  28.951  33.793  1.00  0.00     0.049 A 
ATOM     43  H   UNL A   1      41.575  30.055  33.158  1.00  0.00     0.167 HD
ATOM     44  C   UNL A   1      38.111  32.299  31.679  1.00  0.00     0.037 A 
ATOM     45  C   UNL A   1      43.500  29.344  35.052  1.00  0.00     0.037 A 
ATOM     46  C   UNL A   1      38.294  32.732  33.038  1.00  0.00     0.049 A 
ATOM     47  C   UNL A   1      42.643  30.400  35.698  1.00  0.00     0.074 A 
ATOM     48  C   UNL A   1      37.524  33.620  33.768  1.00  0.00     0.029 A 
ATOM     49  N   UNL A   1      39.317  32.309  33.873  1.00  0.00    -0.354 N 
ATOM     50  N   UNL A   1      41.587  31.012  35.216  1.00  0.00    -0.248 NA
ATOM     51  C   UNL A   1      43.016  30.825  37.056  1.00  0.00     0.031 C 
ATOM     52  C   UNL A   1      38.102  33.762  35.033  1.00  0.00     0.029 A 
ATOM     53  C   UNL A   1      39.212  32.936  35.103  1.00  0.00     0.049 A 
ATOM     54  H   UNL A   1      40.016  31.660  33.628  1.00  0.00     0.167 HD
ATOM     55  C   UNL A   1      41.160  31.878  36.217  1.00  0.00     0.074 A 
ATOM     56  C   UNL A   1      42.061  31.701  37.337  1.00  0.00     0.031 C 
ATOM     57  C   UNL A   1      40.118  32.744  36.208  1.00  0.00     0.037 A 
BRANCH  44  58
ATOM     58  C   UNL A   1      36.960  32.868  30.903  1.00  0.00     0.058 A 
ATOM     59  C   UNL A   1      35.666  32.339  31.034  1.00  0.00     0.135 A 
ATOM     60  C   UNL A   1      37.132  33.986  30.073  1.00  0.00     0.135 A 
ATOM     61  F   UNL A   1      35.452  31.257  31.800  1.00  0.00    -0.206 F 
ATOM     62  C   UNL A   1      34.584  32.892  30.359  1.00  0.00     0.059 A 
ATOM     63  C   UNL A   1      36.059  34.571  29.406  1.00  0.00     0.059 A 
ATOM     64  F   UNL A   1      38.350  34.527  29.911  1.00  0.00    -0.206 F 
ATOM     65  C   UNL A   1      34.790  34.012  29.551  1.00  0.00     0.060 A 
BRANCH  65  66
ATOM     66  S   UNL A   1      33.365  34.733  28.710  1.00  0.00     0.124 S 
ATOM     67  O   UNL A   1      33.982  35.847  27.994  1.00  0.00    -0.237 OA
ATOM     68  O   UNL A   1      32.900  33.627  27.880  1.00  0.00    -0.237 OA
ATOM     69  O   UNL A   1      32.476  35.109  29.805  1.00  0.00    -0.744 OA
ENDBRANCH  65  66
ENDBRANCH  44  58
BRANCH  45  70
ATOM     70  C   UNL A   1      44.628  28.727  35.801  1.00  0.00     0.058 A 
ATOM     71  C   UNL A   1      44.410  27.628  36.643  1.00  0.00     0.135 A 
ATOM     72  C   UNL A   1      45.936  29.227  35.702  1.00  0.00     0.135 A 
ATOM     73  F   UNL A   1      43.176  27.120  36.777  1.00  0.00    -0.206 F 
ATOM     74  C   UNL A   1      45.443  27.057  37.379  1.00  0.00     0.059 A 
ATOM     75  C   UNL A   1      46.991  28.659  36.410  1.00  0.00     0.059 A 
ATOM     76  F   UNL A   1      46.198  30.272  34.901  1.00  0.00    -0.206 F 
ATOM     77  C   UNL A   1      46.732  27.581  37.256  1.00  0.00     0.060 A 
BRANCH  77  78
ATOM     78  S   UNL A   1      48.067  26.813  38.199  1.00  0.00     0.124 S 
ATOM     79  O   UNL A   1      48.704  27.976  38.806  1.00  0.00    -0.237 OA
ATOM     80  O   UNL A   1      47.335  25.937  39.109  1.00  0.00    -0.237 OA
ATOM     81  O   UNL A   1      48.850  26.127  37.176  1.00  0.00    -0.744 OA
ENDBRANCH  77  78
ENDBRANCH  45  70
BRANCH  57  82
ATOM     82  C   UNL A   1      39.885  33.569  37.441  1.00  0.00     0.058 A 
ATOM     83  C   UNL A   1      40.564  34.780  37.645  1.00  0.00     0.135 A 
ATOM     84  C   UNL A   1      38.912  33.192  38.382  1.00  0.00     0.135 A 
ATOM     85  F   UNL A   1      41.508  35.179  36.779  1.00  0.00    -0.206 F 
ATOM     86  C   UNL A   1      40.287  35.590  38.741  1.00  0.00     0.059 A 
ATOM     87  C   UNL A   1      38.604  33.998  39.473  1.00  0.00     0.059 A 
ATOM     88  F   UNL A   1      38.230  32.047  38.227  1.00  0.00    -0.206 F 
ATOM     89  C   UNL A   1      39.299  35.194  39.646  1.00  0.00     0.060 A 
BRANCH  89  90
ATOM     90  S   UNL A   1      38.906  36.290  41.025  1.00  0.00     0.124 S 
ATOM     91  O   UNL A   1      37.816  35.569  41.674  1.00  0.00    -0.237 OA
ATOM     92  O   UNL A   1      40.165  36.329  41.761  1.00  0.00    -0.237 OA
ATOM     93  O   UNL A   1      38.530  37.540  40.371  1.00  0.00    -0.744 OA
ENDBRANCH  89  90
ENDBRANCH  57  82
ENDBRANCH  31  32
ENDBRANCH  23  26
ENDBRANCH  21  22
ENDBRANCH   1  21
TORSDOF 15
ENDMDL
