MODEL 1
REMARK VINA RESULT:     -12.4      0.000      0.000
REMARK SMILES O=C(NCCCNC(=O)[C@H]1CC[C@H](CNC(=O)c2ccccc2O)O1)c1ccc(-c2c3nc(c(-c4c(F)cc(S(=O)(=O)[O-])cc4F)c4ccc([nH]4)c(-c4c(F)cc(S(=O)(=O)[O-])cc4F)c4nc(c(-c5c(F)cc(S(=O)(=O)[O-])cc5F)c5ccc2[nH]5)C=C4)C=C3)cc1
REMARK SMILES IDX 5 1 4 2 3 3 1 4 2 5 26 7 27 8 91 9 28 10 90 11 29 12 30 13
REMARK SMILES IDX 31 14 84 15 32 16 89 17 83 18 85 19 33 20 88 21 82 22 81 23
REMARK SMILES IDX 34 25 68 26 47 27 67 28 48 29 51 30 66 31 86 32 49 33 50 34
REMARK SMILES IDX 65 36 87 37 52 38 35 39 36 40 45 41 37 42 38 43 44 44 46 45
REMARK SMILES IDX 39 46 40 47 41 48 42 49 43 50 69 51 70 52 79 53 71 54 72 55
REMARK SMILES IDX 78 56 80 57 73 58 74 59 75 60 76 61 77 62 53 63 54 64 63 65
REMARK SMILES IDX 55 66 56 67 62 68 64 69 57 70 58 71 59 72 60 73 61 74 6 75
REMARK SMILES IDX 7 76 8 77 9 79 10 80 11 81 25 82 12 83 13 84 14 85 15 86
REMARK SMILES IDX 16 87 17 89 18 90 19 91 23 92 20 93 22 94 21 95 24 96
REMARK H PARENT 3 6 85 24 51 35 7 78 15 88 24 97
REMARK Flexibility Score: inf
ROOT
ATOM      1  C   UNL A   1      34.514  31.034  27.578  1.00  0.00     0.042 C 
ENDROOT
BRANCH   1   2
ATOM      2  C   UNL A   1      35.782  31.416  28.329  1.00  0.00     0.118 C 
BRANCH   2   3
ATOM      3  N   UNL A   1      35.662  31.133  29.753  1.00  0.00    -0.352 N 
ATOM      4  O   UNL A   1      36.077  30.048  31.675  1.00  0.00    -0.269 OA
ATOM      5  C   UNL A   1      36.489  30.414  30.579  1.00  0.00     0.251 C 
ATOM      6  H   UNL A   1      34.866  31.516  30.189  1.00  0.00     0.163 HD
BRANCH   5   7
ATOM      7  C   UNL A   1      37.864  30.088  30.148  1.00  0.00     0.039 A 
ATOM      8  C   UNL A   1      38.862  29.837  31.093  1.00  0.00     0.014 A 
ATOM      9  C   UNL A   1      38.145  29.978  28.785  1.00  0.00     0.014 A 
ATOM     10  C   UNL A   1      40.166  29.607  30.681  1.00  0.00     0.010 A 
ATOM     11  C   UNL A   1      39.436  29.647  28.371  1.00  0.00     0.010 A 
ATOM     12  C   UNL A   1      40.460  29.475  29.316  1.00  0.00    -0.014 A 
BRANCH  12  13
ATOM     13  C   UNL A   1      41.821  29.063  28.900  1.00  0.00     0.031 A 
ATOM     14  C   UNL A   1      42.939  30.059  28.820  1.00  0.00     0.074 A 
ATOM     15  C   UNL A   1      42.027  27.773  28.570  1.00  0.00     0.049 A 
ATOM     16  N   UNL A   1      44.168  29.885  28.411  1.00  0.00    -0.248 NA
ATOM     17  C   UNL A   1      42.634  31.434  29.245  1.00  0.00     0.031 C 
ATOM     18  C   UNL A   1      41.002  26.724  28.600  1.00  0.00     0.029 A 
ATOM     19  N   UNL A   1      43.152  27.122  28.138  1.00  0.00    -0.354 N 
ATOM     20  C   UNL A   1      44.778  31.129  28.499  1.00  0.00     0.074 A 
ATOM     21  C   UNL A   1      43.776  32.055  28.982  1.00  0.00     0.031 C 
ATOM     22  C   UNL A   1      41.547  25.563  28.217  1.00  0.00     0.029 A 
ATOM     23  C   UNL A   1      42.937  25.796  27.845  1.00  0.00     0.049 A 
ATOM     24  H   UNL A   1      44.029  27.561  28.048  1.00  0.00     0.167 HD
ATOM     25  C   UNL A   1      46.058  31.461  28.202  1.00  0.00     0.037 A 
ATOM     26  C   UNL A   1      43.750  24.878  27.291  1.00  0.00     0.037 A 
ATOM     27  C   UNL A   1      47.038  30.519  27.721  1.00  0.00     0.049 A 
ATOM     28  C   UNL A   1      45.154  25.272  26.944  1.00  0.00     0.074 A 
ATOM     29  C   UNL A   1      48.372  30.739  27.433  1.00  0.00     0.029 A 
ATOM     30  N   UNL A   1      46.783  29.182  27.440  1.00  0.00    -0.354 N 
ATOM     31  N   UNL A   1      45.733  26.441  27.077  1.00  0.00    -0.248 NA
ATOM     32  C   UNL A   1      46.017  24.231  26.375  1.00  0.00     0.031 C 
ATOM     33  C   UNL A   1      48.909  29.552  26.922  1.00  0.00     0.029 A 
ATOM     34  C   UNL A   1      47.927  28.574  26.952  1.00  0.00     0.049 A 
ATOM     35  H   UNL A   1      45.916  28.735  27.569  1.00  0.00     0.167 HD
ATOM     36  C   UNL A   1      47.035  26.275  26.626  1.00  0.00     0.074 A 
ATOM     37  C   UNL A   1      47.159  24.889  26.221  1.00  0.00     0.031 C 
ATOM     38  C   UNL A   1      48.034  27.187  26.557  1.00  0.00     0.037 A 
BRANCH  25  39
ATOM     39  C   UNL A   1      46.455  32.906  28.347  1.00  0.00     0.058 A 
ATOM     40  C   UNL A   1      47.005  33.414  29.535  1.00  0.00     0.135 A 
ATOM     41  C   UNL A   1      46.280  33.800  27.277  1.00  0.00     0.135 A 
ATOM     42  F   UNL A   1      47.185  32.611  30.596  1.00  0.00    -0.206 F 
ATOM     43  C   UNL A   1      47.319  34.764  29.674  1.00  0.00     0.059 A 
ATOM     44  C   UNL A   1      46.616  35.147  27.383  1.00  0.00     0.059 A 
ATOM     45  F   UNL A   1      45.765  33.371  26.114  1.00  0.00    -0.206 F 
ATOM     46  C   UNL A   1      47.112  35.624  28.594  1.00  0.00     0.060 A 
BRANCH  46  47
ATOM     47  S   UNL A   1      47.481  37.378  28.806  1.00  0.00     0.124 S 
ATOM     48  O   UNL A   1      47.030  37.605  30.176  1.00  0.00    -0.237 OA
ATOM     49  O   UNL A   1      48.924  37.422  28.600  1.00  0.00    -0.237 OA
ATOM     50  O   UNL A   1      46.682  38.022  27.768  1.00  0.00    -0.744 OA
ENDBRANCH  46  47
ENDBRANCH  25  39
BRANCH  26  51
ATOM     51  C   UNL A   1      43.219  23.516  27.023  1.00  0.00     0.058 A 
ATOM     52  C   UNL A   1      42.886  23.109  25.725  1.00  0.00     0.135 A 
ATOM     53  C   UNL A   1      43.133  22.564  28.052  1.00  0.00     0.135 A 
ATOM     54  F   UNL A   1      42.953  23.982  24.709  1.00  0.00    -0.206 F 
ATOM     55  C   UNL A   1      42.492  21.803  25.453  1.00  0.00     0.059 A 
ATOM     56  C   UNL A   1      42.769  21.246  27.802  1.00  0.00     0.059 A 
ATOM     57  F   UNL A   1      43.463  22.900  29.309  1.00  0.00    -0.206 F 
ATOM     58  C   UNL A   1      42.450  20.874  26.496  1.00  0.00     0.060 A 
BRANCH  58  59
ATOM     59  S   UNL A   1      42.033  19.160  26.114  1.00  0.00     0.124 S 
ATOM     60  O   UNL A   1      40.593  19.247  25.902  1.00  0.00    -0.237 OA
ATOM     61  O   UNL A   1      42.841  18.907  24.924  1.00  0.00    -0.237 OA
ATOM     62  O   UNL A   1      42.453  18.437  27.310  1.00  0.00    -0.744 OA
ENDBRANCH  58  59
ENDBRANCH  26  51
BRANCH  38  63
ATOM     63  C   UNL A   1      49.371  26.718  26.057  1.00  0.00     0.058 A 
ATOM     64  C   UNL A   1      49.775  26.916  24.729  1.00  0.00     0.135 A 
ATOM     65  C   UNL A   1      50.293  26.142  26.947  1.00  0.00     0.135 A 
ATOM     66  F   UNL A   1      48.925  27.448  23.836  1.00  0.00    -0.206 F 
ATOM     67  C   UNL A   1      51.050  26.563  24.299  1.00  0.00     0.059 A 
ATOM     68  C   UNL A   1      51.582  25.807  26.546  1.00  0.00     0.059 A 
ATOM     69  F   UNL A   1      49.955  25.934  28.230  1.00  0.00    -0.206 F 
ATOM     70  C   UNL A   1      51.950  26.020  25.219  1.00  0.00     0.060 A 
BRANCH  70  71
ATOM     71  S   UNL A   1      53.627  25.641  24.668  1.00  0.00     0.124 S 
ATOM     72  O   UNL A   1      54.431  26.324  25.678  1.00  0.00    -0.237 OA
ATOM     73  O   UNL A   1      53.649  24.183  24.719  1.00  0.00    -0.237 OA
ATOM     74  O   UNL A   1      53.682  26.217  23.328  1.00  0.00    -0.744 OA
ENDBRANCH  70  71
ENDBRANCH  38  63
ENDBRANCH  12  13
ENDBRANCH   5   7
ENDBRANCH   2   3
ENDBRANCH   1   2
BRANCH   1  75
ATOM     75  C   UNL A   1      34.523  29.574  27.141  1.00  0.00     0.117 C 
BRANCH  75  76
ATOM     76  N   UNL A   1      33.409  28.845  27.709  1.00  0.00    -0.354 N 
ATOM     77  C   UNL A   1      32.228  28.474  27.139  1.00  0.00     0.249 C 
ATOM     78  H   UNL A   1      33.522  28.577  28.649  1.00  0.00     0.163 HD
ATOM     79  O   UNL A   1      31.417  27.877  27.854  1.00  0.00    -0.272 OA
BRANCH  77  80
ATOM     80  C   UNL A   1      31.904  28.775  25.660  1.00  0.00     0.207 C 
ATOM     81  C   UNL A   1      33.002  28.445  24.667  1.00  0.00     0.045 C 
ATOM     82  O   UNL A   1      30.697  28.150  25.226  1.00  0.00    -0.363 OA
ATOM     83  C   UNL A   1      32.407  27.430  23.719  1.00  0.00     0.037 C 
ATOM     84  C   UNL A   1      30.911  27.460  23.989  1.00  0.00     0.138 C 
BRANCH  84  85
ATOM     85  C   UNL A   1      30.105  28.131  22.876  1.00  0.00     0.148 C 
BRANCH  85  86
ATOM     86  N   UNL A   1      28.671  27.972  23.076  1.00  0.00    -0.349 N 
ATOM     87  C   UNL A   1      27.696  28.936  23.061  1.00  0.00     0.255 C 
ATOM     88  H   UNL A   1      28.363  27.052  23.245  1.00  0.00     0.163 HD
ATOM     89  O   UNL A   1      26.546  28.652  23.385  1.00  0.00    -0.269 OA
BRANCH  87  90
ATOM     90  C   UNL A   1      28.035  30.336  22.731  1.00  0.00     0.081 A 
ATOM     91  C   UNL A   1      28.383  31.178  23.795  1.00  0.00     0.018 A 
ATOM     92  C   UNL A   1      27.994  30.842  21.427  1.00  0.00     0.128 A 
ATOM     93  C   UNL A   1      28.736  32.505  23.548  1.00  0.00     0.001 A 
ATOM     94  C   UNL A   1      28.352  32.168  21.181  1.00  0.00     0.047 A 
ATOM     95  C   UNL A   1      28.729  32.995  22.242  1.00  0.00     0.004 A 
BRANCH  92  96
ATOM     96  O   UNL A   1      27.604  30.047  20.386  1.00  0.00    -0.507 OA
ATOM     97  H   UNL A   1      27.395  30.430  19.557  1.00  0.00     0.293 HD
ENDBRANCH  92  96
ENDBRANCH  87  90
ENDBRANCH  85  86
ENDBRANCH  84  85
ENDBRANCH  77  80
ENDBRANCH  75  76
ENDBRANCH   1  75
TORSDOF 17
ENDMDL
MODEL 2
REMARK VINA RESULT:     -12.3      4.208     10.710
REMARK SMILES O=C(NCCCNC(=O)[C@H]1CC[C@H](CNC(=O)c2ccccc2O)O1)c1ccc(-c2c3nc(c(-c4c(F)cc(S(=O)(=O)[O-])cc4F)c4ccc([nH]4)c(-c4c(F)cc(S(=O)(=O)[O-])cc4F)c4nc(c(-c5c(F)cc(S(=O)(=O)[O-])cc5F)c5ccc2[nH]5)C=C4)C=C3)cc1
REMARK SMILES IDX 5 1 4 2 3 3 1 4 2 5 26 7 27 8 91 9 28 10 90 11 29 12 30 13
REMARK SMILES IDX 31 14 84 15 32 16 89 17 83 18 85 19 33 20 88 21 82 22 81 23
REMARK SMILES IDX 34 25 68 26 47 27 67 28 48 29 51 30 66 31 86 32 49 33 50 34
REMARK SMILES IDX 65 36 87 37 52 38 35 39 36 40 45 41 37 42 38 43 44 44 46 45
REMARK SMILES IDX 39 46 40 47 41 48 42 49 43 50 69 51 70 52 79 53 71 54 72 55
REMARK SMILES IDX 78 56 80 57 73 58 74 59 75 60 76 61 77 62 53 63 54 64 63 65
REMARK SMILES IDX 55 66 56 67 62 68 64 69 57 70 58 71 59 72 60 73 61 74 6 75
REMARK SMILES IDX 7 76 8 77 9 79 10 80 11 81 25 82 12 83 13 84 14 85 15 86
REMARK SMILES IDX 16 87 17 89 18 90 19 91 23 92 20 93 22 94 21 95 24 96
REMARK H PARENT 3 6 85 24 51 35 7 78 15 88 24 97
REMARK Flexibility Score: inf
ROOT
ATOM      1  C   UNL A   1      33.672  33.652  28.844  1.00  0.00     0.042 C 
ENDROOT
BRANCH   1   2
ATOM      2  C   UNL A   1      34.566  32.550  28.291  1.00  0.00     0.118 C 
BRANCH   2   3
ATOM      3  N   UNL A   1      33.834  31.300  28.137  1.00  0.00    -0.352 N 
ATOM      4  O   UNL A   1      33.527  29.158  27.537  1.00  0.00    -0.269 OA
ATOM      5  C   UNL A   1      34.301  30.028  27.922  1.00  0.00     0.251 C 
ATOM      6  H   UNL A   1      32.854  31.380  28.198  1.00  0.00     0.163 HD
BRANCH   5   7
ATOM      7  C   UNL A   1      35.726  29.714  28.155  1.00  0.00     0.039 A 
ATOM      8  C   UNL A   1      36.654  29.818  27.116  1.00  0.00     0.014 A 
ATOM      9  C   UNL A   1      36.148  29.367  29.440  1.00  0.00     0.014 A 
ATOM     10  C   UNL A   1      37.975  29.447  27.325  1.00  0.00     0.010 A 
ATOM     11  C   UNL A   1      37.496  29.092  29.673  1.00  0.00     0.010 A 
ATOM     12  C   UNL A   1      38.417  29.114  28.613  1.00  0.00    -0.014 A 
BRANCH  12  13
ATOM     13  C   UNL A   1      39.861  28.886  28.852  1.00  0.00     0.031 A 
ATOM     14  C   UNL A   1      40.506  27.581  28.494  1.00  0.00     0.074 A 
ATOM     15  C   UNL A   1      40.579  29.874  29.422  1.00  0.00     0.049 A 
ATOM     16  N   UNL A   1      41.736  27.189  28.697  1.00  0.00    -0.248 NA
ATOM     17  C   UNL A   1      39.656  26.579  27.832  1.00  0.00     0.031 C 
ATOM     18  C   UNL A   1      40.044  31.179  29.822  1.00  0.00     0.029 A 
ATOM     19  N   UNL A   1      41.902  29.938  29.773  1.00  0.00    -0.354 N 
ATOM     20  C   UNL A   1      41.805  25.887  28.217  1.00  0.00     0.074 A 
ATOM     21  C   UNL A   1      40.484  25.549  27.731  1.00  0.00     0.031 C 
ATOM     22  C   UNL A   1      41.029  31.916  30.350  1.00  0.00     0.029 A 
ATOM     23  C   UNL A   1      42.245  31.114  30.395  1.00  0.00     0.049 A 
ATOM     24  H   UNL A   1      42.544  29.211  29.597  1.00  0.00     0.167 HD
ATOM     25  C   UNL A   1      42.876  25.058  28.187  1.00  0.00     0.037 A 
ATOM     26  C   UNL A   1      43.396  31.493  30.981  1.00  0.00     0.037 A 
ATOM     27  C   UNL A   1      44.181  25.418  28.679  1.00  0.00     0.049 A 
ATOM     28  C   UNL A   1      44.561  30.549  30.963  1.00  0.00     0.074 A 
ATOM     29  C   UNL A   1      45.345  24.671  28.657  1.00  0.00     0.029 A 
ATOM     30  N   UNL A   1      44.492  26.623  29.298  1.00  0.00    -0.354 N 
ATOM     31  N   UNL A   1      44.625  29.339  30.463  1.00  0.00    -0.248 NA
ATOM     32  C   UNL A   1      45.805  31.015  31.583  1.00  0.00     0.031 C 
ATOM     33  C   UNL A   1      46.343  25.399  29.314  1.00  0.00     0.029 A 
ATOM     34  C   UNL A   1      45.820  26.627  29.690  1.00  0.00     0.049 A 
ATOM     35  H   UNL A   1      43.859  27.364  29.438  1.00  0.00     0.167 HD
ATOM     36  C   UNL A   1      45.923  28.902  30.690  1.00  0.00     0.074 A 
ATOM     37  C   UNL A   1      46.611  29.982  31.369  1.00  0.00     0.031 C 
ATOM     38  C   UNL A   1      46.491  27.716  30.364  1.00  0.00     0.037 A 
BRANCH  25  39
ATOM     39  C   UNL A   1      42.665  23.668  27.647  1.00  0.00     0.058 A 
ATOM     40  C   UNL A   1      42.431  22.567  28.488  1.00  0.00     0.135 A 
ATOM     41  C   UNL A   1      42.698  23.432  26.263  1.00  0.00     0.135 A 
ATOM     42  F   UNL A   1      42.398  22.728  29.821  1.00  0.00    -0.206 F 
ATOM     43  C   UNL A   1      42.289  21.279  27.979  1.00  0.00     0.059 A 
ATOM     44  C   UNL A   1      42.528  22.157  25.730  1.00  0.00     0.059 A 
ATOM     45  F   UNL A   1      42.912  24.446  25.409  1.00  0.00    -0.206 F 
ATOM     46  C   UNL A   1      42.348  21.083  26.599  1.00  0.00     0.060 A 
BRANCH  46  47
ATOM     47  S   UNL A   1      42.210  19.401  25.959  1.00  0.00     0.124 S 
ATOM     48  O   UNL A   1      40.767  19.283  25.767  1.00  0.00    -0.237 OA
ATOM     49  O   UNL A   1      43.007  19.463  24.740  1.00  0.00    -0.237 OA
ATOM     50  O   UNL A   1      42.769  18.582  27.030  1.00  0.00    -0.744 OA
ENDBRANCH  46  47
ENDBRANCH  25  39
BRANCH  26  51
ATOM     51  C   UNL A   1      43.461  32.820  31.646  1.00  0.00     0.058 A 
ATOM     52  C   UNL A   1      43.365  32.942  33.037  1.00  0.00     0.135 A 
ATOM     53  C   UNL A   1      43.725  33.983  30.902  1.00  0.00     0.135 A 
ATOM     54  F   UNL A   1      43.114  31.861  33.791  1.00  0.00    -0.206 F 
ATOM     55  C   UNL A   1      43.534  34.168  33.673  1.00  0.00     0.059 A 
ATOM     56  C   UNL A   1      43.925  35.214  31.515  1.00  0.00     0.059 A 
ATOM     57  F   UNL A   1      43.849  33.914  29.567  1.00  0.00    -0.206 F 
ATOM     58  C   UNL A   1      43.827  35.297  32.903  1.00  0.00     0.060 A 
BRANCH  58  59
ATOM     59  S   UNL A   1      44.142  36.862  33.746  1.00  0.00     0.124 S 
ATOM     60  O   UNL A   1      44.726  37.661  32.675  1.00  0.00    -0.237 OA
ATOM     61  O   UNL A   1      42.802  37.252  34.176  1.00  0.00    -0.237 OA
ATOM     62  O   UNL A   1      45.052  36.487  34.823  1.00  0.00    -0.744 OA
ENDBRANCH  58  59
ENDBRANCH  26  51
BRANCH  38  63
ATOM     63  C   UNL A   1      47.943  27.524  30.700  1.00  0.00     0.058 A 
ATOM     64  C   UNL A   1      48.350  26.896  31.885  1.00  0.00     0.135 A 
ATOM     65  C   UNL A   1      48.934  27.895  29.777  1.00  0.00     0.135 A 
ATOM     66  F   UNL A   1      47.442  26.536  32.806  1.00  0.00    -0.206 F 
ATOM     67  C   UNL A   1      49.693  26.638  32.144  1.00  0.00     0.059 A 
ATOM     68  C   UNL A   1      50.279  27.623  30.002  1.00  0.00     0.059 A 
ATOM     69  F   UNL A   1      48.594  28.497  28.625  1.00  0.00    -0.206 F 
ATOM     70  C   UNL A   1      50.648  26.996  31.190  1.00  0.00     0.060 A 
BRANCH  70  71
ATOM     71  S   UNL A   1      52.378  26.583  31.502  1.00  0.00     0.124 S 
ATOM     72  O   UNL A   1      52.999  26.928  30.227  1.00  0.00    -0.237 OA
ATOM     73  O   UNL A   1      52.708  27.456  32.625  1.00  0.00    -0.237 OA
ATOM     74  O   UNL A   1      52.336  25.158  31.815  1.00  0.00    -0.744 OA
ENDBRANCH  70  71
ENDBRANCH  38  63
ENDBRANCH  12  13
ENDBRANCH   5   7
ENDBRANCH   2   3
ENDBRANCH   1   2
BRANCH   1  75
ATOM     75  C   UNL A   1      34.471  34.869  29.292  1.00  0.00     0.117 C 
BRANCH  75  76
ATOM     76  N   UNL A   1      33.801  35.578  30.362  1.00  0.00    -0.354 N 
ATOM     77  C   UNL A   1      33.946  35.459  31.712  1.00  0.00     0.249 C 
ATOM     78  H   UNL A   1      33.141  36.247  30.069  1.00  0.00     0.163 HD
ATOM     79  O   UNL A   1      33.225  36.166  32.423  1.00  0.00    -0.272 OA
BRANCH  77  80
ATOM     80  C   UNL A   1      34.969  34.491  32.342  1.00  0.00     0.207 C 
ATOM     81  C   UNL A   1      34.444  33.109  32.683  1.00  0.00     0.045 C 
ATOM     82  O   UNL A   1      36.146  34.345  31.548  1.00  0.00    -0.363 OA
ATOM     83  C   UNL A   1      35.281  32.141  31.880  1.00  0.00     0.037 C 
ATOM     84  C   UNL A   1      36.459  32.957  31.372  1.00  0.00     0.138 C 
BRANCH  84  85
ATOM     85  C   UNL A   1      37.776  32.631  32.078  1.00  0.00     0.148 C 
BRANCH  85  86
ATOM     86  N   UNL A   1      37.590  32.460  33.513  1.00  0.00    -0.349 N 
ATOM     87  C   UNL A   1      37.975  31.408  34.303  1.00  0.00     0.255 C 
ATOM     88  H   UNL A   1      37.127  33.196  33.975  1.00  0.00     0.163 HD
ATOM     89  O   UNL A   1      37.620  31.358  35.478  1.00  0.00    -0.269 OA
BRANCH  87  90
ATOM     90  C   UNL A   1      38.753  30.290  33.731  1.00  0.00     0.081 A 
ATOM     91  C   UNL A   1      40.150  30.395  33.770  1.00  0.00     0.018 A 
ATOM     92  C   UNL A   1      38.156  29.170  33.141  1.00  0.00     0.128 A 
ATOM     93  C   UNL A   1      40.942  29.362  33.267  1.00  0.00     0.001 A 
ATOM     94  C   UNL A   1      38.950  28.136  32.643  1.00  0.00     0.047 A 
ATOM     95  C   UNL A   1      40.342  28.232  32.713  1.00  0.00     0.004 A 
BRANCH  92  96
ATOM     96  O   UNL A   1      36.796  29.077  33.046  1.00  0.00    -0.507 OA
ATOM     97  H   UNL A   1      36.393  28.251  32.867  1.00  0.00     0.293 HD
ENDBRANCH  92  96
ENDBRANCH  87  90
ENDBRANCH  85  86
ENDBRANCH  84  85
ENDBRANCH  77  80
ENDBRANCH  75  76
ENDBRANCH   1  75
TORSDOF 17
ENDMDL
MODEL 3
REMARK VINA RESULT:     -12.3      4.110     10.709
REMARK SMILES O=C(NCCCNC(=O)[C@H]1CC[C@H](CNC(=O)c2ccccc2O)O1)c1ccc(-c2c3nc(c(-c4c(F)cc(S(=O)(=O)[O-])cc4F)c4ccc([nH]4)c(-c4c(F)cc(S(=O)(=O)[O-])cc4F)c4nc(c(-c5c(F)cc(S(=O)(=O)[O-])cc5F)c5ccc2[nH]5)C=C4)C=C3)cc1
REMARK SMILES IDX 5 1 4 2 3 3 1 4 2 5 26 7 27 8 91 9 28 10 90 11 29 12 30 13
REMARK SMILES IDX 31 14 84 15 32 16 89 17 83 18 85 19 33 20 88 21 82 22 81 23
REMARK SMILES IDX 34 25 68 26 47 27 67 28 48 29 51 30 66 31 86 32 49 33 50 34
REMARK SMILES IDX 65 36 87 37 52 38 35 39 36 40 45 41 37 42 38 43 44 44 46 45
REMARK SMILES IDX 39 46 40 47 41 48 42 49 43 50 69 51 70 52 79 53 71 54 72 55
REMARK SMILES IDX 78 56 80 57 73 58 74 59 75 60 76 61 77 62 53 63 54 64 63 65
REMARK SMILES IDX 55 66 56 67 62 68 64 69 57 70 58 71 59 72 60 73 61 74 6 75
REMARK SMILES IDX 7 76 8 77 9 79 10 80 11 81 25 82 12 83 13 84 14 85 15 86
REMARK SMILES IDX 16 87 17 89 18 90 19 91 23 92 20 93 22 94 21 95 24 96
REMARK H PARENT 3 6 85 24 51 35 7 78 15 88 24 97
REMARK Flexibility Score: inf
ROOT
ATOM      1  C   UNL A   1      34.257  33.714  28.075  1.00  0.00     0.042 C 
ENDROOT
BRANCH   1   2
ATOM      2  C   UNL A   1      35.027  32.506  28.590  1.00  0.00     0.118 C 
BRANCH   2   3
ATOM      3  N   UNL A   1      34.304  31.267  28.334  1.00  0.00    -0.352 N 
ATOM      4  O   UNL A   1      34.008  29.186  27.543  1.00  0.00    -0.269 OA
ATOM      5  C   UNL A   1      34.781  30.026  27.993  1.00  0.00     0.251 C 
ATOM      6  H   UNL A   1      33.325  31.330  28.419  1.00  0.00     0.163 HD
BRANCH   5   7
ATOM      7  C   UNL A   1      36.213  29.709  28.171  1.00  0.00     0.039 A 
ATOM      8  C   UNL A   1      37.122  29.934  27.134  1.00  0.00     0.014 A 
ATOM      9  C   UNL A   1      36.659  29.233  29.406  1.00  0.00     0.014 A 
ATOM     10  C   UNL A   1      38.450  29.561  27.284  1.00  0.00     0.010 A 
ATOM     11  C   UNL A   1      38.014  28.954  29.588  1.00  0.00     0.010 A 
ATOM     12  C   UNL A   1      38.917  29.100  28.522  1.00  0.00    -0.014 A 
BRANCH  12  13
ATOM     13  C   UNL A   1      40.368  28.868  28.715  1.00  0.00     0.031 A 
ATOM     14  C   UNL A   1      40.992  27.551  28.362  1.00  0.00     0.074 A 
ATOM     15  C   UNL A   1      41.112  29.862  29.238  1.00  0.00     0.049 A 
ATOM     16  N   UNL A   1      42.226  27.155  28.530  1.00  0.00    -0.248 NA
ATOM     17  C   UNL A   1      40.113  26.541  27.753  1.00  0.00     0.031 C 
ATOM     18  C   UNL A   1      40.599  31.179  29.629  1.00  0.00     0.029 A 
ATOM     19  N   UNL A   1      42.446  29.925  29.541  1.00  0.00    -0.354 N 
ATOM     20  C   UNL A   1      42.270  25.844  28.075  1.00  0.00     0.074 A 
ATOM     21  C   UNL A   1      40.931  25.504  27.644  1.00  0.00     0.031 C 
ATOM     22  C   UNL A   1      41.606  31.921  30.106  1.00  0.00     0.029 A 
ATOM     23  C   UNL A   1      42.818  31.112  30.125  1.00  0.00     0.049 A 
ATOM     24  H   UNL A   1      43.077  29.191  29.358  1.00  0.00     0.167 HD
ATOM     25  C   UNL A   1      43.334  25.006  28.025  1.00  0.00     0.037 A 
ATOM     26  C   UNL A   1      43.991  31.495  30.662  1.00  0.00     0.037 A 
ATOM     27  C   UNL A   1      44.659  25.369  28.462  1.00  0.00     0.049 A 
ATOM     28  C   UNL A   1      45.149  30.544  30.622  1.00  0.00     0.074 A 
ATOM     29  C   UNL A   1      45.817  24.614  28.415  1.00  0.00     0.029 A 
ATOM     30  N   UNL A   1      44.998  26.584  29.044  1.00  0.00    -0.354 N 
ATOM     31  N   UNL A   1      45.189  29.323  30.146  1.00  0.00    -0.248 NA
ATOM     32  C   UNL A   1      46.418  31.015  31.188  1.00  0.00     0.031 C 
ATOM     33  C   UNL A   1      46.842  25.349  29.021  1.00  0.00     0.029 A 
ATOM     34  C   UNL A   1      46.340  26.587  29.389  1.00  0.00     0.049 A 
ATOM     35  H   UNL A   1      44.375  27.332  29.191  1.00  0.00     0.167 HD
ATOM     36  C   UNL A   1      46.492  28.882  30.336  1.00  0.00     0.074 A 
ATOM     37  C   UNL A   1      47.209  29.972  30.967  1.00  0.00     0.031 C 
ATOM     38  C   UNL A   1      47.040  27.686  30.015  1.00  0.00     0.037 A 
BRANCH  25  39
ATOM     39  C   UNL A   1      43.096  23.607  27.522  1.00  0.00     0.058 A 
ATOM     40  C   UNL A   1      43.224  23.269  26.165  1.00  0.00     0.135 A 
ATOM     41  C   UNL A   1      42.733  22.585  28.415  1.00  0.00     0.135 A 
ATOM     42  F   UNL A   1      43.559  24.205  25.263  1.00  0.00    -0.206 F 
ATOM     43  C   UNL A   1      42.951  21.984  25.705  1.00  0.00     0.059 A 
ATOM     44  C   UNL A   1      42.485  21.285  27.982  1.00  0.00     0.059 A 
ATOM     45  F   UNL A   1      42.601  22.846  29.725  1.00  0.00    -0.206 F 
ATOM     46  C   UNL A   1      42.573  21.000  26.621  1.00  0.00     0.060 A 
BRANCH  46  47
ATOM     47  S   UNL A   1      42.177  19.351  26.002  1.00  0.00     0.124 S 
ATOM     48  O   UNL A   1      42.598  18.514  27.122  1.00  0.00    -0.237 OA
ATOM     49  O   UNL A   1      40.738  19.437  25.783  1.00  0.00    -0.237 OA
ATOM     50  O   UNL A   1      42.988  19.238  24.793  1.00  0.00    -0.744 OA
ENDBRANCH  46  47
ENDBRANCH  25  39
BRANCH  26  51
ATOM     51  C   UNL A   1      44.088  32.836  31.295  1.00  0.00     0.058 A 
ATOM     52  C   UNL A   1      44.332  33.985  30.533  1.00  0.00     0.135 A 
ATOM     53  C   UNL A   1      43.835  33.001  32.667  1.00  0.00     0.135 A 
ATOM     54  F   UNL A   1      44.579  33.878  29.218  1.00  0.00    -0.206 F 
ATOM     55  C   UNL A   1      44.315  35.253  31.104  1.00  0.00     0.059 A 
ATOM     56  C   UNL A   1      43.786  34.259  33.257  1.00  0.00     0.059 A 
ATOM     57  F   UNL A   1      43.574  31.932  33.436  1.00  0.00    -0.206 F 
ATOM     58  C   UNL A   1      44.028  35.381  32.465  1.00  0.00     0.060 A 
BRANCH  58  59
ATOM     59  S   UNL A   1      43.912  37.037  33.175  1.00  0.00     0.124 S 
ATOM     60  O   UNL A   1      42.682  36.939  33.951  1.00  0.00    -0.237 OA
ATOM     61  O   UNL A   1      45.149  37.126  33.945  1.00  0.00    -0.237 OA
ATOM     62  O   UNL A   1      43.851  37.902  32.001  1.00  0.00    -0.744 OA
ENDBRANCH  58  59
ENDBRANCH  26  51
BRANCH  38  63
ATOM     63  C   UNL A   1      48.502  27.492  30.303  1.00  0.00     0.058 A 
ATOM     64  C   UNL A   1      48.954  27.013  31.541  1.00  0.00     0.135 A 
ATOM     65  C   UNL A   1      49.453  27.704  29.292  1.00  0.00     0.135 A 
ATOM     66  F   UNL A   1      48.086  26.810  32.545  1.00  0.00    -0.206 F 
ATOM     67  C   UNL A   1      50.301  26.748  31.767  1.00  0.00     0.059 A 
ATOM     68  C   UNL A   1      50.801  27.418  29.486  1.00  0.00     0.059 A 
ATOM     69  F   UNL A   1      49.070  28.158  28.087  1.00  0.00    -0.206 F 
ATOM     70  C   UNL A   1      51.214  26.942  30.728  1.00  0.00     0.060 A 
BRANCH  70  71
ATOM     71  S   UNL A   1      52.946  26.517  31.010  1.00  0.00     0.124 S 
ATOM     72  O   UNL A   1      53.427  27.695  31.725  1.00  0.00    -0.237 OA
ATOM     73  O   UNL A   1      52.841  25.294  31.800  1.00  0.00    -0.237 OA
ATOM     74  O   UNL A   1      53.476  26.340  29.662  1.00  0.00    -0.744 OA
ENDBRANCH  70  71
ENDBRANCH  38  63
ENDBRANCH  12  13
ENDBRANCH   5   7
ENDBRANCH   2   3
ENDBRANCH   1   2
BRANCH   1  75
ATOM     75  C   UNL A   1      34.512  34.960  28.914  1.00  0.00     0.117 C 
BRANCH  75  76
ATOM     76  N   UNL A   1      33.500  35.125  29.936  1.00  0.00    -0.354 N 
ATOM     77  C   UNL A   1      33.584  34.943  31.284  1.00  0.00     0.249 C 
ATOM     78  H   UNL A   1      32.619  35.414  29.607  1.00  0.00     0.163 HD
ATOM     79  O   UNL A   1      32.555  35.123  31.944  1.00  0.00    -0.272 OA
BRANCH  77  80
ATOM     80  C   UNL A   1      34.903  34.536  31.973  1.00  0.00     0.207 C 
ATOM     81  C   UNL A   1      35.158  35.164  33.331  1.00  0.00     0.045 C 
ATOM     82  O   UNL A   1      35.043  33.121  32.095  1.00  0.00    -0.363 OA
ATOM     83  C   UNL A   1      35.271  34.012  34.301  1.00  0.00     0.037 C 
ATOM     84  C   UNL A   1      35.412  32.771  33.435  1.00  0.00     0.138 C 
BRANCH  84  85
ATOM     85  C   UNL A   1      36.822  32.179  33.445  1.00  0.00     0.148 C 
BRANCH  85  86
ATOM     86  N   UNL A   1      37.277  31.890  34.798  1.00  0.00    -0.349 N 
ATOM     87  C   UNL A   1      38.224  30.987  35.205  1.00  0.00     0.255 C 
ATOM     88  H   UNL A   1      36.846  32.412  35.514  1.00  0.00     0.163 HD
ATOM     89  O   UNL A   1      38.393  30.769  36.402  1.00  0.00    -0.269 OA
BRANCH  87  90
ATOM     90  C   UNL A   1      38.995  30.214  34.209  1.00  0.00     0.081 A 
ATOM     91  C   UNL A   1      40.333  30.577  34.012  1.00  0.00     0.018 A 
ATOM     92  C   UNL A   1      38.438  29.174  33.456  1.00  0.00     0.128 A 
ATOM     93  C   UNL A   1      41.122  29.872  33.103  1.00  0.00     0.001 A 
ATOM     94  C   UNL A   1      39.230  28.466  32.550  1.00  0.00     0.047 A 
ATOM     95  C   UNL A   1      40.572  28.813  32.380  1.00  0.00     0.004 A 
BRANCH  92  96
ATOM     96  O   UNL A   1      37.120  28.843  33.597  1.00  0.00    -0.507 OA
ATOM     97  H   UNL A   1      36.878  28.078  34.080  1.00  0.00     0.293 HD
ENDBRANCH  92  96
ENDBRANCH  87  90
ENDBRANCH  85  86
ENDBRANCH  84  85
ENDBRANCH  77  80
ENDBRANCH  75  76
ENDBRANCH   1  75
TORSDOF 17
ENDMDL
