MODEL 1
REMARK VINA RESULT:     -12.1      0.000      0.000
REMARK SMILES CN(c1ccccc1)c1nc(OCC(=O)NCCCNC(=O)c2ccc(-c3c4nc(c(-c5c(F)cc(S(=O)(=O)[O-])cc5F)c5ccc([nH]5)c(-c5c(F)cc(S(=O)(=O)[O-])cc5F)c5nc(c(-c6c(F)cc(S(=O)(=O)[O-])cc6F)c6ccc3[nH]6)C=C5)C=C4)cc2)cc(-c2ccncc2)n1
REMARK SMILES IDX 17 1 16 2 14 3 15 4 13 6 12 7 11 8 9 9 10 10 97 11 90 12
REMARK SMILES IDX 89 13 2 14 1 15 3 16 4 17 8 18 5 19 7 20 6 21 91 22 92 23
REMARK SMILES IDX 96 24 93 25 95 26 94 27 18 28 19 29 20 30 21 31 22 33 23 34
REMARK SMILES IDX 24 35 88 36 25 37 87 38 26 39 27 40 28 41 81 42 29 43 86 44
REMARK SMILES IDX 80 45 82 46 30 47 85 48 79 49 78 50 31 52 65 53 44 54 64 55
REMARK SMILES IDX 45 56 48 57 63 58 83 59 46 60 47 61 62 63 84 64 49 65 32 66
REMARK SMILES IDX 33 67 42 68 34 69 35 70 41 71 43 72 36 73 37 74 38 75 39 76
REMARK SMILES IDX 40 77 66 78 67 79 76 80 68 81 69 82 75 83 77 84 70 85 71 86
REMARK SMILES IDX 72 87 73 88 74 89 50 90 51 91 60 92 52 93 53 94 59 95 61 96
REMARK SMILES IDX 54 97 55 98 56 99 57 100 58 101
REMARK H PARENT 16 5 20 32 82 51 48 62
REMARK Flexibility Score: inf
ROOT
ATOM      1  C   UNL A   1      37.258  23.405  25.723  1.00  0.00     0.117 C 
ENDROOT
BRANCH   1   2
ATOM      2  N   UNL A   1      37.006  23.311  24.297  1.00  0.00    -0.353 N 
ATOM      3  C   UNL A   1      35.808  23.253  23.651  1.00  0.00     0.258 C 
ATOM      4  O   UNL A   1      35.797  23.191  22.420  1.00  0.00    -0.271 OA
ATOM      5  H   UNL A   1      37.803  23.287  23.722  1.00  0.00     0.163 HD
BRANCH   3   6
ATOM      6  C   UNL A   1      34.504  23.279  24.456  1.00  0.00     0.331 C 
BRANCH   6   7
ATOM      7  O   UNL A   1      34.476  24.137  25.580  1.00  0.00    -0.467 OA
BRANCH   7   8
ATOM      8  C   UNL A   1      33.780  25.307  25.485  1.00  0.00     0.219 A 
ATOM      9  C   UNL A   1      31.982  26.304  24.425  1.00  0.00     0.233 A 
ATOM     10  N   UNL A   1      32.742  25.216  24.649  1.00  0.00    -0.177 NA
ATOM     11  N   UNL A   1      32.246  27.493  24.992  1.00  0.00    -0.212 NA
ATOM     12  C   UNL A   1      33.273  27.551  25.859  1.00  0.00     0.080 A 
ATOM     13  C   UNL A   1      34.068  26.464  26.152  1.00  0.00     0.097 A 
BRANCH   9  14
ATOM     14  N   UNL A   1      30.847  26.154  23.611  1.00  0.00    -0.314 N 
ATOM     15  C   UNL A   1      30.518  24.779  23.262  1.00  0.00     0.153 C 
BRANCH  14  16
ATOM     16  C   UNL A   1      29.979  27.196  23.249  1.00  0.00     0.043 A 
ATOM     17  C   UNL A   1      30.466  28.266  22.473  1.00  0.00     0.026 A 
ATOM     18  C   UNL A   1      28.630  27.236  23.624  1.00  0.00     0.026 A 
ATOM     19  C   UNL A   1      29.648  29.327  22.084  1.00  0.00     0.002 A 
ATOM     20  C   UNL A   1      27.806  28.306  23.247  1.00  0.00     0.002 A 
ATOM     21  C   UNL A   1      28.314  29.347  22.475  1.00  0.00     0.000 A 
ENDBRANCH  14  16
ENDBRANCH   9  14
BRANCH  12  22
ATOM     22  C   UNL A   1      33.487  28.823  26.557  1.00  0.00     0.004 A 
ATOM     23  C   UNL A   1      32.485  29.801  26.601  1.00  0.00     0.030 A 
ATOM     24  C   UNL A   1      34.730  29.129  27.118  1.00  0.00     0.030 A 
ATOM     25  C   UNL A   1      32.775  31.031  27.167  1.00  0.00     0.111 A 
ATOM     26  C   UNL A   1      34.927  30.391  27.653  1.00  0.00     0.111 A 
ATOM     27  N   UNL A   1      33.981  31.353  27.681  1.00  0.00    -0.265 NA
ENDBRANCH  12  22
ENDBRANCH   7   8
ENDBRANCH   6   7
ENDBRANCH   3   6
ENDBRANCH   1   2
BRANCH   1  28
ATOM     28  C   UNL A   1      38.515  22.655  26.148  1.00  0.00     0.042 C 
BRANCH  28  29
ATOM     29  C   UNL A   1      39.516  23.486  26.947  1.00  0.00     0.118 C 
BRANCH  29  30
ATOM     30  N   UNL A   1      40.676  23.895  26.165  1.00  0.00    -0.352 N 
ATOM     31  C   UNL A   1      41.408  25.055  26.198  1.00  0.00     0.251 C 
ATOM     32  H   UNL A   1      40.985  23.231  25.507  1.00  0.00     0.163 HD
ATOM     33  O   UNL A   1      42.258  25.251  25.328  1.00  0.00    -0.269 OA
BRANCH  31  34
ATOM     34  C   UNL A   1      41.176  26.076  27.244  1.00  0.00     0.039 A 
ATOM     35  C   UNL A   1      40.221  25.822  28.233  1.00  0.00     0.014 A 
ATOM     36  C   UNL A   1      41.870  27.288  27.245  1.00  0.00     0.014 A 
ATOM     37  C   UNL A   1      40.016  26.748  29.258  1.00  0.00     0.010 A 
ATOM     38  C   UNL A   1      41.721  28.175  28.310  1.00  0.00     0.010 A 
ATOM     39  C   UNL A   1      40.794  27.916  29.330  1.00  0.00    -0.014 A 
BRANCH  39  40
ATOM     40  C   UNL A   1      40.661  28.863  30.469  1.00  0.00     0.031 A 
ATOM     41  C   UNL A   1      41.530  28.713  31.690  1.00  0.00     0.074 A 
ATOM     42  C   UNL A   1      39.715  29.822  30.430  1.00  0.00     0.049 A 
ATOM     43  N   UNL A   1      41.512  29.399  32.805  1.00  0.00    -0.248 NA
ATOM     44  C   UNL A   1      42.534  27.638  31.665  1.00  0.00     0.031 C 
ATOM     45  C   UNL A   1      38.782  30.044  29.323  1.00  0.00     0.029 A 
ATOM     46  N   UNL A   1      39.372  30.784  31.347  1.00  0.00    -0.354 N 
ATOM     47  C   UNL A   1      42.490  28.833  33.615  1.00  0.00     0.074 A 
ATOM     48  C   UNL A   1      43.044  27.713  32.886  1.00  0.00     0.031 C 
ATOM     49  C   UNL A   1      37.991  31.088  29.614  1.00  0.00     0.029 A 
ATOM     50  C   UNL A   1      38.327  31.584  30.945  1.00  0.00     0.049 A 
ATOM     51  H   UNL A   1      39.831  30.892  32.211  1.00  0.00     0.167 HD
ATOM     52  C   UNL A   1      42.904  29.225  34.844  1.00  0.00     0.037 A 
ATOM     53  C   UNL A   1      37.701  32.596  31.580  1.00  0.00     0.037 A 
ATOM     54  C   UNL A   1      42.359  30.351  35.559  1.00  0.00     0.049 A 
ATOM     55  C   UNL A   1      38.166  33.000  32.953  1.00  0.00     0.074 A 
ATOM     56  C   UNL A   1      42.745  30.859  36.788  1.00  0.00     0.029 A 
ATOM     57  N   UNL A   1      41.310  31.142  35.115  1.00  0.00    -0.354 N 
ATOM     58  N   UNL A   1      39.134  32.491  33.678  1.00  0.00    -0.248 NA
ATOM     59  C   UNL A   1      37.460  34.119  33.591  1.00  0.00     0.031 C 
ATOM     60  C   UNL A   1      41.896  31.921  37.110  1.00  0.00     0.029 A 
ATOM     61  C   UNL A   1      41.018  32.117  36.055  1.00  0.00     0.049 A 
ATOM     62  H   UNL A   1      40.840  31.027  34.256  1.00  0.00     0.167 HD
ATOM     63  C   UNL A   1      39.173  33.248  34.845  1.00  0.00     0.074 A 
ATOM     64  C   UNL A   1      38.139  34.255  34.722  1.00  0.00     0.031 C 
ATOM     65  C   UNL A   1      39.991  33.121  35.918  1.00  0.00     0.037 A 
BRANCH  52  66
ATOM     66  C   UNL A   1      44.005  28.431  35.498  1.00  0.00     0.058 A 
ATOM     67  C   UNL A   1      43.728  27.352  36.355  1.00  0.00     0.135 A 
ATOM     68  C   UNL A   1      45.353  28.723  35.233  1.00  0.00     0.135 A 
ATOM     69  F   UNL A   1      42.459  27.034  36.655  1.00  0.00    -0.206 F 
ATOM     70  C   UNL A   1      44.747  26.615  36.949  1.00  0.00     0.059 A 
ATOM     71  C   UNL A   1      46.387  27.978  35.791  1.00  0.00     0.059 A 
ATOM     72  F   UNL A   1      45.676  29.741  34.421  1.00  0.00    -0.206 F 
ATOM     73  C   UNL A   1      46.074  26.934  36.661  1.00  0.00     0.060 A 
BRANCH  73  74
ATOM     74  S   UNL A   1      47.382  25.963  37.438  1.00  0.00     0.124 S 
ATOM     75  O   UNL A   1      48.567  26.740  37.091  1.00  0.00    -0.237 OA
ATOM     76  O   UNL A   1      46.996  25.991  38.845  1.00  0.00    -0.237 OA
ATOM     77  O   UNL A   1      47.273  24.661  36.786  1.00  0.00    -0.744 OA
ENDBRANCH  73  74
ENDBRANCH  52  66
BRANCH  53  78
ATOM     78  C   UNL A   1      36.576  33.308  30.915  1.00  0.00     0.058 A 
ATOM     79  C   UNL A   1      35.252  33.118  31.336  1.00  0.00     0.135 A 
ATOM     80  C   UNL A   1      36.802  34.198  29.853  1.00  0.00     0.135 A 
ATOM     81  F   UNL A   1      34.982  32.272  32.341  1.00  0.00    -0.206 F 
ATOM     82  C   UNL A   1      34.189  33.769  30.717  1.00  0.00     0.059 A 
ATOM     83  C   UNL A   1      35.759  34.883  29.237  1.00  0.00     0.059 A 
ATOM     84  F   UNL A   1      38.053  34.429  29.422  1.00  0.00    -0.206 F 
ATOM     85  C   UNL A   1      34.454  34.653  29.670  1.00  0.00     0.060 A 
BRANCH  85  86
ATOM     86  S   UNL A   1      33.071  35.527  28.904  1.00  0.00     0.124 S 
ATOM     87  O   UNL A   1      32.447  34.465  28.125  1.00  0.00    -0.237 OA
ATOM     88  O   UNL A   1      32.322  35.992  30.067  1.00  0.00    -0.237 OA
ATOM     89  O   UNL A   1      33.726  36.578  28.131  1.00  0.00    -0.744 OA
ENDBRANCH  85  86
ENDBRANCH  53  78
BRANCH  65  90
ATOM     90  C   UNL A   1      39.835  34.119  37.034  1.00  0.00     0.058 A 
ATOM     91  C   UNL A   1      40.472  35.370  37.006  1.00  0.00     0.135 A 
ATOM     92  C   UNL A   1      38.994  33.838  38.124  1.00  0.00     0.135 A 
ATOM     93  F   UNL A   1      41.292  35.687  35.991  1.00  0.00    -0.206 F 
ATOM     94  C   UNL A   1      40.299  36.296  38.029  1.00  0.00     0.059 A 
ATOM     95  C   UNL A   1      38.782  34.761  39.143  1.00  0.00     0.059 A 
ATOM     96  F   UNL A   1      38.352  32.660  38.197  1.00  0.00    -0.206 F 
ATOM     97  C   UNL A   1      39.450  35.984  39.092  1.00  0.00     0.060 A 
BRANCH  97  98
ATOM     98  S   UNL A   1      39.209  37.210  40.396  1.00  0.00     0.124 S 
ATOM     99  O   UNL A   1      38.300  38.151  39.752  1.00  0.00    -0.237 OA
ATOM    100  O   UNL A   1      38.637  36.410  41.473  1.00  0.00    -0.237 OA
ATOM    101  O   UNL A   1      40.559  37.711  40.644  1.00  0.00    -0.744 OA
ENDBRANCH  97  98
ENDBRANCH  65  90
ENDBRANCH  39  40
ENDBRANCH  31  34
ENDBRANCH  29  30
ENDBRANCH  28  29
ENDBRANCH   1  28
TORSDOF 18
ENDMDL
MODEL 2
REMARK VINA RESULT:     -11.9      1.829      3.829
REMARK SMILES CN(c1ccccc1)c1nc(OCC(=O)NCCCNC(=O)c2ccc(-c3c4nc(c(-c5c(F)cc(S(=O)(=O)[O-])cc5F)c5ccc([nH]5)c(-c5c(F)cc(S(=O)(=O)[O-])cc5F)c5nc(c(-c6c(F)cc(S(=O)(=O)[O-])cc6F)c6ccc3[nH]6)C=C5)C=C4)cc2)cc(-c2ccncc2)n1
REMARK SMILES IDX 17 1 16 2 14 3 15 4 13 6 12 7 11 8 9 9 10 10 97 11 90 12
REMARK SMILES IDX 89 13 2 14 1 15 3 16 4 17 8 18 5 19 7 20 6 21 91 22 92 23
REMARK SMILES IDX 96 24 93 25 95 26 94 27 18 28 19 29 20 30 21 31 22 33 23 34
REMARK SMILES IDX 24 35 88 36 25 37 87 38 26 39 27 40 28 41 81 42 29 43 86 44
REMARK SMILES IDX 80 45 82 46 30 47 85 48 79 49 78 50 31 52 65 53 44 54 64 55
REMARK SMILES IDX 45 56 48 57 63 58 83 59 46 60 47 61 62 63 84 64 49 65 32 66
REMARK SMILES IDX 33 67 42 68 34 69 35 70 41 71 43 72 36 73 37 74 38 75 39 76
REMARK SMILES IDX 40 77 66 78 67 79 76 80 68 81 69 82 75 83 77 84 70 85 71 86
REMARK SMILES IDX 72 87 73 88 74 89 50 90 51 91 60 92 52 93 53 94 59 95 61 96
REMARK SMILES IDX 54 97 55 98 56 99 57 100 58 101
REMARK H PARENT 16 5 20 32 82 51 48 62
REMARK Flexibility Score: inf
ROOT
ATOM      1  C   UNL A   1      40.241  21.596  26.171  1.00  0.00     0.117 C 
ENDROOT
BRANCH   1   2
ATOM      2  N   UNL A   1      39.514  22.826  26.428  1.00  0.00    -0.353 N 
ATOM      3  C   UNL A   1      38.228  23.133  26.101  1.00  0.00     0.258 C 
ATOM      4  O   UNL A   1      37.779  24.236  26.422  1.00  0.00    -0.271 OA
ATOM      5  H   UNL A   1      40.015  23.528  26.901  1.00  0.00     0.163 HD
BRANCH   3   6
ATOM      6  C   UNL A   1      37.362  22.109  25.358  1.00  0.00     0.331 C 
BRANCH   6   7
ATOM      7  O   UNL A   1      36.831  22.521  24.114  1.00  0.00    -0.467 OA
BRANCH   7   8
ATOM      8  C   UNL A   1      35.522  22.900  24.062  1.00  0.00     0.219 A 
ATOM      9  C   UNL A   1      33.365  22.137  24.405  1.00  0.00     0.233 A 
ATOM     10  N   UNL A   1      34.693  21.922  24.439  1.00  0.00    -0.177 NA
ATOM     11  N   UNL A   1      32.835  23.296  23.976  1.00  0.00    -0.212 NA
ATOM     12  C   UNL A   1      33.690  24.279  23.638  1.00  0.00     0.080 A 
ATOM     13  C   UNL A   1      35.060  24.128  23.681  1.00  0.00     0.097 A 
BRANCH   9  14
ATOM     14  N   UNL A   1      32.524  21.123  24.891  1.00  0.00    -0.314 N 
ATOM     15  C   UNL A   1      31.394  21.586  25.683  1.00  0.00     0.153 C 
BRANCH  14  16
ATOM     16  C   UNL A   1      32.634  19.763  24.556  1.00  0.00     0.043 A 
ATOM     17  C   UNL A   1      32.481  19.365  23.214  1.00  0.00     0.026 A 
ATOM     18  C   UNL A   1      32.889  18.760  25.499  1.00  0.00     0.026 A 
ATOM     19  C   UNL A   1      32.581  18.028  22.825  1.00  0.00     0.002 A 
ATOM     20  C   UNL A   1      32.977  17.414  25.117  1.00  0.00     0.002 A 
ATOM     21  C   UNL A   1      32.827  17.050  23.782  1.00  0.00     0.000 A 
ENDBRANCH  14  16
ENDBRANCH   9  14
BRANCH  12  22
ATOM     22  C   UNL A   1      33.108  25.575  23.278  1.00  0.00     0.004 A 
ATOM     23  C   UNL A   1      31.741  25.702  22.997  1.00  0.00     0.030 A 
ATOM     24  C   UNL A   1      33.920  26.701  23.114  1.00  0.00     0.030 A 
ATOM     25  C   UNL A   1      31.261  26.919  22.545  1.00  0.00     0.111 A 
ATOM     26  C   UNL A   1      33.347  27.873  22.648  1.00  0.00     0.111 A 
ATOM     27  N   UNL A   1      32.038  28.005  22.349  1.00  0.00    -0.265 NA
ENDBRANCH  12  22
ENDBRANCH   7   8
ENDBRANCH   6   7
ENDBRANCH   3   6
ENDBRANCH   1   2
BRANCH   1  28
ATOM     28  C   UNL A   1      41.718  21.700  26.532  1.00  0.00     0.042 C 
BRANCH  28  29
ATOM     29  C   UNL A   1      42.171  23.089  26.976  1.00  0.00     0.118 C 
BRANCH  29  30
ATOM     30  N   UNL A   1      42.311  24.028  25.870  1.00  0.00    -0.352 N 
ATOM     31  C   UNL A   1      42.162  25.392  25.837  1.00  0.00     0.251 C 
ATOM     32  H   UNL A   1      42.551  23.618  25.008  1.00  0.00     0.163 HD
ATOM     33  O   UNL A   1      42.172  25.968  24.748  1.00  0.00    -0.269 OA
BRANCH  31  34
ATOM     34  C   UNL A   1      41.971  26.171  27.080  1.00  0.00     0.039 A 
ATOM     35  C   UNL A   1      42.892  27.175  27.395  1.00  0.00     0.014 A 
ATOM     36  C   UNL A   1      40.911  25.904  27.950  1.00  0.00     0.014 A 
ATOM     37  C   UNL A   1      42.707  27.956  28.538  1.00  0.00     0.010 A 
ATOM     38  C   UNL A   1      40.685  26.733  29.048  1.00  0.00     0.010 A 
ATOM     39  C   UNL A   1      41.579  27.770  29.355  1.00  0.00    -0.014 A 
BRANCH  39  40
ATOM     40  C   UNL A   1      41.313  28.657  30.518  1.00  0.00     0.031 A 
ATOM     41  C   UNL A   1      42.123  28.523  31.780  1.00  0.00     0.074 A 
ATOM     42  C   UNL A   1      40.299  29.544  30.460  1.00  0.00     0.049 A 
ATOM     43  N   UNL A   1      41.992  29.159  32.917  1.00  0.00    -0.248 NA
ATOM     44  C   UNL A   1      43.206  27.527  31.773  1.00  0.00     0.031 C 
ATOM     45  C   UNL A   1      39.413  29.741  29.310  1.00  0.00     0.029 A 
ATOM     46  N   UNL A   1      39.834  30.440  31.391  1.00  0.00    -0.354 N 
ATOM     47  C   UNL A   1      42.964  28.634  33.760  1.00  0.00     0.074 A 
ATOM     48  C   UNL A   1      43.641  27.590  33.024  1.00  0.00     0.031 C 
ATOM     49  C   UNL A   1      38.530  30.711  29.594  1.00  0.00     0.029 A 
ATOM     50  C   UNL A   1      38.754  31.176  30.959  1.00  0.00     0.049 A 
ATOM     51  H   UNL A   1      40.235  30.546  32.283  1.00  0.00     0.167 HD
ATOM     52  C   UNL A   1      43.280  29.005  35.025  1.00  0.00     0.037 A 
ATOM     53  C   UNL A   1      38.019  32.111  31.594  1.00  0.00     0.037 A 
ATOM     54  C   UNL A   1      42.612  30.057  35.749  1.00  0.00     0.049 A 
ATOM     55  C   UNL A   1      38.377  32.492  33.005  1.00  0.00     0.074 A 
ATOM     56  C   UNL A   1      42.891  30.541  37.015  1.00  0.00     0.029 A 
ATOM     57  N   UNL A   1      41.531  30.785  35.274  1.00  0.00    -0.354 N 
ATOM     58  N   UNL A   1      39.340  32.027  33.766  1.00  0.00    -0.248 NA
ATOM     59  C   UNL A   1      37.554  33.528  33.643  1.00  0.00     0.031 C 
ATOM     60  C   UNL A   1      41.946  31.523  37.327  1.00  0.00     0.029 A 
ATOM     61  C   UNL A   1      41.115  31.697  36.231  1.00  0.00     0.049 A 
ATOM     62  H   UNL A   1      41.119  30.671  34.386  1.00  0.00     0.167 HD
ATOM     63  C   UNL A   1      39.257  32.736  34.959  1.00  0.00     0.074 A 
ATOM     64  C   UNL A   1      38.158  33.668  34.815  1.00  0.00     0.031 C 
ATOM     65  C   UNL A   1      40.023  32.626  36.073  1.00  0.00     0.037 A 
BRANCH  52  66
ATOM     66  C   UNL A   1      44.400  28.269  35.711  1.00  0.00     0.058 A 
ATOM     67  C   UNL A   1      45.736  28.694  35.607  1.00  0.00     0.135 A 
ATOM     68  C   UNL A   1      44.135  27.149  36.517  1.00  0.00     0.135 A 
ATOM     69  F   UNL A   1      46.052  29.749  34.840  1.00  0.00    -0.206 F 
ATOM     70  C   UNL A   1      46.768  28.018  36.249  1.00  0.00     0.059 A 
ATOM     71  C   UNL A   1      45.147  26.478  37.195  1.00  0.00     0.059 A 
ATOM     72  F   UNL A   1      42.878  26.700  36.655  1.00  0.00    -0.206 F 
ATOM     73  C   UNL A   1      46.464  26.911  37.042  1.00  0.00     0.060 A 
BRANCH  73  74
ATOM     74  S   UNL A   1      47.816  26.049  37.872  1.00  0.00     0.124 S 
ATOM     75  O   UNL A   1      48.933  26.957  37.627  1.00  0.00    -0.237 OA
ATOM     76  O   UNL A   1      47.343  25.986  39.252  1.00  0.00    -0.237 OA
ATOM     77  O   UNL A   1      47.884  24.769  37.175  1.00  0.00    -0.744 OA
ENDBRANCH  73  74
ENDBRANCH  52  66
BRANCH  53  78
ATOM     78  C   UNL A   1      36.881  32.764  30.892  1.00  0.00     0.058 A 
ATOM     79  C   UNL A   1      37.102  33.785  29.955  1.00  0.00     0.135 A 
ATOM     80  C   UNL A   1      35.554  32.379  31.136  1.00  0.00     0.135 A 
ATOM     81  F   UNL A   1      38.352  34.195  29.691  1.00  0.00    -0.206 F 
ATOM     82  C   UNL A   1      36.048  34.412  29.298  1.00  0.00     0.059 A 
ATOM     83  C   UNL A   1      34.485  32.972  30.471  1.00  0.00     0.059 A 
ATOM     84  F   UNL A   1      35.289  31.396  32.012  1.00  0.00    -0.206 F 
ATOM     85  C   UNL A   1      34.742  33.996  29.561  1.00  0.00     0.060 A 
BRANCH  85  86
ATOM     86  S   UNL A   1      33.385  34.787  28.670  1.00  0.00     0.124 S 
ATOM     87  O   UNL A   1      34.060  35.922  28.052  1.00  0.00    -0.237 OA
ATOM     88  O   UNL A   1      32.956  33.726  27.763  1.00  0.00    -0.237 OA
ATOM     89  O   UNL A   1      32.435  35.115  29.729  1.00  0.00    -0.744 OA
ENDBRANCH  85  86
ENDBRANCH  53  78
BRANCH  65  90
ATOM     90  C   UNL A   1      39.730  33.563  37.214  1.00  0.00     0.058 A 
ATOM     91  C   UNL A   1      38.837  33.222  38.243  1.00  0.00     0.135 A 
ATOM     92  C   UNL A   1      40.392  34.798  37.305  1.00  0.00     0.135 A 
ATOM     93  F   UNL A   1      38.173  32.057  38.203  1.00  0.00    -0.206 F 
ATOM     94  C   UNL A   1      38.594  34.084  39.308  1.00  0.00     0.059 A 
ATOM     95  C   UNL A   1      40.188  35.662  38.377  1.00  0.00     0.059 A 
ATOM     96  F   UNL A   1      41.265  35.170  36.354  1.00  0.00    -0.206 F 
ATOM     97  C   UNL A   1      39.276  35.300  39.368  1.00  0.00     0.060 A 
BRANCH  97  98
ATOM     98  S   UNL A   1      38.975  36.393  40.774  1.00  0.00     0.124 S 
ATOM     99  O   UNL A   1      37.954  35.654  41.508  1.00  0.00    -0.237 OA
ATOM    100  O   UNL A   1      40.289  36.457  41.404  1.00  0.00    -0.237 OA
ATOM    101  O   UNL A   1      38.525  37.634  40.149  1.00  0.00    -0.744 OA
ENDBRANCH  97  98
ENDBRANCH  65  90
ENDBRANCH  39  40
ENDBRANCH  31  34
ENDBRANCH  29  30
ENDBRANCH  28  29
ENDBRANCH   1  28
TORSDOF 18
ENDMDL
MODEL 3
REMARK VINA RESULT:     -11.8      0.488      8.080
REMARK SMILES CN(c1ccccc1)c1nc(OCC(=O)NCCCNC(=O)c2ccc(-c3c4nc(c(-c5c(F)cc(S(=O)(=O)[O-])cc5F)c5ccc([nH]5)c(-c5c(F)cc(S(=O)(=O)[O-])cc5F)c5nc(c(-c6c(F)cc(S(=O)(=O)[O-])cc6F)c6ccc3[nH]6)C=C5)C=C4)cc2)cc(-c2ccncc2)n1
REMARK SMILES IDX 17 1 16 2 14 3 15 4 13 6 12 7 11 8 9 9 10 10 97 11 90 12
REMARK SMILES IDX 89 13 2 14 1 15 3 16 4 17 8 18 5 19 7 20 6 21 91 22 92 23
REMARK SMILES IDX 96 24 93 25 95 26 94 27 18 28 19 29 20 30 21 31 22 33 23 34
REMARK SMILES IDX 24 35 88 36 25 37 87 38 26 39 27 40 28 41 81 42 29 43 86 44
REMARK SMILES IDX 80 45 82 46 30 47 85 48 79 49 78 50 31 52 65 53 44 54 64 55
REMARK SMILES IDX 45 56 48 57 63 58 83 59 46 60 47 61 62 63 84 64 49 65 32 66
REMARK SMILES IDX 33 67 42 68 34 69 35 70 41 71 43 72 36 73 37 74 38 75 39 76
REMARK SMILES IDX 40 77 66 78 67 79 76 80 68 81 69 82 75 83 77 84 70 85 71 86
REMARK SMILES IDX 72 87 73 88 74 89 50 90 51 91 60 92 52 93 53 94 59 95 61 96
REMARK SMILES IDX 54 97 55 98 56 99 57 100 58 101
REMARK H PARENT 16 5 20 32 82 51 48 62
REMARK Flexibility Score: inf
ROOT
ATOM      1  C   UNL A   1      37.607  23.250  25.961  1.00  0.00     0.117 C 
ENDROOT
BRANCH   1   2
ATOM      2  N   UNL A   1      37.404  23.117  24.529  1.00  0.00    -0.353 N 
ATOM      3  C   UNL A   1      36.231  23.124  23.836  1.00  0.00     0.258 C 
ATOM      4  O   UNL A   1      36.265  23.012  22.609  1.00  0.00    -0.271 OA
ATOM      5  H   UNL A   1      38.220  23.009  23.990  1.00  0.00     0.163 HD
BRANCH   3   6
ATOM      6  C   UNL A   1      34.903  23.281  24.584  1.00  0.00     0.331 C 
BRANCH   6   7
ATOM      7  O   UNL A   1      34.885  24.215  25.645  1.00  0.00    -0.467 OA
BRANCH   7   8
ATOM      8  C   UNL A   1      34.134  25.345  25.502  1.00  0.00     0.219 A 
ATOM      9  C   UNL A   1      32.286  26.206  24.409  1.00  0.00     0.233 A 
ATOM     10  N   UNL A   1      33.098  25.167  24.678  1.00  0.00    -0.177 NA
ATOM     11  N   UNL A   1      32.494  27.431  24.920  1.00  0.00    -0.212 NA
ATOM     12  C   UNL A   1      33.522  27.577  25.777  1.00  0.00     0.080 A 
ATOM     13  C   UNL A   1      34.369  26.544  26.114  1.00  0.00     0.097 A 
BRANCH   9  14
ATOM     14  N   UNL A   1      31.156  25.965  23.611  1.00  0.00    -0.314 N 
ATOM     15  C   UNL A   1      31.008  24.591  23.152  1.00  0.00     0.153 C 
BRANCH  14  16
ATOM     16  C   UNL A   1      30.141  26.901  23.358  1.00  0.00     0.043 A 
ATOM     17  C   UNL A   1      30.435  28.059  22.613  1.00  0.00     0.026 A 
ATOM     18  C   UNL A   1      28.825  26.749  23.815  1.00  0.00     0.026 A 
ATOM     19  C   UNL A   1      29.465  29.022  22.331  1.00  0.00     0.002 A 
ATOM     20  C   UNL A   1      27.850  27.718  23.547  1.00  0.00     0.002 A 
ATOM     21  C   UNL A   1      28.169  28.851  22.803  1.00  0.00     0.000 A 
ENDBRANCH  14  16
ENDBRANCH   9  14
BRANCH  12  22
ATOM     22  C   UNL A   1      33.677  28.888  26.416  1.00  0.00     0.004 A 
ATOM     23  C   UNL A   1      34.870  29.243  27.059  1.00  0.00     0.030 A 
ATOM     24  C   UNL A   1      32.605  29.783  26.479  1.00  0.00     0.030 A 
ATOM     25  C   UNL A   1      34.926  30.442  27.750  1.00  0.00     0.111 A 
ATOM     26  C   UNL A   1      32.756  30.954  27.202  1.00  0.00     0.111 A 
ATOM     27  N   UNL A   1      33.889  31.299  27.849  1.00  0.00    -0.265 NA
ENDBRANCH  12  22
ENDBRANCH   7   8
ENDBRANCH   6   7
ENDBRANCH   3   6
ENDBRANCH   1   2
BRANCH   1  28
ATOM     28  C   UNL A   1      38.851  22.517  26.449  1.00  0.00     0.042 C 
BRANCH  28  29
ATOM     29  C   UNL A   1      39.919  23.416  27.068  1.00  0.00     0.118 C 
BRANCH  29  30
ATOM     30  N   UNL A   1      40.739  24.100  26.076  1.00  0.00    -0.352 N 
ATOM     31  C   UNL A   1      41.170  25.402  26.023  1.00  0.00     0.251 C 
ATOM     32  H   UNL A   1      41.032  23.538  25.323  1.00  0.00     0.163 HD
ATOM     33  O   UNL A   1      41.726  25.807  25.001  1.00  0.00    -0.269 OA
BRANCH  31  34
ATOM     34  C   UNL A   1      40.958  26.324  27.161  1.00  0.00     0.039 A 
ATOM     35  C   UNL A   1      40.026  25.978  28.144  1.00  0.00     0.014 A 
ATOM     36  C   UNL A   1      41.648  27.536  27.254  1.00  0.00     0.014 A 
ATOM     37  C   UNL A   1      39.842  26.809  29.252  1.00  0.00     0.010 A 
ATOM     38  C   UNL A   1      41.520  28.323  28.397  1.00  0.00     0.010 A 
ATOM     39  C   UNL A   1      40.617  27.969  29.410  1.00  0.00    -0.014 A 
BRANCH  39  40
ATOM     40  C   UNL A   1      40.507  28.811  30.631  1.00  0.00     0.031 A 
ATOM     41  C   UNL A   1      39.489  29.918  30.705  1.00  0.00     0.074 A 
ATOM     42  C   UNL A   1      41.367  28.619  31.651  1.00  0.00     0.049 A 
ATOM     43  N   UNL A   1      39.291  30.796  31.656  1.00  0.00    -0.248 NA
ATOM     44  C   UNL A   1      38.590  30.074  29.550  1.00  0.00     0.031 C 
ATOM     45  C   UNL A   1      42.428  27.609  31.684  1.00  0.00     0.029 A 
ATOM     46  N   UNL A   1      41.496  29.270  32.853  1.00  0.00    -0.354 N 
ATOM     47  C   UNL A   1      38.258  31.612  31.211  1.00  0.00     0.074 A 
ATOM     48  C   UNL A   1      37.907  31.160  29.882  1.00  0.00     0.031 C 
ATOM     49  C   UNL A   1      43.080  27.691  32.853  1.00  0.00     0.029 A 
ATOM     50  C   UNL A   1      42.518  28.786  33.638  1.00  0.00     0.049 A 
ATOM     51  H   UNL A   1      40.911  30.012  33.129  1.00  0.00     0.167 HD
ATOM     52  C   UNL A   1      37.641  32.630  31.859  1.00  0.00     0.037 A 
ATOM     53  C   UNL A   1      42.962  29.186  34.846  1.00  0.00     0.037 A 
ATOM     54  C   UNL A   1      37.984  33.065  33.189  1.00  0.00     0.049 A 
ATOM     55  C   UNL A   1      42.274  30.332  35.538  1.00  0.00     0.074 A 
ATOM     56  C   UNL A   1      37.386  34.054  33.951  1.00  0.00     0.029 A 
ATOM     57  N   UNL A   1      39.018  32.545  33.953  1.00  0.00    -0.354 N 
ATOM     58  N   UNL A   1      41.257  31.053  35.126  1.00  0.00    -0.248 NA
ATOM     59  C   UNL A   1      42.787  30.715  36.861  1.00  0.00     0.031 C 
ATOM     60  C   UNL A   1      38.090  34.167  35.153  1.00  0.00     0.029 A 
ATOM     61  C   UNL A   1      39.091  33.207  35.168  1.00  0.00     0.049 A 
ATOM     62  H   UNL A   1      39.613  31.811  33.674  1.00  0.00     0.167 HD
ATOM     63  C   UNL A   1      40.991  31.954  36.152  1.00  0.00     0.074 A 
ATOM     64  C   UNL A   1      41.945  31.678  37.207  1.00  0.00     0.031 C 
ATOM     65  C   UNL A   1      40.041  32.919  36.215  1.00  0.00     0.037 A 
BRANCH  52  66
ATOM     66  C   UNL A   1      36.528  33.345  31.140  1.00  0.00     0.058 A 
ATOM     67  C   UNL A   1      36.780  34.201  30.054  1.00  0.00     0.135 A 
ATOM     68  C   UNL A   1      35.189  33.142  31.511  1.00  0.00     0.135 A 
ATOM     69  F   UNL A   1      38.041  34.444  29.663  1.00  0.00    -0.206 F 
ATOM     70  C   UNL A   1      35.749  34.853  29.386  1.00  0.00     0.059 A 
ATOM     71  C   UNL A   1      34.140  33.758  30.836  1.00  0.00     0.059 A 
ATOM     72  F   UNL A   1      34.888  32.333  32.539  1.00  0.00    -0.206 F 
ATOM     73  C   UNL A   1      34.431  34.625  29.783  1.00  0.00     0.060 A 
BRANCH  73  74
ATOM     74  S   UNL A   1      33.106  35.476  28.900  1.00  0.00     0.124 S 
ATOM     75  O   UNL A   1      33.857  36.465  28.133  1.00  0.00    -0.237 OA
ATOM     76  O   UNL A   1      32.506  34.395  28.124  1.00  0.00    -0.237 OA
ATOM     77  O   UNL A   1      32.273  36.013  29.971  1.00  0.00    -0.744 OA
ENDBRANCH  73  74
ENDBRANCH  52  66
BRANCH  53  78
ATOM     78  C   UNL A   1      44.107  28.485  35.487  1.00  0.00     0.058 A 
ATOM     79  C   UNL A   1      45.430  28.874  35.226  1.00  0.00     0.135 A 
ATOM     80  C   UNL A   1      43.906  27.419  36.378  1.00  0.00     0.135 A 
ATOM     81  F   UNL A   1      45.677  29.882  34.376  1.00  0.00    -0.206 F 
ATOM     82  C   UNL A   1      46.511  28.222  35.810  1.00  0.00     0.059 A 
ATOM     83  C   UNL A   1      44.969  26.770  36.996  1.00  0.00     0.059 A 
ATOM     84  F   UNL A   1      42.659  27.018  36.676  1.00  0.00    -0.206 F 
ATOM     85  C   UNL A   1      46.270  27.172  36.697  1.00  0.00     0.060 A 
BRANCH  85  86
ATOM     86  S   UNL A   1      47.679  26.361  37.483  1.00  0.00     0.124 S 
ATOM     87  O   UNL A   1      47.437  24.963  37.151  1.00  0.00    -0.237 OA
ATOM     88  O   UNL A   1      48.810  26.993  36.810  1.00  0.00    -0.237 OA
ATOM     89  O   UNL A   1      47.525  26.712  38.892  1.00  0.00    -0.744 OA
ENDBRANCH  85  86
ENDBRANCH  53  78
BRANCH  65  90
ATOM     90  C   UNL A   1      39.954  33.728  37.481  1.00  0.00     0.058 A 
ATOM     91  C   UNL A   1      40.742  34.871  37.687  1.00  0.00     0.135 A 
ATOM     92  C   UNL A   1      39.030  33.383  38.482  1.00  0.00     0.135 A 
ATOM     93  F   UNL A   1      41.646  35.243  36.767  1.00  0.00    -0.206 F 
ATOM     94  C   UNL A   1      40.635  35.628  38.850  1.00  0.00     0.059 A 
ATOM     95  C   UNL A   1      38.884  34.142  39.638  1.00  0.00     0.059 A 
ATOM     96  F   UNL A   1      38.242  32.305  38.332  1.00  0.00    -0.206 F 
ATOM     97  C   UNL A   1      39.700  35.257  39.818  1.00  0.00     0.060 A 
BRANCH  97  98
ATOM     98  S   UNL A   1      39.549  36.269  41.306  1.00  0.00     0.124 S 
ATOM     99  O   UNL A   1      40.948  36.516  41.638  1.00  0.00    -0.237 OA
ATOM    100  O   UNL A   1      38.798  37.423  40.823  1.00  0.00    -0.237 OA
ATOM    101  O   UNL A   1      38.827  35.403  42.234  1.00  0.00    -0.744 OA
ENDBRANCH  97  98
ENDBRANCH  65  90
ENDBRANCH  39  40
ENDBRANCH  31  34
ENDBRANCH  29  30
ENDBRANCH  28  29
ENDBRANCH   1  28
TORSDOF 18
ENDMDL
