MODEL 1
REMARK VINA RESULT:     -13.2      0.000      0.000
REMARK SMILES C[C@H](C(=O)NCCCNC(=O)c1ccc(-c2c3nc(c(-c4c(F)cc(S(=O)(=O)[O-])cc4F)c4ccc([nH]4)c(-c4c(F)cc(S(=O)(=O)[O-])cc4F)c4nc(c(-c5c(F)cc(S(=O)(=O)[O-])cc5F)c5ccc2[nH]5)C=C4)C=C3)cc1)N1C(=O)C[C@@H](N2C(=O)/C(=C/c3ccccc3)SC2=S)C1=O
REMARK SMILES IDX 7 1 6 2 5 3 3 4 4 5 2 7 1 8 78 9 79 10 97 11 80 12 81 13
REMARK SMILES IDX 82 14 98 15 83 16 84 17 95 18 85 19 86 20 94 21 96 22 87 23
REMARK SMILES IDX 88 24 89 25 93 26 90 27 92 28 91 29 8 30 9 31 10 32 11 34
REMARK SMILES IDX 12 35 13 36 77 37 14 38 76 39 15 40 16 41 17 42 70 43 18 44
REMARK SMILES IDX 75 45 69 46 71 47 19 48 74 49 68 50 67 51 20 53 54 54 33 55
REMARK SMILES IDX 53 56 34 57 37 58 52 59 72 60 35 61 36 62 51 64 73 65 38 66
REMARK SMILES IDX 21 67 22 68 31 69 23 70 24 71 30 72 32 73 25 74 26 75 27 76
REMARK SMILES IDX 28 77 29 78 55 79 56 80 65 81 57 82 58 83 64 84 66 85 59 86
REMARK SMILES IDX 60 87 61 88 62 89 63 90 39 91 40 92 49 93 41 94 42 95 48 96
REMARK SMILES IDX 50 97 43 98 44 99 45 100 46 101 47 102
REMARK H PARENT 5 6 9 33 71 52 37 63
REMARK Flexibility Score: inf
ROOT
ATOM      1  C   UNL A   1      33.297  29.168  25.771  1.00  0.00     0.042 C 
ENDROOT
BRANCH   1   2
ATOM      2  C   UNL A   1      31.903  28.764  25.318  1.00  0.00     0.117 C 
BRANCH   2   3
ATOM      3  N   UNL A   1      31.707  28.663  23.890  1.00  0.00    -0.354 N 
ATOM      4  C   UNL A   1      31.097  27.684  23.161  1.00  0.00     0.243 C 
ATOM      5  O   UNL A   1      30.621  28.081  22.083  1.00  0.00    -0.273 OA
ATOM      6  H   UNL A   1      32.068  29.413  23.363  1.00  0.00     0.163 HD
BRANCH   4   7
ATOM      7  C   UNL A   1      31.178  26.138  23.410  1.00  0.00     0.179 C 
ATOM      8  C   UNL A   1      31.828  25.614  22.103  1.00  0.00     0.042 C 
BRANCH   7   9
ATOM      9  N   UNL A   1      31.815  25.544  24.595  1.00  0.00    -0.268 N 
ATOM     10  C   UNL A   1      31.164  25.328  25.785  1.00  0.00     0.232 C 
ATOM     11  C   UNL A   1      33.153  25.608  24.875  1.00  0.00     0.253 C 
ATOM     12  O   UNL A   1      30.025  25.658  26.087  1.00  0.00    -0.274 OA
ATOM     13  C   UNL A   1      32.122  24.774  26.807  1.00  0.00     0.136 C 
ATOM     14  C   UNL A   1      33.421  24.649  26.033  1.00  0.00     0.191 C 
ATOM     15  O   UNL A   1      33.996  26.238  24.273  1.00  0.00    -0.272 OA
BRANCH  14  16
ATOM     16  N   UNL A   1      33.749  23.264  25.591  1.00  0.00    -0.280 N 
ATOM     17  C   UNL A   1      32.740  22.338  25.386  1.00  0.00     0.266 C 
ATOM     18  C   UNL A   1      35.027  22.790  25.347  1.00  0.00     0.149 C 
ATOM     19  O   UNL A   1      31.540  22.561  25.464  1.00  0.00    -0.268 OA
ATOM     20  C   UNL A   1      33.277  21.008  25.019  1.00  0.00     0.081 C 
ATOM     21  S   UNL A   1      34.980  21.053  24.999  1.00  0.00    -0.054 SA
ATOM     22  S   UNL A   1      36.453  23.651  25.366  1.00  0.00    -0.052 S 
ATOM     23  C   UNL A   1      32.417  20.007  24.800  1.00  0.00     0.029 C 
BRANCH  23  24
ATOM     24  C   UNL A   1      32.680  18.577  24.664  1.00  0.00    -0.024 A 
ATOM     25  C   UNL A   1      32.702  17.711  25.761  1.00  0.00     0.008 A 
ATOM     26  C   UNL A   1      33.094  18.119  23.408  1.00  0.00     0.008 A 
ATOM     27  C   UNL A   1      33.141  16.393  25.595  1.00  0.00     0.001 A 
ATOM     28  C   UNL A   1      33.570  16.820  23.258  1.00  0.00     0.001 A 
ATOM     29  C   UNL A   1      33.582  15.952  24.348  1.00  0.00     0.000 A 
ENDBRANCH  23  24
ENDBRANCH  14  16
ENDBRANCH   7   9
ENDBRANCH   4   7
ENDBRANCH   2   3
ENDBRANCH   1   2
BRANCH   1  30
ATOM     30  C   UNL A   1      33.557  28.985  27.255  1.00  0.00     0.118 C 
BRANCH  30  31
ATOM     31  N   UNL A   1      33.622  30.244  27.987  1.00  0.00    -0.352 N 
ATOM     32  C   UNL A   1      34.623  30.861  28.701  1.00  0.00     0.251 C 
ATOM     33  H   UNL A   1      32.781  30.756  27.965  1.00  0.00     0.163 HD
ATOM     34  O   UNL A   1      34.340  31.880  29.331  1.00  0.00    -0.269 OA
BRANCH  32  35
ATOM     35  C   UNL A   1      36.006  30.322  28.782  1.00  0.00     0.039 A 
ATOM     36  C   UNL A   1      36.768  30.271  27.607  1.00  0.00     0.014 A 
ATOM     37  C   UNL A   1      36.554  29.812  29.956  1.00  0.00     0.014 A 
ATOM     38  C   UNL A   1      38.087  29.798  27.636  1.00  0.00     0.010 A 
ATOM     39  C   UNL A   1      37.901  29.446  30.008  1.00  0.00     0.010 A 
ATOM     40  C   UNL A   1      38.692  29.443  28.850  1.00  0.00    -0.014 A 
BRANCH  40  41
ATOM     41  C   UNL A   1      40.136  29.070  28.940  1.00  0.00     0.031 A 
ATOM     42  C   UNL A   1      41.175  30.133  29.204  1.00  0.00     0.074 A 
ATOM     43  C   UNL A   1      40.521  27.792  28.725  1.00  0.00     0.049 A 
ATOM     44  N   UNL A   1      42.475  30.063  29.093  1.00  0.00    -0.248 NA
ATOM     45  C   UNL A   1      40.685  31.457  29.629  1.00  0.00     0.031 C 
ATOM     46  C   UNL A   1      39.613  26.670  28.481  1.00  0.00     0.029 A 
ATOM     47  N   UNL A   1      41.771  27.215  28.659  1.00  0.00    -0.354 N 
ATOM     48  C   UNL A   1      42.956  31.329  29.414  1.00  0.00     0.074 A 
ATOM     49  C   UNL A   1      41.806  32.163  29.681  1.00  0.00     0.031 C 
ATOM     50  C   UNL A   1      40.326  25.545  28.325  1.00  0.00     0.029 A 
ATOM     51  C   UNL A   1      41.746  25.874  28.332  1.00  0.00     0.049 A 
ATOM     52  H   UNL A   1      42.603  27.712  28.830  1.00  0.00     0.167 HD
ATOM     53  C   UNL A   1      44.242  31.744  29.506  1.00  0.00     0.037 A 
ATOM     54  C   UNL A   1      42.742  25.023  27.994  1.00  0.00     0.037 A 
ATOM     55  C   UNL A   1      45.377  30.881  29.308  1.00  0.00     0.049 A 
ATOM     56  C   UNL A   1      44.150  25.573  27.932  1.00  0.00     0.074 A 
ATOM     57  C   UNL A   1      46.717  31.170  29.491  1.00  0.00     0.029 A 
ATOM     58  N   UNL A   1      45.304  29.565  28.883  1.00  0.00    -0.354 N 
ATOM     59  N   UNL A   1      44.588  26.763  28.274  1.00  0.00    -0.248 NA
ATOM     60  C   UNL A   1      45.197  24.686  27.402  1.00  0.00     0.031 C 
ATOM     61  C   UNL A   1      47.460  30.044  29.125  1.00  0.00     0.029 A 
ATOM     62  C   UNL A   1      46.578  29.041  28.754  1.00  0.00     0.049 A 
ATOM     63  H   UNL A   1      44.469  29.074  28.700  1.00  0.00     0.167 HD
ATOM     64  C   UNL A   1      45.961  26.743  28.057  1.00  0.00     0.074 A 
ATOM     65  C   UNL A   1      46.284  25.431  27.538  1.00  0.00     0.031 C 
ATOM     66  C   UNL A   1      46.879  27.716  28.276  1.00  0.00     0.037 A 
BRANCH  53  67
ATOM     67  C   UNL A   1      44.515  33.181  29.857  1.00  0.00     0.058 A 
ATOM     68  C   UNL A   1      44.719  33.588  31.183  1.00  0.00     0.135 A 
ATOM     69  C   UNL A   1      44.689  34.138  28.843  1.00  0.00     0.135 A 
ATOM     70  F   UNL A   1      44.553  32.718  32.191  1.00  0.00    -0.206 F 
ATOM     71  C   UNL A   1      45.090  34.894  31.494  1.00  0.00     0.059 A 
ATOM     72  C   UNL A   1      45.080  35.444  29.128  1.00  0.00     0.059 A 
ATOM     73  F   UNL A   1      44.503  33.802  27.557  1.00  0.00    -0.206 F 
ATOM     74  C   UNL A   1      45.278  35.812  30.459  1.00  0.00     0.060 A 
BRANCH  74  75
ATOM     75  S   UNL A   1      45.820  37.483  30.878  1.00  0.00     0.124 S 
ATOM     76  O   UNL A   1      46.194  37.324  32.280  1.00  0.00    -0.237 OA
ATOM     77  O   UNL A   1      46.925  37.693  29.949  1.00  0.00    -0.237 OA
ATOM     78  O   UNL A   1      44.634  38.297  30.632  1.00  0.00    -0.744 OA
ENDBRANCH  74  75
ENDBRANCH  53  67
BRANCH  54  79
ATOM     79  C   UNL A   1      42.456  23.623  27.531  1.00  0.00     0.058 A 
ATOM     80  C   UNL A   1      42.401  22.524  28.399  1.00  0.00     0.135 A 
ATOM     81  C   UNL A   1      42.331  23.341  26.163  1.00  0.00     0.135 A 
ATOM     82  F   UNL A   1      42.499  22.711  29.724  1.00  0.00    -0.206 F 
ATOM     83  C   UNL A   1      42.307  21.213  27.922  1.00  0.00     0.059 A 
ATOM     84  C   UNL A   1      42.214  22.054  25.658  1.00  0.00     0.059 A 
ATOM     85  F   UNL A   1      42.298  24.344  25.284  1.00  0.00    -0.206 F 
ATOM     86  C   UNL A   1      42.230  20.989  26.546  1.00  0.00     0.060 A 
BRANCH  86  87
ATOM     87  S   UNL A   1      42.180  19.299  25.916  1.00  0.00     0.124 S 
ATOM     88  O   UNL A   1      42.676  18.542  27.060  1.00  0.00    -0.237 OA
ATOM     89  O   UNL A   1      40.765  19.137  25.603  1.00  0.00    -0.237 OA
ATOM     90  O   UNL A   1      43.074  19.342  24.761  1.00  0.00    -0.744 OA
ENDBRANCH  86  87
ENDBRANCH  54  79
BRANCH  66  91
ATOM     91  C   UNL A   1      48.324  27.375  28.046  1.00  0.00     0.058 A 
ATOM     92  C   UNL A   1      49.067  26.634  28.975  1.00  0.00     0.135 A 
ATOM     93  C   UNL A   1      48.949  27.743  26.843  1.00  0.00     0.135 A 
ATOM     94  F   UNL A   1      48.517  26.271  30.145  1.00  0.00    -0.206 F 
ATOM     95  C   UNL A   1      50.387  26.274  28.723  1.00  0.00     0.059 A 
ATOM     96  C   UNL A   1      50.259  27.374  26.561  1.00  0.00     0.059 A 
ATOM     97  F   UNL A   1      48.277  28.447  25.919  1.00  0.00    -0.206 F 
ATOM     98  C   UNL A   1      50.973  26.645  27.511  1.00  0.00     0.060 A 
BRANCH  98  99
ATOM     99  S   UNL A   1      52.671  26.130  27.174  1.00  0.00     0.124 S 
ATOM    100  O   UNL A   1      53.134  27.198  26.296  1.00  0.00    -0.237 OA
ATOM    101  O   UNL A   1      53.259  26.105  28.510  1.00  0.00    -0.237 OA
ATOM    102  O   UNL A   1      52.511  24.823  26.542  1.00  0.00    -0.744 OA
ENDBRANCH  98  99
ENDBRANCH  66  91
ENDBRANCH  40  41
ENDBRANCH  32  35
ENDBRANCH  30  31
ENDBRANCH   1  30
TORSDOF 16
ENDMDL
MODEL 2
REMARK VINA RESULT:     -12.9      5.906     10.888
REMARK SMILES C[C@H](C(=O)NCCCNC(=O)c1ccc(-c2c3nc(c(-c4c(F)cc(S(=O)(=O)[O-])cc4F)c4ccc([nH]4)c(-c4c(F)cc(S(=O)(=O)[O-])cc4F)c4nc(c(-c5c(F)cc(S(=O)(=O)[O-])cc5F)c5ccc2[nH]5)C=C4)C=C3)cc1)N1C(=O)C[C@@H](N2C(=O)/C(=C/c3ccccc3)SC2=S)C1=O
REMARK SMILES IDX 7 1 6 2 5 3 3 4 4 5 2 7 1 8 78 9 79 10 97 11 80 12 81 13
REMARK SMILES IDX 82 14 98 15 83 16 84 17 95 18 85 19 86 20 94 21 96 22 87 23
REMARK SMILES IDX 88 24 89 25 93 26 90 27 92 28 91 29 8 30 9 31 10 32 11 34
REMARK SMILES IDX 12 35 13 36 77 37 14 38 76 39 15 40 16 41 17 42 70 43 18 44
REMARK SMILES IDX 75 45 69 46 71 47 19 48 74 49 68 50 67 51 20 53 54 54 33 55
REMARK SMILES IDX 53 56 34 57 37 58 52 59 72 60 35 61 36 62 51 64 73 65 38 66
REMARK SMILES IDX 21 67 22 68 31 69 23 70 24 71 30 72 32 73 25 74 26 75 27 76
REMARK SMILES IDX 28 77 29 78 55 79 56 80 65 81 57 82 58 83 64 84 66 85 59 86
REMARK SMILES IDX 60 87 61 88 62 89 63 90 39 91 40 92 49 93 41 94 42 95 48 96
REMARK SMILES IDX 50 97 43 98 44 99 45 100 46 101 47 102
REMARK H PARENT 5 6 9 33 71 52 37 63
REMARK Flexibility Score: inf
ROOT
ATOM      1  C   UNL A   1      39.130  21.981  26.140  1.00  0.00     0.042 C 
ENDROOT
BRANCH   1   2
ATOM      2  C   UNL A   1      37.798  22.160  25.431  1.00  0.00     0.117 C 
BRANCH   2   3
ATOM      3  N   UNL A   1      36.632  22.233  26.282  1.00  0.00    -0.354 N 
ATOM      4  C   UNL A   1      35.386  21.707  26.100  1.00  0.00     0.243 C 
ATOM      5  O   UNL A   1      34.779  21.475  27.160  1.00  0.00    -0.273 OA
ATOM      6  H   UNL A   1      36.755  22.740  27.118  1.00  0.00     0.163 HD
BRANCH   4   7
ATOM      7  C   UNL A   1      34.584  21.632  24.755  1.00  0.00     0.179 C 
ATOM      8  C   UNL A   1      34.152  20.144  24.698  1.00  0.00     0.042 C 
BRANCH   7   9
ATOM      9  N   UNL A   1      33.458  22.524  24.437  1.00  0.00    -0.268 N 
ATOM     10  C   UNL A   1      32.231  22.453  25.049  1.00  0.00     0.232 C 
ATOM     11  C   UNL A   1      33.270  23.141  23.230  1.00  0.00     0.253 C 
ATOM     12  O   UNL A   1      31.844  21.622  25.859  1.00  0.00    -0.274 OA
ATOM     13  C   UNL A   1      31.290  23.460  24.440  1.00  0.00     0.136 C 
ATOM     14  C   UNL A   1      32.154  24.168  23.414  1.00  0.00     0.191 C 
ATOM     15  O   UNL A   1      33.916  22.977  22.217  1.00  0.00    -0.272 OA
BRANCH  14  16
ATOM     16  N   UNL A   1      32.648  25.510  23.836  1.00  0.00    -0.280 N 
ATOM     17  C   UNL A   1      32.816  25.801  25.179  1.00  0.00     0.266 C 
ATOM     18  C   UNL A   1      32.976  26.542  22.975  1.00  0.00     0.149 C 
ATOM     19  O   UNL A   1      32.663  25.016  26.105  1.00  0.00    -0.268 OA
ATOM     20  C   UNL A   1      33.245  27.202  25.390  1.00  0.00     0.081 C 
ATOM     21  S   UNL A   1      33.362  28.008  23.893  1.00  0.00    -0.054 SA
ATOM     22  S   UNL A   1      33.019  26.503  21.310  1.00  0.00    -0.052 S 
ATOM     23  C   UNL A   1      33.437  27.633  26.642  1.00  0.00     0.029 C 
BRANCH  23  24
ATOM     24  C   UNL A   1      33.622  28.996  27.131  1.00  0.00    -0.024 A 
ATOM     25  C   UNL A   1      32.619  29.965  27.048  1.00  0.00     0.008 A 
ATOM     26  C   UNL A   1      34.912  29.364  27.530  1.00  0.00     0.008 A 
ATOM     27  C   UNL A   1      32.913  31.298  27.360  1.00  0.00     0.001 A 
ATOM     28  C   UNL A   1      35.210  30.697  27.798  1.00  0.00     0.001 A 
ATOM     29  C   UNL A   1      34.208  31.662  27.725  1.00  0.00     0.000 A 
ENDBRANCH  23  24
ENDBRANCH  14  16
ENDBRANCH   7   9
ENDBRANCH   4   7
ENDBRANCH   2   3
ENDBRANCH   1   2
BRANCH   1  30
ATOM     30  C   UNL A   1      39.627  23.213  26.874  1.00  0.00     0.118 C 
BRANCH  30  31
ATOM     31  N   UNL A   1      40.379  24.125  26.022  1.00  0.00    -0.352 N 
ATOM     32  C   UNL A   1      40.834  25.411  26.200  1.00  0.00     0.251 C 
ATOM     33  H   UNL A   1      40.609  23.744  25.144  1.00  0.00     0.163 HD
ATOM     34  O   UNL A   1      41.340  25.984  25.235  1.00  0.00    -0.269 OA
BRANCH  32  35
ATOM     35  C   UNL A   1      40.694  26.146  27.484  1.00  0.00     0.039 A 
ATOM     36  C   UNL A   1      41.618  27.158  27.774  1.00  0.00     0.014 A 
ATOM     37  C   UNL A   1      39.726  25.834  28.435  1.00  0.00     0.014 A 
ATOM     38  C   UNL A   1      41.512  27.900  28.959  1.00  0.00     0.010 A 
ATOM     39  C   UNL A   1      39.551  26.643  29.560  1.00  0.00     0.010 A 
ATOM     40  C   UNL A   1      40.436  27.696  29.835  1.00  0.00    -0.014 A 
BRANCH  40  41
ATOM     41  C   UNL A   1      40.211  28.559  31.033  1.00  0.00     0.031 A 
ATOM     42  C   UNL A   1      39.202  29.681  30.976  1.00  0.00     0.074 A 
ATOM     43  C   UNL A   1      40.952  28.378  32.149  1.00  0.00     0.049 A 
ATOM     44  N   UNL A   1      39.022  30.673  31.807  1.00  0.00    -0.248 NA
ATOM     45  C   UNL A   1      38.289  29.701  29.819  1.00  0.00     0.031 C 
ATOM     46  C   UNL A   1      41.944  27.317  32.336  1.00  0.00     0.029 A 
ATOM     47  N   UNL A   1      41.007  29.082  33.332  1.00  0.00    -0.354 N 
ATOM     48  C   UNL A   1      37.994  31.442  31.270  1.00  0.00     0.074 A 
ATOM     49  C   UNL A   1      37.618  30.828  30.016  1.00  0.00     0.031 C 
ATOM     50  C   UNL A   1      42.481  27.420  33.561  1.00  0.00     0.029 A 
ATOM     51  C   UNL A   1      41.970  28.622  34.208  1.00  0.00     0.049 A 
ATOM     52  H   UNL A   1      40.413  29.841  33.535  1.00  0.00     0.167 HD
ATOM     53  C   UNL A   1      37.400  32.541  31.793  1.00  0.00     0.037 A 
ATOM     54  C   UNL A   1      42.449  29.148  35.358  1.00  0.00     0.037 A 
ATOM     55  C   UNL A   1      37.737  33.096  33.078  1.00  0.00     0.049 A 
ATOM     56  C   UNL A   1      41.885  30.475  35.817  1.00  0.00     0.074 A 
ATOM     57  C   UNL A   1      37.120  34.134  33.752  1.00  0.00     0.029 A 
ATOM     58  N   UNL A   1      38.780  32.660  33.878  1.00  0.00    -0.354 N 
ATOM     59  N   UNL A   1      40.889  31.167  35.313  1.00  0.00    -0.248 NA
ATOM     60  C   UNL A   1      42.528  31.117  36.973  1.00  0.00     0.031 C 
ATOM     61  C   UNL A   1      37.824  34.362  34.939  1.00  0.00     0.029 A 
ATOM     62  C   UNL A   1      38.853  33.438  35.020  1.00  0.00     0.049 A 
ATOM     63  H   UNL A   1      39.380  31.908  33.666  1.00  0.00     0.167 HD
ATOM     64  C   UNL A   1      40.752  32.288  36.125  1.00  0.00     0.074 A 
ATOM     65  C   UNL A   1      41.776  32.196  37.143  1.00  0.00     0.031 C 
ATOM     66  C   UNL A   1      39.855  33.301  36.045  1.00  0.00     0.037 A 
BRANCH  53  67
ATOM     67  C   UNL A   1      36.310  33.216  31.009  1.00  0.00     0.058 A 
ATOM     68  C   UNL A   1      34.970  33.168  31.420  1.00  0.00     0.135 A 
ATOM     69  C   UNL A   1      36.626  34.018  29.899  1.00  0.00     0.135 A 
ATOM     70  F   UNL A   1      34.610  32.407  32.465  1.00  0.00    -0.206 F 
ATOM     71  C   UNL A   1      33.980  33.893  30.760  1.00  0.00     0.059 A 
ATOM     72  C   UNL A   1      35.657  34.769  29.238  1.00  0.00     0.059 A 
ATOM     73  F   UNL A   1      37.893  34.098  29.463  1.00  0.00    -0.206 F 
ATOM     74  C   UNL A   1      34.335  34.699  29.677  1.00  0.00     0.060 A 
BRANCH  74  75
ATOM     75  S   UNL A   1      33.049  35.680  28.875  1.00  0.00     0.124 S 
ATOM     76  O   UNL A   1      33.845  36.649  28.128  1.00  0.00    -0.237 OA
ATOM     77  O   UNL A   1      32.352  34.681  28.072  1.00  0.00    -0.237 OA
ATOM     78  O   UNL A   1      32.287  36.223  29.995  1.00  0.00    -0.744 OA
ENDBRANCH  74  75
ENDBRANCH  53  67
BRANCH  54  79
ATOM     79  C   UNL A   1      43.616  28.535  36.077  1.00  0.00     0.058 A 
ATOM     80  C   UNL A   1      43.484  27.496  37.009  1.00  0.00     0.135 A 
ATOM     81  C   UNL A   1      44.905  29.061  35.913  1.00  0.00     0.135 A 
ATOM     82  F   UNL A   1      42.286  26.928  37.214  1.00  0.00    -0.206 F 
ATOM     83  C   UNL A   1      44.562  27.064  37.788  1.00  0.00     0.059 A 
ATOM     84  C   UNL A   1      46.000  28.641  36.654  1.00  0.00     0.059 A 
ATOM     85  F   UNL A   1      45.121  29.999  34.990  1.00  0.00    -0.206 F 
ATOM     86  C   UNL A   1      45.814  27.656  37.612  1.00  0.00     0.060 A 
BRANCH  86  87
ATOM     87  S   UNL A   1      47.194  27.157  38.662  1.00  0.00     0.124 S 
ATOM     88  O   UNL A   1      48.123  28.265  38.477  1.00  0.00    -0.237 OA
ATOM     89  O   UNL A   1      46.557  27.063  39.971  1.00  0.00    -0.237 OA
ATOM     90  O   UNL A   1      47.616  25.884  38.082  1.00  0.00    -0.744 OA
ENDBRANCH  86  87
ENDBRANCH  54  79
BRANCH  66  91
ATOM     91  C   UNL A   1      39.877  34.338  37.133  1.00  0.00     0.058 A 
ATOM     92  C   UNL A   1      40.577  35.544  36.993  1.00  0.00     0.135 A 
ATOM     93  C   UNL A   1      39.126  34.143  38.304  1.00  0.00     0.135 A 
ATOM     94  F   UNL A   1      41.320  35.771  35.898  1.00  0.00    -0.206 F 
ATOM     95  C   UNL A   1      40.541  36.520  37.983  1.00  0.00     0.059 A 
ATOM     96  C   UNL A   1      39.055  35.115  39.295  1.00  0.00     0.059 A 
ATOM     97  F   UNL A   1      38.432  33.008  38.480  1.00  0.00    -0.206 F 
ATOM     98  C   UNL A   1      39.773  36.299  39.129  1.00  0.00     0.060 A 
BRANCH  98  99
ATOM     99  S   UNL A   1      39.693  37.594  40.385  1.00  0.00     0.124 S 
ATOM    100  O   UNL A   1      39.052  36.892  41.491  1.00  0.00    -0.237 OA
ATOM    101  O   UNL A   1      41.101  37.929  40.576  1.00  0.00    -0.237 OA
ATOM    102  O   UNL A   1      38.888  38.634  39.750  1.00  0.00    -0.744 OA
ENDBRANCH  98  99
ENDBRANCH  66  91
ENDBRANCH  40  41
ENDBRANCH  32  35
ENDBRANCH  30  31
ENDBRANCH   1  30
TORSDOF 16
ENDMDL
MODEL 3
REMARK VINA RESULT:     -12.9      5.755     11.255
REMARK SMILES C[C@H](C(=O)NCCCNC(=O)c1ccc(-c2c3nc(c(-c4c(F)cc(S(=O)(=O)[O-])cc4F)c4ccc([nH]4)c(-c4c(F)cc(S(=O)(=O)[O-])cc4F)c4nc(c(-c5c(F)cc(S(=O)(=O)[O-])cc5F)c5ccc2[nH]5)C=C4)C=C3)cc1)N1C(=O)C[C@@H](N2C(=O)/C(=C/c3ccccc3)SC2=S)C1=O
REMARK SMILES IDX 7 1 6 2 5 3 3 4 4 5 2 7 1 8 78 9 79 10 97 11 80 12 81 13
REMARK SMILES IDX 82 14 98 15 83 16 84 17 95 18 85 19 86 20 94 21 96 22 87 23
REMARK SMILES IDX 88 24 89 25 93 26 90 27 92 28 91 29 8 30 9 31 10 32 11 34
REMARK SMILES IDX 12 35 13 36 77 37 14 38 76 39 15 40 16 41 17 42 70 43 18 44
REMARK SMILES IDX 75 45 69 46 71 47 19 48 74 49 68 50 67 51 20 53 54 54 33 55
REMARK SMILES IDX 53 56 34 57 37 58 52 59 72 60 35 61 36 62 51 64 73 65 38 66
REMARK SMILES IDX 21 67 22 68 31 69 23 70 24 71 30 72 32 73 25 74 26 75 27 76
REMARK SMILES IDX 28 77 29 78 55 79 56 80 65 81 57 82 58 83 64 84 66 85 59 86
REMARK SMILES IDX 60 87 61 88 62 89 63 90 39 91 40 92 49 93 41 94 42 95 48 96
REMARK SMILES IDX 50 97 43 98 44 99 45 100 46 101 47 102
REMARK H PARENT 5 6 9 33 71 52 37 63
REMARK Flexibility Score: inf
ROOT
ATOM      1  C   UNL A   1      37.420  23.218  25.099  1.00  0.00     0.042 C 
ENDROOT
BRANCH   1   2
ATOM      2  C   UNL A   1      35.977  22.918  25.470  1.00  0.00     0.117 C 
BRANCH   2   3
ATOM      3  N   UNL A   1      35.600  21.523  25.467  1.00  0.00    -0.354 N 
ATOM      4  C   UNL A   1      34.368  20.954  25.320  1.00  0.00     0.243 C 
ATOM      5  O   UNL A   1      34.398  19.805  24.846  1.00  0.00    -0.273 OA
ATOM      6  H   UNL A   1      36.342  20.888  25.591  1.00  0.00     0.163 HD
BRANCH   4   7
ATOM      7  C   UNL A   1      33.014  21.473  25.917  1.00  0.00     0.179 C 
ATOM      8  C   UNL A   1      33.399  21.834  27.375  1.00  0.00     0.042 C 
BRANCH   7   9
ATOM      9  N   UNL A   1      32.218  22.544  25.297  1.00  0.00    -0.268 N 
ATOM     10  C   UNL A   1      30.931  22.850  25.667  1.00  0.00     0.232 C 
ATOM     11  C   UNL A   1      32.389  23.002  24.020  1.00  0.00     0.253 C 
ATOM     12  O   UNL A   1      30.221  22.260  26.469  1.00  0.00    -0.274 OA
ATOM     13  C   UNL A   1      30.387  23.946  24.788  1.00  0.00     0.136 C 
ATOM     14  C   UNL A   1      31.555  24.274  23.878  1.00  0.00     0.191 C 
ATOM     15  O   UNL A   1      33.126  22.546  23.171  1.00  0.00    -0.272 OA
BRANCH  14  16
ATOM     16  N   UNL A   1      32.299  25.514  24.246  1.00  0.00    -0.280 N 
ATOM     17  C   UNL A   1      32.332  25.944  25.561  1.00  0.00     0.266 C 
ATOM     18  C   UNL A   1      32.998  26.312  23.358  1.00  0.00     0.149 C 
ATOM     19  O   UNL A   1      31.853  25.353  26.519  1.00  0.00    -0.268 OA
ATOM     20  C   UNL A   1      33.060  27.225  25.704  1.00  0.00     0.081 C 
ATOM     21  S   UNL A   1      33.596  27.764  24.179  1.00  0.00    -0.054 SA
ATOM     22  S   UNL A   1      33.279  26.032  21.740  1.00  0.00    -0.052 S 
ATOM     23  C   UNL A   1      33.165  27.772  26.921  1.00  0.00     0.029 C 
BRANCH  23  24
ATOM     24  C   UNL A   1      33.608  29.111  27.297  1.00  0.00    -0.024 A 
ATOM     25  C   UNL A   1      32.763  30.223  27.243  1.00  0.00     0.008 A 
ATOM     26  C   UNL A   1      34.974  29.287  27.545  1.00  0.00     0.008 A 
ATOM     27  C   UNL A   1      33.291  31.505  27.435  1.00  0.00     0.001 A 
ATOM     28  C   UNL A   1      35.501  30.567  27.692  1.00  0.00     0.001 A 
ATOM     29  C   UNL A   1      34.658  31.676  27.649  1.00  0.00     0.000 A 
ENDBRANCH  23  24
ENDBRANCH  14  16
ENDBRANCH   7   9
ENDBRANCH   4   7
ENDBRANCH   2   3
ENDBRANCH   1   2
BRANCH   1  30
ATOM     30  C   UNL A   1      38.211  23.946  26.171  1.00  0.00     0.118 C 
BRANCH  30  31
ATOM     31  N   UNL A   1      39.618  23.572  26.200  1.00  0.00    -0.352 N 
ATOM     32  C   UNL A   1      40.727  24.143  26.781  1.00  0.00     0.251 C 
ATOM     33  H   UNL A   1      39.816  22.744  25.705  1.00  0.00     0.163 HD
ATOM     34  O   UNL A   1      41.829  23.660  26.522  1.00  0.00    -0.269 OA
BRANCH  32  35
ATOM     35  C   UNL A   1      40.651  25.338  27.661  1.00  0.00     0.039 A 
ATOM     36  C   UNL A   1      39.628  25.394  28.618  1.00  0.00     0.014 A 
ATOM     37  C   UNL A   1      41.509  26.428  27.537  1.00  0.00     0.014 A 
ATOM     38  C   UNL A   1      39.530  26.486  29.490  1.00  0.00     0.010 A 
ATOM     39  C   UNL A   1      41.481  27.462  28.477  1.00  0.00     0.010 A 
ATOM     40  C   UNL A   1      40.497  27.502  29.475  1.00  0.00    -0.014 A 
BRANCH  40  41
ATOM     41  C   UNL A   1      40.507  28.608  30.480  1.00  0.00     0.031 A 
ATOM     42  C   UNL A   1      41.392  28.511  31.699  1.00  0.00     0.074 A 
ATOM     43  C   UNL A   1      39.678  29.666  30.333  1.00  0.00     0.049 A 
ATOM     44  N   UNL A   1      41.382  29.234  32.787  1.00  0.00    -0.248 NA
ATOM     45  C   UNL A   1      42.412  27.446  31.703  1.00  0.00     0.031 C 
ATOM     46  C   UNL A   1      38.789  29.885  29.190  1.00  0.00     0.029 A 
ATOM     47  N   UNL A   1      39.430  30.749  31.147  1.00  0.00    -0.354 N 
ATOM     48  C   UNL A   1      42.372  28.705  33.609  1.00  0.00     0.074 A 
ATOM     49  C   UNL A   1      42.936  27.570  32.914  1.00  0.00     0.031 C 
ATOM     50  C   UNL A   1      38.123  31.036  29.359  1.00  0.00     0.029 A 
ATOM     51  C   UNL A   1      38.435  31.583  30.673  1.00  0.00     0.049 A 
ATOM     52  H   UNL A   1      39.916  30.915  31.987  1.00  0.00     0.167 HD
ATOM     53  C   UNL A   1      42.790  29.148  34.819  1.00  0.00     0.037 A 
ATOM     54  C   UNL A   1      37.789  32.616  31.259  1.00  0.00     0.037 A 
ATOM     55  C   UNL A   1      42.267  30.325  35.463  1.00  0.00     0.049 A 
ATOM     56  C   UNL A   1      38.161  32.966  32.683  1.00  0.00     0.074 A 
ATOM     57  C   UNL A   1      42.700  30.927  36.631  1.00  0.00     0.029 A 
ATOM     58  N   UNL A   1      41.200  31.073  34.996  1.00  0.00    -0.354 N 
ATOM     59  N   UNL A   1      39.125  32.477  33.429  1.00  0.00    -0.248 NA
ATOM     60  C   UNL A   1      37.338  33.977  33.364  1.00  0.00     0.031 C 
ATOM     61  C   UNL A   1      41.859  32.011  36.900  1.00  0.00     0.029 A 
ATOM     62  C   UNL A   1      40.929  32.106  35.876  1.00  0.00     0.049 A 
ATOM     63  H   UNL A   1      40.707  30.897  34.161  1.00  0.00     0.167 HD
ATOM     64  C   UNL A   1      39.059  33.162  34.638  1.00  0.00     0.074 A 
ATOM     65  C   UNL A   1      37.951  34.088  34.535  1.00  0.00     0.031 C 
ATOM     66  C   UNL A   1      39.848  33.046  35.734  1.00  0.00     0.037 A 
BRANCH  53  67
ATOM     67  C   UNL A   1      43.878  28.392  35.530  1.00  0.00     0.058 A 
ATOM     68  C   UNL A   1      45.235  28.678  35.315  1.00  0.00     0.135 A 
ATOM     69  C   UNL A   1      43.556  27.452  36.523  1.00  0.00     0.135 A 
ATOM     70  F   UNL A   1      45.599  29.558  34.368  1.00  0.00    -0.206 F 
ATOM     71  C   UNL A   1      46.235  28.061  36.061  1.00  0.00     0.059 A 
ATOM     72  C   UNL A   1      44.538  26.839  37.297  1.00  0.00     0.059 A 
ATOM     73  F   UNL A   1      42.274  27.141  36.768  1.00  0.00    -0.206 F 
ATOM     74  C   UNL A   1      45.877  27.150  37.057  1.00  0.00     0.060 A 
BRANCH  74  75
ATOM     75  S   UNL A   1      47.185  26.409  38.057  1.00  0.00     0.124 S 
ATOM     76  O   UNL A   1      46.428  25.458  38.867  1.00  0.00    -0.237 OA
ATOM     77  O   UNL A   1      48.056  25.824  37.044  1.00  0.00    -0.237 OA
ATOM     78  O   UNL A   1      47.744  27.545  38.783  1.00  0.00    -0.744 OA
ENDBRANCH  74  75
ENDBRANCH  53  67
BRANCH  54  79
ATOM     79  C   UNL A   1      36.626  33.293  30.593  1.00  0.00     0.058 A 
ATOM     80  C   UNL A   1      36.771  34.237  29.566  1.00  0.00     0.135 A 
ATOM     81  C   UNL A   1      35.320  33.076  31.056  1.00  0.00     0.135 A 
ATOM     82  F   UNL A   1      37.986  34.491  29.058  1.00  0.00    -0.206 F 
ATOM     83  C   UNL A   1      35.686  34.977  29.087  1.00  0.00     0.059 A 
ATOM     84  C   UNL A   1      34.219  33.778  30.587  1.00  0.00     0.059 A 
ATOM     85  F   UNL A   1      35.095  32.139  31.978  1.00  0.00    -0.206 F 
ATOM     86  C   UNL A   1      34.414  34.749  29.618  1.00  0.00     0.060 A 
BRANCH  86  87
ATOM     87  S   UNL A   1      33.020  35.748  29.057  1.00  0.00     0.124 S 
ATOM     88  O   UNL A   1      33.698  36.882  28.439  1.00  0.00    -0.237 OA
ATOM     89  O   UNL A   1      32.341  34.832  28.148  1.00  0.00    -0.237 OA
ATOM     90  O   UNL A   1      32.301  36.048  30.293  1.00  0.00    -0.744 OA
ENDBRANCH  86  87
ENDBRANCH  54  79
BRANCH  66  91
ATOM     91  C   UNL A   1      39.606  33.999  36.870  1.00  0.00     0.058 A 
ATOM     92  C   UNL A   1      38.870  33.629  38.004  1.00  0.00     0.135 A 
ATOM     93  C   UNL A   1      40.181  35.281  36.845  1.00  0.00     0.135 A 
ATOM     94  F   UNL A   1      38.290  32.420  38.068  1.00  0.00    -0.206 F 
ATOM     95  C   UNL A   1      38.704  34.502  39.074  1.00  0.00     0.059 A 
ATOM     96  C   UNL A   1      40.049  36.160  37.914  1.00  0.00     0.059 A 
ATOM     97  F   UNL A   1      40.901  35.678  35.785  1.00  0.00    -0.206 F 
ATOM     98  C   UNL A   1      39.302  35.764  39.022  1.00  0.00     0.060 A 
BRANCH  98  99
ATOM     99  S   UNL A   1      39.121  36.869  40.439  1.00  0.00     0.124 S 
ATOM    100  O   UNL A   1      38.296  36.066  41.335  1.00  0.00    -0.237 OA
ATOM    101  O   UNL A   1      40.505  37.067  40.857  1.00  0.00    -0.237 OA
ATOM    102  O   UNL A   1      38.470  38.045  39.871  1.00  0.00    -0.744 OA
ENDBRANCH  98  99
ENDBRANCH  66  91
ENDBRANCH  40  41
ENDBRANCH  32  35
ENDBRANCH  30  31
ENDBRANCH   1  30
TORSDOF 16
ENDMDL
