MODEL 1
REMARK VINA RESULT:     -10.7      0.000      0.000
REMARK SMILES [NH3+]CC(=O)N1C[C@H](O)C[C@H]1C(=O)NCCCNC(=O)c1ccc(-c2c3nc(c(-c4c(F)cc(S(=O)(=O)[O-])cc4F)c4ccc([nH]4)c(-c4c(F)cc(S(=O)(=O)[O-])cc4F)c4nc(c(-c5c(F)cc(S(=O)(=O)[O-])cc5F)c5ccc2[nH]5)C=C4)C=C3)cc1
REMARK SMILES IDX 15 1 14 2 13 3 11 4 12 5 10 7 5 8 6 9 7 10 9 11 3 12 4 13
REMARK SMILES IDX 2 14 1 15 8 19 16 21 17 22 18 23 19 25 20 26 21 27 85 28
REMARK SMILES IDX 22 29 84 30 23 31 24 32 25 33 78 34 26 35 83 36 77 37 79 38
REMARK SMILES IDX 27 39 82 40 76 41 75 42 28 44 62 45 41 46 61 47 42 48 45 49
REMARK SMILES IDX 60 50 80 51 43 52 44 53 59 55 81 56 46 57 29 58 30 59 39 60
REMARK SMILES IDX 31 61 32 62 38 63 40 64 33 65 34 66 35 67 36 68 37 69 63 70
REMARK SMILES IDX 64 71 73 72 65 73 66 74 72 75 74 76 67 77 68 78 69 79 70 80
REMARK SMILES IDX 71 81 47 82 48 83 57 84 49 85 50 86 56 87 58 88 51 89 52 90
REMARK SMILES IDX 53 91 54 92 55 93
REMARK H PARENT 13 6 1 16 1 17 1 18 8 20 17 24 79 43 45 54
REMARK Flexibility Score: inf
ROOT
ATOM      1  C   UNL A   1      44.405  24.849  27.081  1.00  0.00     0.042 C 
ENDROOT
BRANCH   1   2
ATOM      2  C   UNL A   1      45.443  24.011  26.359  1.00  0.00     0.117 C 
BRANCH   2   3
ATOM      3  N   UNL A   1      45.045  23.663  25.012  1.00  0.00    -0.354 N 
ATOM      4  C   UNL A   1      44.766  22.451  24.460  1.00  0.00     0.242 C 
ATOM      5  O   UNL A   1      44.220  22.455  23.351  1.00  0.00    -0.273 OA
ATOM      6  H   UNL A   1      44.961  24.427  24.396  1.00  0.00     0.163 HD
BRANCH   4   7
ATOM      7  C   UNL A   1      44.901  21.137  25.252  1.00  0.00     0.177 C 
ATOM      8  N   UNL A   1      43.744  20.238  25.362  1.00  0.00    -0.323 N 
ATOM      9  C   UNL A   1      44.097  18.862  25.048  1.00  0.00     0.152 C 
ATOM     10  C   UNL A   1      45.623  18.845  24.974  1.00  0.00     0.136 C 
ATOM     11  C   UNL A   1      46.027  20.279  24.657  1.00  0.00     0.069 C 
BRANCH   8  12
ATOM     12  C   UNL A   1      42.604  20.691  25.998  1.00  0.00     0.278 C 
ATOM     13  O   UNL A   1      41.797  21.406  25.400  1.00  0.00    -0.268 OA
BRANCH  12  14
ATOM     14  C   UNL A   1      42.405  20.402  27.494  1.00  0.00     0.360 C 
BRANCH  14  15
ATOM     15  N   UNL A   1      41.181  20.961  28.063  1.00  0.00    -0.350 N 
ATOM     16  H   UNL A   1      41.253  20.973  29.081  1.00  0.00     0.344 HD
ATOM     17  H   UNL A   1      40.384  20.389  27.786  1.00  0.00     0.344 HD
ATOM     18  H   UNL A   1      41.050  21.914  27.722  1.00  0.00     0.344 HD
ENDBRANCH  14  15
ENDBRANCH  12  14
ENDBRANCH   8  12
BRANCH  10  19
ATOM     19  O   UNL A   1      46.182  18.455  26.226  1.00  0.00    -0.391 OA
ATOM     20  H   UNL A   1      46.359  17.502  26.217  1.00  0.00     0.211 HD
ENDBRANCH  10  19
ENDBRANCH   4   7
ENDBRANCH   2   3
ENDBRANCH   1   2
BRANCH   1  21
ATOM     21  C   UNL A   1      43.199  24.050  27.562  1.00  0.00     0.118 C 
BRANCH  21  22
ATOM     22  N   UNL A   1      42.085  24.092  26.620  1.00  0.00    -0.352 N 
ATOM     23  C   UNL A   1      40.913  24.806  26.663  1.00  0.00     0.251 C 
ATOM     24  H   UNL A   1      42.191  23.518  25.828  1.00  0.00     0.163 HD
ATOM     25  O   UNL A   1      40.016  24.536  25.865  1.00  0.00    -0.269 OA
BRANCH  23  26
ATOM     26  C   UNL A   1      40.720  25.874  27.665  1.00  0.00     0.039 A 
ATOM     27  C   UNL A   1      39.749  25.707  28.657  1.00  0.00     0.014 A 
ATOM     28  C   UNL A   1      41.479  27.046  27.623  1.00  0.00     0.014 A 
ATOM     29  C   UNL A   1      39.595  26.681  29.644  1.00  0.00     0.010 A 
ATOM     30  C   UNL A   1      41.391  27.968  28.661  1.00  0.00     0.010 A 
ATOM     31  C   UNL A   1      40.443  27.800  29.680  1.00  0.00    -0.014 A 
BRANCH  31  32
ATOM     32  C   UNL A   1      40.356  28.802  30.773  1.00  0.00     0.031 A 
ATOM     33  C   UNL A   1      41.218  28.661  32.000  1.00  0.00     0.074 A 
ATOM     34  C   UNL A   1      39.451  29.799  30.690  1.00  0.00     0.049 A 
ATOM     35  N   UNL A   1      41.239  29.396  33.082  1.00  0.00    -0.248 NA
ATOM     36  C   UNL A   1      42.160  27.531  32.029  1.00  0.00     0.031 C 
ATOM     37  C   UNL A   1      38.518  30.005  29.579  1.00  0.00     0.029 A 
ATOM     38  N   UNL A   1      39.156  30.818  31.561  1.00  0.00    -0.354 N 
ATOM     39  C   UNL A   1      42.177  28.809  33.923  1.00  0.00     0.074 A 
ATOM     40  C   UNL A   1      42.666  27.627  33.249  1.00  0.00     0.031 C 
ATOM     41  C   UNL A   1      37.772  31.093  29.825  1.00  0.00     0.029 A 
ATOM     42  C   UNL A   1      38.140  31.638  31.128  1.00  0.00     0.049 A 
ATOM     43  H   UNL A   1      39.627  30.951  32.415  1.00  0.00     0.167 HD
ATOM     44  C   UNL A   1      42.606  29.229  35.137  1.00  0.00     0.037 A 
ATOM     45  C   UNL A   1      37.559  32.701  31.718  1.00  0.00     0.037 A 
ATOM     46  C   UNL A   1      42.132  30.424  35.787  1.00  0.00     0.049 A 
ATOM     47  C   UNL A   1      38.061  33.152  33.063  1.00  0.00     0.074 A 
ATOM     48  C   UNL A   1      42.558  30.976  36.982  1.00  0.00     0.029 A 
ATOM     49  N   UNL A   1      41.123  31.244  35.304  1.00  0.00    -0.354 N 
ATOM     50  N   UNL A   1      39.008  32.633  33.807  1.00  0.00    -0.248 NA
ATOM     51  C   UNL A   1      37.421  34.339  33.648  1.00  0.00     0.031 C 
ATOM     52  C   UNL A   1      41.767  32.098  37.251  1.00  0.00     0.029 A 
ATOM     53  C   UNL A   1      40.892  32.282  36.192  1.00  0.00     0.049 A 
ATOM     54  H   UNL A   1      40.642  31.108  34.457  1.00  0.00     0.167 HD
ATOM     55  C   UNL A   1      39.097  33.444  34.933  1.00  0.00     0.074 A 
ATOM     56  C   UNL A   1      38.118  34.497  34.764  1.00  0.00     0.031 C 
ATOM     57  C   UNL A   1      39.916  33.328  36.008  1.00  0.00     0.037 A 
BRANCH  44  58
ATOM     58  C   UNL A   1      43.642  28.396  35.844  1.00  0.00     0.058 A 
ATOM     59  C   UNL A   1      43.286  27.363  36.727  1.00  0.00     0.135 A 
ATOM     60  C   UNL A   1      45.009  28.599  35.595  1.00  0.00     0.135 A 
ATOM     61  F   UNL A   1      41.995  27.133  37.014  1.00  0.00    -0.206 F 
ATOM     62  C   UNL A   1      44.248  26.579  37.355  1.00  0.00     0.059 A 
ATOM     63  C   UNL A   1      45.988  27.807  36.189  1.00  0.00     0.059 A 
ATOM     64  F   UNL A   1      45.407  29.572  34.761  1.00  0.00    -0.206 F 
ATOM     65  C   UNL A   1      45.597  26.806  37.078  1.00  0.00     0.060 A 
BRANCH  65  66
ATOM     66  S   UNL A   1      46.829  25.766  37.888  1.00  0.00     0.124 S 
ATOM     67  O   UNL A   1      46.271  24.433  37.676  1.00  0.00    -0.237 OA
ATOM     68  O   UNL A   1      48.040  26.073  37.133  1.00  0.00    -0.237 OA
ATOM     69  O   UNL A   1      46.818  26.237  39.269  1.00  0.00    -0.744 OA
ENDBRANCH  65  66
ENDBRANCH  44  58
BRANCH  45  70
ATOM     70  C   UNL A   1      36.446  33.417  31.037  1.00  0.00     0.058 A 
ATOM     71  C   UNL A   1      36.675  34.188  29.886  1.00  0.00     0.135 A 
ATOM     72  C   UNL A   1      35.130  33.339  31.518  1.00  0.00     0.135 A 
ATOM     73  F   UNL A   1      37.916  34.298  29.389  1.00  0.00    -0.206 F 
ATOM     74  C   UNL A   1      35.645  34.875  29.252  1.00  0.00     0.059 A 
ATOM     75  C   UNL A   1      34.078  33.993  30.884  1.00  0.00     0.059 A 
ATOM     76  F   UNL A   1      34.852  32.600  32.603  1.00  0.00    -0.206 F 
ATOM     77  C   UNL A   1      34.348  34.769  29.757  1.00  0.00     0.060 A 
BRANCH  77  78
ATOM     78  S   UNL A   1      33.011  35.631  28.902  1.00  0.00     0.124 S 
ATOM     79  O   UNL A   1      32.212  36.117  30.021  1.00  0.00    -0.237 OA
ATOM     80  O   UNL A   1      33.737  36.648  28.147  1.00  0.00    -0.237 OA
ATOM     81  O   UNL A   1      32.398  34.581  28.095  1.00  0.00    -0.744 OA
ENDBRANCH  77  78
ENDBRANCH  45  70
BRANCH  57  82
ATOM     82  C   UNL A   1      39.818  34.387  37.072  1.00  0.00     0.058 A 
ATOM     83  C   UNL A   1      40.525  35.596  36.983  1.00  0.00     0.135 A 
ATOM     84  C   UNL A   1      38.963  34.208  38.173  1.00  0.00     0.135 A 
ATOM     85  F   UNL A   1      41.360  35.817  35.955  1.00  0.00    -0.206 F 
ATOM     86  C   UNL A   1      40.411  36.578  37.962  1.00  0.00     0.059 A 
ATOM     87  C   UNL A   1      38.809  35.190  39.146  1.00  0.00     0.059 A 
ATOM     88  F   UNL A   1      38.254  33.075  38.302  1.00  0.00    -0.206 F 
ATOM     89  C   UNL A   1      39.547  36.366  39.038  1.00  0.00     0.060 A 
BRANCH  89  90
ATOM     90  S   UNL A   1      39.388  37.662  40.286  1.00  0.00     0.124 S 
ATOM     91  O   UNL A   1      40.736  38.218  40.306  1.00  0.00    -0.237 OA
ATOM     92  O   UNL A   1      38.355  38.520  39.714  1.00  0.00    -0.237 OA
ATOM     93  O   UNL A   1      38.992  36.931  41.486  1.00  0.00    -0.744 OA
ENDBRANCH  89  90
ENDBRANCH  57  82
ENDBRANCH  31  32
ENDBRANCH  23  26
ENDBRANCH  21  22
ENDBRANCH   1  21
TORSDOF 17
ENDMDL
MODEL 2
REMARK VINA RESULT:     -10.4      0.718      8.540
REMARK SMILES [NH3+]CC(=O)N1C[C@H](O)C[C@H]1C(=O)NCCCNC(=O)c1ccc(-c2c3nc(c(-c4c(F)cc(S(=O)(=O)[O-])cc4F)c4ccc([nH]4)c(-c4c(F)cc(S(=O)(=O)[O-])cc4F)c4nc(c(-c5c(F)cc(S(=O)(=O)[O-])cc5F)c5ccc2[nH]5)C=C4)C=C3)cc1
REMARK SMILES IDX 15 1 14 2 13 3 11 4 12 5 10 7 5 8 6 9 7 10 9 11 3 12 4 13
REMARK SMILES IDX 2 14 1 15 8 19 16 21 17 22 18 23 19 25 20 26 21 27 85 28
REMARK SMILES IDX 22 29 84 30 23 31 24 32 25 33 78 34 26 35 83 36 77 37 79 38
REMARK SMILES IDX 27 39 82 40 76 41 75 42 28 44 62 45 41 46 61 47 42 48 45 49
REMARK SMILES IDX 60 50 80 51 43 52 44 53 59 55 81 56 46 57 29 58 30 59 39 60
REMARK SMILES IDX 31 61 32 62 38 63 40 64 33 65 34 66 35 67 36 68 37 69 63 70
REMARK SMILES IDX 64 71 73 72 65 73 66 74 72 75 74 76 67 77 68 78 69 79 70 80
REMARK SMILES IDX 71 81 47 82 48 83 57 84 49 85 50 86 56 87 58 88 51 89 52 90
REMARK SMILES IDX 53 91 54 92 55 93
REMARK H PARENT 13 6 1 16 1 17 1 18 8 20 17 24 79 43 45 54
REMARK Flexibility Score: inf
ROOT
ATOM      1  C   UNL A   1      44.906  25.135  26.638  1.00  0.00     0.042 C 
ENDROOT
BRANCH   1   2
ATOM      2  C   UNL A   1      45.814  24.066  26.059  1.00  0.00     0.117 C 
BRANCH   2   3
ATOM      3  N   UNL A   1      45.418  23.653  24.730  1.00  0.00    -0.354 N 
ATOM      4  C   UNL A   1      45.057  22.429  24.257  1.00  0.00     0.242 C 
ATOM      5  O   UNL A   1      44.536  22.395  23.137  1.00  0.00    -0.273 OA
ATOM      6  H   UNL A   1      45.406  24.375  24.060  1.00  0.00     0.163 HD
BRANCH   4   7
ATOM      7  C   UNL A   1      45.073  21.169  25.142  1.00  0.00     0.177 C 
ATOM      8  N   UNL A   1      43.846  20.376  25.291  1.00  0.00    -0.323 N 
ATOM      9  C   UNL A   1      44.091  18.956  25.082  1.00  0.00     0.152 C 
ATOM     10  C   UNL A   1      45.611  18.813  25.041  1.00  0.00     0.136 C 
ATOM     11  C   UNL A   1      46.135  20.183  24.633  1.00  0.00     0.069 C 
BRANCH   8  12
ATOM     12  C   UNL A   1      42.737  20.962  25.870  1.00  0.00     0.278 C 
ATOM     13  O   UNL A   1      42.186  21.924  25.330  1.00  0.00    -0.268 OA
BRANCH  12  14
ATOM     14  C   UNL A   1      42.265  20.490  27.254  1.00  0.00     0.360 C 
BRANCH  14  15
ATOM     15  N   UNL A   1      42.616  21.386  28.354  1.00  0.00    -0.350 N 
ATOM     16  H   UNL A   1      43.608  21.285  28.571  1.00  0.00     0.344 HD
ATOM     17  H   UNL A   1      42.062  21.148  29.176  1.00  0.00     0.344 HD
ATOM     18  H   UNL A   1      42.425  22.350  28.082  1.00  0.00     0.344 HD
ENDBRANCH  14  15
ENDBRANCH  12  14
ENDBRANCH   8  12
BRANCH  10  19
ATOM     19  O   UNL A   1      46.118  18.470  26.329  1.00  0.00    -0.391 OA
ATOM     20  H   UNL A   1      46.925  17.943  26.228  1.00  0.00     0.211 HD
ENDBRANCH  10  19
ENDBRANCH   4   7
ENDBRANCH   2   3
ENDBRANCH   1   2
BRANCH   1  21
ATOM     21  C   UNL A   1      43.545  24.610  27.079  1.00  0.00     0.118 C 
BRANCH  21  22
ATOM     22  N   UNL A   1      42.510  24.815  26.071  1.00  0.00    -0.352 N 
ATOM     23  C   UNL A   1      41.344  25.538  26.131  1.00  0.00     0.251 C 
ATOM     24  H   UNL A   1      42.674  24.366  25.211  1.00  0.00     0.163 HD
ATOM     25  O   UNL A   1      40.510  25.409  25.234  1.00  0.00    -0.269 OA
BRANCH  23  26
ATOM     26  C   UNL A   1      41.079  26.445  27.266  1.00  0.00     0.039 A 
ATOM     27  C   UNL A   1      40.139  26.070  28.230  1.00  0.00     0.014 A 
ATOM     28  C   UNL A   1      41.740  27.671  27.378  1.00  0.00     0.014 A 
ATOM     29  C   UNL A   1      39.920  26.890  29.339  1.00  0.00     0.010 A 
ATOM     30  C   UNL A   1      41.592  28.438  28.528  1.00  0.00     0.010 A 
ATOM     31  C   UNL A   1      40.675  28.060  29.519  1.00  0.00    -0.014 A 
BRANCH  31  32
ATOM     32  C   UNL A   1      40.523  28.899  30.735  1.00  0.00     0.031 A 
ATOM     33  C   UNL A   1      39.466  29.972  30.788  1.00  0.00     0.074 A 
ATOM     34  C   UNL A   1      41.381  28.740  31.764  1.00  0.00     0.049 A 
ATOM     35  N   UNL A   1      39.222  30.843  31.734  1.00  0.00    -0.248 NA
ATOM     36  C   UNL A   1      38.587  30.102  29.615  1.00  0.00     0.031 C 
ATOM     37  C   UNL A   1      42.484  27.776  31.804  1.00  0.00     0.029 A 
ATOM     38  N   UNL A   1      41.472  29.395  32.967  1.00  0.00    -0.354 N 
ATOM     39  C   UNL A   1      38.180  31.632  31.263  1.00  0.00     0.074 A 
ATOM     40  C   UNL A   1      37.871  31.172  29.928  1.00  0.00     0.031 C 
ATOM     41  C   UNL A   1      43.124  27.887  32.979  1.00  0.00     0.029 A 
ATOM     42  C   UNL A   1      42.509  28.957  33.757  1.00  0.00     0.049 A 
ATOM     43  H   UNL A   1      40.852  30.109  33.239  1.00  0.00     0.167 HD
ATOM     44  C   UNL A   1      37.525  32.635  31.896  1.00  0.00     0.037 A 
ATOM     45  C   UNL A   1      42.927  29.378  34.967  1.00  0.00     0.037 A 
ATOM     46  C   UNL A   1      37.822  33.067  33.238  1.00  0.00     0.049 A 
ATOM     47  C   UNL A   1      42.177  30.489  35.652  1.00  0.00     0.074 A 
ATOM     48  C   UNL A   1      37.168  34.022  33.996  1.00  0.00     0.029 A 
ATOM     49  N   UNL A   1      38.861  32.580  34.017  1.00  0.00    -0.354 N 
ATOM     50  N   UNL A   1      41.139  31.168  35.226  1.00  0.00    -0.248 NA
ATOM     51  C   UNL A   1      42.649  30.886  36.986  1.00  0.00     0.031 C 
ATOM     52  C   UNL A   1      37.847  34.155  35.211  1.00  0.00     0.029 A 
ATOM     53  C   UNL A   1      38.885  33.236  35.237  1.00  0.00     0.049 A 
ATOM     54  H   UNL A   1      39.489  31.873  33.744  1.00  0.00     0.167 HD
ATOM     55  C   UNL A   1      40.817  32.052  36.249  1.00  0.00     0.074 A 
ATOM     56  C   UNL A   1      41.760  31.810  37.320  1.00  0.00     0.031 C 
ATOM     57  C   UNL A   1      39.828  32.981  36.298  1.00  0.00     0.037 A 
BRANCH  44  58
ATOM     58  C   UNL A   1      36.421  33.335  31.150  1.00  0.00     0.058 A 
ATOM     59  C   UNL A   1      35.075  33.216  31.534  1.00  0.00     0.135 A 
ATOM     60  C   UNL A   1      36.718  34.181  30.069  1.00  0.00     0.135 A 
ATOM     61  F   UNL A   1      34.730  32.411  32.550  1.00  0.00    -0.206 F 
ATOM     62  C   UNL A   1      34.063  33.889  30.857  1.00  0.00     0.059 A 
ATOM     63  C   UNL A   1      35.725  34.888  29.397  1.00  0.00     0.059 A 
ATOM     64  F   UNL A   1      37.987  34.332  29.659  1.00  0.00    -0.206 F 
ATOM     65  C   UNL A   1      34.398  34.726  29.792  1.00  0.00     0.060 A 
BRANCH  65  66
ATOM     66  S   UNL A   1      33.073  35.606  28.939  1.00  0.00     0.124 S 
ATOM     67  O   UNL A   1      33.825  36.602  28.181  1.00  0.00    -0.237 OA
ATOM     68  O   UNL A   1      32.453  34.545  28.150  1.00  0.00    -0.237 OA
ATOM     69  O   UNL A   1      32.257  36.132  30.028  1.00  0.00    -0.744 OA
ENDBRANCH  65  66
ENDBRANCH  44  58
BRANCH  45  70
ATOM     70  C   UNL A   1      44.108  28.741  35.611  1.00  0.00     0.058 A 
ATOM     71  C   UNL A   1      45.409  29.201  35.358  1.00  0.00     0.135 A 
ATOM     72  C   UNL A   1      43.959  27.665  36.500  1.00  0.00     0.135 A 
ATOM     73  F   UNL A   1      45.606  30.225  34.512  1.00  0.00    -0.206 F 
ATOM     74  C   UNL A   1      46.521  28.602  35.941  1.00  0.00     0.059 A 
ATOM     75  C   UNL A   1      45.053  27.069  37.119  1.00  0.00     0.059 A 
ATOM     76  F   UNL A   1      42.735  27.198  36.794  1.00  0.00    -0.206 F 
ATOM     77  C   UNL A   1      46.333  27.537  36.823  1.00  0.00     0.060 A 
BRANCH  77  78
ATOM     78  S   UNL A   1      47.780  26.794  37.607  1.00  0.00     0.124 S 
ATOM     79  O   UNL A   1      47.334  26.671  38.990  1.00  0.00    -0.237 OA
ATOM     80  O   UNL A   1      47.920  25.544  36.867  1.00  0.00    -0.237 OA
ATOM     81  O   UNL A   1      48.833  27.776  37.367  1.00  0.00    -0.744 OA
ENDBRANCH  77  78
ENDBRANCH  45  70
BRANCH  57  82
ATOM     82  C   UNL A   1      39.690  33.780  37.565  1.00  0.00     0.058 A 
ATOM     83  C   UNL A   1      40.322  35.022  37.731  1.00  0.00     0.135 A 
ATOM     84  C   UNL A   1      38.869  33.318  38.608  1.00  0.00     0.135 A 
ATOM     85  F   UNL A   1      41.121  35.508  36.768  1.00  0.00    -0.206 F 
ATOM     86  C   UNL A   1      40.170  35.763  38.899  1.00  0.00     0.059 A 
ATOM     87  C   UNL A   1      38.677  34.058  39.770  1.00  0.00     0.059 A 
ATOM     88  F   UNL A   1      38.231  32.141  38.497  1.00  0.00    -0.206 F 
ATOM     89  C   UNL A   1      39.343  35.274  39.911  1.00  0.00     0.060 A 
BRANCH  89  90
ATOM     90  S   UNL A   1      39.132  36.261  41.408  1.00  0.00     0.124 S 
ATOM     91  O   UNL A   1      37.937  35.660  41.990  1.00  0.00    -0.237 OA
ATOM     92  O   UNL A   1      40.380  36.012  42.123  1.00  0.00    -0.237 OA
ATOM     93  O   UNL A   1      38.968  37.620  40.901  1.00  0.00    -0.744 OA
ENDBRANCH  89  90
ENDBRANCH  57  82
ENDBRANCH  31  32
ENDBRANCH  23  26
ENDBRANCH  21  22
ENDBRANCH   1  21
TORSDOF 17
ENDMDL
MODEL 3
REMARK VINA RESULT:     -10.3      6.380     14.433
REMARK SMILES [NH3+]CC(=O)N1C[C@H](O)C[C@H]1C(=O)NCCCNC(=O)c1ccc(-c2c3nc(c(-c4c(F)cc(S(=O)(=O)[O-])cc4F)c4ccc([nH]4)c(-c4c(F)cc(S(=O)(=O)[O-])cc4F)c4nc(c(-c5c(F)cc(S(=O)(=O)[O-])cc5F)c5ccc2[nH]5)C=C4)C=C3)cc1
REMARK SMILES IDX 15 1 14 2 13 3 11 4 12 5 10 7 5 8 6 9 7 10 9 11 3 12 4 13
REMARK SMILES IDX 2 14 1 15 8 19 16 21 17 22 18 23 19 25 20 26 21 27 85 28
REMARK SMILES IDX 22 29 84 30 23 31 24 32 25 33 78 34 26 35 83 36 77 37 79 38
REMARK SMILES IDX 27 39 82 40 76 41 75 42 28 44 62 45 41 46 61 47 42 48 45 49
REMARK SMILES IDX 60 50 80 51 43 52 44 53 59 55 81 56 46 57 29 58 30 59 39 60
REMARK SMILES IDX 31 61 32 62 38 63 40 64 33 65 34 66 35 67 36 68 37 69 63 70
REMARK SMILES IDX 64 71 73 72 65 73 66 74 72 75 74 76 67 77 68 78 69 79 70 80
REMARK SMILES IDX 71 81 47 82 48 83 57 84 49 85 50 86 56 87 58 88 51 89 52 90
REMARK SMILES IDX 53 91 54 92 55 93
REMARK H PARENT 13 6 1 16 1 17 1 18 8 20 17 24 79 43 45 54
REMARK Flexibility Score: inf
ROOT
ATOM      1  C   UNL A   1      34.409  31.582  27.495  1.00  0.00     0.042 C 
ENDROOT
BRANCH   1   2
ATOM      2  C   UNL A   1      33.701  32.571  28.402  1.00  0.00     0.117 C 
BRANCH   2   3
ATOM      3  N   UNL A   1      34.002  33.948  28.075  1.00  0.00    -0.354 N 
ATOM      4  C   UNL A   1      33.908  35.075  28.831  1.00  0.00     0.242 C 
ATOM      5  O   UNL A   1      34.452  36.093  28.387  1.00  0.00    -0.273 OA
ATOM      6  H   UNL A   1      34.328  34.092  27.157  1.00  0.00     0.163 HD
BRANCH   4   7
ATOM      7  C   UNL A   1      33.360  35.056  30.271  1.00  0.00     0.177 C 
ATOM      8  N   UNL A   1      34.289  34.881  31.394  1.00  0.00    -0.323 N 
ATOM      9  C   UNL A   1      34.067  35.869  32.440  1.00  0.00     0.152 C 
ATOM     10  C   UNL A   1      32.755  36.558  32.068  1.00  0.00     0.136 C 
ATOM     11  C   UNL A   1      32.609  36.363  30.564  1.00  0.00     0.069 C 
BRANCH   8  12
ATOM     12  C   UNL A   1      35.016  33.710  31.485  1.00  0.00     0.278 C 
ATOM     13  O   UNL A   1      34.458  32.648  31.771  1.00  0.00    -0.268 OA
BRANCH  12  14
ATOM     14  C   UNL A   1      36.546  33.754  31.348  1.00  0.00     0.360 C 
BRANCH  14  15
ATOM     15  N   UNL A   1      37.027  34.120  30.018  1.00  0.00    -0.350 N 
ATOM     16  H   UNL A   1      38.042  34.221  30.038  1.00  0.00     0.344 HD
ATOM     17  H   UNL A   1      36.604  35.004  29.734  1.00  0.00     0.344 HD
ATOM     18  H   UNL A   1      36.772  33.392  29.351  1.00  0.00     0.344 HD
ENDBRANCH  14  15
ENDBRANCH  12  14
ENDBRANCH   8  12
BRANCH  10  19
ATOM     19  O   UNL A   1      31.657  35.944  32.739  1.00  0.00    -0.391 OA
ATOM     20  H   UNL A   1      30.946  36.593  32.854  1.00  0.00     0.211 HD
ENDBRANCH  10  19
ENDBRANCH   4   7
ENDBRANCH   2   3
ENDBRANCH   1   2
BRANCH   1  21
ATOM     21  C   UNL A   1      35.684  31.003  28.097  1.00  0.00     0.118 C 
BRANCH  21  22
ATOM     22  N   UNL A   1      35.570  30.768  29.533  1.00  0.00    -0.352 N 
ATOM     23  C   UNL A   1      36.468  30.222  30.417  1.00  0.00     0.251 C 
ATOM     24  H   UNL A   1      34.715  31.048  29.932  1.00  0.00     0.163 HD
ATOM     25  O   UNL A   1      36.090  29.926  31.550  1.00  0.00    -0.269 OA
BRANCH  23  26
ATOM     26  C   UNL A   1      37.865  29.972  30.011  1.00  0.00     0.039 A 
ATOM     27  C   UNL A   1      38.829  29.741  30.998  1.00  0.00     0.014 A 
ATOM     28  C   UNL A   1      38.236  29.979  28.664  1.00  0.00     0.014 A 
ATOM     29  C   UNL A   1      40.142  29.446  30.627  1.00  0.00     0.010 A 
ATOM     30  C   UNL A   1      39.519  29.591  28.295  1.00  0.00     0.010 A 
ATOM     31  C   UNL A   1      40.489  29.327  29.272  1.00  0.00    -0.014 A 
BRANCH  31  32
ATOM     32  C   UNL A   1      41.858  28.925  28.857  1.00  0.00     0.031 A 
ATOM     33  C   UNL A   1      42.958  29.952  28.777  1.00  0.00     0.074 A 
ATOM     34  C   UNL A   1      42.092  27.649  28.486  1.00  0.00     0.049 A 
ATOM     35  N   UNL A   1      44.195  29.805  28.378  1.00  0.00    -0.248 NA
ATOM     36  C   UNL A   1      42.616  31.328  29.171  1.00  0.00     0.031 C 
ATOM     37  C   UNL A   1      41.093  26.578  28.462  1.00  0.00     0.029 A 
ATOM     38  N   UNL A   1      43.239  27.039  28.043  1.00  0.00    -0.354 N 
ATOM     39  C   UNL A   1      44.770  31.068  28.454  1.00  0.00     0.074 A 
ATOM     40  C   UNL A   1      43.735  31.979  28.888  1.00  0.00     0.031 C 
ATOM     41  C   UNL A   1      41.675  25.441  28.051  1.00  0.00     0.029 A 
ATOM     42  C   UNL A   1      43.075  25.708  27.738  1.00  0.00     0.049 A 
ATOM     43  H   UNL A   1      44.099  27.509  27.954  1.00  0.00     0.167 HD
ATOM     44  C   UNL A   1      46.052  31.431  28.206  1.00  0.00     0.037 A 
ATOM     45  C   UNL A   1      43.948  24.807  27.250  1.00  0.00     0.037 A 
ATOM     46  C   UNL A   1      47.083  30.510  27.801  1.00  0.00     0.049 A 
ATOM     47  C   UNL A   1      45.368  25.233  26.990  1.00  0.00     0.074 A 
ATOM     48  C   UNL A   1      48.427  30.764  27.597  1.00  0.00     0.029 A 
ATOM     49  N   UNL A   1      46.884  29.164  27.529  1.00  0.00    -0.354 N 
ATOM     50  N   UNL A   1      45.916  26.415  27.148  1.00  0.00    -0.248 NA
ATOM     51  C   UNL A   1      46.292  24.204  26.492  1.00  0.00     0.031 C 
ATOM     52  C   UNL A   1      49.031  29.586  27.147  1.00  0.00     0.029 A 
ATOM     53  C   UNL A   1      48.076  28.581  27.132  1.00  0.00     0.049 A 
ATOM     54  H   UNL A   1      46.023  28.693  27.607  1.00  0.00     0.167 HD
ATOM     55  C   UNL A   1      47.253  26.264  26.797  1.00  0.00     0.074 A 
ATOM     56  C   UNL A   1      47.434  24.874  26.434  1.00  0.00     0.031 C 
ATOM     57  C   UNL A   1      48.242  27.193  26.778  1.00  0.00     0.037 A 
BRANCH  44  58
ATOM     58  C   UNL A   1      46.416  32.883  28.365  1.00  0.00     0.058 A 
ATOM     59  C   UNL A   1      46.882  33.401  29.585  1.00  0.00     0.135 A 
ATOM     60  C   UNL A   1      46.348  33.758  27.269  1.00  0.00     0.135 A 
ATOM     61  F   UNL A   1      46.954  32.615  30.671  1.00  0.00    -0.206 F 
ATOM     62  C   UNL A   1      47.243  34.737  29.717  1.00  0.00     0.059 A 
ATOM     63  C   UNL A   1      46.733  35.091  27.370  1.00  0.00     0.059 A 
ATOM     64  F   UNL A   1      45.909  33.318  26.079  1.00  0.00    -0.206 F 
ATOM     65  C   UNL A   1      47.169  35.575  28.603  1.00  0.00     0.060 A 
BRANCH  65  66
ATOM     66  S   UNL A   1      47.660  37.301  28.790  1.00  0.00     0.124 S 
ATOM     67  O   UNL A   1      46.861  37.946  27.752  1.00  0.00    -0.237 OA
ATOM     68  O   UNL A   1      47.266  37.590  30.165  1.00  0.00    -0.237 OA
ATOM     69  O   UNL A   1      49.099  37.274  28.546  1.00  0.00    -0.744 OA
ENDBRANCH  65  66
ENDBRANCH  44  58
BRANCH  45  70
ATOM     70  C   UNL A   1      43.508  23.410  26.983  1.00  0.00     0.058 A 
ATOM     71  C   UNL A   1      43.287  22.505  28.033  1.00  0.00     0.135 A 
ATOM     72  C   UNL A   1      43.293  22.953  25.673  1.00  0.00     0.135 A 
ATOM     73  F   UNL A   1      43.483  22.892  29.303  1.00  0.00    -0.206 F 
ATOM     74  C   UNL A   1      42.893  21.193  27.794  1.00  0.00     0.059 A 
ATOM     75  C   UNL A   1      42.869  21.654  25.410  1.00  0.00     0.059 A 
ATOM     76  F   UNL A   1      43.470  23.782  24.633  1.00  0.00    -0.206 F 
ATOM     77  C   UNL A   1      42.684  20.777  26.478  1.00  0.00     0.060 A 
BRANCH  77  78
ATOM     78  S   UNL A   1      42.131  19.084  26.181  1.00  0.00     0.124 S 
ATOM     79  O   UNL A   1      40.734  19.290  25.819  1.00  0.00    -0.237 OA
ATOM     80  O   UNL A   1      43.015  18.659  25.101  1.00  0.00    -0.237 OA
ATOM     81  O   UNL A   1      42.361  18.426  27.464  1.00  0.00    -0.744 OA
ENDBRANCH  77  78
ENDBRANCH  45  70
BRANCH  57  82
ATOM     82  C   UNL A   1      49.620  26.731  26.388  1.00  0.00     0.058 A 
ATOM     83  C   UNL A   1      50.072  26.784  25.060  1.00  0.00     0.135 A 
ATOM     84  C   UNL A   1      50.518  26.275  27.367  1.00  0.00     0.135 A 
ATOM     85  F   UNL A   1      49.253  27.206  24.083  1.00  0.00    -0.206 F 
ATOM     86  C   UNL A   1      51.355  26.374  24.713  1.00  0.00     0.059 A 
ATOM     87  C   UNL A   1      51.816  25.891  27.047  1.00  0.00     0.059 A 
ATOM     88  F   UNL A   1      50.142  26.214  28.655  1.00  0.00    -0.206 F 
ATOM     89  C   UNL A   1      52.221  25.932  25.714  1.00  0.00     0.060 A 
BRANCH  89  90
ATOM     90  S   UNL A   1      53.893  25.431  25.253  1.00  0.00     0.124 S 
ATOM     91  O   UNL A   1      54.567  25.429  26.547  1.00  0.00    -0.237 OA
ATOM     92  O   UNL A   1      53.670  24.120  24.652  1.00  0.00    -0.237 OA
ATOM     93  O   UNL A   1      54.318  26.475  24.325  1.00  0.00    -0.744 OA
ENDBRANCH  89  90
ENDBRANCH  57  82
ENDBRANCH  31  32
ENDBRANCH  23  26
ENDBRANCH  21  22
ENDBRANCH   1  21
TORSDOF 17
ENDMDL
