MODEL 1
REMARK VINA RESULT:     -13.2      0.000      0.000
REMARK SMILES Cc1cc2c(=O)c3ccccc3oc2c(C(=O)NCCCNC(=O)c2ccc(-c3c4nc(c(-c5c(F)cc(S(=O)(=O)[O-])cc5F)c5ccc([nH]5)c(-c5c(F)cc(S(=O)(=O)[O-])cc5F)c5nc(c(-c6c(F)cc(S(=O)(=O)[O-])cc6F)c6ccc3[nH]6)C=C5)C=C4)cc2)c1C
REMARK SMILES IDX 22 1 23 2 24 3 21 5 20 6 19 7 18 8 16 9 17 10 15 12 1 13
REMARK SMILES IDX 2 14 3 15 91 16 4 17 92 18 5 19 14 20 6 21 7 22 13 23 8 24
REMARK SMILES IDX 12 25 9 26 11 27 10 28 25 29 26 30 90 31 27 32 89 33 28 34
REMARK SMILES IDX 29 35 30 36 83 37 31 38 88 39 82 40 84 41 32 42 87 43 81 44
REMARK SMILES IDX 80 45 33 47 67 48 46 49 66 50 47 51 50 52 65 53 85 54 48 55
REMARK SMILES IDX 49 56 64 58 86 59 51 60 34 61 35 62 44 63 36 64 37 65 43 66
REMARK SMILES IDX 45 67 38 68 39 69 40 70 41 71 42 72 68 73 69 74 78 75 70 76
REMARK SMILES IDX 71 77 77 78 79 79 72 80 73 81 74 82 75 83 76 84 52 85 53 86
REMARK SMILES IDX 62 87 54 88 55 89 61 90 63 91 56 92 57 93 58 94 59 95 60 96
REMARK H PARENT 22 4 18 11 84 46 50 57
REMARK Flexibility Score: inf
ROOT
ATOM      1  N   UNL A   1      41.321  23.887  26.087  1.00  0.00    -0.352 N 
ATOM      2  C   UNL A   1      41.681  25.216  26.019  1.00  0.00     0.251 C 
ATOM      3  O   UNL A   1      42.267  25.627  25.027  1.00  0.00    -0.269 OA
ATOM      4  H   UNL A   1      41.709  23.312  25.388  1.00  0.00     0.163 HD
ENDROOT
BRANCH   1   5
ATOM      5  C   UNL A   1      40.454  23.202  27.035  1.00  0.00     0.118 C 
BRANCH   5   6
ATOM      6  C   UNL A   1      39.147  22.752  26.401  1.00  0.00     0.042 C 
BRANCH   6   7
ATOM      7  C   UNL A   1      38.104  23.861  26.230  1.00  0.00     0.118 C 
BRANCH   7   8
ATOM      8  N   UNL A   1      37.419  23.730  24.958  1.00  0.00    -0.352 N 
ATOM      9  C   UNL A   1      36.262  23.223  24.434  1.00  0.00     0.255 C 
ATOM     10  O   UNL A   1      36.290  23.261  23.194  1.00  0.00    -0.269 OA
ATOM     11  H   UNL A   1      37.960  24.136  24.243  1.00  0.00     0.163 HD
BRANCH   9  12
ATOM     12  C   UNL A   1      35.019  22.645  25.103  1.00  0.00     0.086 A 
ATOM     13  C   UNL A   1      32.777  19.522  25.676  1.00  0.00     0.044 C 
ATOM     14  C   UNL A   1      33.292  20.943  25.625  1.00  0.00    -0.046 A 
ATOM     15  C   UNL A   1      32.408  21.945  26.021  1.00  0.00     0.019 A 
ATOM     16  C   UNL A   1      34.607  21.278  25.173  1.00  0.00    -0.032 A 
ATOM     17  C   UNL A   1      32.807  23.271  26.001  1.00  0.00     0.066 A 
ATOM     18  C   UNL A   1      35.479  20.128  24.781  1.00  0.00     0.045 C 
ATOM     19  C   UNL A   1      31.843  24.303  26.417  1.00  0.00     0.200 A 
ATOM     20  C   UNL A   1      34.087  23.632  25.567  1.00  0.00     0.151 A 
ATOM     21  O   UNL A   1      30.727  24.017  26.835  1.00  0.00    -0.288 OA
ATOM     22  C   UNL A   1      32.272  25.695  26.300  1.00  0.00     0.065 A 
ATOM     23  O   UNL A   1      34.486  24.958  25.608  1.00  0.00    -0.455 OA
ATOM     24  C   UNL A   1      31.397  26.745  26.595  1.00  0.00     0.016 A 
ATOM     25  C   UNL A   1      33.573  25.942  25.885  1.00  0.00     0.138 A 
ATOM     26  C   UNL A   1      31.836  28.062  26.468  1.00  0.00     0.001 A 
ATOM     27  C   UNL A   1      34.007  27.261  25.751  1.00  0.00     0.048 A 
ATOM     28  C   UNL A   1      33.140  28.319  26.041  1.00  0.00     0.004 A 
ENDBRANCH   9  12
ENDBRANCH   7   8
ENDBRANCH   6   7
ENDBRANCH   5   6
ENDBRANCH   1   5
BRANCH   2  29
ATOM     29  C   UNL A   1      41.336  26.147  27.121  1.00  0.00     0.039 A 
ATOM     30  C   UNL A   1      41.963  27.388  27.239  1.00  0.00     0.014 A 
ATOM     31  C   UNL A   1      40.360  25.775  28.052  1.00  0.00     0.014 A 
ATOM     32  C   UNL A   1      41.754  28.165  28.371  1.00  0.00     0.010 A 
ATOM     33  C   UNL A   1      40.074  26.610  29.140  1.00  0.00     0.010 A 
ATOM     34  C   UNL A   1      40.802  27.794  29.334  1.00  0.00    -0.014 A 
BRANCH  34  35
ATOM     35  C   UNL A   1      40.594  28.662  30.526  1.00  0.00     0.031 A 
ATOM     36  C   UNL A   1      41.525  28.581  31.710  1.00  0.00     0.074 A 
ATOM     37  C   UNL A   1      39.608  29.582  30.503  1.00  0.00     0.049 A 
ATOM     38  N   UNL A   1      41.489  29.255  32.831  1.00  0.00    -0.248 NA
ATOM     39  C   UNL A   1      42.641  27.624  31.629  1.00  0.00     0.031 C 
ATOM     40  C   UNL A   1      38.658  29.775  29.401  1.00  0.00     0.029 A 
ATOM     41  N   UNL A   1      39.259  30.555  31.406  1.00  0.00    -0.354 N 
ATOM     42  C   UNL A   1      42.562  28.800  33.589  1.00  0.00     0.074 A 
ATOM     43  C   UNL A   1      43.216  27.767  32.816  1.00  0.00     0.031 C 
ATOM     44  C   UNL A   1      37.891  30.844  29.659  1.00  0.00     0.029 A 
ATOM     45  C   UNL A   1      38.233  31.366  30.976  1.00  0.00     0.049 A 
ATOM     46  H   UNL A   1      39.702  30.662  32.279  1.00  0.00     0.167 HD
ATOM     47  C   UNL A   1      42.976  29.218  34.810  1.00  0.00     0.037 A 
ATOM     48  C   UNL A   1      37.623  32.403  31.580  1.00  0.00     0.037 A 
ATOM     49  C   UNL A   1      42.338  30.267  35.562  1.00  0.00     0.049 A 
ATOM     50  C   UNL A   1      38.063  32.797  32.963  1.00  0.00     0.074 A 
ATOM     51  C   UNL A   1      42.668  30.748  36.818  1.00  0.00     0.029 A 
ATOM     52  N   UNL A   1      41.256  31.014  35.122  1.00  0.00    -0.354 N 
ATOM     53  N   UNL A   1      39.051  32.319  33.680  1.00  0.00    -0.248 NA
ATOM     54  C   UNL A   1      37.291  33.856  33.626  1.00  0.00     0.031 C 
ATOM     55  C   UNL A   1      41.769  31.765  37.149  1.00  0.00     0.029 A 
ATOM     56  C   UNL A   1      40.902  31.946  36.084  1.00  0.00     0.049 A 
ATOM     57  H   UNL A   1      40.805  30.899  34.254  1.00  0.00     0.167 HD
ATOM     58  C   UNL A   1      39.028  33.029  34.873  1.00  0.00     0.074 A 
ATOM     59  C   UNL A   1      37.944  33.983  34.774  1.00  0.00     0.031 C 
ATOM     60  C   UNL A   1      39.828  32.897  35.959  1.00  0.00     0.037 A 
BRANCH  47  61
ATOM     61  C   UNL A   1      44.182  28.559  35.419  1.00  0.00     0.058 A 
ATOM     62  C   UNL A   1      45.473  29.069  35.215  1.00  0.00     0.135 A 
ATOM     63  C   UNL A   1      44.038  27.474  36.300  1.00  0.00     0.135 A 
ATOM     64  F   UNL A   1      45.668  30.093  34.368  1.00  0.00    -0.206 F 
ATOM     65  C   UNL A   1      46.579  28.532  35.867  1.00  0.00     0.059 A 
ATOM     66  C   UNL A   1      45.126  26.932  36.977  1.00  0.00     0.059 A 
ATOM     67  F   UNL A   1      42.825  26.944  36.527  1.00  0.00    -0.206 F 
ATOM     68  C   UNL A   1      46.394  27.469  36.753  1.00  0.00     0.060 A 
BRANCH  68  69
ATOM     69  S   UNL A   1      47.835  26.822  37.628  1.00  0.00     0.124 S 
ATOM     70  O   UNL A   1      47.491  25.408  37.751  1.00  0.00    -0.237 OA
ATOM     71  O   UNL A   1      48.923  27.130  36.707  1.00  0.00    -0.237 OA
ATOM     72  O   UNL A   1      47.843  27.574  38.879  1.00  0.00    -0.744 OA
ENDBRANCH  68  69
ENDBRANCH  47  61
BRANCH  48  73
ATOM     73  C   UNL A   1      36.517  33.129  30.900  1.00  0.00     0.058 A 
ATOM     74  C   UNL A   1      36.781  34.037  29.866  1.00  0.00     0.135 A 
ATOM     75  C   UNL A   1      35.179  32.946  31.284  1.00  0.00     0.135 A 
ATOM     76  F   UNL A   1      38.044  34.252  29.467  1.00  0.00    -0.206 F 
ATOM     77  C   UNL A   1      35.762  34.759  29.252  1.00  0.00     0.059 A 
ATOM     78  C   UNL A   1      34.140  33.633  30.667  1.00  0.00     0.059 A 
ATOM     79  F   UNL A   1      34.870  32.076  32.260  1.00  0.00    -0.206 F 
ATOM     80  C   UNL A   1      34.444  34.551  29.663  1.00  0.00     0.060 A 
BRANCH  80  81
ATOM     81  S   UNL A   1      33.125  35.484  28.856  1.00  0.00     0.124 S 
ATOM     82  O   UNL A   1      32.388  35.999  30.004  1.00  0.00    -0.237 OA
ATOM     83  O   UNL A   1      33.874  36.469  28.082  1.00  0.00    -0.237 OA
ATOM     84  O   UNL A   1      32.434  34.470  28.065  1.00  0.00    -0.744 OA
ENDBRANCH  80  81
ENDBRANCH  48  73
BRANCH  60  85
ATOM     85  C   UNL A   1      39.577  33.820  37.116  1.00  0.00     0.058 A 
ATOM     86  C   UNL A   1      38.753  33.443  38.186  1.00  0.00     0.135 A 
ATOM     87  C   UNL A   1      40.216  35.069  37.181  1.00  0.00     0.135 A 
ATOM     88  F   UNL A   1      38.115  32.262  38.164  1.00  0.00    -0.206 F 
ATOM     89  C   UNL A   1      38.558  34.280  39.278  1.00  0.00     0.059 A 
ATOM     90  C   UNL A   1      40.053  35.912  38.275  1.00  0.00     0.059 A 
ATOM     91  F   UNL A   1      41.020  35.470  36.184  1.00  0.00    -0.206 F 
ATOM     92  C   UNL A   1      39.216  35.511  39.315  1.00  0.00     0.060 A 
BRANCH  92  93
ATOM     93  S   UNL A   1      38.986  36.567  40.761  1.00  0.00     0.124 S 
ATOM     94  O   UNL A   1      40.340  36.624  41.302  1.00  0.00    -0.237 OA
ATOM     95  O   UNL A   1      38.487  37.803  40.168  1.00  0.00    -0.237 OA
ATOM     96  O   UNL A   1      38.018  35.831  41.569  1.00  0.00    -0.744 OA
ENDBRANCH  92  93
ENDBRANCH  60  85
ENDBRANCH  34  35
ENDBRANCH   2  29
TORSDOF 13
ENDMDL
MODEL 2
REMARK VINA RESULT:     -13.2      1.289      1.805
REMARK SMILES Cc1cc2c(=O)c3ccccc3oc2c(C(=O)NCCCNC(=O)c2ccc(-c3c4nc(c(-c5c(F)cc(S(=O)(=O)[O-])cc5F)c5ccc([nH]5)c(-c5c(F)cc(S(=O)(=O)[O-])cc5F)c5nc(c(-c6c(F)cc(S(=O)(=O)[O-])cc6F)c6ccc3[nH]6)C=C5)C=C4)cc2)c1C
REMARK SMILES IDX 22 1 23 2 24 3 21 5 20 6 19 7 18 8 16 9 17 10 15 12 1 13
REMARK SMILES IDX 2 14 3 15 91 16 4 17 92 18 5 19 14 20 6 21 7 22 13 23 8 24
REMARK SMILES IDX 12 25 9 26 11 27 10 28 25 29 26 30 90 31 27 32 89 33 28 34
REMARK SMILES IDX 29 35 30 36 83 37 31 38 88 39 82 40 84 41 32 42 87 43 81 44
REMARK SMILES IDX 80 45 33 47 67 48 46 49 66 50 47 51 50 52 65 53 85 54 48 55
REMARK SMILES IDX 49 56 64 58 86 59 51 60 34 61 35 62 44 63 36 64 37 65 43 66
REMARK SMILES IDX 45 67 38 68 39 69 40 70 41 71 42 72 68 73 69 74 78 75 70 76
REMARK SMILES IDX 71 77 77 78 79 79 72 80 73 81 74 82 75 83 76 84 52 85 53 86
REMARK SMILES IDX 62 87 54 88 55 89 61 90 63 91 56 92 57 93 58 94 59 95 60 96
REMARK H PARENT 22 4 18 11 84 46 50 57
REMARK Flexibility Score: inf
ROOT
ATOM      1  N   UNL A   1      39.592  23.915  26.146  1.00  0.00    -0.352 N 
ATOM      2  C   UNL A   1      40.661  24.642  26.626  1.00  0.00     0.251 C 
ATOM      3  O   UNL A   1      41.780  24.426  26.180  1.00  0.00    -0.269 OA
ATOM      4  H   UNL A   1      39.831  23.146  25.579  1.00  0.00     0.163 HD
ENDROOT
BRANCH   1   5
ATOM      5  C   UNL A   1      38.164  24.111  26.348  1.00  0.00     0.118 C 
BRANCH   5   6
ATOM      6  C   UNL A   1      37.329  23.383  25.306  1.00  0.00     0.042 C 
BRANCH   6   7
ATOM      7  C   UNL A   1      36.974  21.937  25.668  1.00  0.00     0.118 C 
BRANCH   7   8
ATOM      8  N   UNL A   1      35.784  21.893  26.496  1.00  0.00    -0.352 N 
ATOM      9  C   UNL A   1      34.425  22.015  26.393  1.00  0.00     0.255 C 
ATOM     10  O   UNL A   1      33.902  22.043  27.517  1.00  0.00    -0.269 OA
ATOM     11  H   UNL A   1      36.033  21.719  27.432  1.00  0.00     0.163 HD
BRANCH   9  12
ATOM     12  C   UNL A   1      33.511  22.124  25.178  1.00  0.00     0.086 A 
ATOM     13  C   UNL A   1      31.950  20.337  22.099  1.00  0.00     0.044 C 
ATOM     14  C   UNL A   1      32.407  21.393  23.080  1.00  0.00    -0.046 A 
ATOM     15  C   UNL A   1      32.188  22.720  22.718  1.00  0.00     0.019 A 
ATOM     16  C   UNL A   1      33.059  21.078  24.313  1.00  0.00    -0.032 A 
ATOM     17  C   UNL A   1      32.580  23.745  23.565  1.00  0.00     0.066 A 
ATOM     18  C   UNL A   1      33.235  19.624  24.611  1.00  0.00     0.045 C 
ATOM     19  C   UNL A   1      32.342  25.136  23.145  1.00  0.00     0.200 A 
ATOM     20  C   UNL A   1      33.217  23.471  24.780  1.00  0.00     0.151 A 
ATOM     21  O   UNL A   1      31.755  25.407  22.104  1.00  0.00    -0.288 OA
ATOM     22  C   UNL A   1      32.847  26.188  24.025  1.00  0.00     0.065 A 
ATOM     23  O   UNL A   1      33.551  24.507  25.637  1.00  0.00    -0.455 OA
ATOM     24  C   UNL A   1      32.737  27.536  23.669  1.00  0.00     0.016 A 
ATOM     25  C   UNL A   1      33.439  25.808  25.220  1.00  0.00     0.138 A 
ATOM     26  C   UNL A   1      33.234  28.515  24.528  1.00  0.00     0.001 A 
ATOM     27  C   UNL A   1      33.943  26.790  26.073  1.00  0.00     0.048 A 
ATOM     28  C   UNL A   1      33.841  28.141  25.728  1.00  0.00     0.004 A 
ENDBRANCH   9  12
ENDBRANCH   7   8
ENDBRANCH   6   7
ENDBRANCH   5   6
ENDBRANCH   1   5
BRANCH   2  29
ATOM     29  C   UNL A   1      40.455  25.696  27.651  1.00  0.00     0.039 A 
ATOM     30  C   UNL A   1      41.227  26.858  27.652  1.00  0.00     0.014 A 
ATOM     31  C   UNL A   1      39.466  25.521  28.625  1.00  0.00     0.014 A 
ATOM     32  C   UNL A   1      41.140  27.746  28.718  1.00  0.00     0.010 A 
ATOM     33  C   UNL A   1      39.308  26.471  29.641  1.00  0.00     0.010 A 
ATOM     34  C   UNL A   1      40.175  27.572  29.723  1.00  0.00    -0.014 A 
BRANCH  34  35
ATOM     35  C   UNL A   1      40.100  28.555  30.839  1.00  0.00     0.031 A 
ATOM     36  C   UNL A   1      41.098  28.513  31.969  1.00  0.00     0.074 A 
ATOM     37  C   UNL A   1      39.176  29.536  30.788  1.00  0.00     0.049 A 
ATOM     38  N   UNL A   1      41.177  29.284  33.024  1.00  0.00    -0.248 NA
ATOM     39  C   UNL A   1      42.142  27.476  31.913  1.00  0.00     0.031 C 
ATOM     40  C   UNL A   1      38.173  29.697  29.730  1.00  0.00     0.029 A 
ATOM     41  N   UNL A   1      38.950  30.607  31.616  1.00  0.00    -0.354 N 
ATOM     42  C   UNL A   1      42.265  28.823  33.757  1.00  0.00     0.074 A 
ATOM     43  C   UNL A   1      42.799  27.683  33.046  1.00  0.00     0.031 C 
ATOM     44  C   UNL A   1      37.495  30.836  29.932  1.00  0.00     0.029 A 
ATOM     45  C   UNL A   1      37.953  31.447  31.173  1.00  0.00     0.049 A 
ATOM     46  H   UNL A   1      39.453  30.759  32.448  1.00  0.00     0.167 HD
ATOM     47  C   UNL A   1      42.782  29.317  34.908  1.00  0.00     0.037 A 
ATOM     48  C   UNL A   1      37.452  32.574  31.713  1.00  0.00     0.037 A 
ATOM     49  C   UNL A   1      42.263  30.472  35.596  1.00  0.00     0.049 A 
ATOM     50  C   UNL A   1      38.004  33.056  33.025  1.00  0.00     0.074 A 
ATOM     51  C   UNL A   1      42.704  31.036  36.781  1.00  0.00     0.029 A 
ATOM     52  N   UNL A   1      41.206  31.251  35.152  1.00  0.00    -0.354 N 
ATOM     53  N   UNL A   1      39.002  32.575  33.725  1.00  0.00    -0.248 NA
ATOM     54  C   UNL A   1      37.347  34.222  33.632  1.00  0.00     0.031 C 
ATOM     55  C   UNL A   1      41.895  32.140  37.068  1.00  0.00     0.029 A 
ATOM     56  C   UNL A   1      40.976  32.286  36.042  1.00  0.00     0.049 A 
ATOM     57  H   UNL A   1      40.694  31.091  34.326  1.00  0.00     0.167 HD
ATOM     58  C   UNL A   1      39.103  33.388  34.847  1.00  0.00     0.074 A 
ATOM     59  C   UNL A   1      38.078  34.403  34.723  1.00  0.00     0.031 C 
ATOM     60  C   UNL A   1      39.959  33.296  35.892  1.00  0.00     0.037 A 
BRANCH  47  61
ATOM     61  C   UNL A   1      43.980  28.631  35.505  1.00  0.00     0.058 A 
ATOM     62  C   UNL A   1      45.285  29.033  35.185  1.00  0.00     0.135 A 
ATOM     63  C   UNL A   1      43.822  27.637  36.485  1.00  0.00     0.135 A 
ATOM     64  F   UNL A   1      45.492  29.966  34.241  1.00  0.00    -0.206 F 
ATOM     65  C   UNL A   1      46.393  28.478  35.819  1.00  0.00     0.059 A 
ATOM     66  C   UNL A   1      44.914  27.081  37.146  1.00  0.00     0.059 A 
ATOM     67  F   UNL A   1      42.594  27.213  36.825  1.00  0.00    -0.206 F 
ATOM     68  C   UNL A   1      46.197  27.510  36.805  1.00  0.00     0.060 A 
BRANCH  68  69
ATOM     69  S   UNL A   1      47.644  26.842  37.652  1.00  0.00     0.124 S 
ATOM     70  O   UNL A   1      48.258  26.044  36.595  1.00  0.00    -0.237 OA
ATOM     71  O   UNL A   1      48.367  28.051  38.032  1.00  0.00    -0.237 OA
ATOM     72  O   UNL A   1      47.073  26.080  38.759  1.00  0.00    -0.744 OA
ENDBRANCH  68  69
ENDBRANCH  47  61
BRANCH  48  73
ATOM     73  C   UNL A   1      36.354  33.313  31.034  1.00  0.00     0.058 A 
ATOM     74  C   UNL A   1      36.595  34.045  29.864  1.00  0.00     0.135 A 
ATOM     75  C   UNL A   1      35.049  33.320  31.552  1.00  0.00     0.135 A 
ATOM     76  F   UNL A   1      37.828  34.076  29.333  1.00  0.00    -0.206 F 
ATOM     77  C   UNL A   1      35.590  34.780  29.243  1.00  0.00     0.059 A 
ATOM     78  C   UNL A   1      34.020  34.022  30.934  1.00  0.00     0.059 A 
ATOM     79  F   UNL A   1      34.761  32.622  32.663  1.00  0.00    -0.206 F 
ATOM     80  C   UNL A   1      34.306  34.764  29.789  1.00  0.00     0.060 A 
BRANCH  80  81
ATOM     81  S   UNL A   1      33.003  35.712  28.974  1.00  0.00     0.124 S 
ATOM     82  O   UNL A   1      33.778  36.725  28.267  1.00  0.00    -0.237 OA
ATOM     83  O   UNL A   1      32.362  34.700  28.139  1.00  0.00    -0.237 OA
ATOM     84  O   UNL A   1      32.195  36.198  30.088  1.00  0.00    -0.744 OA
ENDBRANCH  80  81
ENDBRANCH  48  73
BRANCH  60  85
ATOM     85  C   UNL A   1      39.844  34.333  36.971  1.00  0.00     0.058 A 
ATOM     86  C   UNL A   1      40.460  35.587  36.849  1.00  0.00     0.135 A 
ATOM     87  C   UNL A   1      39.062  34.089  38.112  1.00  0.00     0.135 A 
ATOM     88  F   UNL A   1      41.224  35.863  35.781  1.00  0.00    -0.206 F 
ATOM     89  C   UNL A   1      40.316  36.562  37.828  1.00  0.00     0.059 A 
ATOM     90  C   UNL A   1      38.885  35.059  39.093  1.00  0.00     0.059 A 
ATOM     91  F   UNL A   1      38.447  32.907  38.270  1.00  0.00    -0.206 F 
ATOM     92  C   UNL A   1      39.522  36.291  38.945  1.00  0.00     0.060 A 
BRANCH  92  93
ATOM     93  S   UNL A   1      39.310  37.584  40.185  1.00  0.00     0.124 S 
ATOM     94  O   UNL A   1      40.638  38.186  40.213  1.00  0.00    -0.237 OA
ATOM     95  O   UNL A   1      38.253  38.404  39.602  1.00  0.00    -0.237 OA
ATOM     96  O   UNL A   1      38.930  36.845  41.386  1.00  0.00    -0.744 OA
ENDBRANCH  92  93
ENDBRANCH  60  85
ENDBRANCH  34  35
ENDBRANCH   2  29
TORSDOF 13
ENDMDL
MODEL 3
REMARK VINA RESULT:     -13.1      6.312     11.903
REMARK SMILES Cc1cc2c(=O)c3ccccc3oc2c(C(=O)NCCCNC(=O)c2ccc(-c3c4nc(c(-c5c(F)cc(S(=O)(=O)[O-])cc5F)c5ccc([nH]5)c(-c5c(F)cc(S(=O)(=O)[O-])cc5F)c5nc(c(-c6c(F)cc(S(=O)(=O)[O-])cc6F)c6ccc3[nH]6)C=C5)C=C4)cc2)c1C
REMARK SMILES IDX 22 1 23 2 24 3 21 5 20 6 19 7 18 8 16 9 17 10 15 12 1 13
REMARK SMILES IDX 2 14 3 15 91 16 4 17 92 18 5 19 14 20 6 21 7 22 13 23 8 24
REMARK SMILES IDX 12 25 9 26 11 27 10 28 25 29 26 30 90 31 27 32 89 33 28 34
REMARK SMILES IDX 29 35 30 36 83 37 31 38 88 39 82 40 84 41 32 42 87 43 81 44
REMARK SMILES IDX 80 45 33 47 67 48 46 49 66 50 47 51 50 52 65 53 85 54 48 55
REMARK SMILES IDX 49 56 64 58 86 59 51 60 34 61 35 62 44 63 36 64 37 65 43 66
REMARK SMILES IDX 45 67 38 68 39 69 40 70 41 71 42 72 68 73 69 74 78 75 70 76
REMARK SMILES IDX 71 77 77 78 79 79 72 80 73 81 74 82 75 83 76 84 52 85 53 86
REMARK SMILES IDX 62 87 54 88 55 89 61 90 63 91 56 92 57 93 58 94 59 95 60 96
REMARK H PARENT 22 4 18 11 84 46 50 57
REMARK Flexibility Score: inf
ROOT
ATOM      1  N   UNL A   1      35.498  31.327  29.785  1.00  0.00    -0.352 N 
ATOM      2  C   UNL A   1      36.347  30.633  30.621  1.00  0.00     0.251 C 
ATOM      3  O   UNL A   1      36.008  30.421  31.777  1.00  0.00    -0.269 OA
ATOM      4  H   UNL A   1      34.729  31.751  30.230  1.00  0.00     0.163 HD
ENDROOT
BRANCH   1   5
ATOM      5  C   UNL A   1      35.565  31.528  28.345  1.00  0.00     0.118 C 
BRANCH   5   6
ATOM      6  C   UNL A   1      34.489  30.748  27.604  1.00  0.00     0.042 C 
BRANCH   6   7
ATOM      7  C   UNL A   1      34.703  29.232  27.578  1.00  0.00     0.118 C 
BRANCH   7   8
ATOM      8  N   UNL A   1      33.432  28.534  27.633  1.00  0.00    -0.352 N 
ATOM      9  C   UNL A   1      32.434  28.098  26.805  1.00  0.00     0.255 C 
ATOM     10  O   UNL A   1      31.469  27.683  27.464  1.00  0.00    -0.269 OA
ATOM     11  H   UNL A   1      33.220  28.298  28.565  1.00  0.00     0.163 HD
BRANCH   9  12
ATOM     12  C   UNL A   1      32.332  28.055  25.284  1.00  0.00     0.086 A 
ATOM     13  C   UNL A   1      30.510  29.339  22.100  1.00  0.00     0.044 C 
ATOM     14  C   UNL A   1      31.375  28.539  23.047  1.00  0.00    -0.046 A 
ATOM     15  C   UNL A   1      32.007  27.414  22.521  1.00  0.00     0.019 A 
ATOM     16  C   UNL A   1      31.537  28.879  24.427  1.00  0.00    -0.032 A 
ATOM     17  C   UNL A   1      32.817  26.631  23.327  1.00  0.00     0.066 A 
ATOM     18  C   UNL A   1      30.825  30.110  24.888  1.00  0.00     0.045 C 
ATOM     19  C   UNL A   1      33.460  25.444  22.739  1.00  0.00     0.200 A 
ATOM     20  C   UNL A   1      32.998  26.937  24.680  1.00  0.00     0.151 A 
ATOM     21  O   UNL A   1      33.350  25.170  21.550  1.00  0.00    -0.288 OA
ATOM     22  C   UNL A   1      34.235  24.597  23.642  1.00  0.00     0.065 A 
ATOM     23  O   UNL A   1      33.855  26.174  25.456  1.00  0.00    -0.455 OA
ATOM     24  C   UNL A   1      34.816  23.407  23.190  1.00  0.00     0.016 A 
ATOM     25  C   UNL A   1      34.376  25.007  24.960  1.00  0.00     0.138 A 
ATOM     26  C   UNL A   1      35.545  22.617  24.079  1.00  0.00     0.001 A 
ATOM     27  C   UNL A   1      35.099  24.210  25.848  1.00  0.00     0.048 A 
ATOM     28  C   UNL A   1      35.681  23.018  25.409  1.00  0.00     0.004 A 
ENDBRANCH   9  12
ENDBRANCH   7   8
ENDBRANCH   6   7
ENDBRANCH   5   6
ENDBRANCH   1   5
BRANCH   2  29
ATOM     29  C   UNL A   1      37.647  30.121  30.119  1.00  0.00     0.039 A 
ATOM     30  C   UNL A   1      38.532  29.452  30.963  1.00  0.00     0.014 A 
ATOM     31  C   UNL A   1      37.982  30.308  28.773  1.00  0.00     0.014 A 
ATOM     32  C   UNL A   1      39.811  29.138  30.519  1.00  0.00     0.010 A 
ATOM     33  C   UNL A   1      39.235  29.896  28.300  1.00  0.00     0.010 A 
ATOM     34  C   UNL A   1      40.179  29.348  29.181  1.00  0.00    -0.014 A 
BRANCH  34  35
ATOM     35  C   UNL A   1      41.553  28.983  28.737  1.00  0.00     0.031 A 
ATOM     36  C   UNL A   1      42.685  29.973  28.845  1.00  0.00     0.074 A 
ATOM     37  C   UNL A   1      41.793  27.725  28.312  1.00  0.00     0.049 A 
ATOM     38  N   UNL A   1      43.940  29.828  28.501  1.00  0.00    -0.248 NA
ATOM     39  C   UNL A   1      42.375  31.297  29.411  1.00  0.00     0.031 C 
ATOM     40  C   UNL A   1      40.783  26.668  28.190  1.00  0.00     0.029 A 
ATOM     41  N   UNL A   1      42.959  27.104  27.941  1.00  0.00    -0.354 N 
ATOM     42  C   UNL A   1      44.563  31.035  28.797  1.00  0.00     0.074 A 
ATOM     43  C   UNL A   1      43.544  31.918  29.319  1.00  0.00     0.031 C 
ATOM     44  C   UNL A   1      41.383  25.519  27.849  1.00  0.00     0.029 A 
ATOM     45  C   UNL A   1      42.805  25.768  27.648  1.00  0.00     0.049 A 
ATOM     46  H   UNL A   1      43.825  27.571  27.890  1.00  0.00     0.167 HD
ATOM     47  C   UNL A   1      45.869  31.371  28.662  1.00  0.00     0.037 A 
ATOM     48  C   UNL A   1      43.703  24.849  27.246  1.00  0.00     0.037 A 
ATOM     49  C   UNL A   1      46.885  30.477  28.168  1.00  0.00     0.049 A 
ATOM     50  C   UNL A   1      45.131  25.273  27.042  1.00  0.00     0.074 A 
ATOM     51  C   UNL A   1      48.232  30.730  27.973  1.00  0.00     0.029 A 
ATOM     52  N   UNL A   1      46.673  29.154  27.813  1.00  0.00    -0.354 N 
ATOM     53  N   UNL A   1      45.687  26.435  27.283  1.00  0.00    -0.248 NA
ATOM     54  C   UNL A   1      46.048  24.265  26.492  1.00  0.00     0.031 C 
ATOM     55  C   UNL A   1      48.829  29.569  27.474  1.00  0.00     0.029 A 
ATOM     56  C   UNL A   1      47.862  28.581  27.394  1.00  0.00     0.049 A 
ATOM     57  H   UNL A   1      45.805  28.690  27.852  1.00  0.00     0.167 HD
ATOM     58  C   UNL A   1      47.023  26.294  26.927  1.00  0.00     0.074 A 
ATOM     59  C   UNL A   1      47.196  24.930  26.475  1.00  0.00     0.031 C 
ATOM     60  C   UNL A   1      48.015  27.215  26.961  1.00  0.00     0.037 A 
BRANCH  47  61
ATOM     61  C   UNL A   1      46.295  32.756  29.062  1.00  0.00     0.058 A 
ATOM     62  C   UNL A   1      46.247  33.825  28.154  1.00  0.00     0.135 A 
ATOM     63  C   UNL A   1      46.653  33.041  30.390  1.00  0.00     0.135 A 
ATOM     64  F   UNL A   1      45.930  33.604  26.868  1.00  0.00    -0.206 F 
ATOM     65  C   UNL A   1      46.532  35.128  28.549  1.00  0.00     0.059 A 
ATOM     66  C   UNL A   1      46.924  34.339  30.813  1.00  0.00     0.059 A 
ATOM     67  F   UNL A   1      46.719  32.053  31.298  1.00  0.00    -0.206 F 
ATOM     68  C   UNL A   1      46.860  35.377  29.883  1.00  0.00     0.060 A 
BRANCH  68  69
ATOM     69  S   UNL A   1      47.174  37.082  30.386  1.00  0.00     0.124 S 
ATOM     70  O   UNL A   1      46.140  37.800  29.647  1.00  0.00    -0.237 OA
ATOM     71  O   UNL A   1      46.990  37.019  31.832  1.00  0.00    -0.237 OA
ATOM     72  O   UNL A   1      48.543  37.325  29.940  1.00  0.00    -0.744 OA
ENDBRANCH  68  69
ENDBRANCH  47  61
BRANCH  48  73
ATOM     73  C   UNL A   1      43.283  23.447  26.984  1.00  0.00     0.058 A 
ATOM     74  C   UNL A   1      43.073  22.549  28.040  1.00  0.00     0.135 A 
ATOM     75  C   UNL A   1      43.104  22.970  25.676  1.00  0.00     0.135 A 
ATOM     76  F   UNL A   1      43.236  22.955  29.309  1.00  0.00    -0.206 F 
ATOM     77  C   UNL A   1      42.725  21.221  27.811  1.00  0.00     0.059 A 
ATOM     78  C   UNL A   1      42.729  21.655  25.421  1.00  0.00     0.059 A 
ATOM     79  F   UNL A   1      43.279  23.792  24.629  1.00  0.00    -0.206 F 
ATOM     80  C   UNL A   1      42.559  20.784  26.496  1.00  0.00     0.060 A 
BRANCH  80  81
ATOM     81  S   UNL A   1      42.099  19.062  26.204  1.00  0.00     0.124 S 
ATOM     82  O   UNL A   1      42.366  18.465  27.507  1.00  0.00    -0.237 OA
ATOM     83  O   UNL A   1      40.692  19.179  25.831  1.00  0.00    -0.237 OA
ATOM     84  O   UNL A   1      42.994  18.654  25.126  1.00  0.00    -0.744 OA
ENDBRANCH  80  81
ENDBRANCH  48  73
BRANCH  60  85
ATOM     85  C   UNL A   1      49.381  26.774  26.523  1.00  0.00     0.058 A 
ATOM     86  C   UNL A   1      50.258  26.124  27.404  1.00  0.00     0.135 A 
ATOM     87  C   UNL A   1      49.793  26.951  25.192  1.00  0.00     0.135 A 
ATOM     88  F   UNL A   1      49.911  25.939  28.687  1.00  0.00    -0.206 F 
ATOM     89  C   UNL A   1      51.504  25.676  26.985  1.00  0.00     0.059 A 
ATOM     90  C   UNL A   1      51.027  26.489  24.745  1.00  0.00     0.059 A 
ATOM     91  F   UNL A   1      48.986  27.561  24.309  1.00  0.00    -0.206 F 
ATOM     92  C   UNL A   1      51.878  25.859  25.652  1.00  0.00     0.060 A 
BRANCH  92  93
ATOM     93  S   UNL A   1      53.482  25.232  25.114  1.00  0.00     0.124 S 
ATOM     94  O   UNL A   1      53.525  25.682  23.726  1.00  0.00    -0.237 OA
ATOM     95  O   UNL A   1      54.402  25.903  26.027  1.00  0.00    -0.237 OA
ATOM     96  O   UNL A   1      53.364  23.789  25.302  1.00  0.00    -0.744 OA
ENDBRANCH  92  93
ENDBRANCH  60  85
ENDBRANCH  34  35
ENDBRANCH   2  29
TORSDOF 13
ENDMDL
