MODEL 1
REMARK VINA RESULT:     -11.7      0.000      0.000
REMARK SMILES Cc1c(/C=C2/SC(=S)N(CCC(=O)NCCCNC(=O)c3ccc(-c4c5nc(c(-c6c(F)cc(S(=O)(=O)[O-])cc6F)c6ccc([nH]6)c(-c6c(F)cc(S(=O)(=O)[O-])cc6F)c6nc(c(-c7c(F)cc(S(=O)(=O)[O-])cc7F)c7ccc4[nH]7)C=C6)C=C5)cc3)C2=O)c(N2C[C@@H](C)C[C@H](C)C2)n(C)c(=O)c1C#N
REMARK SMILES IDX 15 1 14 2 12 3 13 4 11 6 10 7 9 8 4 9 5 10 6 11 87 12 7 13
REMARK SMILES IDX 88 14 8 15 3 16 1 17 2 18 102 19 89 20 100 21 98 22 101 23
REMARK SMILES IDX 99 24 103 25 104 26 90 27 91 28 97 29 92 30 95 31 93 32
REMARK SMILES IDX 94 33 96 34 16 35 17 36 18 37 19 38 20 40 21 41 22 42 86 43
REMARK SMILES IDX 23 44 85 45 24 46 25 47 26 48 79 49 27 50 84 51 78 52 80 53
REMARK SMILES IDX 28 54 83 55 77 56 76 57 29 59 63 60 42 61 62 62 43 63 46 64
REMARK SMILES IDX 61 65 81 66 44 67 45 68 60 70 82 71 47 72 30 73 31 74 40 75
REMARK SMILES IDX 32 76 33 77 39 78 41 79 34 80 35 81 36 82 37 83 38 84 64 85
REMARK SMILES IDX 65 86 74 87 66 88 67 89 73 90 75 91 68 92 69 93 70 94 71 95
REMARK SMILES IDX 72 96 48 97 49 98 58 99 50 100 51 101 57 102 59 103 52 104
REMARK SMILES IDX 53 105 54 106 55 107 56 108
REMARK H PARENT 14 5 18 39 80 58 46 69
REMARK Flexibility Score: inf
ROOT
ATOM      1  C   UNL A   1      45.147  40.648  27.504  1.00  0.00     0.117 C 
ENDROOT
BRANCH   1   2
ATOM      2  N   UNL A   1      46.044  41.801  27.406  1.00  0.00    -0.356 N 
ATOM      3  C   UNL A   1      46.012  42.881  26.560  1.00  0.00     0.221 C 
ATOM      4  O   UNL A   1      46.480  43.949  26.958  1.00  0.00    -0.275 OA
ATOM      5  H   UNL A   1      46.790  41.802  28.049  1.00  0.00     0.163 HD
BRANCH   3   6
ATOM      6  C   UNL A   1      45.513  42.740  25.142  1.00  0.00     0.122 C 
BRANCH   6   7
ATOM      7  C   UNL A   1      44.413  43.764  24.831  1.00  0.00     0.137 C 
BRANCH   7   8
ATOM      8  N   UNL A   1      43.830  43.580  23.500  1.00  0.00    -0.292 N 
ATOM      9  C   UNL A   1      44.546  43.662  19.937  1.00  0.00     0.033 C 
ATOM     10  C   UNL A   1      43.964  43.618  21.152  1.00  0.00     0.081 C 
ATOM     11  S   UNL A   1      42.478  42.775  21.468  1.00  0.00    -0.054 SA
ATOM     12  C   UNL A   1      44.428  44.228  22.421  1.00  0.00     0.266 C 
ATOM     13  C   UNL A   1      42.767  42.752  23.209  1.00  0.00     0.148 C 
ATOM     14  O   UNL A   1      45.243  45.135  22.486  1.00  0.00    -0.268 OA
ATOM     15  S   UNL A   1      41.905  41.778  24.255  1.00  0.00    -0.052 S 
BRANCH   9  16
ATOM     16  C   UNL A   1      45.724  44.420  19.477  1.00  0.00     0.021 A 
ATOM     17  C   UNL A   1      47.633  42.798  20.248  1.00  0.00     0.047 C 
ATOM     18  C   UNL A   1      47.093  44.191  20.018  1.00  0.00    -0.017 A 
ATOM     19  C   UNL A   1      48.006  45.175  20.016  1.00  0.00     0.121 A 
ATOM     20  C   UNL A   1      45.570  45.359  18.481  1.00  0.00     0.118 A 
ATOM     21  C   UNL A   1      47.829  46.245  19.024  1.00  0.00     0.270 A 
ATOM     22  N   UNL A   1      46.661  46.228  18.259  1.00  0.00    -0.296 N 
ATOM     23  O   UNL A   1      48.759  47.029  18.832  1.00  0.00    -0.268 OA
ATOM     24  C   UNL A   1      46.615  47.258  17.237  1.00  0.00     0.155 C 
BRANCH  19  25
ATOM     25  C   UNL A   1      49.265  45.075  20.683  1.00  0.00     0.105 C 
ATOM     26  N   UNL A   1      50.313  45.077  21.174  1.00  0.00    -0.192 NA
ENDBRANCH  19  25
BRANCH  20  27
ATOM     27  N   UNL A   1      44.383  45.501  17.696  1.00  0.00    -0.357 N 
ATOM     28  C   UNL A   1      43.785  44.416  16.886  1.00  0.00     0.121 C 
ATOM     29  C   UNL A   1      43.929  46.841  17.257  1.00  0.00     0.121 C 
ATOM     30  C   UNL A   1      42.265  44.471  16.876  1.00  0.00     0.006 C 
ATOM     31  C   UNL A   1      42.409  46.975  17.104  1.00  0.00     0.006 C 
ATOM     32  C   UNL A   1      41.733  44.194  18.280  1.00  0.00     0.009 C 
ATOM     33  C   UNL A   1      41.819  45.811  16.309  1.00  0.00     0.010 C 
ATOM     34  C   UNL A   1      42.046  48.306  16.437  1.00  0.00     0.009 C 
ENDBRANCH  20  27
ENDBRANCH   9  16
ENDBRANCH   7   8
ENDBRANCH   6   7
ENDBRANCH   3   6
ENDBRANCH   1   2
BRANCH   1  35
ATOM     35  C   UNL A   1      45.695  39.302  28.059  1.00  0.00     0.042 C 
BRANCH  35  36
ATOM     36  C   UNL A   1      46.914  39.377  28.991  1.00  0.00     0.118 C 
BRANCH  36  37
ATOM     37  N   UNL A   1      47.735  38.154  29.178  1.00  0.00    -0.352 N 
ATOM     38  C   UNL A   1      48.011  37.331  28.072  1.00  0.00     0.251 C 
ATOM     39  H   UNL A   1      48.085  37.921  30.068  1.00  0.00     0.163 HD
ATOM     40  O   UNL A   1      48.542  37.807  27.070  1.00  0.00    -0.269 OA
BRANCH  38  41
ATOM     41  C   UNL A   1      47.638  35.864  28.063  1.00  0.00     0.039 A 
ATOM     42  C   UNL A   1      47.690  35.002  29.162  1.00  0.00     0.014 A 
ATOM     43  C   UNL A   1      47.345  35.275  26.829  1.00  0.00     0.014 A 
ATOM     44  C   UNL A   1      47.384  33.603  29.025  1.00  0.00     0.010 A 
ATOM     45  C   UNL A   1      47.035  33.899  26.716  1.00  0.00     0.010 A 
ATOM     46  C   UNL A   1      46.977  33.022  27.803  1.00  0.00    -0.014 A 
BRANCH  46  47
ATOM     47  C   UNL A   1      46.399  31.603  27.624  1.00  0.00     0.031 A 
ATOM     48  C   UNL A   1      44.946  31.220  27.987  1.00  0.00     0.074 A 
ATOM     49  C   UNL A   1      47.228  30.554  27.380  1.00  0.00     0.049 A 
ATOM     50  N   UNL A   1      44.387  30.029  28.085  1.00  0.00    -0.248 NA
ATOM     51  C   UNL A   1      44.035  32.306  28.374  1.00  0.00     0.031 C 
ATOM     52  C   UNL A   1      48.679  30.641  27.214  1.00  0.00     0.029 A 
ATOM     53  N   UNL A   1      46.984  29.192  27.296  1.00  0.00    -0.354 N 
ATOM     54  C   UNL A   1      43.110  30.219  28.631  1.00  0.00     0.074 A 
ATOM     55  C   UNL A   1      43.002  31.642  28.877  1.00  0.00     0.031 C 
ATOM     56  C   UNL A   1      49.186  29.414  27.014  1.00  0.00     0.029 A 
ATOM     57  C   UNL A   1      48.109  28.428  27.053  1.00  0.00     0.049 A 
ATOM     58  H   UNL A   1      46.086  28.802  27.400  1.00  0.00     0.167 HD
ATOM     59  C   UNL A   1      42.115  29.323  28.897  1.00  0.00     0.037 A 
ATOM     60  C   UNL A   1      48.284  27.100  26.860  1.00  0.00     0.037 A 
ATOM     61  C   UNL A   1      42.164  27.916  28.559  1.00  0.00     0.049 A 
ATOM     62  C   UNL A   1      47.114  26.149  26.918  1.00  0.00     0.074 A 
ATOM     63  C   UNL A   1      41.130  26.988  28.584  1.00  0.00     0.029 A 
ATOM     64  N   UNL A   1      43.286  27.230  28.125  1.00  0.00    -0.354 N 
ATOM     65  N   UNL A   1      45.878  26.389  27.276  1.00  0.00    -0.248 NA
ATOM     66  C   UNL A   1      47.359  24.750  26.524  1.00  0.00     0.031 C 
ATOM     67  C   UNL A   1      41.633  25.742  28.203  1.00  0.00     0.029 A 
ATOM     68  C   UNL A   1      42.966  25.902  27.875  1.00  0.00     0.049 A 
ATOM     69  H   UNL A   1      44.181  27.627  28.012  1.00  0.00     0.167 HD
ATOM     70  C   UNL A   1      45.194  25.186  27.114  1.00  0.00     0.074 A 
ATOM     71  C   UNL A   1      46.146  24.220  26.615  1.00  0.00     0.031 C 
ATOM     72  C   UNL A   1      43.887  24.920  27.358  1.00  0.00     0.037 A 
BRANCH  59  73
ATOM     73  C   UNL A   1      40.813  29.816  29.520  1.00  0.00     0.058 A 
ATOM     74  C   UNL A   1      39.630  29.915  28.768  1.00  0.00     0.135 A 
ATOM     75  C   UNL A   1      40.704  30.058  30.907  1.00  0.00     0.135 A 
ATOM     76  F   UNL A   1      39.644  29.672  27.449  1.00  0.00    -0.206 F 
ATOM     77  C   UNL A   1      38.416  30.280  29.345  1.00  0.00     0.059 A 
ATOM     78  C   UNL A   1      39.486  30.372  31.515  1.00  0.00     0.059 A 
ATOM     79  F   UNL A   1      41.784  29.953  31.700  1.00  0.00    -0.206 F 
ATOM     80  C   UNL A   1      38.350  30.498  30.720  1.00  0.00     0.060 A 
BRANCH  80  81
ATOM     81  S   UNL A   1      36.747  30.921  31.438  1.00  0.00     0.124 S 
ATOM     82  O   UNL A   1      36.260  29.609  31.855  1.00  0.00    -0.237 OA
ATOM     83  O   UNL A   1      37.122  31.827  32.519  1.00  0.00    -0.237 OA
ATOM     84  O   UNL A   1      36.025  31.535  30.329  1.00  0.00    -0.744 OA
ENDBRANCH  80  81
ENDBRANCH  59  73
BRANCH  60  85
ATOM     85  C   UNL A   1      49.622  26.589  26.439  1.00  0.00     0.058 A 
ATOM     86  C   UNL A   1      49.985  26.639  25.082  1.00  0.00     0.135 A 
ATOM     87  C   UNL A   1      50.563  26.080  27.345  1.00  0.00     0.135 A 
ATOM     88  F   UNL A   1      49.114  27.103  24.174  1.00  0.00    -0.206 F 
ATOM     89  C   UNL A   1      51.225  26.197  24.637  1.00  0.00     0.059 A 
ATOM     90  C   UNL A   1      51.825  25.656  26.926  1.00  0.00     0.059 A 
ATOM     91  F   UNL A   1      50.275  26.027  28.655  1.00  0.00    -0.206 F 
ATOM     92  C   UNL A   1      52.144  25.717  25.568  1.00  0.00     0.060 A 
BRANCH  92  93
ATOM     93  S   UNL A   1      53.778  25.226  24.975  1.00  0.00     0.124 S 
ATOM     94  O   UNL A   1      54.637  25.674  26.066  1.00  0.00    -0.237 OA
ATOM     95  O   UNL A   1      53.624  23.781  24.837  1.00  0.00    -0.237 OA
ATOM     96  O   UNL A   1      53.916  25.960  23.721  1.00  0.00    -0.744 OA
ENDBRANCH  92  93
ENDBRANCH  60  85
BRANCH  72  97
ATOM     97  C   UNL A   1      43.357  23.541  27.055  1.00  0.00     0.058 A 
ATOM     98  C   UNL A   1      43.136  23.097  25.741  1.00  0.00     0.135 A 
ATOM     99  C   UNL A   1      43.147  22.617  28.094  1.00  0.00     0.135 A 
ATOM    100  F   UNL A   1      43.315  23.933  24.707  1.00  0.00    -0.206 F 
ATOM    101  C   UNL A   1      42.719  21.795  25.470  1.00  0.00     0.059 A 
ATOM    102  C   UNL A   1      42.757  21.302  27.845  1.00  0.00     0.059 A 
ATOM    103  F   UNL A   1      43.346  22.981  29.371  1.00  0.00    -0.206 F 
ATOM    104  C   UNL A   1      42.541  20.902  26.528  1.00  0.00     0.060 A 
BRANCH 104 105
ATOM    105  S   UNL A   1      42.047  19.204  26.154  1.00  0.00     0.124 S 
ATOM    106  O   UNL A   1      40.617  19.359  25.907  1.00  0.00    -0.237 OA
ATOM    107  O   UNL A   1      42.862  18.899  24.982  1.00  0.00    -0.237 OA
ATOM    108  O   UNL A   1      42.399  18.469  27.365  1.00  0.00    -0.744 OA
ENDBRANCH 104 105
ENDBRANCH  72  97
ENDBRANCH  46  47
ENDBRANCH  38  41
ENDBRANCH  36  37
ENDBRANCH  35  36
ENDBRANCH   1  35
TORSDOF 18
ENDMDL
MODEL 2
REMARK VINA RESULT:     -11.3     10.787     19.611
REMARK SMILES Cc1c(/C=C2/SC(=S)N(CCC(=O)NCCCNC(=O)c3ccc(-c4c5nc(c(-c6c(F)cc(S(=O)(=O)[O-])cc6F)c6ccc([nH]6)c(-c6c(F)cc(S(=O)(=O)[O-])cc6F)c6nc(c(-c7c(F)cc(S(=O)(=O)[O-])cc7F)c7ccc4[nH]7)C=C6)C=C5)cc3)C2=O)c(N2C[C@@H](C)C[C@H](C)C2)n(C)c(=O)c1C#N
REMARK SMILES IDX 15 1 14 2 12 3 13 4 11 6 10 7 9 8 4 9 5 10 6 11 87 12 7 13
REMARK SMILES IDX 88 14 8 15 3 16 1 17 2 18 102 19 89 20 100 21 98 22 101 23
REMARK SMILES IDX 99 24 103 25 104 26 90 27 91 28 97 29 92 30 95 31 93 32
REMARK SMILES IDX 94 33 96 34 16 35 17 36 18 37 19 38 20 40 21 41 22 42 86 43
REMARK SMILES IDX 23 44 85 45 24 46 25 47 26 48 79 49 27 50 84 51 78 52 80 53
REMARK SMILES IDX 28 54 83 55 77 56 76 57 29 59 63 60 42 61 62 62 43 63 46 64
REMARK SMILES IDX 61 65 81 66 44 67 45 68 60 70 82 71 47 72 30 73 31 74 40 75
REMARK SMILES IDX 32 76 33 77 39 78 41 79 34 80 35 81 36 82 37 83 38 84 64 85
REMARK SMILES IDX 65 86 74 87 66 88 67 89 73 90 75 91 68 92 69 93 70 94 71 95
REMARK SMILES IDX 72 96 48 97 49 98 58 99 50 100 51 101 57 102 59 103 52 104
REMARK SMILES IDX 53 105 54 106 55 107 56 108
REMARK H PARENT 14 5 18 39 80 58 46 69
REMARK Flexibility Score: inf
ROOT
ATOM      1  C   UNL A   1      52.552  25.596  38.615  1.00  0.00     0.117 C 
ENDROOT
BRANCH   1   2
ATOM      2  N   UNL A   1      53.482  25.341  37.513  1.00  0.00    -0.356 N 
ATOM      3  C   UNL A   1      53.241  24.933  36.226  1.00  0.00     0.221 C 
ATOM      4  O   UNL A   1      54.027  25.283  35.345  1.00  0.00    -0.275 OA
ATOM      5  H   UNL A   1      54.431  25.483  37.731  1.00  0.00     0.163 HD
BRANCH   3   6
ATOM      6  C   UNL A   1      52.102  23.993  35.911  1.00  0.00     0.122 C 
BRANCH   6   7
ATOM      7  C   UNL A   1      52.585  22.539  35.817  1.00  0.00     0.137 C 
BRANCH   7   8
ATOM      8  N   UNL A   1      51.524  21.617  35.405  1.00  0.00    -0.292 N 
ATOM      9  C   UNL A   1      48.237  20.335  36.276  1.00  0.00     0.033 C 
ATOM     10  C   UNL A   1      49.451  20.556  35.736  1.00  0.00     0.081 C 
ATOM     11  S   UNL A   1      49.838  20.202  34.080  1.00  0.00    -0.054 SA
ATOM     12  C   UNL A   1      50.659  21.126  36.381  1.00  0.00     0.266 C 
ATOM     13  C   UNL A   1      51.262  21.244  34.104  1.00  0.00     0.148 C 
ATOM     14  O   UNL A   1      50.828  21.180  37.588  1.00  0.00    -0.268 OA
ATOM     15  S   UNL A   1      52.049  21.730  32.715  1.00  0.00    -0.052 S 
BRANCH   9  16
ATOM     16  C   UNL A   1      47.783  20.463  37.674  1.00  0.00     0.021 A 
ATOM     17  C   UNL A   1      49.602  19.008  38.875  1.00  0.00     0.047 C 
ATOM     18  C   UNL A   1      48.181  19.506  38.743  1.00  0.00    -0.017 A 
ATOM     19  C   UNL A   1      47.392  19.301  39.810  1.00  0.00     0.121 A 
ATOM     20  C   UNL A   1      46.983  21.529  38.023  1.00  0.00     0.118 A 
ATOM     21  C   UNL A   1      46.460  20.382  40.166  1.00  0.00     0.270 A 
ATOM     22  N   UNL A   1      46.371  21.469  39.295  1.00  0.00    -0.296 N 
ATOM     23  O   UNL A   1      45.898  20.336  41.261  1.00  0.00    -0.268 OA
ATOM     24  C   UNL A   1      45.507  22.532  39.773  1.00  0.00     0.155 C 
BRANCH  19  25
ATOM     25  C   UNL A   1      47.627  18.269  40.769  1.00  0.00     0.105 C 
ATOM     26  N   UNL A   1      47.799  17.502  41.618  1.00  0.00    -0.192 NA
ENDBRANCH  19  25
BRANCH  20  27
ATOM     27  N   UNL A   1      46.738  22.654  37.175  1.00  0.00    -0.357 N 
ATOM     28  C   UNL A   1      47.465  23.940  37.267  1.00  0.00     0.121 C 
ATOM     29  C   UNL A   1      45.445  22.792  36.465  1.00  0.00     0.121 C 
ATOM     30  C   UNL A   1      47.686  24.579  35.904  1.00  0.00     0.006 C 
ATOM     31  C   UNL A   1      45.536  23.526  35.122  1.00  0.00     0.006 C 
ATOM     32  C   UNL A   1      48.625  23.704  35.075  1.00  0.00     0.009 C 
ATOM     33  C   UNL A   1      46.338  24.822  35.242  1.00  0.00     0.010 C 
ATOM     34  C   UNL A   1      44.138  23.821  34.568  1.00  0.00     0.009 C 
ENDBRANCH  20  27
ENDBRANCH   9  16
ENDBRANCH   7   8
ENDBRANCH   6   7
ENDBRANCH   3   6
ENDBRANCH   1   2
BRANCH   1  35
ATOM     35  C   UNL A   1      51.569  26.799  38.519  1.00  0.00     0.042 C 
BRANCH  35  36
ATOM     36  C   UNL A   1      50.108  26.478  38.170  1.00  0.00     0.118 C 
BRANCH  36  37
ATOM     37  N   UNL A   1      49.089  27.542  38.356  1.00  0.00    -0.352 N 
ATOM     38  C   UNL A   1      47.796  27.193  38.785  1.00  0.00     0.251 C 
ATOM     39  H   UNL A   1      49.315  28.484  38.181  1.00  0.00     0.163 HD
ATOM     40  O   UNL A   1      47.646  26.555  39.826  1.00  0.00    -0.269 OA
BRANCH  38  41
ATOM     41  C   UNL A   1      46.568  27.555  37.977  1.00  0.00     0.039 A 
ATOM     42  C   UNL A   1      45.299  26.986  38.121  1.00  0.00     0.014 A 
ATOM     43  C   UNL A   1      46.734  28.432  36.900  1.00  0.00     0.014 A 
ATOM     44  C   UNL A   1      44.217  27.352  37.246  1.00  0.00     0.010 A 
ATOM     45  C   UNL A   1      45.654  28.788  36.058  1.00  0.00     0.010 A 
ATOM     46  C   UNL A   1      44.347  28.321  36.227  1.00  0.00    -0.014 A 
BRANCH  46  47
ATOM     47  C   UNL A   1      43.192  28.945  35.418  1.00  0.00     0.031 A 
ATOM     48  C   UNL A   1      42.846  28.538  33.968  1.00  0.00     0.074 A 
ATOM     49  C   UNL A   1      42.584  30.079  35.859  1.00  0.00     0.049 A 
ATOM     50  N   UNL A   1      42.042  29.118  33.097  1.00  0.00    -0.248 NA
ATOM     51  C   UNL A   1      43.561  27.388  33.398  1.00  0.00     0.031 C 
ATOM     52  C   UNL A   1      42.895  30.776  37.107  1.00  0.00     0.029 A 
ATOM     53  N   UNL A   1      41.622  30.890  35.277  1.00  0.00    -0.354 N 
ATOM     54  C   UNL A   1      42.230  28.469  31.869  1.00  0.00     0.074 A 
ATOM     55  C   UNL A   1      43.258  27.477  32.108  1.00  0.00     0.031 C 
ATOM     56  C   UNL A   1      42.126  31.872  37.216  1.00  0.00     0.029 A 
ATOM     57  C   UNL A   1      41.267  31.985  36.040  1.00  0.00     0.049 A 
ATOM     58  H   UNL A   1      41.224  30.701  34.396  1.00  0.00     0.167 HD
ATOM     59  C   UNL A   1      41.618  28.654  30.663  1.00  0.00     0.037 A 
ATOM     60  C   UNL A   1      40.355  32.968  35.854  1.00  0.00     0.037 A 
ATOM     61  C   UNL A   1      40.515  29.564  30.433  1.00  0.00     0.049 A 
ATOM     62  C   UNL A   1      39.508  33.012  34.606  1.00  0.00     0.074 A 
ATOM     63  C   UNL A   1      39.694  29.655  29.315  1.00  0.00     0.029 A 
ATOM     64  N   UNL A   1      40.066  30.527  31.320  1.00  0.00    -0.354 N 
ATOM     65  N   UNL A   1      39.598  32.276  33.527  1.00  0.00    -0.248 NA
ATOM     66  C   UNL A   1      38.421  34.006  34.560  1.00  0.00     0.031 C 
ATOM     67  C   UNL A   1      38.777  30.692  29.513  1.00  0.00     0.029 A 
ATOM     68  C   UNL A   1      38.981  31.205  30.780  1.00  0.00     0.049 A 
ATOM     69  H   UNL A   1      40.460  30.705  32.205  1.00  0.00     0.167 HD
ATOM     70  C   UNL A   1      38.559  32.691  32.695  1.00  0.00     0.074 A 
ATOM     71  C   UNL A   1      37.846  33.733  33.397  1.00  0.00     0.031 C 
ATOM     72  C   UNL A   1      38.236  32.235  31.461  1.00  0.00     0.037 A 
BRANCH  59  73
ATOM     73  C   UNL A   1      42.042  27.803  29.471  1.00  0.00     0.058 A 
ATOM     74  C   UNL A   1      41.230  26.765  28.982  1.00  0.00     0.135 A 
ATOM     75  C   UNL A   1      43.198  28.108  28.721  1.00  0.00     0.135 A 
ATOM     76  F   UNL A   1      40.099  26.432  29.623  1.00  0.00    -0.206 F 
ATOM     77  C   UNL A   1      41.566  26.038  27.843  1.00  0.00     0.059 A 
ATOM     78  C   UNL A   1      43.525  27.429  27.545  1.00  0.00     0.059 A 
ATOM     79  F   UNL A   1      44.011  29.108  29.105  1.00  0.00    -0.206 F 
ATOM     80  C   UNL A   1      42.709  26.382  27.125  1.00  0.00     0.060 A 
BRANCH  80  81
ATOM     81  S   UNL A   1      43.083  25.447  25.625  1.00  0.00     0.124 S 
ATOM     82  O   UNL A   1      44.497  25.761  25.431  1.00  0.00    -0.237 OA
ATOM     83  O   UNL A   1      42.793  24.077  26.034  1.00  0.00    -0.237 OA
ATOM     84  O   UNL A   1      42.175  26.010  24.632  1.00  0.00    -0.744 OA
ENDBRANCH  80  81
ENDBRANCH  59  73
BRANCH  60  85
ATOM     85  C   UNL A   1      40.079  33.932  36.959  1.00  0.00     0.058 A 
ATOM     86  C   UNL A   1      40.737  35.174  36.975  1.00  0.00     0.135 A 
ATOM     87  C   UNL A   1      39.158  33.673  37.985  1.00  0.00     0.135 A 
ATOM     88  F   UNL A   1      41.638  35.463  36.024  1.00  0.00    -0.206 F 
ATOM     89  C   UNL A   1      40.503  36.118  37.967  1.00  0.00     0.059 A 
ATOM     90  C   UNL A   1      38.885  34.615  38.977  1.00  0.00     0.059 A 
ATOM     91  F   UNL A   1      38.488  32.510  38.008  1.00  0.00    -0.206 F 
ATOM     92  C   UNL A   1      39.565  35.835  38.958  1.00  0.00     0.060 A 
BRANCH  92  93
ATOM     93  S   UNL A   1      39.217  37.111  40.189  1.00  0.00     0.124 S 
ATOM     94  O   UNL A   1      38.454  36.364  41.183  1.00  0.00    -0.237 OA
ATOM     95  O   UNL A   1      40.562  37.515  40.588  1.00  0.00    -0.237 OA
ATOM     96  O   UNL A   1      38.465  38.109  39.435  1.00  0.00    -0.744 OA
ENDBRANCH  92  93
ENDBRANCH  60  85
BRANCH  72  97
ATOM     97  C   UNL A   1      37.025  32.809  30.769  1.00  0.00     0.058 A 
ATOM     98  C   UNL A   1      35.722  32.369  31.053  1.00  0.00     0.135 A 
ATOM     99  C   UNL A   1      37.163  33.879  29.867  1.00  0.00     0.135 A 
ATOM    100  F   UNL A   1      35.524  31.348  31.902  1.00  0.00    -0.206 F 
ATOM    101  C   UNL A   1      34.606  32.959  30.463  1.00  0.00     0.059 A 
ATOM    102  C   UNL A   1      36.061  34.503  29.287  1.00  0.00     0.059 A 
ATOM    103  F   UNL A   1      38.383  34.348  29.558  1.00  0.00    -0.206 F 
ATOM    104  C   UNL A   1      34.785  34.033  29.588  1.00  0.00     0.060 A 
BRANCH 104 105
ATOM    105  S   UNL A   1      33.323  34.817  28.872  1.00  0.00     0.124 S 
ATOM    106  O   UNL A   1      32.508  35.066  30.057  1.00  0.00    -0.237 OA
ATOM    107  O   UNL A   1      33.890  36.001  28.234  1.00  0.00    -0.237 OA
ATOM    108  O   UNL A   1      32.805  33.805  27.956  1.00  0.00    -0.744 OA
ENDBRANCH 104 105
ENDBRANCH  72  97
ENDBRANCH  46  47
ENDBRANCH  38  41
ENDBRANCH  36  37
ENDBRANCH  35  36
ENDBRANCH   1  35
TORSDOF 18
ENDMDL
MODEL 3
REMARK VINA RESULT:     -11.1      0.853      7.761
REMARK SMILES Cc1c(/C=C2/SC(=S)N(CCC(=O)NCCCNC(=O)c3ccc(-c4c5nc(c(-c6c(F)cc(S(=O)(=O)[O-])cc6F)c6ccc([nH]6)c(-c6c(F)cc(S(=O)(=O)[O-])cc6F)c6nc(c(-c7c(F)cc(S(=O)(=O)[O-])cc7F)c7ccc4[nH]7)C=C6)C=C5)cc3)C2=O)c(N2C[C@@H](C)C[C@H](C)C2)n(C)c(=O)c1C#N
REMARK SMILES IDX 15 1 14 2 12 3 13 4 11 6 10 7 9 8 4 9 5 10 6 11 87 12 7 13
REMARK SMILES IDX 88 14 8 15 3 16 1 17 2 18 102 19 89 20 100 21 98 22 101 23
REMARK SMILES IDX 99 24 103 25 104 26 90 27 91 28 97 29 92 30 95 31 93 32
REMARK SMILES IDX 94 33 96 34 16 35 17 36 18 37 19 38 20 40 21 41 22 42 86 43
REMARK SMILES IDX 23 44 85 45 24 46 25 47 26 48 79 49 27 50 84 51 78 52 80 53
REMARK SMILES IDX 28 54 83 55 77 56 76 57 29 59 63 60 42 61 62 62 43 63 46 64
REMARK SMILES IDX 61 65 81 66 44 67 45 68 60 70 82 71 47 72 30 73 31 74 40 75
REMARK SMILES IDX 32 76 33 77 39 78 41 79 34 80 35 81 36 82 37 83 38 84 64 85
REMARK SMILES IDX 65 86 74 87 66 88 67 89 73 90 75 91 68 92 69 93 70 94 71 95
REMARK SMILES IDX 72 96 48 97 49 98 58 99 50 100 51 101 57 102 59 103 52 104
REMARK SMILES IDX 53 105 54 106 55 107 56 108
REMARK H PARENT 14 5 18 39 80 58 46 69
REMARK Flexibility Score: inf
ROOT
ATOM      1  C   UNL A   1      45.465  40.228  27.857  1.00  0.00     0.117 C 
ENDROOT
BRANCH   1   2
ATOM      2  N   UNL A   1      46.461  41.032  27.146  1.00  0.00    -0.356 N 
ATOM      3  C   UNL A   1      46.302  41.972  26.160  1.00  0.00     0.221 C 
ATOM      4  O   UNL A   1      47.131  42.880  26.079  1.00  0.00    -0.275 OA
ATOM      5  H   UNL A   1      47.394  40.871  27.418  1.00  0.00     0.163 HD
BRANCH   3   6
ATOM      6  C   UNL A   1      45.202  41.842  25.134  1.00  0.00     0.122 C 
BRANCH   6   7
ATOM      7  C   UNL A   1      44.421  43.153  24.981  1.00  0.00     0.137 C 
BRANCH   7   8
ATOM      8  N   UNL A   1      43.757  43.267  23.680  1.00  0.00    -0.292 N 
ATOM      9  C   UNL A   1      44.323  43.706  20.116  1.00  0.00     0.033 C 
ATOM     10  C   UNL A   1      43.795  43.604  21.352  1.00  0.00     0.081 C 
ATOM     11  S   UNL A   1      42.190  43.016  21.659  1.00  0.00    -0.054 SA
ATOM     12  C   UNL A   1      44.423  43.936  22.654  1.00  0.00     0.266 C 
ATOM     13  C   UNL A   1      42.543  42.699  23.359  1.00  0.00     0.148 C 
ATOM     14  O   UNL A   1      45.399  44.658  22.778  1.00  0.00    -0.268 OA
ATOM     15  S   UNL A   1      41.554  41.767  24.328  1.00  0.00    -0.052 S 
BRANCH   9  16
ATOM     16  C   UNL A   1      45.605  44.289  19.677  1.00  0.00     0.021 A 
ATOM     17  C   UNL A   1      47.244  42.387  20.427  1.00  0.00     0.047 C 
ATOM     18  C   UNL A   1      46.920  43.849  20.221  1.00  0.00    -0.017 A 
ATOM     19  C   UNL A   1      47.969  44.686  20.244  1.00  0.00     0.121 A 
ATOM     20  C   UNL A   1      45.599  45.259  18.700  1.00  0.00     0.118 A 
ATOM     21  C   UNL A   1      47.961  45.789  19.271  1.00  0.00     0.270 A 
ATOM     22  N   UNL A   1      46.810  45.960  18.500  1.00  0.00    -0.296 N 
ATOM     23  O   UNL A   1      48.999  46.429  19.100  1.00  0.00    -0.268 OA
ATOM     24  C   UNL A   1      46.927  47.004  17.499  1.00  0.00     0.155 C 
BRANCH  19  25
ATOM     25  C   UNL A   1      49.194  44.386  20.915  1.00  0.00     0.105 C 
ATOM     26  N   UNL A   1      50.144  44.054  21.484  1.00  0.00    -0.192 NA
ENDBRANCH  19  25
BRANCH  20  27
ATOM     27  N   UNL A   1      44.454  45.590  17.911  1.00  0.00    -0.357 N 
ATOM     28  C   UNL A   1      43.953  44.772  16.784  1.00  0.00     0.121 C 
ATOM     29  C   UNL A   1      43.965  46.987  17.847  1.00  0.00     0.121 C 
ATOM     30  C   UNL A   1      42.435  44.786  16.689  1.00  0.00     0.006 C 
ATOM     31  C   UNL A   1      42.452  47.120  17.637  1.00  0.00     0.006 C 
ATOM     32  C   UNL A   1      41.837  44.099  17.915  1.00  0.00     0.009 C 
ATOM     33  C   UNL A   1      41.960  46.220  16.503  1.00  0.00     0.010 C 
ATOM     34  C   UNL A   1      42.066  48.576  17.360  1.00  0.00     0.009 C 
ENDBRANCH  20  27
ENDBRANCH   9  16
ENDBRANCH   7   8
ENDBRANCH   6   7
ENDBRANCH   3   6
ENDBRANCH   1   2
BRANCH   1  35
ATOM     35  C   UNL A   1      45.924  38.964  28.640  1.00  0.00     0.042 C 
BRANCH  35  36
ATOM     36  C   UNL A   1      46.469  39.184  30.059  1.00  0.00     0.118 C 
BRANCH  36  37
ATOM     37  N   UNL A   1      46.824  37.993  30.871  1.00  0.00    -0.352 N 
ATOM     38  C   UNL A   1      47.806  37.103  30.401  1.00  0.00     0.251 C 
ATOM     39  H   UNL A   1      46.376  37.826  31.732  1.00  0.00     0.163 HD
ATOM     40  O   UNL A   1      48.927  37.522  30.116  1.00  0.00    -0.269 OA
BRANCH  38  41
ATOM     41  C   UNL A   1      47.512  35.632  30.200  1.00  0.00     0.039 A 
ATOM     42  C   UNL A   1      47.751  34.617  31.131  1.00  0.00     0.014 A 
ATOM     43  C   UNL A   1      47.092  35.221  28.931  1.00  0.00     0.014 A 
ATOM     44  C   UNL A   1      47.503  33.237  30.806  1.00  0.00     0.010 A 
ATOM     45  C   UNL A   1      46.842  33.859  28.635  1.00  0.00     0.010 A 
ATOM     46  C   UNL A   1      46.972  32.824  29.565  1.00  0.00    -0.014 A 
BRANCH  46  47
ATOM     47  C   UNL A   1      46.450  31.412  29.229  1.00  0.00     0.031 A 
ATOM     48  C   UNL A   1      47.303  30.328  28.532  1.00  0.00     0.074 A 
ATOM     49  C   UNL A   1      45.118  31.143  29.296  1.00  0.00     0.049 A 
ATOM     50  N   UNL A   1      46.936  29.176  28.003  1.00  0.00    -0.248 NA
ATOM     51  C   UNL A   1      48.729  30.616  28.327  1.00  0.00     0.031 C 
ATOM     52  C   UNL A   1      44.084  32.086  29.721  1.00  0.00     0.029 A 
ATOM     53  N   UNL A   1      44.391  30.017  28.942  1.00  0.00    -0.354 N 
ATOM     54  C   UNL A   1      48.052  28.661  27.329  1.00  0.00     0.074 A 
ATOM     55  C   UNL A   1      49.094  29.654  27.488  1.00  0.00     0.031 C 
ATOM     56  C   UNL A   1      42.878  31.500  29.642  1.00  0.00     0.029 A 
ATOM     57  C   UNL A   1      43.029  30.136  29.141  1.00  0.00     0.049 A 
ATOM     58  H   UNL A   1      44.809  29.201  28.581  1.00  0.00     0.167 HD
ATOM     59  C   UNL A   1      48.218  27.486  26.653  1.00  0.00     0.037 A 
ATOM     60  C   UNL A   1      42.004  29.269  28.970  1.00  0.00     0.037 A 
ATOM     61  C   UNL A   1      47.224  26.436  26.576  1.00  0.00     0.049 A 
ATOM     62  C   UNL A   1      42.249  27.876  28.445  1.00  0.00     0.074 A 
ATOM     63  C   UNL A   1      47.380  25.135  26.111  1.00  0.00     0.029 A 
ATOM     64  N   UNL A   1      45.903  26.545  26.975  1.00  0.00    -0.354 N 
ATOM     65  N   UNL A   1      43.354  27.360  27.969  1.00  0.00    -0.248 NA
ATOM     66  C   UNL A   1      41.111  26.939  28.454  1.00  0.00     0.031 C 
ATOM     67  C   UNL A   1      46.152  24.475  26.196  1.00  0.00     0.029 A 
ATOM     68  C   UNL A   1      45.242  25.340  26.775  1.00  0.00     0.049 A 
ATOM     69  H   UNL A   1      45.492  27.360  27.346  1.00  0.00     0.167 HD
ATOM     70  C   UNL A   1      43.054  26.035  27.661  1.00  0.00     0.074 A 
ATOM     71  C   UNL A   1      41.670  25.820  28.013  1.00  0.00     0.031 C 
ATOM     72  C   UNL A   1      43.869  25.087  27.134  1.00  0.00     0.037 A 
BRANCH  59  73
ATOM     73  C   UNL A   1      49.557  27.189  25.989  1.00  0.00     0.058 A 
ATOM     74  C   UNL A   1      50.623  26.620  26.706  1.00  0.00     0.135 A 
ATOM     75  C   UNL A   1      49.741  27.340  24.597  1.00  0.00     0.135 A 
ATOM     76  F   UNL A   1      50.517  26.417  28.028  1.00  0.00    -0.206 F 
ATOM     77  C   UNL A   1      51.821  26.264  26.092  1.00  0.00     0.059 A 
ATOM     78  C   UNL A   1      50.913  26.939  23.952  1.00  0.00     0.059 A 
ATOM     79  F   UNL A   1      48.757  27.848  23.835  1.00  0.00    -0.206 F 
ATOM     80  C   UNL A   1      51.955  26.417  24.714  1.00  0.00     0.060 A 
BRANCH  80  81
ATOM     81  S   UNL A   1      53.507  25.898  23.947  1.00  0.00     0.124 S 
ATOM     82  O   UNL A   1      54.422  26.938  24.411  1.00  0.00    -0.237 OA
ATOM     83  O   UNL A   1      53.710  24.575  24.527  1.00  0.00    -0.237 OA
ATOM     84  O   UNL A   1      53.208  25.917  22.519  1.00  0.00    -0.744 OA
ENDBRANCH  80  81
ENDBRANCH  59  73
BRANCH  60  85
ATOM     85  C   UNL A   1      40.639  29.642  29.445  1.00  0.00     0.058 A 
ATOM     86  C   UNL A   1      40.400  29.780  30.823  1.00  0.00     0.135 A 
ATOM     87  C   UNL A   1      39.571  29.897  28.571  1.00  0.00     0.135 A 
ATOM     88  F   UNL A   1      41.384  29.533  31.699  1.00  0.00    -0.206 F 
ATOM     89  C   UNL A   1      39.154  30.145  31.319  1.00  0.00     0.059 A 
ATOM     90  C   UNL A   1      38.320  30.292  29.044  1.00  0.00     0.059 A 
ATOM     91  F   UNL A   1      39.750  29.798  27.245  1.00  0.00    -0.206 F 
ATOM     92  C   UNL A   1      38.123  30.412  30.421  1.00  0.00     0.060 A 
BRANCH  92  93
ATOM     93  S   UNL A   1      36.538  30.966  31.087  1.00  0.00     0.124 S 
ATOM     94  O   UNL A   1      35.823  29.703  31.241  1.00  0.00    -0.237 OA
ATOM     95  O   UNL A   1      36.947  31.622  32.325  1.00  0.00    -0.237 OA
ATOM     96  O   UNL A   1      36.029  31.857  30.049  1.00  0.00    -0.744 OA
ENDBRANCH  92  93
ENDBRANCH  60  85
BRANCH  72  97
ATOM     97  C   UNL A   1      43.328  23.694  26.935  1.00  0.00     0.058 A 
ATOM     98  C   UNL A   1      43.039  23.179  25.660  1.00  0.00     0.135 A 
ATOM     99  C   UNL A   1      43.178  22.826  28.032  1.00  0.00     0.135 A 
ATOM    100  F   UNL A   1      43.158  23.959  24.574  1.00  0.00    -0.206 F 
ATOM    101  C   UNL A   1      42.612  21.864  25.483  1.00  0.00     0.059 A 
ATOM    102  C   UNL A   1      42.781  21.500  27.875  1.00  0.00     0.059 A 
ATOM    103  F   UNL A   1      43.444  23.259  29.275  1.00  0.00    -0.206 F 
ATOM    104  C   UNL A   1      42.496  21.029  26.596  1.00  0.00     0.060 A 
BRANCH 104 105
ATOM    105  S   UNL A   1      41.989  19.313  26.340  1.00  0.00     0.124 S 
ATOM    106  O   UNL A   1      42.708  18.970  25.118  1.00  0.00    -0.237 OA
ATOM    107  O   UNL A   1      42.466  18.667  27.558  1.00  0.00    -0.237 OA
ATOM    108  O   UNL A   1      40.538  19.400  26.209  1.00  0.00    -0.744 OA
ENDBRANCH 104 105
ENDBRANCH  72  97
ENDBRANCH  46  47
ENDBRANCH  38  41
ENDBRANCH  36  37
ENDBRANCH  35  36
ENDBRANCH   1  35
TORSDOF 18
ENDMDL
