MODEL 1
REMARK VINA RESULT:     -13.0      0.000      0.000
REMARK SMILES CCc1cc(C(=O)c2[nH]c3cc(Cl)ccc3c2CC(=O)NCCCNC(=O)c2ccc(-c3c4nc(c(-c5c(F)cc(S(=O)(=O)[O-])cc5F)c5ccc([nH]5)c(-c5c(F)cc(S(=O)(=O)[O-])cc5F)c5nc(c(-c6c(F)cc(S(=O)(=O)[O-])cc6F)c6ccc3[nH]6)C=C5)C=C4)cc2)ncc1Cl
REMARK SMILES IDX 22 1 21 2 19 3 20 4 18 6 17 7 8 8 9 9 10 10 16 12 11 13
REMARK SMILES IDX 15 14 12 15 14 16 13 17 6 18 7 19 5 20 3 21 4 22 96 23 95 24
REMARK SMILES IDX 97 25 94 26 2 27 1 28 23 29 24 30 25 31 26 32 27 34 28 35
REMARK SMILES IDX 29 36 93 37 30 38 92 39 31 40 32 41 33 42 86 43 34 44 91 45
REMARK SMILES IDX 85 46 87 47 35 48 90 49 84 50 83 51 36 53 70 54 49 55 69 56
REMARK SMILES IDX 50 57 53 58 68 59 88 60 51 61 52 62 67 64 89 65 54 66 37 67
REMARK SMILES IDX 38 68 47 69 39 70 40 71 46 72 48 73 41 74 42 75 43 76 44 77
REMARK SMILES IDX 45 78 71 79 72 80 81 81 73 82 74 83 80 84 82 85 75 86 76 87
REMARK SMILES IDX 77 88 78 89 79 90 55 91 56 92 65 93 57 94 58 95 64 96 66 97
REMARK SMILES IDX 59 98 60 99 61 100 62 101 63 102
REMARK H PARENT 21 5 9 11 25 33 87 52 53 63
REMARK Flexibility Score: inf
ROOT
ATOM      1  C   UNL A   1      37.390  23.212  25.639  1.00  0.00     0.117 C 
ENDROOT
BRANCH   1   2
ATOM      2  N   UNL A   1      36.378  23.982  24.939  1.00  0.00    -0.356 N 
ATOM      3  C   UNL A   1      35.053  24.143  25.225  1.00  0.00     0.224 C 
ATOM      4  O   UNL A   1      34.417  24.988  24.585  1.00  0.00    -0.275 OA
ATOM      5  H   UNL A   1      36.695  24.458  24.137  1.00  0.00     0.163 HD
BRANCH   3   6
ATOM      6  C   UNL A   1      34.401  23.385  26.369  1.00  0.00     0.138 C 
BRANCH   6   7
ATOM      7  C   UNL A   1      33.435  22.320  25.938  1.00  0.00    -0.002 A 
ATOM      8  C   UNL A   1      32.046  22.350  26.021  1.00  0.00     0.093 A 
ATOM      9  N   UNL A   1      31.570  21.219  25.397  1.00  0.00    -0.351 N 
ATOM     10  C   UNL A   1      32.605  20.374  25.080  1.00  0.00     0.048 A 
ATOM     11  H   UNL A   1      30.621  21.041  25.206  1.00  0.00     0.167 HD
ATOM     12  C   UNL A   1      33.789  21.035  25.404  1.00  0.00     0.004 A 
ATOM     13  C   UNL A   1      32.578  19.093  24.514  1.00  0.00     0.047 A 
ATOM     14  C   UNL A   1      35.014  20.381  25.149  1.00  0.00     0.012 A 
ATOM     15  C   UNL A   1      33.806  18.469  24.284  1.00  0.00     0.043 A 
ATOM     16  C   UNL A   1      35.008  19.098  24.592  1.00  0.00     0.021 A 
ATOM     17  Cl  UNL A   1      33.832  16.886  23.608  1.00  0.00    -0.084 Cl
BRANCH   8  18
ATOM     18  C   UNL A   1      31.171  23.371  26.570  1.00  0.00     0.227 C 
ATOM     19  O   UNL A   1      30.517  23.165  27.585  1.00  0.00    -0.285 OA
BRANCH  18  20
ATOM     20  C   UNL A   1      31.127  24.713  25.872  1.00  0.00     0.113 A 
ATOM     21  C   UNL A   1      31.421  27.128  25.834  1.00  0.00    -0.026 A 
ATOM     22  C   UNL A   1      31.511  25.895  26.510  1.00  0.00     0.037 A 
ATOM     23  C   UNL A   1      30.956  27.113  24.514  1.00  0.00     0.062 A 
ATOM     24  C   UNL A   1      30.598  25.892  23.953  1.00  0.00     0.132 A 
ATOM     25  Cl  UNL A   1      30.806  28.535  23.552  1.00  0.00    -0.082 Cl
ATOM     26  N   UNL A   1      30.666  24.703  24.597  1.00  0.00    -0.251 NA
BRANCH  21  27
ATOM     27  C   UNL A   1      31.789  28.391  26.578  1.00  0.00     0.034 C 
ATOM     28  C   UNL A   1      33.201  28.360  27.148  1.00  0.00     0.009 C 
ENDBRANCH  21  27
ENDBRANCH  18  20
ENDBRANCH   8  18
ENDBRANCH   6   7
ENDBRANCH   3   6
ENDBRANCH   1   2
BRANCH   1  29
ATOM     29  C   UNL A   1      38.354  24.064  26.461  1.00  0.00     0.042 C 
BRANCH  29  30
ATOM     30  C   UNL A   1      39.610  23.343  26.945  1.00  0.00     0.118 C 
BRANCH  30  31
ATOM     31  N   UNL A   1      40.785  23.674  26.155  1.00  0.00    -0.352 N 
ATOM     32  C   UNL A   1      41.606  24.774  26.195  1.00  0.00     0.251 C 
ATOM     33  H   UNL A   1      41.032  23.001  25.482  1.00  0.00     0.163 HD
ATOM     34  O   UNL A   1      42.444  24.917  25.306  1.00  0.00    -0.269 OA
BRANCH  32  35
ATOM     35  C   UNL A   1      41.498  25.794  27.267  1.00  0.00     0.039 A 
ATOM     36  C   UNL A   1      40.725  25.490  28.396  1.00  0.00     0.014 A 
ATOM     37  C   UNL A   1      42.069  27.065  27.145  1.00  0.00     0.014 A 
ATOM     38  C   UNL A   1      40.566  26.433  29.415  1.00  0.00     0.010 A 
ATOM     39  C   UNL A   1      41.938  27.996  28.180  1.00  0.00     0.010 A 
ATOM     40  C   UNL A   1      41.184  27.689  29.322  1.00  0.00    -0.014 A 
BRANCH  40  41
ATOM     41  C   UNL A   1      41.036  28.692  30.406  1.00  0.00     0.031 A 
ATOM     42  C   UNL A   1      41.959  28.672  31.591  1.00  0.00     0.074 A 
ATOM     43  C   UNL A   1      40.042  29.597  30.353  1.00  0.00     0.049 A 
ATOM     44  N   UNL A   1      41.915  29.392  32.683  1.00  0.00    -0.248 NA
ATOM     45  C   UNL A   1      43.067  27.706  31.547  1.00  0.00     0.031 C 
ATOM     46  C   UNL A   1      39.062  29.715  29.274  1.00  0.00     0.029 A 
ATOM     47  N   UNL A   1      39.689  30.585  31.237  1.00  0.00    -0.354 N 
ATOM     48  C   UNL A   1      42.958  28.937  33.478  1.00  0.00     0.074 A 
ATOM     49  C   UNL A   1      43.631  27.892  32.734  1.00  0.00     0.031 C 
ATOM     50  C   UNL A   1      38.221  30.725  29.556  1.00  0.00     0.029 A 
ATOM     51  C   UNL A   1      38.593  31.310  30.841  1.00  0.00     0.049 A 
ATOM     52  H   UNL A   1      40.176  30.758  32.075  1.00  0.00     0.167 HD
ATOM     53  C   UNL A   1      43.317  29.342  34.720  1.00  0.00     0.037 A 
ATOM     54  C   UNL A   1      37.952  32.326  31.449  1.00  0.00     0.037 A 
ATOM     55  C   UNL A   1      42.688  30.408  35.452  1.00  0.00     0.049 A 
ATOM     56  C   UNL A   1      38.425  32.823  32.781  1.00  0.00     0.074 A 
ATOM     57  C   UNL A   1      42.998  30.894  36.711  1.00  0.00     0.029 A 
ATOM     58  N   UNL A   1      41.628  31.168  34.982  1.00  0.00    -0.354 N 
ATOM     59  N   UNL A   1      39.403  32.370  33.526  1.00  0.00    -0.248 NA
ATOM     60  C   UNL A   1      37.705  33.968  33.357  1.00  0.00     0.031 C 
ATOM     61  C   UNL A   1      42.128  31.954  36.999  1.00  0.00     0.029 A 
ATOM     62  C   UNL A   1      41.278  32.125  35.919  1.00  0.00     0.049 A 
ATOM     63  H   UNL A   1      41.190  31.044  34.109  1.00  0.00     0.167 HD
ATOM     64  C   UNL A   1      39.414  33.169  34.663  1.00  0.00     0.074 A 
ATOM     65  C   UNL A   1      38.352  34.142  34.504  1.00  0.00     0.031 C 
ATOM     66  C   UNL A   1      40.226  33.092  35.744  1.00  0.00     0.037 A 
BRANCH  53  67
ATOM     67  C   UNL A   1      44.443  28.594  35.364  1.00  0.00     0.058 A 
ATOM     68  C   UNL A   1      45.776  28.993  35.198  1.00  0.00     0.135 A 
ATOM     69  C   UNL A   1      44.184  27.443  36.125  1.00  0.00     0.135 A 
ATOM     70  F   UNL A   1      46.068  30.077  34.462  1.00  0.00    -0.206 F 
ATOM     71  C   UNL A   1      46.824  28.259  35.743  1.00  0.00     0.059 A 
ATOM     72  C   UNL A   1      45.216  26.697  36.682  1.00  0.00     0.059 A 
ATOM     73  F   UNL A   1      42.924  27.019  36.300  1.00  0.00    -0.206 F 
ATOM     74  C   UNL A   1      46.535  27.102  36.468  1.00  0.00     0.060 A 
BRANCH  74  75
ATOM     75  S   UNL A   1      47.880  26.104  37.144  1.00  0.00     0.124 S 
ATOM     76  O   UNL A   1      48.307  26.923  38.273  1.00  0.00    -0.237 OA
ATOM     77  O   UNL A   1      47.219  24.849  37.492  1.00  0.00    -0.237 OA
ATOM     78  O   UNL A   1      48.816  26.025  36.028  1.00  0.00    -0.744 OA
ENDBRANCH  74  75
ENDBRANCH  53  67
BRANCH  54  79
ATOM     79  C   UNL A   1      36.780  32.939  30.782  1.00  0.00     0.058 A 
ATOM     80  C   UNL A   1      35.481  32.674  31.234  1.00  0.00     0.135 A 
ATOM     81  C   UNL A   1      36.945  33.846  29.728  1.00  0.00     0.135 A 
ATOM     82  F   UNL A   1      35.284  31.811  32.243  1.00  0.00    -0.206 F 
ATOM     83  C   UNL A   1      34.375  33.298  30.668  1.00  0.00     0.059 A 
ATOM     84  C   UNL A   1      35.855  34.487  29.149  1.00  0.00     0.059 A 
ATOM     85  F   UNL A   1      38.174  34.134  29.274  1.00  0.00    -0.206 F 
ATOM     86  C   UNL A   1      34.574  34.207  29.627  1.00  0.00     0.060 A 
BRANCH  86  87
ATOM     87  S   UNL A   1      33.162  35.105  28.945  1.00  0.00     0.124 S 
ATOM     88  O   UNL A   1      33.808  36.287  28.387  1.00  0.00    -0.237 OA
ATOM     89  O   UNL A   1      32.615  34.160  27.976  1.00  0.00    -0.237 OA
ATOM     90  O   UNL A   1      32.329  35.332  30.122  1.00  0.00    -0.744 OA
ENDBRANCH  86  87
ENDBRANCH  54  79
BRANCH  66  91
ATOM     91  C   UNL A   1      39.996  34.090  36.837  1.00  0.00     0.058 A 
ATOM     92  C   UNL A   1      40.657  35.327  36.836  1.00  0.00     0.135 A 
ATOM     93  C   UNL A   1      39.098  33.820  37.880  1.00  0.00     0.135 A 
ATOM     94  F   UNL A   1      41.528  35.624  35.859  1.00  0.00    -0.206 F 
ATOM     95  C   UNL A   1      40.443  36.264  37.841  1.00  0.00     0.059 A 
ATOM     96  C   UNL A   1      38.868  34.744  38.895  1.00  0.00     0.059 A 
ATOM     97  F   UNL A   1      38.447  32.648  37.923  1.00  0.00    -0.206 F 
ATOM     98  C   UNL A   1      39.553  35.961  38.871  1.00  0.00     0.060 A 
BRANCH  98  99
ATOM     99  S   UNL A   1      39.250  37.175  40.173  1.00  0.00     0.124 S 
ATOM    100  O   UNL A   1      40.611  37.557  40.538  1.00  0.00    -0.237 OA
ATOM    101  O   UNL A   1      38.468  38.202  39.490  1.00  0.00    -0.237 OA
ATOM    102  O   UNL A   1      38.519  36.406  41.175  1.00  0.00    -0.744 OA
ENDBRANCH  98  99
ENDBRANCH  66  91
ENDBRANCH  40  41
ENDBRANCH  32  35
ENDBRANCH  30  31
ENDBRANCH  29  30
ENDBRANCH   1  29
TORSDOF 17
ENDMDL
MODEL 2
REMARK VINA RESULT:     -12.9      6.183     11.372
REMARK SMILES CCc1cc(C(=O)c2[nH]c3cc(Cl)ccc3c2CC(=O)NCCCNC(=O)c2ccc(-c3c4nc(c(-c5c(F)cc(S(=O)(=O)[O-])cc5F)c5ccc([nH]5)c(-c5c(F)cc(S(=O)(=O)[O-])cc5F)c5nc(c(-c6c(F)cc(S(=O)(=O)[O-])cc6F)c6ccc3[nH]6)C=C5)C=C4)cc2)ncc1Cl
REMARK SMILES IDX 22 1 21 2 19 3 20 4 18 6 17 7 8 8 9 9 10 10 16 12 11 13
REMARK SMILES IDX 15 14 12 15 14 16 13 17 6 18 7 19 5 20 3 21 4 22 96 23 95 24
REMARK SMILES IDX 97 25 94 26 2 27 1 28 23 29 24 30 25 31 26 32 27 34 28 35
REMARK SMILES IDX 29 36 93 37 30 38 92 39 31 40 32 41 33 42 86 43 34 44 91 45
REMARK SMILES IDX 85 46 87 47 35 48 90 49 84 50 83 51 36 53 70 54 49 55 69 56
REMARK SMILES IDX 50 57 53 58 68 59 88 60 51 61 52 62 67 64 89 65 54 66 37 67
REMARK SMILES IDX 38 68 47 69 39 70 40 71 46 72 48 73 41 74 42 75 43 76 44 77
REMARK SMILES IDX 45 78 71 79 72 80 81 81 73 82 74 83 80 84 82 85 75 86 76 87
REMARK SMILES IDX 77 88 78 89 79 90 55 91 56 92 65 93 57 94 58 95 64 96 66 97
REMARK SMILES IDX 59 98 60 99 61 100 62 101 63 102
REMARK H PARENT 21 5 9 11 25 33 87 52 53 63
REMARK Flexibility Score: inf
ROOT
ATOM      1  C   UNL A   1      33.288  29.756  26.007  1.00  0.00     0.117 C 
ENDROOT
BRANCH   1   2
ATOM      2  N   UNL A   1      32.350  28.728  26.418  1.00  0.00    -0.356 N 
ATOM      3  C   UNL A   1      32.509  27.373  26.472  1.00  0.00     0.224 C 
ATOM      4  O   UNL A   1      31.628  26.703  27.020  1.00  0.00    -0.275 OA
ATOM      5  H   UNL A   1      31.466  29.057  26.700  1.00  0.00     0.163 HD
BRANCH   3   6
ATOM      6  C   UNL A   1      33.783  26.714  25.968  1.00  0.00     0.138 C 
BRANCH   6   7
ATOM      7  C   UNL A   1      33.565  25.658  24.924  1.00  0.00    -0.002 A 
ATOM      8  C   UNL A   1      33.155  25.838  23.607  1.00  0.00     0.093 A 
ATOM      9  N   UNL A   1      33.211  24.612  22.985  1.00  0.00    -0.351 N 
ATOM     10  C   UNL A   1      33.464  23.620  23.900  1.00  0.00     0.048 A 
ATOM     11  H   UNL A   1      33.087  24.467  22.019  1.00  0.00     0.167 HD
ATOM     12  C   UNL A   1      33.693  24.242  25.127  1.00  0.00     0.004 A 
ATOM     13  C   UNL A   1      33.527  22.232  23.726  1.00  0.00     0.047 A 
ATOM     14  C   UNL A   1      34.002  23.433  26.242  1.00  0.00     0.012 A 
ATOM     15  C   UNL A   1      33.825  21.459  24.850  1.00  0.00     0.043 A 
ATOM     16  C   UNL A   1      34.062  22.043  26.090  1.00  0.00     0.021 A 
ATOM     17  Cl  UNL A   1      33.897  19.745  24.699  1.00  0.00    -0.084 Cl
BRANCH   8  18
ATOM     18  C   UNL A   1      32.793  27.058  22.907  1.00  0.00     0.227 C 
ATOM     19  O   UNL A   1      33.620  27.686  22.259  1.00  0.00    -0.285 OA
BRANCH  18  20
ATOM     20  C   UNL A   1      31.348  27.505  22.971  1.00  0.00     0.113 A 
ATOM     21  C   UNL A   1      29.596  29.165  22.663  1.00  0.00    -0.026 A 
ATOM     22  C   UNL A   1      30.945  28.777  22.554  1.00  0.00     0.037 A 
ATOM     23  C   UNL A   1      28.690  28.232  23.181  1.00  0.00     0.062 A 
ATOM     24  C   UNL A   1      29.174  26.987  23.569  1.00  0.00     0.132 A 
ATOM     25  Cl  UNL A   1      27.007  28.551  23.360  1.00  0.00    -0.082 Cl
ATOM     26  N   UNL A   1      30.470  26.608  23.483  1.00  0.00    -0.251 NA
BRANCH  21  27
ATOM     27  C   UNL A   1      29.210  30.570  22.258  1.00  0.00     0.034 C 
ATOM     28  C   UNL A   1      28.171  30.607  21.144  1.00  0.00     0.009 C 
ENDBRANCH  21  27
ENDBRANCH  18  20
ENDBRANCH   8  18
ENDBRANCH   6   7
ENDBRANCH   3   6
ENDBRANCH   1   2
BRANCH   1  29
ATOM     29  C   UNL A   1      33.724  30.682  27.141  1.00  0.00     0.042 C 
BRANCH  29  30
ATOM     30  C   UNL A   1      35.032  30.297  27.829  1.00  0.00     0.118 C 
BRANCH  30  31
ATOM     31  N   UNL A   1      35.101  30.770  29.202  1.00  0.00    -0.352 N 
ATOM     32  C   UNL A   1      36.123  30.709  30.117  1.00  0.00     0.251 C 
ATOM     33  H   UNL A   1      34.282  31.206  29.530  1.00  0.00     0.163 HD
ATOM     34  O   UNL A   1      35.891  31.025  31.283  1.00  0.00    -0.269 OA
BRANCH  32  35
ATOM     35  C   UNL A   1      37.487  30.262  29.740  1.00  0.00     0.039 A 
ATOM     36  C   UNL A   1      38.375  29.908  30.764  1.00  0.00     0.014 A 
ATOM     37  C   UNL A   1      37.930  30.266  28.414  1.00  0.00     0.014 A 
ATOM     38  C   UNL A   1      39.682  29.514  30.459  1.00  0.00     0.010 A 
ATOM     39  C   UNL A   1      39.226  29.839  28.106  1.00  0.00     0.010 A 
ATOM     40  C   UNL A   1      40.112  29.462  29.126  1.00  0.00    -0.014 A 
BRANCH  40  41
ATOM     41  C   UNL A   1      41.491  29.029  28.788  1.00  0.00     0.031 A 
ATOM     42  C   UNL A   1      42.625  30.013  28.812  1.00  0.00     0.074 A 
ATOM     43  C   UNL A   1      41.723  27.757  28.413  1.00  0.00     0.049 A 
ATOM     44  N   UNL A   1      43.869  29.848  28.443  1.00  0.00    -0.248 NA
ATOM     45  C   UNL A   1      42.314  31.364  29.304  1.00  0.00     0.031 C 
ATOM     46  C   UNL A   1      40.712  26.704  28.324  1.00  0.00     0.029 A 
ATOM     47  N   UNL A   1      42.886  27.140  28.027  1.00  0.00    -0.354 N 
ATOM     48  C   UNL A   1      44.481  31.082  28.610  1.00  0.00     0.074 A 
ATOM     49  C   UNL A   1      43.475  31.983  29.135  1.00  0.00     0.031 C 
ATOM     50  C   UNL A   1      41.301  25.566  27.916  1.00  0.00     0.029 A 
ATOM     51  C   UNL A   1      42.723  25.818  27.699  1.00  0.00     0.049 A 
ATOM     52  H   UNL A   1      43.754  27.602  27.991  1.00  0.00     0.167 HD
ATOM     53  C   UNL A   1      45.760  31.439  28.341  1.00  0.00     0.037 A 
ATOM     54  C   UNL A   1      43.617  24.910  27.263  1.00  0.00     0.037 A 
ATOM     55  C   UNL A   1      46.781  30.546  27.862  1.00  0.00     0.049 A 
ATOM     56  C   UNL A   1      45.049  25.302  27.062  1.00  0.00     0.074 A 
ATOM     57  C   UNL A   1      48.107  30.821  27.577  1.00  0.00     0.029 A 
ATOM     58  N   UNL A   1      46.592  29.195  27.615  1.00  0.00    -0.354 N 
ATOM     59  N   UNL A   1      45.607  26.478  27.210  1.00  0.00    -0.248 NA
ATOM     60  C   UNL A   1      45.973  24.243  26.631  1.00  0.00     0.031 C 
ATOM     61  C   UNL A   1      48.723  29.632  27.162  1.00  0.00     0.029 A 
ATOM     62  C   UNL A   1      47.778  28.620  27.191  1.00  0.00     0.049 A 
ATOM     63  H   UNL A   1      45.739  28.716  27.726  1.00  0.00     0.167 HD
ATOM     64  C   UNL A   1      46.946  26.306  26.885  1.00  0.00     0.074 A 
ATOM     65  C   UNL A   1      47.120  24.908  26.544  1.00  0.00     0.031 C 
ATOM     66  C   UNL A   1      47.938  27.227  26.863  1.00  0.00     0.037 A 
BRANCH  53  67
ATOM     67  C   UNL A   1      46.105  32.882  28.544  1.00  0.00     0.058 A 
ATOM     68  C   UNL A   1      46.569  33.355  29.779  1.00  0.00     0.135 A 
ATOM     69  C   UNL A   1      45.934  33.805  27.501  1.00  0.00     0.135 A 
ATOM     70  F   UNL A   1      46.730  32.509  30.809  1.00  0.00    -0.206 F 
ATOM     71  C   UNL A   1      46.826  34.707  29.986  1.00  0.00     0.059 A 
ATOM     72  C   UNL A   1      46.189  35.159  27.684  1.00  0.00     0.059 A 
ATOM     73  F   UNL A   1      45.481  33.397  26.306  1.00  0.00    -0.206 F 
ATOM     74  C   UNL A   1      46.616  35.603  28.937  1.00  0.00     0.060 A 
BRANCH  74  75
ATOM     75  S   UNL A   1      46.895  37.369  29.194  1.00  0.00     0.124 S 
ATOM     76  O   UNL A   1      48.245  37.527  28.664  1.00  0.00    -0.237 OA
ATOM     77  O   UNL A   1      45.834  37.991  28.407  1.00  0.00    -0.237 OA
ATOM     78  O   UNL A   1      46.762  37.511  30.640  1.00  0.00    -0.744 OA
ENDBRANCH  74  75
ENDBRANCH  53  67
BRANCH  54  79
ATOM     79  C   UNL A   1      43.162  23.528  26.986  1.00  0.00     0.058 A 
ATOM     80  C   UNL A   1      42.951  23.094  25.671  1.00  0.00     0.135 A 
ATOM     81  C   UNL A   1      42.993  22.605  28.025  1.00  0.00     0.135 A 
ATOM     82  F   UNL A   1      43.104  23.951  24.649  1.00  0.00    -0.206 F 
ATOM     83  C   UNL A   1      42.596  21.780  25.390  1.00  0.00     0.059 A 
ATOM     84  C   UNL A   1      42.643  21.283  27.769  1.00  0.00     0.059 A 
ATOM     85  F   UNL A   1      43.195  22.979  29.298  1.00  0.00    -0.206 F 
ATOM     86  C   UNL A   1      42.449  20.880  26.447  1.00  0.00     0.060 A 
BRANCH  86  87
ATOM     87  S   UNL A   1      42.088  19.144  26.098  1.00  0.00     0.124 S 
ATOM     88  O   UNL A   1      42.975  18.881  24.972  1.00  0.00    -0.237 OA
ATOM     89  O   UNL A   1      42.436  18.483  27.352  1.00  0.00    -0.237 OA
ATOM     90  O   UNL A   1      40.661  19.170  25.792  1.00  0.00    -0.744 OA
ENDBRANCH  86  87
ENDBRANCH  54  79
BRANCH  66  91
ATOM     91  C   UNL A   1      49.298  26.750  26.457  1.00  0.00     0.058 A 
ATOM     92  C   UNL A   1      50.161  26.151  27.388  1.00  0.00     0.135 A 
ATOM     93  C   UNL A   1      49.738  26.874  25.131  1.00  0.00     0.135 A 
ATOM     94  F   UNL A   1      49.782  26.018  28.668  1.00  0.00    -0.206 F 
ATOM     95  C   UNL A   1      51.422  25.696  27.019  1.00  0.00     0.059 A 
ATOM     96  C   UNL A   1      50.995  26.424  24.740  1.00  0.00     0.059 A 
ATOM     97  F   UNL A   1      48.947  27.443  24.208  1.00  0.00    -0.206 F 
ATOM     98  C   UNL A   1      51.835  25.844  25.694  1.00  0.00     0.060 A 
BRANCH  98  99
ATOM     99  S   UNL A   1      53.462  25.241  25.195  1.00  0.00     0.124 S 
ATOM    100  O   UNL A   1      53.327  23.807  25.429  1.00  0.00    -0.237 OA
ATOM    101  O   UNL A   1      53.548  25.648  23.795  1.00  0.00    -0.237 OA
ATOM    102  O   UNL A   1      54.364  25.948  26.100  1.00  0.00    -0.744 OA
ENDBRANCH  98  99
ENDBRANCH  66  91
ENDBRANCH  40  41
ENDBRANCH  32  35
ENDBRANCH  30  31
ENDBRANCH  29  30
ENDBRANCH   1  29
TORSDOF 17
ENDMDL
MODEL 3
REMARK VINA RESULT:     -12.9      6.157     11.781
REMARK SMILES CCc1cc(C(=O)c2[nH]c3cc(Cl)ccc3c2CC(=O)NCCCNC(=O)c2ccc(-c3c4nc(c(-c5c(F)cc(S(=O)(=O)[O-])cc5F)c5ccc([nH]5)c(-c5c(F)cc(S(=O)(=O)[O-])cc5F)c5nc(c(-c6c(F)cc(S(=O)(=O)[O-])cc6F)c6ccc3[nH]6)C=C5)C=C4)cc2)ncc1Cl
REMARK SMILES IDX 22 1 21 2 19 3 20 4 18 6 17 7 8 8 9 9 10 10 16 12 11 13
REMARK SMILES IDX 15 14 12 15 14 16 13 17 6 18 7 19 5 20 3 21 4 22 96 23 95 24
REMARK SMILES IDX 97 25 94 26 2 27 1 28 23 29 24 30 25 31 26 32 27 34 28 35
REMARK SMILES IDX 29 36 93 37 30 38 92 39 31 40 32 41 33 42 86 43 34 44 91 45
REMARK SMILES IDX 85 46 87 47 35 48 90 49 84 50 83 51 36 53 70 54 49 55 69 56
REMARK SMILES IDX 50 57 53 58 68 59 88 60 51 61 52 62 67 64 89 65 54 66 37 67
REMARK SMILES IDX 38 68 47 69 39 70 40 71 46 72 48 73 41 74 42 75 43 76 44 77
REMARK SMILES IDX 45 78 71 79 72 80 81 81 73 82 74 83 80 84 82 85 75 86 76 87
REMARK SMILES IDX 77 88 78 89 79 90 55 91 56 92 65 93 57 94 58 95 64 96 66 97
REMARK SMILES IDX 59 98 60 99 61 100 62 101 63 102
REMARK H PARENT 21 5 9 11 25 33 87 52 53 63
REMARK Flexibility Score: inf
ROOT
ATOM      1  C   UNL A   1      34.657  29.319  26.757  1.00  0.00     0.117 C 
ENDROOT
BRANCH   1   2
ATOM      2  N   UNL A   1      33.774  28.172  26.865  1.00  0.00    -0.356 N 
ATOM      3  C   UNL A   1      33.315  27.330  25.894  1.00  0.00     0.224 C 
ATOM      4  O   UNL A   1      32.709  26.312  26.242  1.00  0.00    -0.275 OA
ATOM      5  H   UNL A   1      33.460  27.970  27.777  1.00  0.00     0.163 HD
BRANCH   3   6
ATOM      6  C   UNL A   1      33.631  27.579  24.428  1.00  0.00     0.138 C 
BRANCH   6   7
ATOM      7  C   UNL A   1      32.425  27.698  23.543  1.00  0.00    -0.002 A 
ATOM      8  C   UNL A   1      32.102  26.916  22.439  1.00  0.00     0.093 A 
ATOM      9  N   UNL A   1      30.852  27.300  22.012  1.00  0.00    -0.351 N 
ATOM     10  C   UNL A   1      30.438  28.424  22.685  1.00  0.00     0.048 A 
ATOM     11  H   UNL A   1      30.327  26.834  21.320  1.00  0.00     0.167 HD
ATOM     12  C   UNL A   1      31.402  28.699  23.654  1.00  0.00     0.004 A 
ATOM     13  C   UNL A   1      29.281  29.195  22.520  1.00  0.00     0.047 A 
ATOM     14  C   UNL A   1      31.199  29.806  24.506  1.00  0.00     0.012 A 
ATOM     15  C   UNL A   1      29.114  30.289  23.372  1.00  0.00     0.043 A 
ATOM     16  C   UNL A   1      30.052  30.594  24.352  1.00  0.00     0.021 A 
ATOM     17  Cl  UNL A   1      27.719  31.284  23.201  1.00  0.00    -0.084 Cl
BRANCH   8  18
ATOM     18  C   UNL A   1      32.840  25.825  21.827  1.00  0.00     0.227 C 
ATOM     19  O   UNL A   1      33.284  25.920  20.690  1.00  0.00    -0.285 OA
BRANCH  18  20
ATOM     20  C   UNL A   1      33.079  24.582  22.657  1.00  0.00     0.113 A 
ATOM     21  C   UNL A   1      34.492  23.149  24.025  1.00  0.00    -0.026 A 
ATOM     22  C   UNL A   1      34.299  24.336  23.291  1.00  0.00     0.037 A 
ATOM     23  C   UNL A   1      33.420  22.253  24.104  1.00  0.00     0.062 A 
ATOM     24  C   UNL A   1      32.238  22.576  23.445  1.00  0.00     0.132 A 
ATOM     25  Cl  UNL A   1      33.494  20.769  24.976  1.00  0.00    -0.082 Cl
ATOM     26  N   UNL A   1      32.047  23.706  22.725  1.00  0.00    -0.251 NA
BRANCH  21  27
ATOM     27  C   UNL A   1      35.846  22.892  24.647  1.00  0.00     0.034 C 
ATOM     28  C   UNL A   1      36.878  22.391  23.646  1.00  0.00     0.009 C 
ENDBRANCH  21  27
ENDBRANCH  18  20
ENDBRANCH   8  18
ENDBRANCH   6   7
ENDBRANCH   3   6
ENDBRANCH   1   2
BRANCH   1  29
ATOM     29  C   UNL A   1      34.233  30.506  27.618  1.00  0.00     0.042 C 
BRANCH  29  30
ATOM     30  C   UNL A   1      35.378  31.270  28.281  1.00  0.00     0.118 C 
BRANCH  30  31
ATOM     31  N   UNL A   1      35.342  31.181  29.732  1.00  0.00    -0.352 N 
ATOM     32  C   UNL A   1      36.250  30.653  30.616  1.00  0.00     0.251 C 
ATOM     33  H   UNL A   1      34.536  31.562  30.149  1.00  0.00     0.163 HD
ATOM     34  O   UNL A   1      35.924  30.535  31.797  1.00  0.00    -0.269 OA
BRANCH  32  35
ATOM     35  C   UNL A   1      37.599  30.211  30.184  1.00  0.00     0.039 A 
ATOM     36  C   UNL A   1      38.554  29.934  31.172  1.00  0.00     0.014 A 
ATOM     37  C   UNL A   1      37.964  30.148  28.836  1.00  0.00     0.014 A 
ATOM     38  C   UNL A   1      39.849  29.548  30.812  1.00  0.00     0.010 A 
ATOM     39  C   UNL A   1      39.249  29.730  28.476  1.00  0.00     0.010 A 
ATOM     40  C   UNL A   1      40.202  29.429  29.460  1.00  0.00    -0.014 A 
BRANCH  40  41
ATOM     41  C   UNL A   1      41.568  29.004  29.066  1.00  0.00     0.031 A 
ATOM     42  C   UNL A   1      42.703  29.987  29.076  1.00  0.00     0.074 A 
ATOM     43  C   UNL A   1      41.786  27.741  28.653  1.00  0.00     0.049 A 
ATOM     44  N   UNL A   1      43.934  29.830  28.660  1.00  0.00    -0.248 NA
ATOM     45  C   UNL A   1      42.410  31.325  29.610  1.00  0.00     0.031 C 
ATOM     46  C   UNL A   1      40.772  26.690  28.572  1.00  0.00     0.029 A 
ATOM     47  N   UNL A   1      42.935  27.133  28.213  1.00  0.00    -0.354 N 
ATOM     48  C   UNL A   1      44.552  31.060  28.836  1.00  0.00     0.074 A 
ATOM     49  C   UNL A   1      43.566  31.948  29.417  1.00  0.00     0.031 C 
ATOM     50  C   UNL A   1      41.346  25.563  28.117  1.00  0.00     0.029 A 
ATOM     51  C   UNL A   1      42.760  25.820  27.858  1.00  0.00     0.049 A 
ATOM     52  H   UNL A   1      43.802  27.596  28.158  1.00  0.00     0.167 HD
ATOM     53  C   UNL A   1      45.822  31.424  28.533  1.00  0.00     0.037 A 
ATOM     54  C   UNL A   1      43.637  24.922  27.370  1.00  0.00     0.037 A 
ATOM     55  C   UNL A   1      46.825  30.542  27.998  1.00  0.00     0.049 A 
ATOM     56  C   UNL A   1      45.062  25.319  27.130  1.00  0.00     0.074 A 
ATOM     57  C   UNL A   1      48.141  30.824  27.675  1.00  0.00     0.029 A 
ATOM     58  N   UNL A   1      46.626  29.198  27.725  1.00  0.00    -0.354 N 
ATOM     59  N   UNL A   1      45.626  26.491  27.288  1.00  0.00    -0.248 NA
ATOM     60  C   UNL A   1      45.970  24.271  26.644  1.00  0.00     0.031 C 
ATOM     61  C   UNL A   1      48.741  29.645  27.211  1.00  0.00     0.029 A 
ATOM     62  C   UNL A   1      47.797  28.633  27.247  1.00  0.00     0.049 A 
ATOM     63  H   UNL A   1      45.778  28.716  27.853  1.00  0.00     0.167 HD
ATOM     64  C   UNL A   1      46.953  26.326  26.914  1.00  0.00     0.074 A 
ATOM     65  C   UNL A   1      47.114  24.937  26.533  1.00  0.00     0.031 C 
ATOM     66  C   UNL A   1      47.945  27.248  26.880  1.00  0.00     0.037 A 
BRANCH  53  67
ATOM     67  C   UNL A   1      46.175  32.861  28.759  1.00  0.00     0.058 A 
ATOM     68  C   UNL A   1      46.001  33.823  27.756  1.00  0.00     0.135 A 
ATOM     69  C   UNL A   1      46.727  33.270  29.983  1.00  0.00     0.135 A 
ATOM     70  F   UNL A   1      45.494  33.471  26.564  1.00  0.00    -0.206 F 
ATOM     71  C   UNL A   1      46.391  35.145  27.946  1.00  0.00     0.059 A 
ATOM     72  C   UNL A   1      47.119  34.586  30.196  1.00  0.00     0.059 A 
ATOM     73  F   UNL A   1      46.921  32.379  30.967  1.00  0.00    -0.206 F 
ATOM     74  C   UNL A   1      46.966  35.513  29.163  1.00  0.00     0.060 A 
BRANCH  74  75
ATOM     75  S   UNL A   1      47.526  37.211  29.417  1.00  0.00     0.124 S 
ATOM     76  O   UNL A   1      47.599  37.275  30.873  1.00  0.00    -0.237 OA
ATOM     77  O   UNL A   1      48.809  37.245  28.721  1.00  0.00    -0.237 OA
ATOM     78  O   UNL A   1      46.463  37.998  28.801  1.00  0.00    -0.744 OA
ENDBRANCH  74  75
ENDBRANCH  53  67
BRANCH  54  79
ATOM     79  C   UNL A   1      43.172  23.548  27.076  1.00  0.00     0.058 A 
ATOM     80  C   UNL A   1      42.934  23.140  25.757  1.00  0.00     0.135 A 
ATOM     81  C   UNL A   1      43.020  22.605  28.100  1.00  0.00     0.135 A 
ATOM     82  F   UNL A   1      43.070  24.016  24.749  1.00  0.00    -0.206 F 
ATOM     83  C   UNL A   1      42.569  21.833  25.457  1.00  0.00     0.059 A 
ATOM     84  C   UNL A   1      42.661  21.290  27.825  1.00  0.00     0.059 A 
ATOM     85  F   UNL A   1      43.249  22.954  29.375  1.00  0.00    -0.206 F 
ATOM     86  C   UNL A   1      42.439  20.913  26.499  1.00  0.00     0.060 A 
BRANCH  86  87
ATOM     87  S   UNL A   1      42.064  19.186  26.124  1.00  0.00     0.124 S 
ATOM     88  O   UNL A   1      42.889  18.957  24.944  1.00  0.00    -0.237 OA
ATOM     89  O   UNL A   1      42.484  18.492  27.338  1.00  0.00    -0.237 OA
ATOM     90  O   UNL A   1      40.623  19.213  25.898  1.00  0.00    -0.744 OA
ENDBRANCH  86  87
ENDBRANCH  54  79
BRANCH  66  91
ATOM     91  C   UNL A   1      49.290  26.781  26.417  1.00  0.00     0.058 A 
ATOM     92  C   UNL A   1      50.174  26.140  27.298  1.00  0.00     0.135 A 
ATOM     93  C   UNL A   1      49.693  26.956  25.086  1.00  0.00     0.135 A 
ATOM     94  F   UNL A   1      49.831  25.957  28.583  1.00  0.00    -0.206 F 
ATOM     95  C   UNL A   1      51.422  25.694  26.876  1.00  0.00     0.059 A 
ATOM     96  C   UNL A   1      50.936  26.516  24.641  1.00  0.00     0.059 A 
ATOM     97  F   UNL A   1      48.881  27.567  24.210  1.00  0.00    -0.206 F 
ATOM     98  C   UNL A   1      51.798  25.893  25.547  1.00  0.00     0.060 A 
BRANCH  98  99
ATOM     99  S   UNL A   1      53.407  25.303  24.979  1.00  0.00     0.124 S 
ATOM    100  O   UNL A   1      54.316  26.122  25.773  1.00  0.00    -0.237 OA
ATOM    101  O   UNL A   1      53.375  23.883  25.320  1.00  0.00    -0.237 OA
ATOM    102  O   UNL A   1      53.377  25.595  23.549  1.00  0.00    -0.744 OA
ENDBRANCH  98  99
ENDBRANCH  66  91
ENDBRANCH  40  41
ENDBRANCH  32  35
ENDBRANCH  30  31
ENDBRANCH  29  30
ENDBRANCH   1  29
TORSDOF 17
ENDMDL
