MODEL 1
REMARK VINA RESULT:     -12.0      0.000      0.000
REMARK SMILES Cn1cccc1/C=C1/SC(=S)N([C@@H](CCC(N)=O)C(=O)NCCCNC(=O)c2ccc(-c3c4nc(c(-c5c(F)cc(S(=O)(=O)[O-])cc5F)c5ccc([nH]5)c(-c5c(F)cc(S(=O)(=O)[O-])cc5F)c5nc(c(-c6c(F)cc(S(=O)(=O)[O-])cc6F)c6ccc3[nH]6)C=C5)C=C4)cc2)C1=O
REMARK SMILES IDX 23 1 22 2 21 3 19 4 20 5 13 7 12 8 7 9 8 10 9 11 94 12 10 13
REMARK SMILES IDX 95 14 11 15 6 16 1 17 2 18 3 19 4 20 5 21 14 22 15 23 16 24
REMARK SMILES IDX 17 25 18 26 24 29 25 30 26 31 27 33 28 34 29 35 93 36 30 37
REMARK SMILES IDX 92 38 31 39 32 40 33 41 86 42 34 43 91 44 85 45 87 46 35 47
REMARK SMILES IDX 90 48 84 49 83 50 36 52 70 53 49 54 69 55 50 56 53 57 68 58
REMARK SMILES IDX 88 59 51 60 52 61 67 63 89 64 54 65 37 66 38 67 47 68 39 69
REMARK SMILES IDX 40 70 46 71 48 72 41 73 42 74 43 75 44 76 45 77 71 78 72 79
REMARK SMILES IDX 81 80 73 81 74 82 80 83 82 84 75 85 76 86 77 87 78 88 79 89
REMARK SMILES IDX 55 90 56 91 65 92 57 93 58 94 64 95 66 96 59 97 60 98 61 99
REMARK SMILES IDX 62 100 63 101
REMARK H PARENT 21 6 17 27 17 28 25 32 87 51 53 62
REMARK Flexibility Score: inf
ROOT
ATOM      1  C   UNL A   1      37.526  23.150  25.593  1.00  0.00     0.042 C 
ENDROOT
BRANCH   1   2
ATOM      2  C   UNL A   1      36.130  23.653  25.300  1.00  0.00     0.117 C 
BRANCH   2   3
ATOM      3  N   UNL A   1      35.742  23.524  23.920  1.00  0.00    -0.354 N 
ATOM      4  C   UNL A   1      34.568  23.100  23.382  1.00  0.00     0.243 C 
ATOM      5  O   UNL A   1      34.403  23.335  22.180  1.00  0.00    -0.273 OA
ATOM      6  H   UNL A   1      36.430  23.783  23.266  1.00  0.00     0.163 HD
BRANCH   4   7
ATOM      7  C   UNL A   1      33.506  22.290  24.164  1.00  0.00     0.181 C 
BRANCH   7   8
ATOM      8  N   UNL A   1      32.655  23.171  25.016  1.00  0.00    -0.280 N 
ATOM      9  C   UNL A   1      30.754  26.276  25.430  1.00  0.00     0.047 C 
ATOM     10  C   UNL A   1      31.291  25.048  25.534  1.00  0.00     0.082 C 
ATOM     11  S   UNL A   1      31.514  24.286  27.063  1.00  0.00    -0.054 SA
ATOM     12  C   UNL A   1      31.865  24.165  24.483  1.00  0.00     0.266 C 
ATOM     13  C   UNL A   1      32.607  23.074  26.401  1.00  0.00     0.149 C 
ATOM     14  O   UNL A   1      31.581  24.273  23.297  1.00  0.00    -0.268 OA
ATOM     15  S   UNL A   1      33.390  22.006  27.420  1.00  0.00    -0.052 S 
BRANCH   9  16
ATOM     16  C   UNL A   1      30.758  27.078  24.260  1.00  0.00     0.042 A 
ATOM     17  C   UNL A   1      33.205  27.794  24.316  1.00  0.00     0.149 C 
ATOM     18  N   UNL A   1      31.847  27.797  23.814  1.00  0.00    -0.351 N 
ATOM     19  C   UNL A   1      31.485  28.533  22.708  1.00  0.00     0.086 A 
ATOM     20  C   UNL A   1      30.207  28.172  22.352  1.00  0.00     0.020 A 
ATOM     21  C   UNL A   1      29.760  27.237  23.310  1.00  0.00     0.028 A 
ENDBRANCH   9  16
ENDBRANCH   7   8
BRANCH   7  22
ATOM     22  C   UNL A   1      32.897  21.003  23.541  1.00  0.00     0.045 C 
BRANCH  22  23
ATOM     23  C   UNL A   1      32.259  19.858  24.333  1.00  0.00     0.102 C 
BRANCH  23  24
ATOM     24  C   UNL A   1      33.225  18.895  24.987  1.00  0.00     0.217 C 
ATOM     25  N   UNL A   1      32.952  18.632  26.300  1.00  0.00    -0.370 N 
ATOM     26  O   UNL A   1      34.183  18.388  24.422  1.00  0.00    -0.275 OA
ATOM     27  H   UNL A   1      32.175  19.053  26.735  1.00  0.00     0.159 HD
ATOM     28  H   UNL A   1      33.532  18.022  26.811  1.00  0.00     0.159 HD
ENDBRANCH  23  24
ENDBRANCH  22  23
ENDBRANCH   7  22
ENDBRANCH   4   7
ENDBRANCH   2   3
ENDBRANCH   1   2
BRANCH   1  29
ATOM     29  C   UNL A   1      38.366  24.156  26.357  1.00  0.00     0.118 C 
BRANCH  29  30
ATOM     30  N   UNL A   1      39.803  23.913  26.218  1.00  0.00    -0.352 N 
ATOM     31  C   UNL A   1      40.875  24.626  26.701  1.00  0.00     0.251 C 
ATOM     32  H   UNL A   1      40.040  23.112  25.696  1.00  0.00     0.163 HD
ATOM     33  O   UNL A   1      42.011  24.336  26.334  1.00  0.00    -0.269 OA
BRANCH  31  34
ATOM     34  C   UNL A   1      40.654  25.755  27.631  1.00  0.00     0.039 A 
ATOM     35  C   UNL A   1      39.649  25.662  28.598  1.00  0.00     0.014 A 
ATOM     36  C   UNL A   1      41.463  26.889  27.572  1.00  0.00     0.014 A 
ATOM     37  C   UNL A   1      39.529  26.660  29.570  1.00  0.00     0.010 A 
ATOM     38  C   UNL A   1      41.417  27.821  28.598  1.00  0.00     0.010 A 
ATOM     39  C   UNL A   1      40.443  27.722  29.603  1.00  0.00    -0.014 A 
BRANCH  39  40
ATOM     40  C   UNL A   1      40.396  28.785  30.636  1.00  0.00     0.031 A 
ATOM     41  C   UNL A   1      41.301  28.677  31.834  1.00  0.00     0.074 A 
ATOM     42  C   UNL A   1      39.477  29.766  30.560  1.00  0.00     0.049 A 
ATOM     43  N   UNL A   1      41.300  29.374  32.939  1.00  0.00    -0.248 NA
ATOM     44  C   UNL A   1      42.308  27.603  31.802  1.00  0.00     0.031 C 
ATOM     45  C   UNL A   1      38.512  29.948  29.472  1.00  0.00     0.029 A 
ATOM     46  N   UNL A   1      39.186  30.786  31.431  1.00  0.00    -0.354 N 
ATOM     47  C   UNL A   1      42.276  28.801  33.744  1.00  0.00     0.074 A 
ATOM     48  C   UNL A   1      42.805  27.661  33.027  1.00  0.00     0.031 C 
ATOM     49  C   UNL A   1      37.750  31.023  29.734  1.00  0.00     0.029 A 
ATOM     50  C   UNL A   1      38.141  31.582  31.023  1.00  0.00     0.049 A 
ATOM     51  H   UNL A   1      39.680  30.933  32.270  1.00  0.00     0.167 HD
ATOM     52  C   UNL A   1      42.714  29.202  34.960  1.00  0.00     0.037 A 
ATOM     53  C   UNL A   1      37.562  32.637  31.630  1.00  0.00     0.037 A 
ATOM     54  C   UNL A   1      42.217  30.366  35.641  1.00  0.00     0.049 A 
ATOM     55  C   UNL A   1      38.083  33.086  32.970  1.00  0.00     0.074 A 
ATOM     56  C   UNL A   1      42.633  30.904  36.847  1.00  0.00     0.029 A 
ATOM     57  N   UNL A   1      41.199  31.182  35.167  1.00  0.00    -0.354 N 
ATOM     58  N   UNL A   1      39.041  32.562  33.698  1.00  0.00    -0.248 NA
ATOM     59  C   UNL A   1      37.450  34.269  33.569  1.00  0.00     0.031 C 
ATOM     60  C   UNL A   1      41.845  32.028  37.115  1.00  0.00     0.029 A 
ATOM     61  C   UNL A   1      40.968  32.215  36.059  1.00  0.00     0.049 A 
ATOM     62  H   UNL A   1      40.713  31.045  34.322  1.00  0.00     0.167 HD
ATOM     63  C   UNL A   1      39.149  33.373  34.824  1.00  0.00     0.074 A 
ATOM     64  C   UNL A   1      38.159  34.421  34.679  1.00  0.00     0.031 C 
ATOM     65  C   UNL A   1      39.993  33.262  35.879  1.00  0.00     0.037 A 
BRANCH  52  66
ATOM     66  C   UNL A   1      43.789  28.380  35.615  1.00  0.00     0.058 A 
ATOM     67  C   UNL A   1      45.151  28.601  35.350  1.00  0.00     0.135 A 
ATOM     68  C   UNL A   1      43.457  27.353  36.514  1.00  0.00     0.135 A 
ATOM     69  F   UNL A   1      45.523  29.557  34.484  1.00  0.00    -0.206 F 
ATOM     70  C   UNL A   1      46.141  27.808  35.916  1.00  0.00     0.059 A 
ATOM     71  C   UNL A   1      44.434  26.567  37.118  1.00  0.00     0.059 A 
ATOM     72  F   UNL A   1      42.172  27.097  36.804  1.00  0.00    -0.206 F 
ATOM     73  C   UNL A   1      45.772  26.789  36.794  1.00  0.00     0.060 A 
BRANCH  73  74
ATOM     74  S   UNL A   1      47.069  25.756  37.508  1.00  0.00     0.124 S 
ATOM     75  O   UNL A   1      48.272  26.420  37.014  1.00  0.00    -0.237 OA
ATOM     76  O   UNL A   1      46.819  25.883  38.940  1.00  0.00    -0.237 OA
ATOM     77  O   UNL A   1      46.803  24.438  36.943  1.00  0.00    -0.744 OA
ENDBRANCH  73  74
ENDBRANCH  52  66
BRANCH  53  78
ATOM     78  C   UNL A   1      36.452  33.362  30.958  1.00  0.00     0.058 A 
ATOM     79  C   UNL A   1      35.135  33.254  31.433  1.00  0.00     0.135 A 
ATOM     80  C   UNL A   1      36.678  34.190  29.849  1.00  0.00     0.135 A 
ATOM     81  F   UNL A   1      34.867  32.470  32.489  1.00  0.00    -0.206 F 
ATOM     82  C   UNL A   1      34.082  33.928  30.825  1.00  0.00     0.059 A 
ATOM     83  C   UNL A   1      35.645  34.892  29.236  1.00  0.00     0.059 A 
ATOM     84  F   UNL A   1      37.922  34.342  29.366  1.00  0.00    -0.206 F 
ATOM     85  C   UNL A   1      34.346  34.747  29.727  1.00  0.00     0.060 A 
BRANCH  85  86
ATOM     86  S   UNL A   1      32.979  35.660  28.978  1.00  0.00     0.124 S 
ATOM     87  O   UNL A   1      33.682  36.751  28.315  1.00  0.00    -0.237 OA
ATOM     88  O   UNL A   1      32.383  34.656  28.101  1.00  0.00    -0.237 OA
ATOM     89  O   UNL A   1      32.162  36.040  30.127  1.00  0.00    -0.744 OA
ENDBRANCH  85  86
ENDBRANCH  53  78
BRANCH  65  90
ATOM     90  C   UNL A   1      39.925  34.323  36.939  1.00  0.00     0.058 A 
ATOM     91  C   UNL A   1      40.687  35.498  36.858  1.00  0.00     0.135 A 
ATOM     92  C   UNL A   1      39.020  34.197  38.006  1.00  0.00     0.135 A 
ATOM     93  F   UNL A   1      41.571  35.663  35.861  1.00  0.00    -0.206 F 
ATOM     94  C   UNL A   1      40.558  36.510  37.803  1.00  0.00     0.059 A 
ATOM     95  C   UNL A   1      38.858  35.206  38.948  1.00  0.00     0.059 A 
ATOM     96  F   UNL A   1      38.261  33.095  38.121  1.00  0.00    -0.206 F 
ATOM     97  C   UNL A   1      39.637  36.357  38.842  1.00  0.00     0.060 A 
BRANCH  97  98
ATOM     98  S   UNL A   1      39.436  37.704  40.026  1.00  0.00     0.124 S 
ATOM     99  O   UNL A   1      39.309  36.973  41.283  1.00  0.00    -0.237 OA
ATOM    100  O   UNL A   1      40.673  38.460  39.854  1.00  0.00    -0.237 OA
ATOM    101  O   UNL A   1      38.226  38.381  39.568  1.00  0.00    -0.744 OA
ENDBRANCH  97  98
ENDBRANCH  65  90
ENDBRANCH  39  40
ENDBRANCH  31  34
ENDBRANCH  29  30
ENDBRANCH   1  29
TORSDOF 18
ENDMDL
MODEL 2
REMARK VINA RESULT:     -12.0      6.575     12.137
REMARK SMILES Cn1cccc1/C=C1/SC(=S)N([C@@H](CCC(N)=O)C(=O)NCCCNC(=O)c2ccc(-c3c4nc(c(-c5c(F)cc(S(=O)(=O)[O-])cc5F)c5ccc([nH]5)c(-c5c(F)cc(S(=O)(=O)[O-])cc5F)c5nc(c(-c6c(F)cc(S(=O)(=O)[O-])cc6F)c6ccc3[nH]6)C=C5)C=C4)cc2)C1=O
REMARK SMILES IDX 23 1 22 2 21 3 19 4 20 5 13 7 12 8 7 9 8 10 9 11 94 12 10 13
REMARK SMILES IDX 95 14 11 15 6 16 1 17 2 18 3 19 4 20 5 21 14 22 15 23 16 24
REMARK SMILES IDX 17 25 18 26 24 29 25 30 26 31 27 33 28 34 29 35 93 36 30 37
REMARK SMILES IDX 92 38 31 39 32 40 33 41 86 42 34 43 91 44 85 45 87 46 35 47
REMARK SMILES IDX 90 48 84 49 83 50 36 52 70 53 49 54 69 55 50 56 53 57 68 58
REMARK SMILES IDX 88 59 51 60 52 61 67 63 89 64 54 65 37 66 38 67 47 68 39 69
REMARK SMILES IDX 40 70 46 71 48 72 41 73 42 74 43 75 44 76 45 77 71 78 72 79
REMARK SMILES IDX 81 80 73 81 74 82 80 83 82 84 75 85 76 86 77 87 78 88 79 89
REMARK SMILES IDX 55 90 56 91 65 92 57 93 58 94 64 95 66 96 59 97 60 98 61 99
REMARK SMILES IDX 62 100 63 101
REMARK H PARENT 21 6 17 27 17 28 25 32 87 51 53 62
REMARK Flexibility Score: inf
ROOT
ATOM      1  C   UNL A   1      33.557  29.169  27.025  1.00  0.00     0.042 C 
ENDROOT
BRANCH   1   2
ATOM      2  C   UNL A   1      33.270  27.834  26.375  1.00  0.00     0.117 C 
BRANCH   2   3
ATOM      3  N   UNL A   1      32.033  27.233  26.799  1.00  0.00    -0.354 N 
ATOM      4  C   UNL A   1      30.988  26.778  26.060  1.00  0.00     0.243 C 
ATOM      5  O   UNL A   1      30.167  26.070  26.654  1.00  0.00    -0.273 OA
ATOM      6  H   UNL A   1      31.928  27.136  27.773  1.00  0.00     0.163 HD
BRANCH   4   7
ATOM      7  C   UNL A   1      30.746  27.167  24.581  1.00  0.00     0.181 C 
BRANCH   7   8
ATOM      8  N   UNL A   1      31.707  26.484  23.665  1.00  0.00    -0.280 N 
ATOM      9  C   UNL A   1      33.478  23.441  22.653  1.00  0.00     0.047 C 
ATOM     10  C   UNL A   1      32.919  24.660  22.741  1.00  0.00     0.082 C 
ATOM     11  S   UNL A   1      33.615  26.032  21.967  1.00  0.00    -0.054 SA
ATOM     12  C   UNL A   1      31.739  25.114  23.527  1.00  0.00     0.266 C 
ATOM     13  C   UNL A   1      32.648  27.166  22.905  1.00  0.00     0.149 C 
ATOM     14  O   UNL A   1      30.865  24.351  23.915  1.00  0.00    -0.268 OA
ATOM     15  S   UNL A   1      32.923  28.809  22.776  1.00  0.00    -0.052 S 
BRANCH   9  16
ATOM     16  C   UNL A   1      33.127  22.316  23.444  1.00  0.00     0.042 A 
ATOM     17  C   UNL A   1      34.234  23.043  25.622  1.00  0.00     0.149 C 
ATOM     18  N   UNL A   1      33.526  22.130  24.750  1.00  0.00    -0.351 N 
ATOM     19  C   UNL A   1      33.089  20.900  25.189  1.00  0.00     0.086 A 
ATOM     20  C   UNL A   1      32.280  20.361  24.218  1.00  0.00     0.020 A 
ATOM     21  C   UNL A   1      32.280  21.263  23.132  1.00  0.00     0.028 A 
ENDBRANCH   9  16
ENDBRANCH   7   8
BRANCH   7  22
ATOM     22  C   UNL A   1      29.308  27.486  24.087  1.00  0.00     0.045 C 
BRANCH  22  23
ATOM     23  C   UNL A   1      28.952  28.534  23.029  1.00  0.00     0.102 C 
BRANCH  23  24
ATOM     24  C   UNL A   1      27.543  29.078  23.094  1.00  0.00     0.217 C 
ATOM     25  N   UNL A   1      26.582  28.128  23.299  1.00  0.00    -0.370 N 
ATOM     26  O   UNL A   1      27.253  30.260  22.966  1.00  0.00    -0.275 OA
ATOM     27  H   UNL A   1      26.839  27.183  23.397  1.00  0.00     0.159 HD
ATOM     28  H   UNL A   1      25.634  28.389  23.346  1.00  0.00     0.159 HD
ENDBRANCH  23  24
ENDBRANCH  22  23
ENDBRANCH   7  22
ENDBRANCH   4   7
ENDBRANCH   2   3
ENDBRANCH   1   2
BRANCH   1  29
ATOM     29  C   UNL A   1      34.988  29.291  27.514  1.00  0.00     0.118 C 
BRANCH  29  30
ATOM     30  N   UNL A   1      35.103  30.101  28.728  1.00  0.00    -0.352 N 
ATOM     31  C   UNL A   1      36.166  30.272  29.584  1.00  0.00     0.251 C 
ATOM     32  H   UNL A   1      34.291  30.602  28.971  1.00  0.00     0.163 HD
ATOM     33  O   UNL A   1      36.002  30.877  30.640  1.00  0.00    -0.269 OA
BRANCH  31  34
ATOM     34  C   UNL A   1      37.488  29.703  29.244  1.00  0.00     0.039 A 
ATOM     35  C   UNL A   1      37.971  29.819  27.937  1.00  0.00     0.014 A 
ATOM     36  C   UNL A   1      38.266  29.087  30.224  1.00  0.00     0.014 A 
ATOM     37  C   UNL A   1      39.277  29.413  27.643  1.00  0.00     0.010 A 
ATOM     38  C   UNL A   1      39.594  28.787  29.960  1.00  0.00     0.010 A 
ATOM     39  C   UNL A   1      40.112  28.938  28.664  1.00  0.00    -0.014 A 
BRANCH  39  40
ATOM     40  C   UNL A   1      41.518  28.535  28.424  1.00  0.00     0.031 A 
ATOM     41  C   UNL A   1      42.589  29.595  28.426  1.00  0.00     0.074 A 
ATOM     42  C   UNL A   1      41.815  27.264  28.094  1.00  0.00     0.049 A 
ATOM     43  N   UNL A   1      43.839  29.509  28.058  1.00  0.00    -0.248 NA
ATOM     44  C   UNL A   1      42.178  30.943  28.852  1.00  0.00     0.031 C 
ATOM     45  C   UNL A   1      40.856  26.160  28.010  1.00  0.00     0.029 A 
ATOM     46  N   UNL A   1      43.011  26.690  27.741  1.00  0.00    -0.354 N 
ATOM     47  C   UNL A   1      44.351  30.796  28.172  1.00  0.00     0.074 A 
ATOM     48  C   UNL A   1      43.262  31.653  28.583  1.00  0.00     0.031 C 
ATOM     49  C   UNL A   1      41.505  25.040  27.649  1.00  0.00     0.029 A 
ATOM     50  C   UNL A   1      42.913  25.353  27.433  1.00  0.00     0.049 A 
ATOM     51  H   UNL A   1      43.858  27.189  27.710  1.00  0.00     0.167 HD
ATOM     52  C   UNL A   1      45.622  31.222  27.979  1.00  0.00     0.037 A 
ATOM     53  C   UNL A   1      43.856  24.485  27.015  1.00  0.00     0.037 A 
ATOM     54  C   UNL A   1      46.708  30.351  27.620  1.00  0.00     0.049 A 
ATOM     55  C   UNL A   1      45.269  24.972  26.834  1.00  0.00     0.074 A 
ATOM     56  C   UNL A   1      48.046  30.662  27.462  1.00  0.00     0.029 A 
ATOM     57  N   UNL A   1      46.580  28.991  27.375  1.00  0.00    -0.354 N 
ATOM     58  N   UNL A   1      45.749  26.183  26.993  1.00  0.00    -0.248 NA
ATOM     59  C   UNL A   1      46.269  23.977  26.423  1.00  0.00     0.031 C 
ATOM     60  C   UNL A   1      48.723  29.495  27.093  1.00  0.00     0.029 A 
ATOM     61  C   UNL A   1      47.814  28.450  27.062  1.00  0.00     0.049 A 
ATOM     62  H   UNL A   1      45.736  28.486  27.419  1.00  0.00     0.167 HD
ATOM     63  C   UNL A   1      47.113  26.088  26.735  1.00  0.00     0.074 A 
ATOM     64  C   UNL A   1      47.380  24.702  26.411  1.00  0.00     0.031 C 
ATOM     65  C   UNL A   1      48.058  27.059  26.767  1.00  0.00     0.037 A 
BRANCH  52  66
ATOM     66  C   UNL A   1      45.896  32.688  28.165  1.00  0.00     0.058 A 
ATOM     67  C   UNL A   1      45.792  33.598  27.100  1.00  0.00     0.135 A 
ATOM     68  C   UNL A   1      46.275  33.191  29.420  1.00  0.00     0.135 A 
ATOM     69  F   UNL A   1      45.452  33.168  25.875  1.00  0.00    -0.206 F 
ATOM     70  C   UNL A   1      46.095  34.945  27.261  1.00  0.00     0.059 A 
ATOM     71  C   UNL A   1      46.552  34.541  29.612  1.00  0.00     0.059 A 
ATOM     72  F   UNL A   1      46.391  32.366  30.473  1.00  0.00    -0.206 F 
ATOM     73  C   UNL A   1      46.481  35.406  28.520  1.00  0.00     0.060 A 
BRANCH  73  74
ATOM     74  S   UNL A   1      46.888  37.155  28.710  1.00  0.00     0.124 S 
ATOM     75  O   UNL A   1      48.221  37.077  29.302  1.00  0.00    -0.237 OA
ATOM     76  O   UNL A   1      46.834  37.640  27.335  1.00  0.00    -0.237 OA
ATOM     77  O   UNL A   1      45.838  37.654  29.591  1.00  0.00    -0.744 OA
ENDBRANCH  73  74
ENDBRANCH  52  66
BRANCH  53  78
ATOM     78  C   UNL A   1      43.500  23.061  26.777  1.00  0.00     0.058 A 
ATOM     79  C   UNL A   1      43.186  22.213  27.851  1.00  0.00     0.135 A 
ATOM     80  C   UNL A   1      43.447  22.522  25.483  1.00  0.00     0.135 A 
ATOM     81  F   UNL A   1      43.228  22.682  29.107  1.00  0.00    -0.206 F 
ATOM     82  C   UNL A   1      42.844  20.879  27.652  1.00  0.00     0.059 A 
ATOM     83  C   UNL A   1      43.086  21.196  25.257  1.00  0.00     0.059 A 
ATOM     84  F   UNL A   1      43.721  23.294  24.420  1.00  0.00    -0.206 F 
ATOM     85  C   UNL A   1      42.795  20.380  26.351  1.00  0.00     0.060 A 
BRANCH  85  86
ATOM     86  S   UNL A   1      42.298  18.661  26.102  1.00  0.00     0.124 S 
ATOM     87  O   UNL A   1      43.227  18.235  25.061  1.00  0.00    -0.237 OA
ATOM     88  O   UNL A   1      42.512  18.084  27.426  1.00  0.00    -0.237 OA
ATOM     89  O   UNL A   1      40.901  18.773  25.694  1.00  0.00    -0.744 OA
ENDBRANCH  85  86
ENDBRANCH  53  78
BRANCH  65  90
ATOM     90  C   UNL A   1      49.479  26.657  26.496  1.00  0.00     0.058 A 
ATOM     91  C   UNL A   1      50.307  26.143  27.505  1.00  0.00     0.135 A 
ATOM     92  C   UNL A   1      49.988  26.707  25.188  1.00  0.00     0.135 A 
ATOM     93  F   UNL A   1      49.869  26.080  28.772  1.00  0.00    -0.206 F 
ATOM     94  C   UNL A   1      51.596  25.699  27.227  1.00  0.00     0.059 A 
ATOM     95  C   UNL A   1      51.264  26.247  24.884  1.00  0.00     0.059 A 
ATOM     96  F   UNL A   1      49.230  27.183  24.186  1.00  0.00    -0.206 F 
ATOM     97  C   UNL A   1      52.063  25.750  25.912  1.00  0.00     0.060 A 
BRANCH  97  98
ATOM     98  S   UNL A   1      53.714  25.114  25.555  1.00  0.00     0.124 S 
ATOM     99  O   UNL A   1      53.443  23.695  25.345  1.00  0.00    -0.237 OA
ATOM    100  O   UNL A   1      54.090  25.870  24.365  1.00  0.00    -0.237 OA
ATOM    101  O   UNL A   1      54.471  25.438  26.761  1.00  0.00    -0.744 OA
ENDBRANCH  97  98
ENDBRANCH  65  90
ENDBRANCH  39  40
ENDBRANCH  31  34
ENDBRANCH  29  30
ENDBRANCH   1  29
TORSDOF 18
ENDMDL
MODEL 3
REMARK VINA RESULT:     -11.9      5.091     10.769
REMARK SMILES Cn1cccc1/C=C1/SC(=S)N([C@@H](CCC(N)=O)C(=O)NCCCNC(=O)c2ccc(-c3c4nc(c(-c5c(F)cc(S(=O)(=O)[O-])cc5F)c5ccc([nH]5)c(-c5c(F)cc(S(=O)(=O)[O-])cc5F)c5nc(c(-c6c(F)cc(S(=O)(=O)[O-])cc6F)c6ccc3[nH]6)C=C5)C=C4)cc2)C1=O
REMARK SMILES IDX 23 1 22 2 21 3 19 4 20 5 13 7 12 8 7 9 8 10 9 11 94 12 10 13
REMARK SMILES IDX 95 14 11 15 6 16 1 17 2 18 3 19 4 20 5 21 14 22 15 23 16 24
REMARK SMILES IDX 17 25 18 26 24 29 25 30 26 31 27 33 28 34 29 35 93 36 30 37
REMARK SMILES IDX 92 38 31 39 32 40 33 41 86 42 34 43 91 44 85 45 87 46 35 47
REMARK SMILES IDX 90 48 84 49 83 50 36 52 70 53 49 54 69 55 50 56 53 57 68 58
REMARK SMILES IDX 88 59 51 60 52 61 67 63 89 64 54 65 37 66 38 67 47 68 39 69
REMARK SMILES IDX 40 70 46 71 48 72 41 73 42 74 43 75 44 76 45 77 71 78 72 79
REMARK SMILES IDX 81 80 73 81 74 82 80 83 82 84 75 85 76 86 77 87 78 88 79 89
REMARK SMILES IDX 55 90 56 91 65 92 57 93 58 94 64 95 66 96 59 97 60 98 61 99
REMARK SMILES IDX 62 100 63 101
REMARK H PARENT 21 6 17 27 17 28 25 32 87 51 53 62
REMARK Flexibility Score: inf
ROOT
ATOM      1  C   UNL A   1      32.614  28.429  26.957  1.00  0.00     0.042 C 
ENDROOT
BRANCH   1   2
ATOM      2  C   UNL A   1      32.574  26.946  26.660  1.00  0.00     0.117 C 
BRANCH   2   3
ATOM      3  N   UNL A   1      31.288  26.340  26.888  1.00  0.00    -0.354 N 
ATOM      4  C   UNL A   1      30.320  25.991  26.001  1.00  0.00     0.243 C 
ATOM      5  O   UNL A   1      29.429  25.250  26.430  1.00  0.00    -0.273 OA
ATOM      6  H   UNL A   1      31.078  26.148  27.831  1.00  0.00     0.163 HD
BRANCH   4   7
ATOM      7  C   UNL A   1      30.244  26.533  24.554  1.00  0.00     0.181 C 
BRANCH   7   8
ATOM      8  N   UNL A   1      31.355  26.008  23.707  1.00  0.00    -0.280 N 
ATOM      9  C   UNL A   1      33.602  23.259  22.801  1.00  0.00     0.047 C 
ATOM     10  C   UNL A   1      32.874  24.387  22.859  1.00  0.00     0.082 C 
ATOM     11  S   UNL A   1      33.428  25.858  22.154  1.00  0.00    -0.054 SA
ATOM     12  C   UNL A   1      31.588  24.659  23.557  1.00  0.00     0.266 C 
ATOM     13  C   UNL A   1      32.246  26.828  23.026  1.00  0.00     0.149 C 
ATOM     14  O   UNL A   1      30.802  23.774  23.870  1.00  0.00    -0.268 OA
ATOM     15  S   UNL A   1      32.299  28.496  22.935  1.00  0.00    -0.052 S 
BRANCH   9  16
ATOM     16  C   UNL A   1      33.353  22.081  23.552  1.00  0.00     0.042 A 
ATOM     17  C   UNL A   1      31.838  20.895  21.880  1.00  0.00     0.149 C 
ATOM     18  N   UNL A   1      32.514  21.065  23.149  1.00  0.00    -0.351 N 
ATOM     19  C   UNL A   1      32.429  20.120  24.148  1.00  0.00     0.086 A 
ATOM     20  C   UNL A   1      33.332  20.453  25.130  1.00  0.00     0.020 A 
ATOM     21  C   UNL A   1      33.933  21.669  24.744  1.00  0.00     0.028 A 
ENDBRANCH   9  16
ENDBRANCH   7   8
BRANCH   7  22
ATOM     22  C   UNL A   1      28.863  26.834  23.908  1.00  0.00     0.045 C 
BRANCH  22  23
ATOM     23  C   UNL A   1      28.549  28.042  23.021  1.00  0.00     0.102 C 
BRANCH  23  24
ATOM     24  C   UNL A   1      27.225  28.722  23.284  1.00  0.00     0.217 C 
ATOM     25  N   UNL A   1      26.241  27.884  23.729  1.00  0.00    -0.370 N 
ATOM     26  O   UNL A   1      27.016  29.915  23.113  1.00  0.00    -0.275 OA
ATOM     27  H   UNL A   1      26.433  26.927  23.858  1.00  0.00     0.159 HD
ATOM     28  H   UNL A   1      25.342  28.237  23.919  1.00  0.00     0.159 HD
ENDBRANCH  23  24
ENDBRANCH  22  23
ENDBRANCH   7  22
ENDBRANCH   4   7
ENDBRANCH   2   3
ENDBRANCH   1   2
BRANCH   1  29
ATOM     29  C   UNL A   1      34.006  28.923  27.301  1.00  0.00     0.118 C 
BRANCH  29  30
ATOM     30  N   UNL A   1      33.995  30.234  27.951  1.00  0.00    -0.352 N 
ATOM     31  C   UNL A   1      34.969  30.869  28.686  1.00  0.00     0.251 C 
ATOM     32  H   UNL A   1      33.159  30.743  27.845  1.00  0.00     0.163 HD
ATOM     33  O   UNL A   1      34.697  31.909  29.281  1.00  0.00    -0.269 OA
BRANCH  31  34
ATOM     34  C   UNL A   1      36.323  30.282  28.782  1.00  0.00     0.039 A 
ATOM     35  C   UNL A   1      37.150  30.274  27.655  1.00  0.00     0.014 A 
ATOM     36  C   UNL A   1      36.790  29.775  29.995  1.00  0.00     0.014 A 
ATOM     37  C   UNL A   1      38.479  29.855  27.775  1.00  0.00     0.010 A 
ATOM     38  C   UNL A   1      38.134  29.464  30.138  1.00  0.00     0.010 A 
ATOM     39  C   UNL A   1      38.991  29.491  29.028  1.00  0.00    -0.014 A 
BRANCH  39  40
ATOM     40  C   UNL A   1      40.403  29.082  29.227  1.00  0.00     0.031 A 
ATOM     41  C   UNL A   1      41.392  30.101  29.726  1.00  0.00     0.074 A 
ATOM     42  C   UNL A   1      40.813  27.855  28.855  1.00  0.00     0.049 A 
ATOM     43  N   UNL A   1      42.695  30.026  29.792  1.00  0.00    -0.248 NA
ATOM     44  C   UNL A   1      40.841  31.396  30.157  1.00  0.00     0.031 C 
ATOM     45  C   UNL A   1      39.956  26.798  28.312  1.00  0.00     0.029 A 
ATOM     46  N   UNL A   1      42.066  27.295  28.855  1.00  0.00    -0.354 N 
ATOM     47  C   UNL A   1      43.118  31.272  30.237  1.00  0.00     0.074 A 
ATOM     48  C   UNL A   1      41.942  32.103  30.364  1.00  0.00     0.031 C 
ATOM     49  C   UNL A   1      40.706  25.714  28.049  1.00  0.00     0.029 A 
ATOM     50  C   UNL A   1      42.099  26.011  28.363  1.00  0.00     0.049 A 
ATOM     51  H   UNL A   1      42.866  27.769  29.176  1.00  0.00     0.167 HD
ATOM     52  C   UNL A   1      44.373  31.682  30.540  1.00  0.00     0.037 A 
ATOM     53  C   UNL A   1      43.141  25.176  28.178  1.00  0.00     0.037 A 
ATOM     54  C   UNL A   1      45.529  30.833  30.460  1.00  0.00     0.049 A 
ATOM     55  C   UNL A   1      44.525  25.640  28.549  1.00  0.00     0.074 A 
ATOM     56  C   UNL A   1      46.838  31.123  30.804  1.00  0.00     0.029 A 
ATOM     57  N   UNL A   1      45.513  29.519  30.013  1.00  0.00    -0.354 N 
ATOM     58  N   UNL A   1      44.904  26.807  29.014  1.00  0.00    -0.248 NA
ATOM     59  C   UNL A   1      45.620  24.677  28.375  1.00  0.00     0.031 C 
ATOM     60  C   UNL A   1      47.617  29.992  30.537  1.00  0.00     0.029 A 
ATOM     61  C   UNL A   1      46.788  28.986  30.067  1.00  0.00     0.049 A 
ATOM     62  H   UNL A   1      44.712  29.038  29.704  1.00  0.00     0.167 HD
ATOM     63  C   UNL A   1      46.276  26.706  29.221  1.00  0.00     0.074 A 
ATOM     64  C   UNL A   1      46.658  25.365  28.831  1.00  0.00     0.031 C 
ATOM     65  C   UNL A   1      47.140  27.637  29.696  1.00  0.00     0.037 A 
BRANCH  52  66
ATOM     66  C   UNL A   1      44.545  33.105  30.996  1.00  0.00     0.058 A 
ATOM     67  C   UNL A   1      44.443  33.461  32.351  1.00  0.00     0.135 A 
ATOM     68  C   UNL A   1      44.809  34.126  30.069  1.00  0.00     0.135 A 
ATOM     69  F   UNL A   1      44.173  32.527  33.276  1.00  0.00    -0.206 F 
ATOM     70  C   UNL A   1      44.552  34.783  32.766  1.00  0.00     0.059 A 
ATOM     71  C   UNL A   1      44.953  35.452  30.466  1.00  0.00     0.059 A 
ATOM     72  F   UNL A   1      44.915  33.842  28.762  1.00  0.00    -0.206 F 
ATOM     73  C   UNL A   1      44.801  35.773  31.814  1.00  0.00     0.060 A 
BRANCH  73  74
ATOM     74  S   UNL A   1      44.922  37.488  32.366  1.00  0.00     0.124 S 
ATOM     75  O   UNL A   1      43.562  37.963  32.130  1.00  0.00    -0.237 OA
ATOM     76  O   UNL A   1      45.307  37.340  33.766  1.00  0.00    -0.237 OA
ATOM     77  O   UNL A   1      45.945  38.053  31.494  1.00  0.00    -0.744 OA
ENDBRANCH  73  74
ENDBRANCH  52  66
BRANCH  53  78
ATOM     78  C   UNL A   1      42.909  23.804  27.654  1.00  0.00     0.058 A 
ATOM     79  C   UNL A   1      42.599  22.748  28.524  1.00  0.00     0.135 A 
ATOM     80  C   UNL A   1      42.970  23.521  26.281  1.00  0.00     0.135 A 
ATOM     81  F   UNL A   1      42.533  22.968  29.846  1.00  0.00    -0.206 F 
ATOM     82  C   UNL A   1      42.371  21.458  28.056  1.00  0.00     0.059 A 
ATOM     83  C   UNL A   1      42.725  22.243  25.786  1.00  0.00     0.059 A 
ATOM     84  F   UNL A   1      43.246  24.499  25.404  1.00  0.00    -0.206 F 
ATOM     85  C   UNL A   1      42.435  21.215  26.683  1.00  0.00     0.060 A 
BRANCH  85  86
ATOM     86  S   UNL A   1      42.085  19.548  26.082  1.00  0.00     0.124 S 
ATOM     87  O   UNL A   1      42.535  18.732  27.203  1.00  0.00    -0.237 OA
ATOM     88  O   UNL A   1      40.642  19.597  25.865  1.00  0.00    -0.237 OA
ATOM     89  O   UNL A   1      42.890  19.454  24.868  1.00  0.00    -0.744 OA
ENDBRANCH  85  86
ENDBRANCH  53  78
BRANCH  65  90
ATOM     90  C   UNL A   1      48.574  27.231  29.870  1.00  0.00     0.058 A 
ATOM     91  C   UNL A   1      49.537  27.472  28.878  1.00  0.00     0.135 A 
ATOM     92  C   UNL A   1      49.007  26.671  31.084  1.00  0.00     0.135 A 
ATOM     93  F   UNL A   1      49.172  28.000  27.698  1.00  0.00    -0.206 F 
ATOM     94  C   UNL A   1      50.877  27.165  29.080  1.00  0.00     0.059 A 
ATOM     95  C   UNL A   1      50.345  26.379  31.316  1.00  0.00     0.059 A 
ATOM     96  F   UNL A   1      48.125  26.431  32.068  1.00  0.00    -0.206 F 
ATOM     97  C   UNL A   1      51.273  26.623  30.305  1.00  0.00     0.060 A 
BRANCH  97  98
ATOM     98  S   UNL A   1      53.025  26.286  30.577  1.00  0.00     0.124 S 
ATOM     99  O   UNL A   1      53.464  25.912  29.237  1.00  0.00    -0.237 OA
ATOM    100  O   UNL A   1      53.518  27.569  31.071  1.00  0.00    -0.237 OA
ATOM    101  O   UNL A   1      53.014  25.206  31.560  1.00  0.00    -0.744 OA
ENDBRANCH  97  98
ENDBRANCH  65  90
ENDBRANCH  39  40
ENDBRANCH  31  34
ENDBRANCH  29  30
ENDBRANCH   1  29
TORSDOF 18
ENDMDL
