MODEL 1
REMARK VINA RESULT:     -12.2      0.000      0.000
REMARK SMILES CCN(CC)c1ccc([C@@H]2c3[nH]c4ccccc4c3C[C@@H](C(=O)NCCCNC(=O)c3ccc(-c4c5nc(c(-c6c(F)cc(S(=O)(=O)[O-])cc6F)c6ccc([nH]6)c(-c6c(F)cc(S(=O)(=O)[O-])cc6F)c6nc(c(-c7c(F)cc(S(=O)(=O)[O-])cc7F)c7ccc4[nH]7)C=C6)C=C5)cc3)N2C(C)=O)cc1
REMARK SMILES IDX 26 1 25 2 24 3 22 4 23 5 21 7 10 8 11 9 97 10 12 11 19 12
REMARK SMILES IDX 13 13 18 15 20 16 14 17 17 18 15 19 16 20 9 21 6 22 7 23
REMARK SMILES IDX 102 24 8 25 101 26 3 27 2 28 1 29 4 30 5 31 98 32 99 33
REMARK SMILES IDX 100 34 27 35 28 36 29 37 30 39 31 40 32 41 96 42 33 43 95 44
REMARK SMILES IDX 34 45 35 46 36 47 89 48 37 49 94 50 88 51 90 52 38 53 93 54
REMARK SMILES IDX 87 55 86 56 39 58 73 59 52 60 72 61 53 62 56 63 71 64 91 65
REMARK SMILES IDX 54 66 55 67 70 69 92 70 57 71 40 72 41 73 50 74 42 75 43 76
REMARK SMILES IDX 49 77 51 78 44 79 45 80 46 81 47 82 48 83 74 84 75 85 84 86
REMARK SMILES IDX 76 87 77 88 83 89 85 90 78 91 79 92 80 93 81 94 82 95 58 96
REMARK SMILES IDX 59 97 68 98 60 99 61 100 67 101 69 102 62 103 63 104 64 105
REMARK SMILES IDX 65 106 66 107
REMARK H PARENT 24 6 12 14 28 38 90 57 56 68
REMARK Flexibility Score: inf
ROOT
ATOM      1  C   UNL A   1      39.829  23.722  27.260  1.00  0.00     0.042 C 
ENDROOT
BRANCH   1   2
ATOM      2  C   UNL A   1      38.639  24.530  26.682  1.00  0.00     0.117 C 
BRANCH   2   3
ATOM      3  N   UNL A   1      37.921  23.930  25.499  1.00  0.00    -0.354 N 
ATOM      4  C   UNL A   1      36.731  23.308  25.164  1.00  0.00     0.243 C 
ATOM      5  O   UNL A   1      36.560  23.192  23.937  1.00  0.00    -0.273 OA
ATOM      6  H   UNL A   1      38.487  24.007  24.698  1.00  0.00     0.163 HD
BRANCH   4   7
ATOM      7  C   UNL A   1      35.694  22.544  26.123  1.00  0.00     0.179 C 
ATOM      8  C   UNL A   1      33.899  23.417  24.723  1.00  0.00     0.163 C 
ATOM      9  C   UNL A   1      33.841  21.991  24.180  1.00  0.00     0.047 A 
ATOM     10  N   UNL A   1      34.281  23.119  26.098  1.00  0.00    -0.318 N 
ATOM     11  N   UNL A   1      33.006  21.475  23.233  1.00  0.00    -0.356 N 
ATOM     12  C   UNL A   1      34.596  20.919  24.679  1.00  0.00    -0.014 A 
ATOM     13  C   UNL A   1      32.971  20.106  23.371  1.00  0.00     0.046 A 
ATOM     14  H   UNL A   1      32.510  21.996  22.561  1.00  0.00     0.166 HD
ATOM     15  C   UNL A   1      34.020  19.732  24.207  1.00  0.00     0.003 A 
ATOM     16  C   UNL A   1      35.641  21.070  25.738  1.00  0.00     0.073 C 
ATOM     17  C   UNL A   1      32.074  19.183  22.846  1.00  0.00     0.026 A 
ATOM     18  C   UNL A   1      34.238  18.379  24.502  1.00  0.00     0.010 A 
ATOM     19  C   UNL A   1      32.254  17.848  23.219  1.00  0.00     0.002 A 
ATOM     20  C   UNL A   1      33.326  17.448  24.017  1.00  0.00     0.001 A 
BRANCH   8  21
ATOM     21  C   UNL A   1      32.794  24.422  24.499  1.00  0.00    -0.019 A 
ATOM     22  C   UNL A   1      31.068  26.588  23.801  1.00  0.00     0.037 A 
ATOM     23  C   UNL A   1      31.176  25.435  23.029  1.00  0.00     0.026 A 
ATOM     24  C   UNL A   1      31.717  26.543  25.042  1.00  0.00     0.026 A 
ATOM     25  C   UNL A   1      31.983  24.368  23.380  1.00  0.00     0.008 A 
ATOM     26  C   UNL A   1      32.577  25.485  25.390  1.00  0.00     0.008 A 
BRANCH  22  27
ATOM     27  N   UNL A   1      30.376  27.701  23.343  1.00  0.00    -0.372 N 
BRANCH  27  28
ATOM     28  C   UNL A   1      31.073  28.660  22.471  1.00  0.00     0.113 C 
ATOM     29  C   UNL A   1      30.175  29.795  22.000  1.00  0.00     0.027 C 
ENDBRANCH  27  28
BRANCH  27  30
ATOM     30  C   UNL A   1      28.899  27.728  23.330  1.00  0.00     0.113 C 
ATOM     31  C   UNL A   1      28.225  26.502  23.950  1.00  0.00     0.027 C 
ENDBRANCH  27  30
ENDBRANCH  22  27
ENDBRANCH   8  21
BRANCH  10  32
ATOM     32  C   UNL A   1      33.187  22.654  26.871  1.00  0.00     0.220 C 
ATOM     33  C   UNL A   1      33.260  22.491  28.363  1.00  0.00     0.114 C 
ATOM     34  O   UNL A   1      32.110  22.301  26.374  1.00  0.00    -0.275 OA
ENDBRANCH  10  32
ENDBRANCH   4   7
ENDBRANCH   2   3
ENDBRANCH   1   2
BRANCH   1  35
ATOM     35  C   UNL A   1      40.842  22.984  26.359  1.00  0.00     0.118 C 
BRANCH  35  36
ATOM     36  N   UNL A   1      41.816  23.837  25.679  1.00  0.00    -0.352 N 
ATOM     37  C   UNL A   1      42.377  25.075  25.935  1.00  0.00     0.251 C 
ATOM     38  H   UNL A   1      42.151  23.436  24.844  1.00  0.00     0.163 HD
ATOM     39  O   UNL A   1      43.163  25.501  25.081  1.00  0.00    -0.269 OA
BRANCH  37  40
ATOM     40  C   UNL A   1      42.119  25.939  27.135  1.00  0.00     0.039 A 
ATOM     41  C   UNL A   1      41.786  27.292  26.911  1.00  0.00     0.014 A 
ATOM     42  C   UNL A   1      42.291  25.536  28.458  1.00  0.00     0.014 A 
ATOM     43  C   UNL A   1      41.591  28.192  27.977  1.00  0.00     0.010 A 
ATOM     44  C   UNL A   1      42.024  26.418  29.526  1.00  0.00     0.010 A 
ATOM     45  C   UNL A   1      41.679  27.762  29.307  1.00  0.00    -0.014 A 
BRANCH  45  46
ATOM     46  C   UNL A   1      41.439  28.697  30.459  1.00  0.00     0.031 A 
ATOM     47  C   UNL A   1      42.287  28.621  31.711  1.00  0.00     0.074 A 
ATOM     48  C   UNL A   1      40.430  29.595  30.414  1.00  0.00     0.049 A 
ATOM     49  N   UNL A   1      42.177  29.289  32.835  1.00  0.00    -0.248 NA
ATOM     50  C   UNL A   1      43.389  27.648  31.707  1.00  0.00     0.031 C 
ATOM     51  C   UNL A   1      39.509  29.775  29.291  1.00  0.00     0.029 A 
ATOM     52  N   UNL A   1      39.998  30.520  31.341  1.00  0.00    -0.354 N 
ATOM     53  C   UNL A   1      43.178  28.804  33.673  1.00  0.00     0.074 A 
ATOM     54  C   UNL A   1      43.852  27.749  32.946  1.00  0.00     0.031 C 
ATOM     55  C   UNL A   1      38.638  30.755  29.584  1.00  0.00     0.029 A 
ATOM     56  C   UNL A   1      38.903  31.249  30.933  1.00  0.00     0.049 A 
ATOM     57  H   UNL A   1      40.433  30.647  32.215  1.00  0.00     0.167 HD
ATOM     58  C   UNL A   1      43.521  29.206  34.923  1.00  0.00     0.037 A 
ATOM     59  C   UNL A   1      38.181  32.197  31.567  1.00  0.00     0.037 A 
ATOM     60  C   UNL A   1      42.869  30.274  35.643  1.00  0.00     0.049 A 
ATOM     61  C   UNL A   1      38.568  32.619  32.960  1.00  0.00     0.074 A 
ATOM     62  C   UNL A   1      43.183  30.789  36.890  1.00  0.00     0.029 A 
ATOM     63  N   UNL A   1      41.773  30.990  35.185  1.00  0.00    -0.354 N 
ATOM     64  N   UNL A   1      39.550  32.181  33.711  1.00  0.00    -0.248 NA
ATOM     65  C   UNL A   1      37.754  33.669  33.592  1.00  0.00     0.031 C 
ATOM     66  C   UNL A   1      42.244  31.774  37.209  1.00  0.00     0.029 A 
ATOM     67  C   UNL A   1      41.382  31.920  36.135  1.00  0.00     0.049 A 
ATOM     68  H   UNL A   1      41.335  30.855  34.312  1.00  0.00     0.167 HD
ATOM     69  C   UNL A   1      39.489  32.921  34.889  1.00  0.00     0.074 A 
ATOM     70  C   UNL A   1      38.383  33.843  34.746  1.00  0.00     0.031 C 
ATOM     71  C   UNL A   1      40.282  32.842  35.987  1.00  0.00     0.037 A 
BRANCH  58  72
ATOM     72  C   UNL A   1      44.657  28.486  35.609  1.00  0.00     0.058 A 
ATOM     73  C   UNL A   1      44.439  27.360  36.420  1.00  0.00     0.135 A 
ATOM     74  C   UNL A   1      45.987  28.900  35.415  1.00  0.00     0.135 A 
ATOM     75  F   UNL A   1      43.191  26.922  36.647  1.00  0.00    -0.206 F 
ATOM     76  C   UNL A   1      45.491  26.697  37.047  1.00  0.00     0.059 A 
ATOM     77  C   UNL A   1      47.058  28.231  36.006  1.00  0.00     0.059 A 
ATOM     78  F   UNL A   1      46.260  29.962  34.643  1.00  0.00    -0.206 F 
ATOM     79  C   UNL A   1      46.797  27.141  36.836  1.00  0.00     0.060 A 
BRANCH  79  80
ATOM     80  S   UNL A   1      48.150  26.275  37.661  1.00  0.00     0.124 S 
ATOM     81  O   UNL A   1      48.569  25.337  36.623  1.00  0.00    -0.237 OA
ATOM     82  O   UNL A   1      49.087  27.364  37.943  1.00  0.00    -0.237 OA
ATOM     83  O   UNL A   1      47.517  25.680  38.827  1.00  0.00    -0.744 OA
ENDBRANCH  79  80
ENDBRANCH  58  72
BRANCH  59  84
ATOM     84  C   UNL A   1      37.016  32.828  30.881  1.00  0.00     0.058 A 
ATOM     85  C   UNL A   1      37.200  33.799  29.884  1.00  0.00     0.135 A 
ATOM     86  C   UNL A   1      35.697  32.468  31.201  1.00  0.00     0.135 A 
ATOM     87  F   UNL A   1      38.440  34.190  29.550  1.00  0.00    -0.206 F 
ATOM     88  C   UNL A   1      36.123  34.396  29.236  1.00  0.00     0.059 A 
ATOM     89  C   UNL A   1      34.604  33.029  30.547  1.00  0.00     0.059 A 
ATOM     90  F   UNL A   1      35.464  31.538  32.141  1.00  0.00    -0.206 F 
ATOM     91  C   UNL A   1      34.827  33.999  29.571  1.00  0.00     0.060 A 
BRANCH  91  92
ATOM     92  S   UNL A   1      33.438  34.736  28.682  1.00  0.00     0.124 S 
ATOM     93  O   UNL A   1      32.488  34.974  29.766  1.00  0.00    -0.237 OA
ATOM     94  O   UNL A   1      34.049  35.928  28.098  1.00  0.00    -0.237 OA
ATOM     95  O   UNL A   1      33.061  33.702  27.728  1.00  0.00    -0.744 OA
ENDBRANCH  91  92
ENDBRANCH  59  84
BRANCH  71  96
ATOM     96  C   UNL A   1      40.011  33.802  37.116  1.00  0.00     0.058 A 
ATOM     97  C   UNL A   1      40.553  35.097  37.137  1.00  0.00     0.135 A 
ATOM     98  C   UNL A   1      39.152  33.438  38.167  1.00  0.00     0.135 A 
ATOM     99  F   UNL A   1      41.384  35.497  36.162  1.00  0.00    -0.206 F 
ATOM    100  C   UNL A   1      40.273  35.987  38.170  1.00  0.00     0.059 A 
ATOM    101  C   UNL A   1      38.833  34.322  39.194  1.00  0.00     0.059 A 
ATOM    102  F   UNL A   1      38.597  32.215  38.194  1.00  0.00    -0.206 F 
ATOM    103  C   UNL A   1      39.408  35.591  39.193  1.00  0.00     0.060 A 
BRANCH 103 104
ATOM    104  S   UNL A   1      39.026  36.769  40.507  1.00  0.00     0.124 S 
ATOM    105  O   UNL A   1      40.342  36.985  41.099  1.00  0.00    -0.237 OA
ATOM    106  O   UNL A   1      38.472  37.896  39.764  1.00  0.00    -0.237 OA
ATOM    107  O   UNL A   1      38.072  36.047  41.344  1.00  0.00    -0.744 OA
ENDBRANCH 103 104
ENDBRANCH  71  96
ENDBRANCH  45  46
ENDBRANCH  37  40
ENDBRANCH  35  36
ENDBRANCH   1  35
TORSDOF 18
ENDMDL
MODEL 2
REMARK VINA RESULT:     -11.9      6.100     11.594
REMARK SMILES CCN(CC)c1ccc([C@@H]2c3[nH]c4ccccc4c3C[C@@H](C(=O)NCCCNC(=O)c3ccc(-c4c5nc(c(-c6c(F)cc(S(=O)(=O)[O-])cc6F)c6ccc([nH]6)c(-c6c(F)cc(S(=O)(=O)[O-])cc6F)c6nc(c(-c7c(F)cc(S(=O)(=O)[O-])cc7F)c7ccc4[nH]7)C=C6)C=C5)cc3)N2C(C)=O)cc1
REMARK SMILES IDX 26 1 25 2 24 3 22 4 23 5 21 7 10 8 11 9 97 10 12 11 19 12
REMARK SMILES IDX 13 13 18 15 20 16 14 17 17 18 15 19 16 20 9 21 6 22 7 23
REMARK SMILES IDX 102 24 8 25 101 26 3 27 2 28 1 29 4 30 5 31 98 32 99 33
REMARK SMILES IDX 100 34 27 35 28 36 29 37 30 39 31 40 32 41 96 42 33 43 95 44
REMARK SMILES IDX 34 45 35 46 36 47 89 48 37 49 94 50 88 51 90 52 38 53 93 54
REMARK SMILES IDX 87 55 86 56 39 58 73 59 52 60 72 61 53 62 56 63 71 64 91 65
REMARK SMILES IDX 54 66 55 67 70 69 92 70 57 71 40 72 41 73 50 74 42 75 43 76
REMARK SMILES IDX 49 77 51 78 44 79 45 80 46 81 47 82 48 83 74 84 75 85 84 86
REMARK SMILES IDX 76 87 77 88 83 89 85 90 78 91 79 92 80 93 81 94 82 95 58 96
REMARK SMILES IDX 59 97 68 98 60 99 61 100 67 101 69 102 62 103 63 104 64 105
REMARK SMILES IDX 65 106 66 107
REMARK H PARENT 24 6 12 14 28 38 90 57 56 68
REMARK Flexibility Score: inf
ROOT
ATOM      1  C   UNL A   1      35.931  30.952  29.240  1.00  0.00     0.042 C 
ENDROOT
BRANCH   1   2
ATOM      2  C   UNL A   1      35.755  29.849  28.165  1.00  0.00     0.117 C 
BRANCH   2   3
ATOM      3  N   UNL A   1      34.367  29.285  27.991  1.00  0.00    -0.354 N 
ATOM      4  C   UNL A   1      33.506  28.827  27.009  1.00  0.00     0.243 C 
ATOM      5  O   UNL A   1      32.498  28.255  27.461  1.00  0.00    -0.273 OA
ATOM      6  H   UNL A   1      33.926  29.221  28.869  1.00  0.00     0.163 HD
BRANCH   4   7
ATOM      7  C   UNL A   1      33.531  29.131  25.433  1.00  0.00     0.179 C 
ATOM      8  C   UNL A   1      32.696  26.868  25.077  1.00  0.00     0.163 C 
ATOM      9  C   UNL A   1      31.369  27.571  24.793  1.00  0.00     0.047 A 
ATOM     10  N   UNL A   1      33.604  27.883  24.558  1.00  0.00    -0.318 N 
ATOM     11  N   UNL A   1      30.172  27.018  24.444  1.00  0.00    -0.356 N 
ATOM     12  C   UNL A   1      31.204  28.962  24.732  1.00  0.00    -0.014 A 
ATOM     13  C   UNL A   1      29.395  27.984  23.848  1.00  0.00     0.046 A 
ATOM     14  H   UNL A   1      29.908  26.082  24.595  1.00  0.00     0.166 HD
ATOM     15  C   UNL A   1      29.983  29.222  24.096  1.00  0.00     0.003 A 
ATOM     16  C   UNL A   1      32.293  29.936  25.053  1.00  0.00     0.073 C 
ATOM     17  C   UNL A   1      28.240  27.850  23.086  1.00  0.00     0.026 A 
ATOM     18  C   UNL A   1      29.383  30.396  23.621  1.00  0.00     0.010 A 
ATOM     19  C   UNL A   1      27.701  29.022  22.548  1.00  0.00     0.002 A 
ATOM     20  C   UNL A   1      28.249  30.275  22.824  1.00  0.00     0.001 A 
BRANCH   8  21
ATOM     21  C   UNL A   1      32.955  25.428  24.701  1.00  0.00    -0.019 A 
ATOM     22  C   UNL A   1      33.469  22.626  24.509  1.00  0.00     0.037 A 
ATOM     23  C   UNL A   1      32.182  23.151  24.547  1.00  0.00     0.026 A 
ATOM     24  C   UNL A   1      34.499  23.568  24.381  1.00  0.00     0.026 A 
ATOM     25  C   UNL A   1      31.925  24.510  24.604  1.00  0.00     0.008 A 
ATOM     26  C   UNL A   1      34.256  24.949  24.484  1.00  0.00     0.008 A 
BRANCH  22  27
ATOM     27  N   UNL A   1      33.695  21.260  24.612  1.00  0.00    -0.372 N 
BRANCH  27  28
ATOM     28  C   UNL A   1      34.481  20.755  25.748  1.00  0.00     0.113 C 
ATOM     29  C   UNL A   1      34.115  21.422  27.067  1.00  0.00     0.027 C 
ENDBRANCH  27  28
BRANCH  27  30
ATOM     30  C   UNL A   1      32.835  20.289  23.903  1.00  0.00     0.113 C 
ATOM     31  C   UNL A   1      32.354  19.112  24.753  1.00  0.00     0.027 C 
ENDBRANCH  27  30
ENDBRANCH  22  27
ENDBRANCH   8  21
BRANCH  10  32
ATOM     32  C   UNL A   1      33.670  27.871  23.141  1.00  0.00     0.220 C 
ATOM     33  C   UNL A   1      34.770  28.551  22.375  1.00  0.00     0.114 C 
ATOM     34  O   UNL A   1      32.805  27.345  22.429  1.00  0.00    -0.275 OA
ENDBRANCH  10  32
ENDBRANCH   4   7
ENDBRANCH   2   3
ENDBRANCH   1   2
BRANCH   1  35
ATOM     35  C   UNL A   1      35.873  30.649  30.752  1.00  0.00     0.118 C 
BRANCH  35  36
ATOM     36  N   UNL A   1      36.487  31.654  31.619  1.00  0.00    -0.352 N 
ATOM     37  C   UNL A   1      37.786  32.024  31.917  1.00  0.00     0.251 C 
ATOM     38  H   UNL A   1      35.820  32.193  32.104  1.00  0.00     0.163 HD
ATOM     39  O   UNL A   1      37.914  32.925  32.754  1.00  0.00    -0.269 OA
BRANCH  37  40
ATOM     40  C   UNL A   1      39.036  31.437  31.329  1.00  0.00     0.039 A 
ATOM     41  C   UNL A   1      39.930  30.784  32.204  1.00  0.00     0.014 A 
ATOM     42  C   UNL A   1      39.437  31.584  30.003  1.00  0.00     0.014 A 
ATOM     43  C   UNL A   1      41.158  30.262  31.754  1.00  0.00     0.010 A 
ATOM     44  C   UNL A   1      40.632  30.997  29.536  1.00  0.00     0.010 A 
ATOM     45  C   UNL A   1      41.518  30.334  30.402  1.00  0.00    -0.014 A 
BRANCH  45  46
ATOM     46  C   UNL A   1      42.806  29.751  29.894  1.00  0.00     0.031 A 
ATOM     47  C   UNL A   1      44.075  30.577  29.864  1.00  0.00     0.074 A 
ATOM     48  C   UNL A   1      42.844  28.490  29.410  1.00  0.00     0.049 A 
ATOM     49  N   UNL A   1      45.259  30.271  29.389  1.00  0.00    -0.248 NA
ATOM     50  C   UNL A   1      43.995  31.934  30.423  1.00  0.00     0.031 C 
ATOM     51  C   UNL A   1      41.702  27.576  29.346  1.00  0.00     0.029 A 
ATOM     52  N   UNL A   1      43.878  27.758  28.868  1.00  0.00    -0.354 N 
ATOM     53  C   UNL A   1      46.053  31.400  29.571  1.00  0.00     0.074 A 
ATOM     54  C   UNL A   1      45.202  32.415  30.155  1.00  0.00     0.031 C 
ATOM     55  C   UNL A   1      42.099  26.407  28.816  1.00  0.00     0.029 A 
ATOM     56  C   UNL A   1      43.513  26.494  28.458  1.00  0.00     0.049 A 
ATOM     57  H   UNL A   1      44.795  28.106  28.781  1.00  0.00     0.167 HD
ATOM     58  C   UNL A   1      47.371  31.576  29.299  1.00  0.00     0.037 A 
ATOM     59  C   UNL A   1      44.221  25.517  27.852  1.00  0.00     0.037 A 
ATOM     60  C   UNL A   1      48.230  30.560  28.741  1.00  0.00     0.049 A 
ATOM     61  C   UNL A   1      45.679  25.738  27.545  1.00  0.00     0.074 A 
ATOM     62  C   UNL A   1      49.590  30.628  28.483  1.00  0.00     0.029 A 
ATOM     63  N   UNL A   1      47.818  29.294  28.352  1.00  0.00    -0.354 N 
ATOM     64  N   UNL A   1      46.419  26.796  27.774  1.00  0.00    -0.248 NA
ATOM     65  C   UNL A   1      46.402  24.630  26.900  1.00  0.00     0.031 C 
ATOM     66  C   UNL A   1      49.986  29.427  27.887  1.00  0.00     0.029 A 
ATOM     67  C   UNL A   1      48.889  28.584  27.832  1.00  0.00     0.049 A 
ATOM     68  H   UNL A   1      46.898  28.950  28.433  1.00  0.00     0.167 HD
ATOM     69  C   UNL A   1      47.698  26.470  27.330  1.00  0.00     0.074 A 
ATOM     70  C   UNL A   1      47.634  25.113  26.831  1.00  0.00     0.031 C 
ATOM     71  C   UNL A   1      48.823  27.229  27.340  1.00  0.00     0.037 A 
BRANCH  58  72
ATOM     72  C   UNL A   1      47.978  32.927  29.596  1.00  0.00     0.058 A 
ATOM     73  C   UNL A   1      47.995  33.957  28.642  1.00  0.00     0.135 A 
ATOM     74  C   UNL A   1      48.510  33.209  30.866  1.00  0.00     0.135 A 
ATOM     75  F   UNL A   1      47.507  33.747  27.410  1.00  0.00    -0.206 F 
ATOM     76  C   UNL A   1      48.553  35.202  28.921  1.00  0.00     0.059 A 
ATOM     77  C   UNL A   1      49.043  34.458  31.179  1.00  0.00     0.059 A 
ATOM     78  F   UNL A   1      48.514  32.267  31.823  1.00  0.00    -0.206 F 
ATOM     79  C   UNL A   1      49.076  35.443  30.192  1.00  0.00     0.060 A 
BRANCH  79  80
ATOM     80  S   UNL A   1      49.802  37.059  30.538  1.00  0.00     0.124 S 
ATOM     81  O   UNL A   1      49.811  37.066  32.000  1.00  0.00    -0.237 OA
ATOM     82  O   UNL A   1      51.115  36.951  29.900  1.00  0.00    -0.237 OA
ATOM     83  O   UNL A   1      48.880  37.992  29.912  1.00  0.00    -0.744 OA
ENDBRANCH  79  80
ENDBRANCH  58  72
BRANCH  59  84
ATOM     84  C   UNL A   1      43.561  24.226  27.505  1.00  0.00     0.058 A 
ATOM     85  C   UNL A   1      43.315  23.250  28.485  1.00  0.00     0.135 A 
ATOM     86  C   UNL A   1      43.154  23.943  26.191  1.00  0.00     0.135 A 
ATOM     87  F   UNL A   1      43.698  23.463  29.753  1.00  0.00    -0.206 F 
ATOM     88  C   UNL A   1      42.701  22.041  28.175  1.00  0.00     0.059 A 
ATOM     89  C   UNL A   1      42.511  22.753  25.862  1.00  0.00     0.059 A 
ATOM     90  F   UNL A   1      43.356  24.844  25.217  1.00  0.00    -0.206 F 
ATOM     91  C   UNL A   1      42.296  21.804  26.860  1.00  0.00     0.060 A 
BRANCH  91  92
ATOM     92  S   UNL A   1      41.445  20.256  26.481  1.00  0.00     0.124 S 
ATOM     93  O   UNL A   1      40.094  20.728  26.186  1.00  0.00    -0.237 OA
ATOM     94  O   UNL A   1      42.210  19.760  25.339  1.00  0.00    -0.237 OA
ATOM     95  O   UNL A   1      41.590  19.483  27.707  1.00  0.00    -0.744 OA
ENDBRANCH  91  92
ENDBRANCH  59  84
BRANCH  71  96
ATOM     96  C   UNL A   1      50.094  26.604  26.827  1.00  0.00     0.058 A 
ATOM     97  C   UNL A   1      50.461  26.666  25.474  1.00  0.00     0.135 A 
ATOM     98  C   UNL A   1      50.985  25.978  27.716  1.00  0.00     0.135 A 
ATOM     99  F   UNL A   1      49.646  27.247  24.579  1.00  0.00    -0.206 F 
ATOM    100  C   UNL A   1      51.652  26.112  25.015  1.00  0.00     0.059 A 
ATOM    101  C   UNL A   1      52.196  25.444  27.285  1.00  0.00     0.059 A 
ATOM    102  F   UNL A   1      50.691  25.898  29.024  1.00  0.00    -0.206 F 
ATOM    103  C   UNL A   1      52.515  25.505  25.930  1.00  0.00     0.060 A 
BRANCH 103 104
ATOM    104  S   UNL A   1      54.074  24.821  25.327  1.00  0.00     0.124 S 
ATOM    105  O   UNL A   1      53.657  23.500  24.868  1.00  0.00    -0.237 OA
ATOM    106  O   UNL A   1      54.445  25.768  24.281  1.00  0.00    -0.237 OA
ATOM    107  O   UNL A   1      54.931  24.833  26.509  1.00  0.00    -0.744 OA
ENDBRANCH 103 104
ENDBRANCH  71  96
ENDBRANCH  45  46
ENDBRANCH  37  40
ENDBRANCH  35  36
ENDBRANCH   1  35
TORSDOF 18
ENDMDL
MODEL 3
REMARK VINA RESULT:     -11.8      6.525     14.068
REMARK SMILES CCN(CC)c1ccc([C@@H]2c3[nH]c4ccccc4c3C[C@@H](C(=O)NCCCNC(=O)c3ccc(-c4c5nc(c(-c6c(F)cc(S(=O)(=O)[O-])cc6F)c6ccc([nH]6)c(-c6c(F)cc(S(=O)(=O)[O-])cc6F)c6nc(c(-c7c(F)cc(S(=O)(=O)[O-])cc7F)c7ccc4[nH]7)C=C6)C=C5)cc3)N2C(C)=O)cc1
REMARK SMILES IDX 26 1 25 2 24 3 22 4 23 5 21 7 10 8 11 9 97 10 12 11 19 12
REMARK SMILES IDX 13 13 18 15 20 16 14 17 17 18 15 19 16 20 9 21 6 22 7 23
REMARK SMILES IDX 102 24 8 25 101 26 3 27 2 28 1 29 4 30 5 31 98 32 99 33
REMARK SMILES IDX 100 34 27 35 28 36 29 37 30 39 31 40 32 41 96 42 33 43 95 44
REMARK SMILES IDX 34 45 35 46 36 47 89 48 37 49 94 50 88 51 90 52 38 53 93 54
REMARK SMILES IDX 87 55 86 56 39 58 73 59 52 60 72 61 53 62 56 63 71 64 91 65
REMARK SMILES IDX 54 66 55 67 70 69 92 70 57 71 40 72 41 73 50 74 42 75 43 76
REMARK SMILES IDX 49 77 51 78 44 79 45 80 46 81 47 82 48 83 74 84 75 85 84 86
REMARK SMILES IDX 76 87 77 88 83 89 85 90 78 91 79 92 80 93 81 94 82 95 58 96
REMARK SMILES IDX 59 97 68 98 60 99 61 100 67 101 69 102 62 103 63 104 64 105
REMARK SMILES IDX 65 106 66 107
REMARK H PARENT 24 6 12 14 28 38 90 57 56 68
REMARK Flexibility Score: inf
ROOT
ATOM      1  C   UNL A   1      35.972  33.133  33.203  1.00  0.00     0.042 C 
ENDROOT
BRANCH   1   2
ATOM      2  C   UNL A   1      36.775  34.384  32.760  1.00  0.00     0.117 C 
BRANCH   2   3
ATOM      3  N   UNL A   1      37.804  34.182  31.676  1.00  0.00    -0.354 N 
ATOM      4  C   UNL A   1      39.170  34.051  31.500  1.00  0.00     0.243 C 
ATOM      5  O   UNL A   1      39.489  33.681  30.356  1.00  0.00    -0.273 OA
ATOM      6  H   UNL A   1      37.354  34.122  30.803  1.00  0.00     0.163 HD
BRANCH   4   7
ATOM      7  C   UNL A   1      40.356  34.518  32.476  1.00  0.00     0.179 C 
ATOM      8  C   UNL A   1      39.458  32.986  34.147  1.00  0.00     0.163 C 
ATOM      9  C   UNL A   1      40.651  32.113  33.760  1.00  0.00     0.047 A 
ATOM     10  N   UNL A   1      40.068  34.296  33.958  1.00  0.00    -0.318 N 
ATOM     11  N   UNL A   1      41.014  30.898  34.260  1.00  0.00    -0.356 N 
ATOM     12  C   UNL A   1      41.664  32.501  32.870  1.00  0.00    -0.014 A 
ATOM     13  C   UNL A   1      42.346  30.685  33.988  1.00  0.00     0.046 A 
ATOM     14  H   UNL A   1      40.420  30.274  34.738  1.00  0.00     0.166 HD
ATOM     15  C   UNL A   1      42.748  31.630  33.048  1.00  0.00     0.003 A 
ATOM     16  C   UNL A   1      41.639  33.784  32.101  1.00  0.00     0.073 C 
ATOM     17  C   UNL A   1      43.225  29.752  34.526  1.00  0.00     0.026 A 
ATOM     18  C   UNL A   1      44.064  31.630  32.566  1.00  0.00     0.010 A 
ATOM     19  C   UNL A   1      44.554  29.820  34.099  1.00  0.00     0.002 A 
ATOM     20  C   UNL A   1      44.965  30.729  33.123  1.00  0.00     0.001 A 
BRANCH   8  21
ATOM     21  C   UNL A   1      38.652  32.755  35.403  1.00  0.00    -0.019 A 
ATOM     22  C   UNL A   1      37.587  32.385  38.027  1.00  0.00     0.037 A 
ATOM     23  C   UNL A   1      37.630  33.628  37.403  1.00  0.00     0.026 A 
ATOM     24  C   UNL A   1      37.927  31.294  37.216  1.00  0.00     0.026 A 
ATOM     25  C   UNL A   1      38.112  33.808  36.119  1.00  0.00     0.008 A 
ATOM     26  C   UNL A   1      38.461  31.468  35.927  1.00  0.00     0.008 A 
BRANCH  22  27
ATOM     27  N   UNL A   1      37.248  32.262  39.368  1.00  0.00    -0.372 N 
BRANCH  27  28
ATOM     28  C   UNL A   1      35.989  31.589  39.721  1.00  0.00     0.113 C 
ATOM     29  C   UNL A   1      34.810  32.548  39.819  1.00  0.00     0.027 C 
ENDBRANCH  27  28
BRANCH  27  30
ATOM     30  C   UNL A   1      38.272  32.375  40.427  1.00  0.00     0.113 C 
ATOM     31  C   UNL A   1      39.570  33.063  39.999  1.00  0.00     0.027 C 
ENDBRANCH  27  30
ENDBRANCH  22  27
ENDBRANCH   8  21
BRANCH  10  32
ATOM     32  C   UNL A   1      40.930  34.648  35.028  1.00  0.00     0.220 C 
ATOM     33  C   UNL A   1      41.131  36.069  35.474  1.00  0.00     0.114 C 
ATOM     34  O   UNL A   1      41.617  33.821  35.642  1.00  0.00    -0.275 OA
ENDBRANCH  10  32
ENDBRANCH   4   7
ENDBRANCH   2   3
ENDBRANCH   1   2
BRANCH   1  35
ATOM     35  C   UNL A   1      36.193  31.743  32.570  1.00  0.00     0.118 C 
BRANCH  35  36
ATOM     36  N   UNL A   1      35.535  31.527  31.282  1.00  0.00    -0.352 N 
ATOM     37  C   UNL A   1      35.940  31.062  30.044  1.00  0.00     0.251 C 
ATOM     38  H   UNL A   1      34.580  31.769  31.300  1.00  0.00     0.163 HD
ATOM     39  O   UNL A   1      35.078  31.057  29.158  1.00  0.00    -0.269 OA
BRANCH  37  40
ATOM     40  C   UNL A   1      37.314  30.576  29.682  1.00  0.00     0.039 A 
ATOM     41  C   UNL A   1      38.243  30.397  30.727  1.00  0.00     0.014 A 
ATOM     42  C   UNL A   1      37.776  30.393  28.380  1.00  0.00     0.014 A 
ATOM     43  C   UNL A   1      39.574  30.007  30.476  1.00  0.00     0.010 A 
ATOM     44  C   UNL A   1      39.086  29.931  28.133  1.00  0.00     0.010 A 
ATOM     45  C   UNL A   1      40.011  29.739  29.173  1.00  0.00    -0.014 A 
BRANCH  45  46
ATOM     46  C   UNL A   1      41.415  29.287  28.886  1.00  0.00     0.031 A 
ATOM     47  C   UNL A   1      42.569  30.266  28.921  1.00  0.00     0.074 A 
ATOM     48  C   UNL A   1      41.666  28.004  28.546  1.00  0.00     0.049 A 
ATOM     49  N   UNL A   1      43.833  30.078  28.625  1.00  0.00    -0.248 NA
ATOM     50  C   UNL A   1      42.256  31.646  29.320  1.00  0.00     0.031 C 
ATOM     51  C   UNL A   1      40.659  26.945  28.442  1.00  0.00     0.029 A 
ATOM     52  N   UNL A   1      42.842  27.368  28.211  1.00  0.00    -0.354 N 
ATOM     53  C   UNL A   1      44.457  31.313  28.781  1.00  0.00     0.074 A 
ATOM     54  C   UNL A   1      43.422  32.255  29.149  1.00  0.00     0.031 C 
ATOM     55  C   UNL A   1      41.259  25.796  28.089  1.00  0.00     0.029 A 
ATOM     56  C   UNL A   1      42.687  26.036  27.896  1.00  0.00     0.049 A 
ATOM     57  H   UNL A   1      43.715  27.825  28.198  1.00  0.00     0.167 HD
ATOM     58  C   UNL A   1      45.769  31.635  28.651  1.00  0.00     0.037 A 
ATOM     59  C   UNL A   1      43.580  25.110  27.485  1.00  0.00     0.037 A 
ATOM     60  C   UNL A   1      46.809  30.695  28.310  1.00  0.00     0.049 A 
ATOM     61  C   UNL A   1      45.029  25.492  27.332  1.00  0.00     0.074 A 
ATOM     62  C   UNL A   1      48.172  30.917  28.210  1.00  0.00     0.029 A 
ATOM     63  N   UNL A   1      46.605  29.356  28.010  1.00  0.00    -0.354 N 
ATOM     64  N   UNL A   1      45.601  26.654  27.535  1.00  0.00    -0.248 NA
ATOM     65  C   UNL A   1      45.957  24.435  26.899  1.00  0.00     0.031 C 
ATOM     66  C   UNL A   1      48.784  29.730  27.796  1.00  0.00     0.029 A 
ATOM     67  C   UNL A   1      47.812  28.749  27.699  1.00  0.00     0.049 A 
ATOM     68  H   UNL A   1      45.730  28.903  28.017  1.00  0.00     0.167 HD
ATOM     69  C   UNL A   1      46.957  26.461  27.284  1.00  0.00     0.074 A 
ATOM     70  C   UNL A   1      47.121  25.068  26.926  1.00  0.00     0.031 C 
ATOM     71  C   UNL A   1      47.972  27.358  27.348  1.00  0.00     0.037 A 
BRANCH  58  72
ATOM     72  C   UNL A   1      46.167  33.075  28.875  1.00  0.00     0.058 A 
ATOM     73  C   UNL A   1      46.010  34.050  27.877  1.00  0.00     0.135 A 
ATOM     74  C   UNL A   1      46.670  33.494  30.119  1.00  0.00     0.135 A 
ATOM     75  F   UNL A   1      45.540  33.710  26.666  1.00  0.00    -0.206 F 
ATOM     76  C   UNL A   1      46.375  35.377  28.088  1.00  0.00     0.059 A 
ATOM     77  C   UNL A   1      47.010  34.823  30.364  1.00  0.00     0.059 A 
ATOM     78  F   UNL A   1      46.833  32.610  31.115  1.00  0.00    -0.206 F 
ATOM     79  C   UNL A   1      46.875  35.754  29.335  1.00  0.00     0.060 A 
BRANCH  79  80
ATOM     80  S   UNL A   1      47.351  37.477  29.592  1.00  0.00     0.124 S 
ATOM     81  O   UNL A   1      48.790  37.349  29.813  1.00  0.00    -0.237 OA
ATOM     82  O   UNL A   1      46.960  38.098  28.326  1.00  0.00    -0.237 OA
ATOM     83  O   UNL A   1      46.571  37.879  30.751  1.00  0.00    -0.744 OA
ENDBRANCH  79  80
ENDBRANCH  58  72
BRANCH  59  84
ATOM     84  C   UNL A   1      43.130  23.717  27.200  1.00  0.00     0.058 A 
ATOM     85  C   UNL A   1      42.931  23.275  25.882  1.00  0.00     0.135 A 
ATOM     86  C   UNL A   1      42.897  22.797  28.235  1.00  0.00     0.135 A 
ATOM     87  F   UNL A   1      43.124  24.118  24.856  1.00  0.00    -0.206 F 
ATOM     88  C   UNL A   1      42.510  21.978  25.601  1.00  0.00     0.059 A 
ATOM     89  C   UNL A   1      42.506  21.486  27.978  1.00  0.00     0.059 A 
ATOM     90  F   UNL A   1      43.081  23.165  29.514  1.00  0.00    -0.206 F 
ATOM     91  C   UNL A   1      42.306  21.089  26.657  1.00  0.00     0.060 A 
BRANCH  91  92
ATOM     92  S   UNL A   1      41.820  19.391  26.278  1.00  0.00     0.124 S 
ATOM     93  O   UNL A   1      42.635  19.107  25.100  1.00  0.00    -0.237 OA
ATOM     94  O   UNL A   1      42.199  18.685  27.500  1.00  0.00    -0.237 OA
ATOM     95  O   UNL A   1      40.386  19.496  26.043  1.00  0.00    -0.744 OA
ENDBRANCH  91  92
ENDBRANCH  59  84
BRANCH  71  96
ATOM     96  C   UNL A   1      49.365  26.862  27.060  1.00  0.00     0.058 A 
ATOM     97  C   UNL A   1      49.899  26.857  25.762  1.00  0.00     0.135 A 
ATOM     98  C   UNL A   1      50.197  26.435  28.108  1.00  0.00     0.135 A 
ATOM     99  F   UNL A   1      49.148  27.249  24.721  1.00  0.00    -0.206 F 
ATOM    100  C   UNL A   1      51.198  26.425  25.509  1.00  0.00     0.059 A 
ATOM    101  C   UNL A   1      51.509  26.028  27.884  1.00  0.00     0.059 A 
ATOM    102  F   UNL A   1      49.743  26.428  29.372  1.00  0.00    -0.206 F 
ATOM    103  C   UNL A   1      51.997  26.014  26.579  1.00  0.00     0.060 A 
BRANCH 103 104
ATOM    104  S   UNL A   1      53.692  25.490  26.241  1.00  0.00     0.124 S 
ATOM    105  O   UNL A   1      53.484  24.144  25.719  1.00  0.00    -0.237 OA
ATOM    106  O   UNL A   1      54.139  26.485  25.273  1.00  0.00    -0.237 OA
ATOM    107  O   UNL A   1      54.337  25.563  27.550  1.00  0.00    -0.744 OA
ENDBRANCH 103 104
ENDBRANCH  71  96
ENDBRANCH  45  46
ENDBRANCH  37  40
ENDBRANCH  35  36
ENDBRANCH   1  35
TORSDOF 18
ENDMDL
