MODEL 1
REMARK VINA RESULT:     -10.3      0.000      0.000
REMARK SMILES CC[NH2+][C@@]1(C(=O)NCCCNC(=O)c2ccc(-c3c4nc(c(-c5c(F)cc(S(=O)(=O)[O-])cc5F)c5ccc([nH]5)c(-c5c(F)cc(S(=O)(=O)[O-])cc5F)c5nc(c(-c6c(F)cc(S(=O)(=O)[O-])cc6F)c6ccc3[nH]6)C=C5)C=C4)cc2)CCC[C@H]1CCN1C(=O)CCC1=O
REMARK SMILES IDX 9 1 8 2 7 3 5 4 6 5 4 7 80 8 83 9 81 10 82 11 3 12 2 15 1 16
REMARK SMILES IDX 84 17 85 18 86 19 87 20 91 21 88 22 89 23 90 24 92 25 10 26
REMARK SMILES IDX 11 27 12 28 13 30 14 31 15 32 79 33 16 34 78 35 17 36 18 37
REMARK SMILES IDX 19 38 72 39 20 40 77 41 71 42 73 43 21 44 76 45 70 46 69 47
REMARK SMILES IDX 22 49 56 50 35 51 55 52 36 53 39 54 54 55 74 56 37 57 38 58
REMARK SMILES IDX 53 60 75 61 40 62 23 63 24 64 33 65 25 66 26 67 32 68 34 69
REMARK SMILES IDX 27 70 28 71 29 72 30 73 31 74 57 75 58 76 67 77 59 78 60 79
REMARK SMILES IDX 66 80 68 81 61 82 62 83 63 84 64 85 65 86 41 87 42 88 51 89
REMARK SMILES IDX 43 90 44 91 50 92 52 93 45 94 46 95 47 96 48 97 49 98
REMARK H PARENT 7 6 3 13 3 14 11 29 73 48 39 59
REMARK Flexibility Score: inf
ROOT
ATOM      1  C   UNL A   1      35.092  23.182  26.687  1.00  0.00     0.042 C 
ENDROOT
BRANCH   1   2
ATOM      2  C   UNL A   1      33.916  22.950  25.743  1.00  0.00     0.118 C 
BRANCH   2   3
ATOM      3  N   UNL A   1      32.646  23.144  26.406  1.00  0.00    -0.351 N 
ATOM      4  C   UNL A   1      31.730  24.149  26.403  1.00  0.00     0.281 C 
ATOM      5  O   UNL A   1      30.827  23.996  27.240  1.00  0.00    -0.268 OA
ATOM      6  H   UNL A   1      32.389  22.389  26.983  1.00  0.00     0.163 HD
BRANCH   4   7
ATOM      7  C   UNL A   1      31.801  25.443  25.476  1.00  0.00     0.178 C 
ATOM      8  C   UNL A   1      32.412  25.224  24.078  1.00  0.00     0.079 C 
ATOM      9  C   UNL A   1      32.714  26.502  26.186  1.00  0.00     0.062 C 
ATOM     10  C   UNL A   1      33.742  25.966  24.015  1.00  0.00     0.008 C 
ATOM     11  C   UNL A   1      34.043  26.480  25.409  1.00  0.00     0.011 C 
BRANCH   7  12
ATOM     12  N   UNL A   1      30.416  25.965  25.304  1.00  0.00    -0.334 N 
ATOM     13  H   UNL A   1      29.821  25.495  25.987  1.00  0.00     0.347 HD
ATOM     14  H   UNL A   1      30.490  26.974  25.433  1.00  0.00     0.347 HD
BRANCH  12  15
ATOM     15  C   UNL A   1      29.810  25.784  23.985  1.00  0.00     0.257 C 
ATOM     16  C   UNL A   1      28.598  26.699  23.886  1.00  0.00     0.071 C 
ENDBRANCH  12  15
ENDBRANCH   7  12
BRANCH   9  17
ATOM     17  C   UNL A   1      32.238  27.974  26.268  1.00  0.00     0.033 C 
BRANCH  17  18
ATOM     18  C   UNL A   1      33.167  29.076  25.745  1.00  0.00     0.129 C 
BRANCH  18  19
ATOM     19  N   UNL A   1      33.627  30.115  26.651  1.00  0.00    -0.283 N 
ATOM     20  C   UNL A   1      32.935  31.205  27.091  1.00  0.00     0.229 C 
ATOM     21  C   UNL A   1      34.792  29.939  27.353  1.00  0.00     0.229 C 
ATOM     22  O   UNL A   1      31.789  31.529  26.814  1.00  0.00    -0.274 OA
ATOM     23  C   UNL A   1      33.822  32.004  27.999  1.00  0.00     0.110 C 
ATOM     24  C   UNL A   1      34.941  31.049  28.348  1.00  0.00     0.110 C 
ATOM     25  O   UNL A   1      35.556  28.987  27.281  1.00  0.00    -0.274 OA
ENDBRANCH  18  19
ENDBRANCH  17  18
ENDBRANCH   9  17
ENDBRANCH   4   7
ENDBRANCH   2   3
ENDBRANCH   1   2
BRANCH   1  26
ATOM     26  C   UNL A   1      36.377  23.555  25.957  1.00  0.00     0.118 C 
BRANCH  26  27
ATOM     27  N   UNL A   1      37.437  22.577  26.184  1.00  0.00    -0.352 N 
ATOM     28  C   UNL A   1      38.771  22.753  26.456  1.00  0.00     0.251 C 
ATOM     29  H   UNL A   1      37.147  21.637  26.135  1.00  0.00     0.163 HD
ATOM     30  O   UNL A   1      39.537  21.797  26.357  1.00  0.00    -0.269 OA
BRANCH  28  31
ATOM     31  C   UNL A   1      39.284  24.078  26.858  1.00  0.00     0.039 A 
ATOM     32  C   UNL A   1      39.178  24.474  28.194  1.00  0.00     0.014 A 
ATOM     33  C   UNL A   1      39.846  24.940  25.915  1.00  0.00     0.014 A 
ATOM     34  C   UNL A   1      39.705  25.705  28.594  1.00  0.00     0.010 A 
ATOM     35  C   UNL A   1      40.453  26.119  26.330  1.00  0.00     0.010 A 
ATOM     36  C   UNL A   1      40.385  26.517  27.672  1.00  0.00    -0.014 A 
BRANCH  36  37
ATOM     37  C   UNL A   1      41.038  27.786  28.081  1.00  0.00     0.031 A 
ATOM     38  C   UNL A   1      42.534  27.920  27.998  1.00  0.00     0.074 A 
ATOM     39  C   UNL A   1      40.292  28.777  28.609  1.00  0.00     0.049 A 
ATOM     40  N   UNL A   1      43.300  28.892  28.419  1.00  0.00    -0.248 NA
ATOM     41  C   UNL A   1      43.269  26.798  27.392  1.00  0.00     0.031 C 
ATOM     42  C   UNL A   1      38.837  28.742  28.784  1.00  0.00     0.029 A 
ATOM     43  N   UNL A   1      40.654  30.000  29.116  1.00  0.00    -0.354 N 
ATOM     44  C   UNL A   1      44.604  28.492  28.148  1.00  0.00     0.074 A 
ATOM     45  C   UNL A   1      44.529  27.165  27.578  1.00  0.00     0.031 C 
ATOM     46  C   UNL A   1      38.432  29.894  29.338  1.00  0.00     0.029 A 
ATOM     47  C   UNL A   1      39.597  30.731  29.604  1.00  0.00     0.049 A 
ATOM     48  H   UNL A   1      41.584  30.323  29.129  1.00  0.00     0.167 HD
ATOM     49  C   UNL A   1      45.756  29.179  28.335  1.00  0.00     0.037 A 
ATOM     50  C   UNL A   1      39.571  31.931  30.216  1.00  0.00     0.037 A 
ATOM     51  C   UNL A   1      45.814  30.510  28.879  1.00  0.00     0.049 A 
ATOM     52  C   UNL A   1      40.866  32.667  30.430  1.00  0.00     0.074 A 
ATOM     53  C   UNL A   1      46.923  31.321  29.050  1.00  0.00     0.029 A 
ATOM     54  N   UNL A   1      44.719  31.224  29.346  1.00  0.00    -0.354 N 
ATOM     55  N   UNL A   1      42.083  32.304  30.103  1.00  0.00    -0.248 NA
ATOM     56  C   UNL A   1      40.786  33.976  31.094  1.00  0.00     0.031 C 
ATOM     57  C   UNL A   1      46.505  32.503  29.668  1.00  0.00     0.029 A 
ATOM     58  C   UNL A   1      45.129  32.454  29.831  1.00  0.00     0.049 A 
ATOM     59  H   UNL A   1      43.789  30.903  29.333  1.00  0.00     0.167 HD
ATOM     60  C   UNL A   1      42.911  33.348  30.500  1.00  0.00     0.074 A 
ATOM     61  C   UNL A   1      42.055  34.363  31.078  1.00  0.00     0.031 C 
ATOM     62  C   UNL A   1      44.260  33.456  30.398  1.00  0.00     0.037 A 
BRANCH  49  63
ATOM     63  C   UNL A   1      47.045  28.506  27.946  1.00  0.00     0.058 A 
ATOM     64  C   UNL A   1      47.569  28.609  26.647  1.00  0.00     0.135 A 
ATOM     65  C   UNL A   1      47.785  27.780  28.894  1.00  0.00     0.135 A 
ATOM     66  F   UNL A   1      46.897  29.277  25.697  1.00  0.00    -0.206 F 
ATOM     67  C   UNL A   1      48.765  27.992  26.293  1.00  0.00     0.059 A 
ATOM     68  C   UNL A   1      48.999  27.181  28.569  1.00  0.00     0.059 A 
ATOM     69  F   UNL A   1      47.332  27.649  30.150  1.00  0.00    -0.206 F 
ATOM     70  C   UNL A   1      49.473  27.280  27.262  1.00  0.00     0.060 A 
BRANCH  70  71
ATOM     71  S   UNL A   1      51.026  26.493  26.787  1.00  0.00     0.124 S 
ATOM     72  O   UNL A   1      50.616  25.728  25.613  1.00  0.00    -0.237 OA
ATOM     73  O   UNL A   1      51.889  27.640  26.524  1.00  0.00    -0.237 OA
ATOM     74  O   UNL A   1      51.380  25.700  27.960  1.00  0.00    -0.744 OA
ENDBRANCH  70  71
ENDBRANCH  49  63
BRANCH  50  75
ATOM     75  C   UNL A   1      38.275  32.512  30.661  1.00  0.00     0.058 A 
ATOM     76  C   UNL A   1      37.510  33.310  29.798  1.00  0.00     0.135 A 
ATOM     77  C   UNL A   1      37.767  32.270  31.948  1.00  0.00     0.135 A 
ATOM     78  F   UNL A   1      37.954  33.576  28.560  1.00  0.00    -0.206 F 
ATOM     79  C   UNL A   1      36.296  33.862  30.198  1.00  0.00     0.059 A 
ATOM     80  C   UNL A   1      36.543  32.788  32.361  1.00  0.00     0.059 A 
ATOM     81  F   UNL A   1      38.453  31.501  32.807  1.00  0.00    -0.206 F 
ATOM     82  C   UNL A   1      35.820  33.590  31.481  1.00  0.00     0.060 A 
BRANCH  82  83
ATOM     83  S   UNL A   1      34.222  34.275  31.972  1.00  0.00     0.124 S 
ATOM     84  O   UNL A   1      33.652  33.173  32.738  1.00  0.00    -0.237 OA
ATOM     85  O   UNL A   1      34.618  35.451  32.741  1.00  0.00    -0.237 OA
ATOM     86  O   UNL A   1      33.573  34.561  30.696  1.00  0.00    -0.744 OA
ENDBRANCH  82  83
ENDBRANCH  50  75
BRANCH  62  87
ATOM     87  C   UNL A   1      44.896  34.724  30.896  1.00  0.00     0.058 A 
ATOM     88  C   UNL A   1      45.400  34.830  32.201  1.00  0.00     0.135 A 
ATOM     89  C   UNL A   1      45.073  35.817  30.031  1.00  0.00     0.135 A 
ATOM     90  F   UNL A   1      45.248  33.818  33.069  1.00  0.00    -0.206 F 
ATOM     91  C   UNL A   1      46.048  35.981  32.636  1.00  0.00     0.059 A 
ATOM     92  C   UNL A   1      45.746  36.965  30.436  1.00  0.00     0.059 A 
ATOM     93  F   UNL A   1      44.617  35.762  28.769  1.00  0.00    -0.206 F 
ATOM     94  C   UNL A   1      46.224  37.040  31.743  1.00  0.00     0.060 A 
BRANCH  94  95
ATOM     95  S   UNL A   1      47.122  38.502  32.304  1.00  0.00     0.124 S 
ATOM     96  O   UNL A   1      47.437  39.158  31.040  1.00  0.00    -0.237 OA
ATOM     97  O   UNL A   1      46.130  39.175  33.139  1.00  0.00    -0.237 OA
ATOM     98  O   UNL A   1      48.264  37.946  33.024  1.00  0.00    -0.744 OA
ENDBRANCH  94  95
ENDBRANCH  62  87
ENDBRANCH  36  37
ENDBRANCH  28  31
ENDBRANCH  26  27
ENDBRANCH   1  26
TORSDOF 18
ENDMDL
MODEL 2
REMARK VINA RESULT:     -10.3      5.126      9.613
REMARK SMILES CC[NH2+][C@@]1(C(=O)NCCCNC(=O)c2ccc(-c3c4nc(c(-c5c(F)cc(S(=O)(=O)[O-])cc5F)c5ccc([nH]5)c(-c5c(F)cc(S(=O)(=O)[O-])cc5F)c5nc(c(-c6c(F)cc(S(=O)(=O)[O-])cc6F)c6ccc3[nH]6)C=C5)C=C4)cc2)CCC[C@H]1CCN1C(=O)CCC1=O
REMARK SMILES IDX 9 1 8 2 7 3 5 4 6 5 4 7 80 8 83 9 81 10 82 11 3 12 2 15 1 16
REMARK SMILES IDX 84 17 85 18 86 19 87 20 91 21 88 22 89 23 90 24 92 25 10 26
REMARK SMILES IDX 11 27 12 28 13 30 14 31 15 32 79 33 16 34 78 35 17 36 18 37
REMARK SMILES IDX 19 38 72 39 20 40 77 41 71 42 73 43 21 44 76 45 70 46 69 47
REMARK SMILES IDX 22 49 56 50 35 51 55 52 36 53 39 54 54 55 74 56 37 57 38 58
REMARK SMILES IDX 53 60 75 61 40 62 23 63 24 64 33 65 25 66 26 67 32 68 34 69
REMARK SMILES IDX 27 70 28 71 29 72 30 73 31 74 57 75 58 76 67 77 59 78 60 79
REMARK SMILES IDX 66 80 68 81 61 82 62 83 63 84 64 85 65 86 41 87 42 88 51 89
REMARK SMILES IDX 43 90 44 91 50 92 52 93 45 94 46 95 47 96 48 97 49 98
REMARK H PARENT 7 6 3 13 3 14 11 29 73 48 39 59
REMARK Flexibility Score: inf
ROOT
ATOM      1  C   UNL A   1      38.086  22.848  26.120  1.00  0.00     0.042 C 
ENDROOT
BRANCH   1   2
ATOM      2  C   UNL A   1      36.592  22.931  25.822  1.00  0.00     0.118 C 
BRANCH   2   3
ATOM      3  N   UNL A   1      36.333  23.126  24.412  1.00  0.00    -0.351 N 
ATOM      4  C   UNL A   1      35.221  23.011  23.639  1.00  0.00     0.281 C 
ATOM      5  O   UNL A   1      35.451  23.119  22.425  1.00  0.00    -0.268 OA
ATOM      6  H   UNL A   1      37.131  23.399  23.904  1.00  0.00     0.163 HD
BRANCH   4   7
ATOM      7  C   UNL A   1      33.756  22.710  24.188  1.00  0.00     0.178 C 
ATOM      8  C   UNL A   1      33.530  21.283  24.725  1.00  0.00     0.079 C 
ATOM      9  C   UNL A   1      32.744  22.892  23.004  1.00  0.00     0.062 C 
ATOM     10  C   UNL A   1      32.567  20.564  23.788  1.00  0.00     0.008 C 
ATOM     11  C   UNL A   1      32.345  21.464  22.587  1.00  0.00     0.011 C 
BRANCH   7  12
ATOM     12  N   UNL A   1      33.467  23.674  25.287  1.00  0.00    -0.334 N 
ATOM     13  H   UNL A   1      34.354  24.082  25.583  1.00  0.00     0.347 HD
ATOM     14  H   UNL A   1      32.805  24.342  24.893  1.00  0.00     0.347 HD
BRANCH  12  15
ATOM     15  C   UNL A   1      32.809  23.129  26.475  1.00  0.00     0.257 C 
ATOM     16  C   UNL A   1      31.678  24.070  26.868  1.00  0.00     0.071 C 
ENDBRANCH  12  15
ENDBRANCH   7  12
BRANCH   9  17
ATOM     17  C   UNL A   1      31.442  23.696  23.242  1.00  0.00     0.033 C 
BRANCH  17  18
ATOM     18  C   UNL A   1      31.375  25.147  22.751  1.00  0.00     0.129 C 
BRANCH  18  19
ATOM     19  N   UNL A   1      31.521  26.234  23.705  1.00  0.00    -0.283 N 
ATOM     20  C   UNL A   1      30.565  26.761  24.522  1.00  0.00     0.229 C 
ATOM     21  C   UNL A   1      32.773  26.687  24.034  1.00  0.00     0.229 C 
ATOM     22  O   UNL A   1      29.394  26.427  24.620  1.00  0.00    -0.274 OA
ATOM     23  C   UNL A   1      31.175  27.876  25.319  1.00  0.00     0.110 C 
ATOM     24  C   UNL A   1      32.664  27.663  25.165  1.00  0.00     0.110 C 
ATOM     25  O   UNL A   1      33.839  26.300  23.573  1.00  0.00    -0.274 OA
ENDBRANCH  18  19
ENDBRANCH  17  18
ENDBRANCH   9  17
ENDBRANCH   4   7
ENDBRANCH   2   3
ENDBRANCH   1   2
BRANCH   1  26
ATOM     26  C   UNL A   1      38.664  24.161  26.634  1.00  0.00     0.118 C 
BRANCH  26  27
ATOM     27  N   UNL A   1      39.854  24.561  25.888  1.00  0.00    -0.352 N 
ATOM     28  C   UNL A   1      40.713  25.616  26.077  1.00  0.00     0.251 C 
ATOM     29  H   UNL A   1      40.076  23.980  25.125  1.00  0.00     0.163 HD
ATOM     30  O   UNL A   1      41.501  25.918  25.184  1.00  0.00    -0.269 OA
BRANCH  28  31
ATOM     31  C   UNL A   1      40.690  26.382  27.339  1.00  0.00     0.039 A 
ATOM     32  C   UNL A   1      41.532  27.490  27.481  1.00  0.00     0.014 A 
ATOM     33  C   UNL A   1      39.859  25.996  28.391  1.00  0.00     0.014 A 
ATOM     34  C   UNL A   1      41.481  28.251  28.651  1.00  0.00     0.010 A 
ATOM     35  C   UNL A   1      39.742  26.807  29.514  1.00  0.00     0.010 A 
ATOM     36  C   UNL A   1      40.554  27.940  29.658  1.00  0.00    -0.014 A 
BRANCH  36  37
ATOM     37  C   UNL A   1      40.408  28.780  30.873  1.00  0.00     0.031 A 
ATOM     38  C   UNL A   1      39.391  29.888  30.901  1.00  0.00     0.074 A 
ATOM     39  C   UNL A   1      41.252  28.603  31.909  1.00  0.00     0.049 A 
ATOM     40  N   UNL A   1      39.194  30.806  31.811  1.00  0.00    -0.248 NA
ATOM     41  C   UNL A   1      38.498  30.000  29.735  1.00  0.00     0.031 C 
ATOM     42  C   UNL A   1      42.311  27.592  31.976  1.00  0.00     0.029 A 
ATOM     43  N   UNL A   1      41.368  29.279  33.098  1.00  0.00    -0.354 N 
ATOM     44  C   UNL A   1      38.172  31.612  31.322  1.00  0.00     0.074 A 
ATOM     45  C   UNL A   1      37.829  31.110  30.009  1.00  0.00     0.031 C 
ATOM     46  C   UNL A   1      42.953  27.703  33.149  1.00  0.00     0.029 A 
ATOM     47  C   UNL A   1      42.389  28.821  33.897  1.00  0.00     0.049 A 
ATOM     48  H   UNL A   1      40.776  30.024  33.353  1.00  0.00     0.167 HD
ATOM     49  C   UNL A   1      37.561  32.660  31.923  1.00  0.00     0.037 A 
ATOM     50  C   UNL A   1      42.833  29.263  35.090  1.00  0.00     0.037 A 
ATOM     51  C   UNL A   1      37.894  33.133  33.240  1.00  0.00     0.049 A 
ATOM     52  C   UNL A   1      42.149  30.442  35.729  1.00  0.00     0.074 A 
ATOM     53  C   UNL A   1      37.293  34.145  33.968  1.00  0.00     0.029 A 
ATOM     54  N   UNL A   1      38.922  32.631  34.026  1.00  0.00    -0.354 N 
ATOM     55  N   UNL A   1      41.138  31.149  35.284  1.00  0.00    -0.248 NA
ATOM     56  C   UNL A   1      42.664  30.883  37.033  1.00  0.00     0.031 C 
ATOM     57  C   UNL A   1      37.991  34.289  35.170  1.00  0.00     0.029 A 
ATOM     58  C   UNL A   1      38.991  33.331  35.218  1.00  0.00     0.049 A 
ATOM     59  H   UNL A   1      39.514  31.886  33.773  1.00  0.00     0.167 HD
ATOM     60  C   UNL A   1      40.881  32.103  36.261  1.00  0.00     0.074 A 
ATOM     61  C   UNL A   1      41.832  31.873  37.329  1.00  0.00     0.031 C 
ATOM     62  C   UNL A   1      39.943  33.083  36.274  1.00  0.00     0.037 A 
BRANCH  49  63
ATOM     63  C   UNL A   1      36.468  33.365  31.163  1.00  0.00     0.058 A 
ATOM     64  C   UNL A   1      36.749  34.184  30.057  1.00  0.00     0.135 A 
ATOM     65  C   UNL A   1      35.122  33.189  31.521  1.00  0.00     0.135 A 
ATOM     66  F   UNL A   1      38.019  34.400  29.679  1.00  0.00    -0.206 F 
ATOM     67  C   UNL A   1      35.737  34.828  29.353  1.00  0.00     0.059 A 
ATOM     68  C   UNL A   1      34.091  33.799  30.811  1.00  0.00     0.059 A 
ATOM     69  F   UNL A   1      34.796  32.418  32.569  1.00  0.00    -0.206 F 
ATOM     70  C   UNL A   1      34.410  34.629  29.738  1.00  0.00     0.060 A 
BRANCH  70  71
ATOM     71  S   UNL A   1      33.111  35.466  28.807  1.00  0.00     0.124 S 
ATOM     72  O   UNL A   1      33.888  36.398  27.996  1.00  0.00    -0.237 OA
ATOM     73  O   UNL A   1      32.488  34.364  28.081  1.00  0.00    -0.237 OA
ATOM     74  O   UNL A   1      32.286  36.077  29.845  1.00  0.00    -0.744 OA
ENDBRANCH  70  71
ENDBRANCH  49  63
BRANCH  50  75
ATOM     75  C   UNL A   1      43.976  28.584  35.758  1.00  0.00     0.058 A 
ATOM     76  C   UNL A   1      45.298  28.971  35.494  1.00  0.00     0.135 A 
ATOM     77  C   UNL A   1      43.772  27.546  36.682  1.00  0.00     0.135 A 
ATOM     78  F   UNL A   1      45.546  29.952  34.613  1.00  0.00    -0.206 F 
ATOM     79  C   UNL A   1      46.378  28.345  36.109  1.00  0.00     0.059 A 
ATOM     80  C   UNL A   1      44.835  26.925  37.331  1.00  0.00     0.059 A 
ATOM     81  F   UNL A   1      42.526  27.148  36.982  1.00  0.00    -0.206 F 
ATOM     82  C   UNL A   1      46.135  27.325  37.030  1.00  0.00     0.060 A 
BRANCH  82  83
ATOM     83  S   UNL A   1      47.544  26.552  37.854  1.00  0.00     0.124 S 
ATOM     84  O   UNL A   1      47.890  25.492  36.915  1.00  0.00    -0.237 OA
ATOM     85  O   UNL A   1      48.490  27.661  37.945  1.00  0.00    -0.237 OA
ATOM     86  O   UNL A   1      46.986  26.110  39.129  1.00  0.00    -0.744 OA
ENDBRANCH  82  83
ENDBRANCH  50  75
BRANCH  62  87
ATOM     87  C   UNL A   1      39.877  33.967  37.488  1.00  0.00     0.058 A 
ATOM     88  C   UNL A   1      40.555  35.194  37.542  1.00  0.00     0.135 A 
ATOM     89  C   UNL A   1      39.061  33.619  38.577  1.00  0.00     0.135 A 
ATOM     90  F   UNL A   1      41.355  35.569  36.531  1.00  0.00    -0.206 F 
ATOM     91  C   UNL A   1      40.437  36.040  38.639  1.00  0.00     0.059 A 
ATOM     92  C   UNL A   1      38.904  34.464  39.671  1.00  0.00     0.059 A 
ATOM     93  F   UNL A   1      38.383  32.459  38.571  1.00  0.00    -0.206 F 
ATOM     94  C   UNL A   1      39.601  35.670  39.695  1.00  0.00     0.060 A 
BRANCH  94  95
ATOM     95  S   UNL A   1      39.410  36.808  41.084  1.00  0.00     0.124 S 
ATOM     96  O   UNL A   1      38.563  36.034  41.984  1.00  0.00    -0.237 OA
ATOM     97  O   UNL A   1      40.790  37.001  41.520  1.00  0.00    -0.237 OA
ATOM     98  O   UNL A   1      38.781  37.979  40.481  1.00  0.00    -0.744 OA
ENDBRANCH  94  95
ENDBRANCH  62  87
ENDBRANCH  36  37
ENDBRANCH  28  31
ENDBRANCH  26  27
ENDBRANCH   1  26
TORSDOF 18
ENDMDL
MODEL 3
REMARK VINA RESULT:     -10.3      2.892      9.323
REMARK SMILES CC[NH2+][C@@]1(C(=O)NCCCNC(=O)c2ccc(-c3c4nc(c(-c5c(F)cc(S(=O)(=O)[O-])cc5F)c5ccc([nH]5)c(-c5c(F)cc(S(=O)(=O)[O-])cc5F)c5nc(c(-c6c(F)cc(S(=O)(=O)[O-])cc6F)c6ccc3[nH]6)C=C5)C=C4)cc2)CCC[C@H]1CCN1C(=O)CCC1=O
REMARK SMILES IDX 9 1 8 2 7 3 5 4 6 5 4 7 80 8 83 9 81 10 82 11 3 12 2 15 1 16
REMARK SMILES IDX 84 17 85 18 86 19 87 20 91 21 88 22 89 23 90 24 92 25 10 26
REMARK SMILES IDX 11 27 12 28 13 30 14 31 15 32 79 33 16 34 78 35 17 36 18 37
REMARK SMILES IDX 19 38 72 39 20 40 77 41 71 42 73 43 21 44 76 45 70 46 69 47
REMARK SMILES IDX 22 49 56 50 35 51 55 52 36 53 39 54 54 55 74 56 37 57 38 58
REMARK SMILES IDX 53 60 75 61 40 62 23 63 24 64 33 65 25 66 26 67 32 68 34 69
REMARK SMILES IDX 27 70 28 71 29 72 30 73 31 74 57 75 58 76 67 77 59 78 60 79
REMARK SMILES IDX 66 80 68 81 61 82 62 83 63 84 64 85 65 86 41 87 42 88 51 89
REMARK SMILES IDX 43 90 44 91 50 92 52 93 45 94 46 95 47 96 48 97 49 98
REMARK H PARENT 7 6 3 13 3 14 11 29 73 48 39 59
REMARK Flexibility Score: inf
ROOT
ATOM      1  C   UNL A   1      37.954  20.436  25.020  1.00  0.00     0.042 C 
ENDROOT
BRANCH   1   2
ATOM      2  C   UNL A   1      36.683  21.230  25.305  1.00  0.00     0.118 C 
BRANCH   2   3
ATOM      3  N   UNL A   1      36.391  22.178  24.253  1.00  0.00    -0.351 N 
ATOM      4  C   UNL A   1      35.238  22.689  23.744  1.00  0.00     0.281 C 
ATOM      5  O   UNL A   1      35.411  23.374  22.725  1.00  0.00    -0.268 OA
ATOM      6  H   UNL A   1      37.198  22.529  23.812  1.00  0.00     0.163 HD
BRANCH   4   7
ATOM      7  C   UNL A   1      33.783  22.412  24.329  1.00  0.00     0.178 C 
ATOM      8  C   UNL A   1      33.537  20.980  24.845  1.00  0.00     0.079 C 
ATOM      9  C   UNL A   1      32.742  22.641  23.178  1.00  0.00     0.062 C 
ATOM     10  C   UNL A   1      32.530  20.304  23.922  1.00  0.00     0.008 C 
ATOM     11  C   UNL A   1      32.297  21.232  22.745  1.00  0.00     0.011 C 
BRANCH   7  12
ATOM     12  N   UNL A   1      33.548  23.361  25.454  1.00  0.00    -0.334 N 
ATOM     13  H   UNL A   1      34.386  23.934  25.555  1.00  0.00     0.347 HD
ATOM     14  H   UNL A   1      32.709  23.880  25.198  1.00  0.00     0.347 HD
BRANCH  12  15
ATOM     15  C   UNL A   1      33.256  22.765  26.758  1.00  0.00     0.257 C 
ATOM     16  C   UNL A   1      31.818  23.106  27.126  1.00  0.00     0.071 C 
ENDBRANCH  12  15
ENDBRANCH   7  12
BRANCH   9  17
ATOM     17  C   UNL A   1      31.468  23.472  23.468  1.00  0.00     0.033 C 
BRANCH  17  18
ATOM     18  C   UNL A   1      31.292  24.819  22.757  1.00  0.00     0.129 C 
BRANCH  18  19
ATOM     19  N   UNL A   1      32.203  25.911  23.055  1.00  0.00    -0.283 N 
ATOM     20  C   UNL A   1      32.423  26.508  24.262  1.00  0.00     0.229 C 
ATOM     21  C   UNL A   1      33.133  26.295  22.124  1.00  0.00     0.229 C 
ATOM     22  O   UNL A   1      31.903  26.244  25.336  1.00  0.00    -0.274 OA
ATOM     23  C   UNL A   1      33.437  27.598  24.081  1.00  0.00     0.110 C 
ATOM     24  C   UNL A   1      34.064  27.295  22.740  1.00  0.00     0.110 C 
ATOM     25  O   UNL A   1      33.277  25.839  20.998  1.00  0.00    -0.274 OA
ENDBRANCH  18  19
ENDBRANCH  17  18
ENDBRANCH   9  17
ENDBRANCH   4   7
ENDBRANCH   2   3
ENDBRANCH   1   2
BRANCH   1  26
ATOM     26  C   UNL A   1      39.124  20.846  25.905  1.00  0.00     0.118 C 
BRANCH  26  27
ATOM     27  N   UNL A   1      40.086  19.762  26.074  1.00  0.00    -0.352 N 
ATOM     28  C   UNL A   1      41.455  19.791  26.184  1.00  0.00     0.251 C 
ATOM     29  H   UNL A   1      39.689  18.861  26.115  1.00  0.00     0.163 HD
ATOM     30  O   UNL A   1      42.091  18.747  26.061  1.00  0.00    -0.269 OA
BRANCH  28  31
ATOM     31  C   UNL A   1      42.157  21.064  26.443  1.00  0.00     0.039 A 
ATOM     32  C   UNL A   1      42.421  21.928  25.376  1.00  0.00     0.014 A 
ATOM     33  C   UNL A   1      42.578  21.394  27.732  1.00  0.00     0.014 A 
ATOM     34  C   UNL A   1      43.040  23.157  25.620  1.00  0.00     0.010 A 
ATOM     35  C   UNL A   1      43.107  22.655  27.986  1.00  0.00     0.010 A 
ATOM     36  C   UNL A   1      43.348  23.547  26.932  1.00  0.00    -0.014 A 
BRANCH  36  37
ATOM     37  C   UNL A   1      43.920  24.883  27.238  1.00  0.00     0.031 A 
ATOM     38  C   UNL A   1      43.019  25.999  27.689  1.00  0.00     0.074 A 
ATOM     39  C   UNL A   1      45.231  25.110  27.019  1.00  0.00     0.049 A 
ATOM     40  N   UNL A   1      43.302  27.261  27.885  1.00  0.00    -0.248 NA
ATOM     41  C   UNL A   1      41.605  25.660  27.920  1.00  0.00     0.031 C 
ATOM     42  C   UNL A   1      46.194  24.115  26.535  1.00  0.00     0.029 A 
ATOM     43  N   UNL A   1      45.979  26.252  27.155  1.00  0.00    -0.354 N 
ATOM     44  C   UNL A   1      42.103  27.867  28.241  1.00  0.00     0.074 A 
ATOM     45  C   UNL A   1      41.079  26.848  28.180  1.00  0.00     0.031 C 
ATOM     46  C   UNL A   1      47.404  24.686  26.435  1.00  0.00     0.029 A 
ATOM     47  C   UNL A   1      47.297  26.096  26.797  1.00  0.00     0.049 A 
ATOM     48  H   UNL A   1      45.606  27.104  27.478  1.00  0.00     0.167 HD
ATOM     49  C   UNL A   1      41.882  29.151  28.609  1.00  0.00     0.037 A 
ATOM     50  C   UNL A   1      48.303  26.991  26.746  1.00  0.00     0.037 A 
ATOM     51  C   UNL A   1      42.915  30.150  28.691  1.00  0.00     0.049 A 
ATOM     52  C   UNL A   1      48.028  28.417  27.142  1.00  0.00     0.074 A 
ATOM     53  C   UNL A   1      42.809  31.463  29.114  1.00  0.00     0.029 A 
ATOM     54  N   UNL A   1      44.242  29.948  28.336  1.00  0.00    -0.354 N 
ATOM     55  N   UNL A   1      46.902  28.958  27.544  1.00  0.00    -0.248 NA
ATOM     56  C   UNL A   1      49.157  29.355  27.079  1.00  0.00     0.031 C 
ATOM     57  C   UNL A   1      44.061  32.069  28.966  1.00  0.00     0.029 A 
ATOM     58  C   UNL A   1      44.960  31.120  28.504  1.00  0.00     0.049 A 
ATOM     59  H   UNL A   1      44.617  29.097  28.014  1.00  0.00     0.167 HD
ATOM     60  C   UNL A   1      47.193  30.292  27.803  1.00  0.00     0.074 A 
ATOM     61  C   UNL A   1      48.603  30.473  27.528  1.00  0.00     0.031 C 
ATOM     62  C   UNL A   1      46.367  31.280  28.230  1.00  0.00     0.037 A 
BRANCH  49  63
ATOM     63  C   UNL A   1      40.471  29.550  28.952  1.00  0.00     0.058 A 
ATOM     64  C   UNL A   1      39.476  29.663  27.967  1.00  0.00     0.135 A 
ATOM     65  C   UNL A   1      40.100  29.784  30.286  1.00  0.00     0.135 A 
ATOM     66  F   UNL A   1      39.777  29.465  26.674  1.00  0.00    -0.206 F 
ATOM     67  C   UNL A   1      38.171  30.025  28.289  1.00  0.00     0.059 A 
ATOM     68  C   UNL A   1      38.793  30.117  30.633  1.00  0.00     0.059 A 
ATOM     69  F   UNL A   1      41.010  29.691  31.268  1.00  0.00    -0.206 F 
ATOM     70  C   UNL A   1      37.840  30.249  29.625  1.00  0.00     0.060 A 
BRANCH  70  71
ATOM     71  S   UNL A   1      36.141  30.708  30.024  1.00  0.00     0.124 S 
ATOM     72  O   UNL A   1      36.244  32.162  30.104  1.00  0.00    -0.237 OA
ATOM     73  O   UNL A   1      35.401  30.190  28.877  1.00  0.00    -0.237 OA
ATOM     74  O   UNL A   1      35.890  30.027  31.290  1.00  0.00    -0.744 OA
ENDBRANCH  70  71
ENDBRANCH  49  63
BRANCH  50  75
ATOM     75  C   UNL A   1      49.661  26.562  26.314  1.00  0.00     0.058 A 
ATOM     76  C   UNL A   1      50.542  25.946  27.214  1.00  0.00     0.135 A 
ATOM     77  C   UNL A   1      50.099  26.745  24.992  1.00  0.00     0.135 A 
ATOM     78  F   UNL A   1      50.173  25.756  28.490  1.00  0.00    -0.206 F 
ATOM     79  C   UNL A   1      51.816  25.540  26.826  1.00  0.00     0.059 A 
ATOM     80  C   UNL A   1      51.357  26.321  24.573  1.00  0.00     0.059 A 
ATOM     81  F   UNL A   1      49.288  27.314  24.087  1.00  0.00    -0.206 F 
ATOM     82  C   UNL A   1      52.212  25.728  25.501  1.00  0.00     0.060 A 
BRANCH  82  83
ATOM     83  S   UNL A   1      53.850  25.156  24.999  1.00  0.00     0.124 S 
ATOM     84  O   UNL A   1      53.993  25.784  23.691  1.00  0.00    -0.237 OA
ATOM     85  O   UNL A   1      54.697  25.690  26.062  1.00  0.00    -0.237 OA
ATOM     86  O   UNL A   1      53.710  23.703  24.991  1.00  0.00    -0.744 OA
ENDBRANCH  82  83
ENDBRANCH  50  75
BRANCH  62  87
ATOM     87  C   UNL A   1      46.965  32.641  28.452  1.00  0.00     0.058 A 
ATOM     88  C   UNL A   1      46.972  33.615  27.442  1.00  0.00     0.135 A 
ATOM     89  C   UNL A   1      47.466  33.000  29.714  1.00  0.00     0.135 A 
ATOM     90  F   UNL A   1      46.514  33.320  26.215  1.00  0.00    -0.206 F 
ATOM     91  C   UNL A   1      47.465  34.894  27.672  1.00  0.00     0.059 A 
ATOM     92  C   UNL A   1      47.936  34.283  29.975  1.00  0.00     0.059 A 
ATOM     93  F   UNL A   1      47.474  32.107  30.717  1.00  0.00    -0.206 F 
ATOM     94  C   UNL A   1      47.937  35.221  28.945  1.00  0.00     0.060 A 
BRANCH  94  95
ATOM     95  S   UNL A   1      48.517  36.905  29.244  1.00  0.00     0.124 S 
ATOM     96  O   UNL A   1      48.361  37.510  27.926  1.00  0.00    -0.237 OA
ATOM     97  O   UNL A   1      47.591  37.374  30.271  1.00  0.00    -0.237 OA
ATOM     98  O   UNL A   1      49.894  36.718  29.690  1.00  0.00    -0.744 OA
ENDBRANCH  94  95
ENDBRANCH  62  87
ENDBRANCH  36  37
ENDBRANCH  28  31
ENDBRANCH  26  27
ENDBRANCH   1  26
TORSDOF 18
ENDMDL
