MODEL 1
REMARK VINA RESULT:     -13.3      0.000      0.000
REMARK SMILES Cc1ccc(S(=O)(=O)N[C@@H](C)C(=O)Oc2csc(C(=O)NCCCNC(=O)c3ccc(-c4c5nc(c(-c6c(F)cc(S(=O)(=O)[O-])cc6F)c6ccc([nH]6)c(-c6c(F)cc(S(=O)(=O)[O-])cc6F)c6nc(c(-c7c(F)cc(S(=O)(=O)[O-])cc7F)c7ccc4[nH]7)C=C6)C=C5)cc3)c2C)cc1
REMARK SMILES IDX 19 1 20 2 21 3 18 5 15 6 16 7 94 8 17 9 95 10 14 11 12 12
REMARK SMILES IDX 13 13 10 14 11 15 9 16 6 18 7 19 8 20 5 21 1 22 2 23 3 24
REMARK SMILES IDX 97 25 4 26 96 27 22 28 23 29 24 30 25 31 26 32 27 34 28 35
REMARK SMILES IDX 29 36 93 37 30 38 92 39 31 40 32 41 33 42 86 43 34 44 91 45
REMARK SMILES IDX 85 46 87 47 35 48 90 49 84 50 83 51 36 53 70 54 49 55 69 56
REMARK SMILES IDX 50 57 53 58 68 59 88 60 51 61 52 62 67 64 89 65 54 66 37 67
REMARK SMILES IDX 38 68 47 69 39 70 40 71 46 72 48 73 41 74 42 75 43 76 44 77
REMARK SMILES IDX 45 78 71 79 72 80 81 81 73 82 74 83 80 84 82 85 75 86 76 87
REMARK SMILES IDX 77 88 78 89 79 90 55 91 56 92 65 93 57 94 58 95 64 96 66 97
REMARK SMILES IDX 59 98 60 99 61 100 62 101 63 102
REMARK H PARENT 21 4 9 17 25 33 87 52 53 63
REMARK Flexibility Score: inf
ROOT
ATOM      1  C   UNL A   1      35.942  22.716  23.625  1.00  0.00     0.261 C 
ATOM      2  O   UNL A   1      35.674  23.264  22.552  1.00  0.00    -0.268 OA
ATOM      3  N   UNL A   1      37.242  22.264  23.804  1.00  0.00    -0.351 N 
ATOM      4  H   UNL A   1      37.769  22.243  22.973  1.00  0.00     0.163 HD
ENDROOT
BRANCH   1   5
ATOM      5  C   UNL A   1      34.958  22.598  24.699  1.00  0.00     0.099 A 
ATOM      6  C   UNL A   1      33.341  23.010  26.315  1.00  0.00     0.145 A 
ATOM      7  C   UNL A   1      33.253  21.646  26.250  1.00  0.00     0.113 A 
ATOM      8  C   UNL A   1      34.456  23.530  25.593  1.00  0.00     0.015 A 
ATOM      9  S   UNL A   1      34.346  21.024  25.087  1.00  0.00    -0.134 S 
ATOM     10  C   UNL A   1      34.939  24.911  25.815  1.00  0.00     0.050 C 
BRANCH   6  11
ATOM     11  O   UNL A   1      32.533  23.771  27.090  1.00  0.00    -0.424 OA
BRANCH  11  12
ATOM     12  C   UNL A   1      31.199  23.700  26.761  1.00  0.00     0.329 C 
ATOM     13  O   UNL A   1      30.360  23.013  27.339  1.00  0.00    -0.250 OA
BRANCH  12  14
ATOM     14  C   UNL A   1      30.834  24.681  25.649  1.00  0.00     0.177 C 
ATOM     15  C   UNL A   1      30.928  24.083  24.258  1.00  0.00     0.038 C 
BRANCH  14  16
ATOM     16  N   UNL A   1      31.686  25.853  25.867  1.00  0.00    -0.197 NA
ATOM     17  H   UNL A   1      31.430  26.213  26.786  1.00  0.00     0.142 HD
BRANCH  16  18
ATOM     18  S   UNL A   1      31.732  27.171  24.869  1.00  0.00     0.241 S 
ATOM     19  O   UNL A   1      30.387  27.597  24.619  1.00  0.00    -0.207 OA
ATOM     20  O   UNL A   1      32.611  26.772  23.769  1.00  0.00    -0.207 OA
BRANCH  18  21
ATOM     21  C   UNL A   1      32.568  28.472  25.732  1.00  0.00     0.082 A 
ATOM     22  C   UNL A   1      34.203  31.642  28.133  1.00  0.00     0.044 C 
ATOM     23  C   UNL A   1      33.648  30.536  27.286  1.00  0.00    -0.051 A 
ATOM     24  C   UNL A   1      32.369  30.664  26.732  1.00  0.00     0.005 A 
ATOM     25  C   UNL A   1      34.395  29.379  27.023  1.00  0.00     0.005 A 
ATOM     26  C   UNL A   1      31.824  29.633  25.971  1.00  0.00     0.022 A 
ATOM     27  C   UNL A   1      33.866  28.354  26.230  1.00  0.00     0.022 A 
ENDBRANCH  18  21
ENDBRANCH  16  18
ENDBRANCH  14  16
ENDBRANCH  12  14
ENDBRANCH  11  12
ENDBRANCH   6  11
ENDBRANCH   1   5
BRANCH   3  28
ATOM     28  C   UNL A   1      37.993  21.805  24.997  1.00  0.00     0.118 C 
BRANCH  28  29
ATOM     29  C   UNL A   1      37.955  22.739  26.330  1.00  0.00     0.042 C 
BRANCH  29  30
ATOM     30  C   UNL A   1      39.368  23.289  26.738  1.00  0.00     0.118 C 
BRANCH  30  31
ATOM     31  N   UNL A   1      40.002  24.778  27.358  1.00  0.00    -0.352 N 
ATOM     32  C   UNL A   1      39.969  26.007  28.399  1.00  0.00     0.251 C 
ATOM     33  H   UNL A   1      40.776  24.970  26.781  1.00  0.00     0.163 HD
ATOM     34  O   UNL A   1      41.148  26.330  28.677  1.00  0.00    -0.269 OA
BRANCH  32  35
ATOM     35  C   UNL A   1      38.823  26.910  29.407  1.00  0.00     0.039 A 
ATOM     36  C   UNL A   1      38.220  28.156  29.052  1.00  0.00     0.014 A 
ATOM     37  C   UNL A   1      38.490  26.699  30.729  1.00  0.00     0.014 A 
ATOM     38  C   UNL A   1      38.334  29.287  29.969  1.00  0.00     0.010 A 
ATOM     39  C   UNL A   1      38.675  27.773  31.637  1.00  0.00     0.010 A 
ATOM     40  C   UNL A   1      38.926  29.068  31.208  1.00  0.00    -0.014 A 
BRANCH  40  41
ATOM     41  C   UNL A   1      39.748  30.009  32.081  1.00  0.00     0.031 A 
ATOM     42  C   UNL A   1      40.527  29.371  33.129  1.00  0.00     0.074 A 
ATOM     43  C   UNL A   1      40.005  31.356  31.990  1.00  0.00     0.049 A 
ATOM     44  N   UNL A   1      40.465  29.642  34.388  1.00  0.00    -0.248 NA
ATOM     45  C   UNL A   1      41.397  28.256  32.789  1.00  0.00     0.031 C 
ATOM     46  C   UNL A   1      40.794  32.293  32.828  1.00  0.00     0.029 A 
ATOM     47  N   UNL A   1      39.469  32.281  31.112  1.00  0.00    -0.354 N 
ATOM     48  C   UNL A   1      41.543  28.977  34.931  1.00  0.00     0.074 A 
ATOM     49  C   UNL A   1      41.795  27.909  34.008  1.00  0.00     0.031 C 
ATOM     50  C   UNL A   1      40.292  33.547  32.698  1.00  0.00     0.029 A 
ATOM     51  C   UNL A   1      39.154  33.446  31.820  1.00  0.00     0.049 A 
ATOM     52  H   UNL A   1      39.333  32.141  30.147  1.00  0.00     0.167 HD
ATOM     53  C   UNL A   1      42.314  29.576  35.889  1.00  0.00     0.037 A 
ATOM     54  C   UNL A   1      37.831  33.672  32.105  1.00  0.00     0.037 A 
ATOM     55  C   UNL A   1      41.786  30.922  36.207  1.00  0.00     0.049 A 
ATOM     56  C   UNL A   1      37.501  33.501  33.556  1.00  0.00     0.074 A 
ATOM     57  C   UNL A   1      42.235  32.219  36.003  1.00  0.00     0.029 A 
ATOM     58  N   UNL A   1      40.446  31.056  36.539  1.00  0.00    -0.354 N 
ATOM     59  N   UNL A   1      38.407  33.203  34.436  1.00  0.00    -0.248 NA
ATOM     60  C   UNL A   1      36.157  33.555  34.129  1.00  0.00     0.031 C 
ATOM     61  C   UNL A   1      41.122  33.111  36.144  1.00  0.00     0.029 A 
ATOM     62  C   UNL A   1      40.007  32.367  36.487  1.00  0.00     0.049 A 
ATOM     63  H   UNL A   1      39.868  30.299  36.785  1.00  0.00     0.167 HD
ATOM     64  C   UNL A   1      37.831  32.978  35.642  1.00  0.00     0.074 A 
ATOM     65  C   UNL A   1      36.410  33.195  35.401  1.00  0.00     0.031 C 
ATOM     66  C   UNL A   1      38.588  32.631  36.724  1.00  0.00     0.037 A 
BRANCH  53  67
ATOM     67  C   UNL A   1      43.689  29.069  36.343  1.00  0.00     0.058 A 
ATOM     68  C   UNL A   1      43.794  27.860  37.065  1.00  0.00     0.135 A 
ATOM     69  C   UNL A   1      44.943  29.690  36.115  1.00  0.00     0.135 A 
ATOM     70  F   UNL A   1      42.715  27.105  37.315  1.00  0.00    -0.206 F 
ATOM     71  C   UNL A   1      45.011  27.351  37.546  1.00  0.00     0.059 A 
ATOM     72  C   UNL A   1      46.161  29.216  36.598  1.00  0.00     0.059 A 
ATOM     73  F   UNL A   1      45.106  30.778  35.371  1.00  0.00    -0.206 F 
ATOM     74  C   UNL A   1      46.192  28.043  37.315  1.00  0.00     0.060 A 
BRANCH  74  75
ATOM     75  S   UNL A   1      47.762  27.383  37.893  1.00  0.00     0.124 S 
ATOM     76  O   UNL A   1      47.415  26.897  39.225  1.00  0.00    -0.237 OA
ATOM     77  O   UNL A   1      48.049  26.359  36.894  1.00  0.00    -0.237 OA
ATOM     78  O   UNL A   1      48.654  28.540  37.867  1.00  0.00    -0.744 OA
ENDBRANCH  74  75
ENDBRANCH  53  67
BRANCH  54  79
ATOM     79  C   UNL A   1      36.929  33.239  30.991  1.00  0.00     0.058 A 
ATOM     80  C   UNL A   1      35.805  32.562  31.429  1.00  0.00     0.135 A 
ATOM     81  C   UNL A   1      36.602  34.191  30.047  1.00  0.00     0.135 A 
ATOM     82  F   UNL A   1      35.856  31.245  31.660  1.00  0.00    -0.206 F 
ATOM     83  C   UNL A   1      34.542  33.177  31.417  1.00  0.00     0.059 A 
ATOM     84  C   UNL A   1      35.297  34.744  30.029  1.00  0.00     0.059 A 
ATOM     85  F   UNL A   1      37.477  34.531  29.087  1.00  0.00    -0.206 F 
ATOM     86  C   UNL A   1      34.339  34.492  30.993  1.00  0.00     0.060 A 
BRANCH  86  87
ATOM     87  S   UNL A   1      32.925  35.873  31.907  1.00  0.00     0.124 S 
ATOM     88  O   UNL A   1      31.805  35.092  32.404  1.00  0.00    -0.237 OA
ATOM     89  O   UNL A   1      33.633  36.417  33.046  1.00  0.00    -0.237 OA
ATOM     90  O   UNL A   1      32.455  36.822  30.901  1.00  0.00    -0.744 OA
ENDBRANCH  86  87
ENDBRANCH  54  79
BRANCH  66  91
ATOM     91  C   UNL A   1      38.015  32.481  38.100  1.00  0.00     0.058 A 
ATOM     92  C   UNL A   1      38.184  33.455  39.098  1.00  0.00     0.135 A 
ATOM     93  C   UNL A   1      37.352  31.301  38.501  1.00  0.00     0.135 A 
ATOM     94  F   UNL A   1      38.948  34.539  38.895  1.00  0.00    -0.206 F 
ATOM     95  C   UNL A   1      37.603  33.332  40.357  1.00  0.00     0.059 A 
ATOM     96  C   UNL A   1      36.820  31.129  39.768  1.00  0.00     0.059 A 
ATOM     97  F   UNL A   1      37.176  30.259  37.682  1.00  0.00    -0.206 F 
ATOM     98  C   UNL A   1      36.909  32.169  40.675  1.00  0.00     0.060 A 
BRANCH  98  99
ATOM     99  S   UNL A   1      36.154  32.012  42.294  1.00  0.00     0.124 S 
ATOM    100  O   UNL A   1      36.222  33.378  42.802  1.00  0.00    -0.237 OA
ATOM    101  O   UNL A   1      34.821  31.530  41.945  1.00  0.00    -0.237 OA
ATOM    102  O   UNL A   1      37.012  31.050  42.978  1.00  0.00    -0.744 OA
ENDBRANCH  98  99
ENDBRANCH  66  91
ENDBRANCH  40  41
ENDBRANCH  32  35
ENDBRANCH  30  31
ENDBRANCH  29  30
ENDBRANCH  28  29
ENDBRANCH   3  28
TORSDOF 19
ENDMDL
MODEL 2
REMARK VINA RESULT:     -13.0      3.940      8.644
REMARK SMILES Cc1ccc(S(=O)(=O)N[C@@H](C)C(=O)Oc2csc(C(=O)NCCCNC(=O)c3ccc(-c4c5nc(c(-c6c(F)cc(S(=O)(=O)[O-])cc6F)c6ccc([nH]6)c(-c6c(F)cc(S(=O)(=O)[O-])cc6F)c6nc(c(-c7c(F)cc(S(=O)(=O)[O-])cc7F)c7ccc4[nH]7)C=C6)C=C5)cc3)c2C)cc1
REMARK SMILES IDX 19 1 20 2 21 3 18 5 15 6 16 7 94 8 17 9 95 10 14 11 12 12
REMARK SMILES IDX 13 13 10 14 11 15 9 16 6 18 7 19 8 20 5 21 1 22 2 23 3 24
REMARK SMILES IDX 97 25 4 26 96 27 22 28 23 29 24 30 25 31 26 32 27 34 28 35
REMARK SMILES IDX 29 36 93 37 30 38 92 39 31 40 32 41 33 42 86 43 34 44 91 45
REMARK SMILES IDX 85 46 87 47 35 48 90 49 84 50 83 51 36 53 70 54 49 55 69 56
REMARK SMILES IDX 50 57 53 58 68 59 88 60 51 61 52 62 67 64 89 65 54 66 37 67
REMARK SMILES IDX 38 68 47 69 39 70 40 71 46 72 48 73 41 74 42 75 43 76 44 77
REMARK SMILES IDX 45 78 71 79 72 80 81 81 73 82 74 83 80 84 82 85 75 86 76 87
REMARK SMILES IDX 77 88 78 89 79 90 55 91 56 92 65 93 57 94 58 95 64 96 66 97
REMARK SMILES IDX 59 98 60 99 61 100 62 101 63 102
REMARK H PARENT 21 4 9 17 25 33 87 52 53 63
REMARK Flexibility Score: inf
ROOT
ATOM      1  C   UNL A   1      30.542  28.641  22.609  1.00  0.00     0.261 C 
ATOM      2  O   UNL A   1      29.610  28.843  21.825  1.00  0.00    -0.268 OA
ATOM      3  N   UNL A   1      30.901  29.679  23.455  1.00  0.00    -0.351 N 
ATOM      4  H   UNL A   1      30.511  30.547  23.203  1.00  0.00     0.163 HD
ENDROOT
BRANCH   1   5
ATOM      5  C   UNL A   1      31.206  27.342  22.699  1.00  0.00     0.099 A 
ATOM      6  C   UNL A   1      31.691  25.080  22.913  1.00  0.00     0.145 A 
ATOM      7  C   UNL A   1      32.890  25.524  22.423  1.00  0.00     0.113 A 
ATOM      8  C   UNL A   1      30.811  26.144  23.271  1.00  0.00     0.015 A 
ATOM      9  S   UNL A   1      32.837  27.210  22.131  1.00  0.00    -0.134 S 
ATOM     10  C   UNL A   1      29.631  25.908  24.133  1.00  0.00     0.050 C 
BRANCH   6  11
ATOM     11  O   UNL A   1      31.422  23.775  23.156  1.00  0.00    -0.424 OA
BRANCH  11  12
ATOM     12  C   UNL A   1      32.096  23.250  24.234  1.00  0.00     0.329 C 
ATOM     13  O   UNL A   1      31.855  23.498  25.413  1.00  0.00    -0.250 OA
BRANCH  12  14
ATOM     14  C   UNL A   1      33.121  22.201  23.808  1.00  0.00     0.177 C 
ATOM     15  C   UNL A   1      32.600  20.778  23.884  1.00  0.00     0.038 C 
BRANCH  14  16
ATOM     16  N   UNL A   1      34.308  22.459  24.627  1.00  0.00    -0.197 NA
ATOM     17  H   UNL A   1      33.956  22.722  25.547  1.00  0.00     0.142 HD
BRANCH  16  18
ATOM     18  S   UNL A   1      35.471  23.576  24.259  1.00  0.00     0.241 S 
ATOM     19  O   UNL A   1      35.098  24.828  24.846  1.00  0.00    -0.207 OA
ATOM     20  O   UNL A   1      35.661  23.450  22.813  1.00  0.00    -0.207 OA
BRANCH  18  21
ATOM     21  C   UNL A   1      36.985  23.047  25.011  1.00  0.00     0.082 A 
ATOM     22  C   UNL A   1      40.467  21.922  27.269  1.00  0.00     0.044 C 
ATOM     23  C   UNL A   1      39.259  22.307  26.466  1.00  0.00    -0.051 A 
ATOM     24  C   UNL A   1      38.767  23.615  26.543  1.00  0.00     0.005 A 
ATOM     25  C   UNL A   1      38.622  21.384  25.626  1.00  0.00     0.005 A 
ATOM     26  C   UNL A   1      37.627  23.981  25.832  1.00  0.00     0.022 A 
ATOM     27  C   UNL A   1      37.497  21.756  24.881  1.00  0.00     0.022 A 
ENDBRANCH  18  21
ENDBRANCH  16  18
ENDBRANCH  14  16
ENDBRANCH  12  14
ENDBRANCH  11  12
ENDBRANCH   6  11
ENDBRANCH   1   5
BRANCH   3  28
ATOM     28  C   UNL A   1      31.760  29.743  24.663  1.00  0.00     0.118 C 
BRANCH  28  29
ATOM     29  C   UNL A   1      31.464  28.688  25.867  1.00  0.00     0.042 C 
BRANCH  29  30
ATOM     30  C   UNL A   1      32.766  28.215  26.606  1.00  0.00     0.118 C 
BRANCH  30  31
ATOM     31  N   UNL A   1      34.379  28.815  26.813  1.00  0.00    -0.352 N 
ATOM     32  C   UNL A   1      35.469  29.706  27.597  1.00  0.00     0.251 C 
ATOM     33  H   UNL A   1      34.887  28.401  26.079  1.00  0.00     0.163 HD
ATOM     34  O   UNL A   1      36.565  29.097  27.590  1.00  0.00    -0.269 OA
BRANCH  32  35
ATOM     35  C   UNL A   1      35.569  31.157  28.612  1.00  0.00     0.039 A 
ATOM     36  C   UNL A   1      36.498  32.227  28.426  1.00  0.00     0.014 A 
ATOM     37  C   UNL A   1      34.954  31.403  29.822  1.00  0.00     0.014 A 
ATOM     38  C   UNL A   1      37.341  32.637  29.545  1.00  0.00     0.010 A 
ATOM     39  C   UNL A   1      35.780  31.724  30.930  1.00  0.00     0.010 A 
ATOM     40  C   UNL A   1      37.122  32.043  30.783  1.00  0.00    -0.014 A 
BRANCH  40  41
ATOM     41  C   UNL A   1      38.102  31.731  31.908  1.00  0.00     0.031 A 
ATOM     42  C   UNL A   1      38.416  32.842  32.791  1.00  0.00     0.074 A 
ATOM     43  C   UNL A   1      38.659  30.551  32.340  1.00  0.00     0.049 A 
ATOM     44  N   UNL A   1      39.596  33.294  33.047  1.00  0.00    -0.248 NA
ATOM     45  C   UNL A   1      37.330  33.605  33.387  1.00  0.00     0.031 C 
ATOM     46  C   UNL A   1      39.617  30.223  33.426  1.00  0.00     0.029 A 
ATOM     47  N   UNL A   1      38.566  29.293  31.772  1.00  0.00    -0.354 N 
ATOM     48  C   UNL A   1      39.407  34.157  34.104  1.00  0.00     0.074 A 
ATOM     49  C   UNL A   1      38.035  34.560  33.983  1.00  0.00     0.031 C 
ATOM     50  C   UNL A   1      40.295  29.093  33.103  1.00  0.00     0.029 A 
ATOM     51  C   UNL A   1      39.830  28.692  31.799  1.00  0.00     0.049 A 
ATOM     52  H   UNL A   1      37.746  28.888  31.410  1.00  0.00     0.167 HD
ATOM     53  C   UNL A   1      40.291  34.179  35.147  1.00  0.00     0.037 A 
ATOM     54  C   UNL A   1      40.530  28.642  30.620  1.00  0.00     0.037 A 
ATOM     55  C   UNL A   1      41.388  33.213  34.911  1.00  0.00     0.049 A 
ATOM     56  C   UNL A   1      41.708  29.567  30.592  1.00  0.00     0.074 A 
ATOM     57  C   UNL A   1      41.776  32.016  35.496  1.00  0.00     0.029 A 
ATOM     58  N   UNL A   1      42.083  33.266  33.711  1.00  0.00    -0.354 N 
ATOM     59  N   UNL A   1      42.028  30.302  31.612  1.00  0.00    -0.248 NA
ATOM     60  C   UNL A   1      42.558  29.818  29.430  1.00  0.00     0.031 C 
ATOM     61  C   UNL A   1      42.649  31.331  34.588  1.00  0.00     0.029 A 
ATOM     62  C   UNL A   1      42.837  32.131  33.476  1.00  0.00     0.049 A 
ATOM     63  H   UNL A   1      42.043  34.030  33.093  1.00  0.00     0.167 HD
ATOM     64  C   UNL A   1      43.044  31.138  31.286  1.00  0.00     0.074 A 
ATOM     65  C   UNL A   1      43.338  30.810  29.897  1.00  0.00     0.031 C 
ATOM     66  C   UNL A   1      43.543  32.022  32.199  1.00  0.00     0.037 A 
BRANCH  53  67
ATOM     67  C   UNL A   1      40.032  34.864  36.494  1.00  0.00     0.058 A 
ATOM     68  C   UNL A   1      39.282  34.204  37.491  1.00  0.00     0.135 A 
ATOM     69  C   UNL A   1      40.477  36.149  36.895  1.00  0.00     0.135 A 
ATOM     70  F   UNL A   1      38.836  32.953  37.310  1.00  0.00    -0.206 F 
ATOM     71  C   UNL A   1      38.972  34.781  38.734  1.00  0.00     0.059 A 
ATOM     72  C   UNL A   1      40.167  36.751  38.113  1.00  0.00     0.059 A 
ATOM     73  F   UNL A   1      41.285  36.913  36.168  1.00  0.00    -0.206 F 
ATOM     74  C   UNL A   1      39.413  36.062  39.033  1.00  0.00     0.060 A 
BRANCH  74  75
ATOM     75  S   UNL A   1      39.055  36.797  40.635  1.00  0.00     0.124 S 
ATOM     76  O   UNL A   1      38.415  38.053  40.257  1.00  0.00    -0.237 OA
ATOM     77  O   UNL A   1      38.187  35.795  41.243  1.00  0.00    -0.237 OA
ATOM     78  O   UNL A   1      40.371  36.932  41.255  1.00  0.00    -0.744 OA
ENDBRANCH  74  75
ENDBRANCH  53  67
BRANCH  54  79
ATOM     79  C   UNL A   1      39.639  28.395  29.443  1.00  0.00     0.058 A 
ATOM     80  C   UNL A   1      39.738  29.372  28.468  1.00  0.00     0.135 A 
ATOM     81  C   UNL A   1      39.673  27.133  28.888  1.00  0.00     0.135 A 
ATOM     82  F   UNL A   1      39.010  30.493  28.557  1.00  0.00    -0.206 F 
ATOM     83  C   UNL A   1      40.410  29.122  27.260  1.00  0.00     0.059 A 
ATOM     84  C   UNL A   1      40.308  26.931  27.637  1.00  0.00     0.059 A 
ATOM     85  F   UNL A   1      39.030  26.111  29.475  1.00  0.00    -0.206 F 
ATOM     86  C   UNL A   1      41.031  27.905  26.972  1.00  0.00     0.060 A 
BRANCH  86  87
ATOM     87  S   UNL A   1      42.906  27.709  25.884  1.00  0.00     0.124 S 
ATOM     88  O   UNL A   1      43.776  28.795  26.307  1.00  0.00    -0.237 OA
ATOM     89  O   UNL A   1      43.476  26.467  26.361  1.00  0.00    -0.237 OA
ATOM     90  O   UNL A   1      42.649  27.816  24.450  1.00  0.00    -0.744 OA
ENDBRANCH  86  87
ENDBRANCH  54  79
BRANCH  66  91
ATOM     91  C   UNL A   1      44.736  32.886  31.923  1.00  0.00     0.058 A 
ATOM     92  C   UNL A   1      44.657  34.061  31.158  1.00  0.00     0.135 A 
ATOM     93  C   UNL A   1      46.032  32.512  32.339  1.00  0.00     0.135 A 
ATOM     94  F   UNL A   1      43.514  34.427  30.556  1.00  0.00    -0.206 F 
ATOM     95  C   UNL A   1      45.759  34.885  30.953  1.00  0.00     0.059 A 
ATOM     96  C   UNL A   1      47.155  33.284  32.092  1.00  0.00     0.059 A 
ATOM     97  F   UNL A   1      46.275  31.384  33.016  1.00  0.00    -0.206 F 
ATOM     98  C   UNL A   1      47.001  34.493  31.439  1.00  0.00     0.060 A 
BRANCH  98  99
ATOM     99  S   UNL A   1      48.422  35.556  31.181  1.00  0.00     0.124 S 
ATOM    100  O   UNL A   1      49.151  34.851  30.132  1.00  0.00    -0.237 OA
ATOM    101  O   UNL A   1      47.779  36.803  30.777  1.00  0.00    -0.237 OA
ATOM    102  O   UNL A   1      49.074  35.578  32.486  1.00  0.00    -0.744 OA
ENDBRANCH  98  99
ENDBRANCH  66  91
ENDBRANCH  40  41
ENDBRANCH  32  35
ENDBRANCH  30  31
ENDBRANCH  29  30
ENDBRANCH  28  29
ENDBRANCH   3  28
TORSDOF 19
ENDMDL
MODEL 3
REMARK VINA RESULT:     -12.9      7.314     13.151
REMARK SMILES Cc1ccc(S(=O)(=O)N[C@@H](C)C(=O)Oc2csc(C(=O)NCCCNC(=O)c3ccc(-c4c5nc(c(-c6c(F)cc(S(=O)(=O)[O-])cc6F)c6ccc([nH]6)c(-c6c(F)cc(S(=O)(=O)[O-])cc6F)c6nc(c(-c7c(F)cc(S(=O)(=O)[O-])cc7F)c7ccc4[nH]7)C=C6)C=C5)cc3)c2C)cc1
REMARK SMILES IDX 19 1 20 2 21 3 18 5 15 6 16 7 94 8 17 9 95 10 14 11 12 12
REMARK SMILES IDX 13 13 10 14 11 15 9 16 6 18 7 19 8 20 5 21 1 22 2 23 3 24
REMARK SMILES IDX 97 25 4 26 96 27 22 28 23 29 24 30 25 31 26 32 27 34 28 35
REMARK SMILES IDX 29 36 93 37 30 38 92 39 31 40 32 41 33 42 86 43 34 44 91 45
REMARK SMILES IDX 85 46 87 47 35 48 90 49 84 50 83 51 36 53 70 54 49 55 69 56
REMARK SMILES IDX 50 57 53 58 68 59 88 60 51 61 52 62 67 64 89 65 54 66 37 67
REMARK SMILES IDX 38 68 47 69 39 70 40 71 46 72 48 73 41 74 42 75 43 76 44 77
REMARK SMILES IDX 45 78 71 79 72 80 81 81 73 82 74 83 80 84 82 85 75 86 76 87
REMARK SMILES IDX 77 88 78 89 79 90 55 91 56 92 65 93 57 94 58 95 64 96 66 97
REMARK SMILES IDX 59 98 60 99 61 100 62 101 63 102
REMARK H PARENT 21 4 9 17 25 33 87 52 53 63
REMARK Flexibility Score: inf
ROOT
ATOM      1  C   UNL A   1      31.487  29.676  25.085  1.00  0.00     0.261 C 
ATOM      2  O   UNL A   1      30.600  29.988  24.285  1.00  0.00    -0.268 OA
ATOM      3  N   UNL A   1      31.931  30.656  25.960  1.00  0.00    -0.351 N 
ATOM      4  H   UNL A   1      31.638  31.563  25.718  1.00  0.00     0.163 HD
ENDROOT
BRANCH   1   5
ATOM      5  C   UNL A   1      32.012  28.314  25.162  1.00  0.00     0.099 A 
ATOM      6  C   UNL A   1      33.353  26.419  25.074  1.00  0.00     0.145 A 
ATOM      7  C   UNL A   1      32.328  25.937  25.844  1.00  0.00     0.113 A 
ATOM      8  C   UNL A   1      33.069  27.697  24.510  1.00  0.00     0.015 A 
ATOM      9  S   UNL A   1      31.151  27.151  26.113  1.00  0.00    -0.134 S 
ATOM     10  C   UNL A   1      33.866  28.235  23.385  1.00  0.00     0.050 C 
BRANCH   6  11
ATOM     11  O   UNL A   1      34.460  25.699  24.774  1.00  0.00    -0.424 OA
BRANCH  11  12
ATOM     12  C   UNL A   1      34.223  24.597  23.986  1.00  0.00     0.329 C 
ATOM     13  O   UNL A   1      33.971  24.624  22.784  1.00  0.00    -0.250 OA
BRANCH  12  14
ATOM     14  C   UNL A   1      34.433  23.294  24.753  1.00  0.00     0.177 C 
ATOM     15  C   UNL A   1      35.810  23.173  25.378  1.00  0.00     0.038 C 
BRANCH  14  16
ATOM     16  N   UNL A   1      34.098  22.225  23.808  1.00  0.00    -0.197 NA
ATOM     17  H   UNL A   1      34.339  22.588  22.886  1.00  0.00     0.142 HD
BRANCH  16  18
ATOM     18  S   UNL A   1      32.592  21.561  23.646  1.00  0.00     0.241 S 
ATOM     19  O   UNL A   1      32.192  21.674  22.276  1.00  0.00    -0.207 OA
ATOM     20  O   UNL A   1      31.801  22.174  24.714  1.00  0.00    -0.207 OA
BRANCH  18  21
ATOM     21  C   UNL A   1      32.717  19.839  24.042  1.00  0.00     0.082 A 
ATOM     22  C   UNL A   1      32.656  15.739  25.336  1.00  0.00     0.044 C 
ATOM     23  C   UNL A   1      32.690  17.165  24.871  1.00  0.00    -0.051 A 
ATOM     24  C   UNL A   1      32.849  18.193  25.807  1.00  0.00     0.005 A 
ATOM     25  C   UNL A   1      32.580  17.488  23.512  1.00  0.00     0.005 A 
ATOM     26  C   UNL A   1      32.848  19.524  25.399  1.00  0.00     0.022 A 
ATOM     27  C   UNL A   1      32.614  18.822  23.091  1.00  0.00     0.022 A 
ENDBRANCH  18  21
ENDBRANCH  16  18
ENDBRANCH  14  16
ENDBRANCH  12  14
ENDBRANCH  11  12
ENDBRANCH   6  11
ENDBRANCH   1   5
BRANCH   3  28
ATOM     28  C   UNL A   1      32.763  30.608  27.187  1.00  0.00     0.118 C 
BRANCH  28  29
ATOM     29  C   UNL A   1      34.277  30.025  27.063  1.00  0.00     0.042 C 
BRANCH  29  30
ATOM     30  C   UNL A   1      35.288  30.718  28.043  1.00  0.00     0.118 C 
BRANCH  30  31
ATOM     31  N   UNL A   1      36.888  30.398  28.629  1.00  0.00    -0.352 N 
ATOM     32  C   UNL A   1      38.407  29.913  28.404  1.00  0.00     0.251 C 
ATOM     33  H   UNL A   1      36.846  30.630  29.584  1.00  0.00     0.163 HD
ATOM     34  O   UNL A   1      39.163  30.614  29.118  1.00  0.00    -0.269 OA
BRANCH  32  35
ATOM     35  C   UNL A   1      39.358  28.852  27.347  1.00  0.00     0.039 A 
ATOM     36  C   UNL A   1      39.572  27.456  27.562  1.00  0.00     0.014 A 
ATOM     37  C   UNL A   1      40.194  29.201  26.307  1.00  0.00     0.014 A 
ATOM     38  C   UNL A   1      40.938  26.942  27.589  1.00  0.00     0.010 A 
ATOM     39  C   UNL A   1      41.544  28.770  26.372  1.00  0.00     0.010 A 
ATOM     40  C   UNL A   1      41.973  27.820  27.287  1.00  0.00    -0.014 A 
BRANCH  40  41
ATOM     41  C   UNL A   1      43.409  27.855  27.798  1.00  0.00     0.031 A 
ATOM     42  C   UNL A   1      44.107  29.118  27.621  1.00  0.00     0.074 A 
ATOM     43  C   UNL A   1      44.148  26.952  28.525  1.00  0.00     0.049 A 
ATOM     44  N   UNL A   1      45.229  29.282  27.007  1.00  0.00    -0.248 NA
ATOM     45  C   UNL A   1      43.476  30.348  28.073  1.00  0.00     0.031 C 
ATOM     46  C   UNL A   1      45.544  26.960  29.027  1.00  0.00     0.029 A 
ATOM     47  N   UNL A   1      43.809  25.665  28.903  1.00  0.00    -0.354 N 
ATOM     48  C   UNL A   1      45.599  30.573  27.317  1.00  0.00     0.074 A 
ATOM     49  C   UNL A   1      44.359  31.228  27.615  1.00  0.00     0.031 C 
ATOM     50  C   UNL A   1      45.985  25.683  29.155  1.00  0.00     0.029 A 
ATOM     51  C   UNL A   1      44.915  24.830  28.703  1.00  0.00     0.049 A 
ATOM     52  H   UNL A   1      42.934  25.384  29.255  1.00  0.00     0.167 HD
ATOM     53  C   UNL A   1      46.899  30.865  27.622  1.00  0.00     0.037 A 
ATOM     54  C   UNL A   1      44.888  23.998  27.612  1.00  0.00     0.037 A 
ATOM     55  C   UNL A   1      47.737  29.647  27.527  1.00  0.00     0.049 A 
ATOM     56  C   UNL A   1      45.843  24.406  26.533  1.00  0.00     0.074 A 
ATOM     57  C   UNL A   1      48.413  28.855  28.444  1.00  0.00     0.029 A 
ATOM     58  N   UNL A   1      47.691  28.890  26.366  1.00  0.00    -0.354 N 
ATOM     59  N   UNL A   1      46.630  25.430  26.663  1.00  0.00    -0.248 NA
ATOM     60  C   UNL A   1      45.943  23.785  25.213  1.00  0.00     0.031 C 
ATOM     61  C   UNL A   1      48.696  27.592  27.828  1.00  0.00     0.029 A 
ATOM     62  C   UNL A   1      48.243  27.632  26.522  1.00  0.00     0.049 A 
ATOM     63  H   UNL A   1      47.306  29.214  25.520  1.00  0.00     0.167 HD
ATOM     64  C   UNL A   1      47.294  25.660  25.504  1.00  0.00     0.074 A 
ATOM     65  C   UNL A   1      46.819  24.610  24.612  1.00  0.00     0.031 C 
ATOM     66  C   UNL A   1      48.171  26.700  25.396  1.00  0.00     0.037 A 
BRANCH  53  67
ATOM     67  C   UNL A   1      47.370  32.177  28.264  1.00  0.00     0.058 A 
ATOM     68  C   UNL A   1      48.110  33.109  27.505  1.00  0.00     0.135 A 
ATOM     69  C   UNL A   1      47.142  32.602  29.597  1.00  0.00     0.135 A 
ATOM     70  F   UNL A   1      48.364  32.902  26.206  1.00  0.00    -0.206 F 
ATOM     71  C   UNL A   1      48.607  34.313  28.033  1.00  0.00     0.059 A 
ATOM     72  C   UNL A   1      47.640  33.781  30.149  1.00  0.00     0.059 A 
ATOM     73  F   UNL A   1      46.383  31.942  30.465  1.00  0.00    -0.206 F 
ATOM     74  C   UNL A   1      48.373  34.637  29.362  1.00  0.00     0.060 A 
BRANCH  74  75
ATOM     75  S   UNL A   1      48.971  36.191  30.038  1.00  0.00     0.124 S 
ATOM     76  O   UNL A   1      47.746  36.981  30.116  1.00  0.00    -0.237 OA
ATOM     77  O   UNL A   1      49.542  35.771  31.313  1.00  0.00    -0.237 OA
ATOM     78  O   UNL A   1      49.943  36.649  29.047  1.00  0.00    -0.744 OA
ENDBRANCH  74  75
ENDBRANCH  53  67
BRANCH  54  79
ATOM     79  C   UNL A   1      43.518  23.456  27.347  1.00  0.00     0.058 A 
ATOM     80  C   UNL A   1      43.177  23.461  26.007  1.00  0.00     0.135 A 
ATOM     81  C   UNL A   1      43.198  22.251  27.938  1.00  0.00     0.135 A 
ATOM     82  F   UNL A   1      42.655  24.559  25.445  1.00  0.00    -0.206 F 
ATOM     83  C   UNL A   1      43.146  22.269  25.265  1.00  0.00     0.059 A 
ATOM     84  C   UNL A   1      43.117  21.078  27.145  1.00  0.00     0.059 A 
ATOM     85  F   UNL A   1      42.873  22.192  29.239  1.00  0.00    -0.206 F 
ATOM     86  C   UNL A   1      43.470  21.024  25.809  1.00  0.00     0.060 A 
BRANCH  86  87
ATOM     87  S   UNL A   1      44.545  19.459  24.744  1.00  0.00     0.124 S 
ATOM     88  O   UNL A   1      43.832  18.210  24.958  1.00  0.00    -0.237 OA
ATOM     89  O   UNL A   1      44.415  19.815  23.347  1.00  0.00    -0.237 OA
ATOM     90  O   UNL A   1      45.900  19.350  25.279  1.00  0.00    -0.744 OA
ENDBRANCH  86  87
ENDBRANCH  54  79
BRANCH  66  91
ATOM     91  C   UNL A   1      49.010  26.930  24.176  1.00  0.00     0.058 A 
ATOM     92  C   UNL A   1      50.394  26.691  24.156  1.00  0.00     0.135 A 
ATOM     93  C   UNL A   1      48.469  27.496  23.001  1.00  0.00     0.135 A 
ATOM     94  F   UNL A   1      51.056  26.323  25.264  1.00  0.00    -0.206 F 
ATOM     95  C   UNL A   1      51.156  26.855  23.003  1.00  0.00     0.059 A 
ATOM     96  C   UNL A   1      49.221  27.728  21.862  1.00  0.00     0.059 A 
ATOM     97  F   UNL A   1      47.182  27.842  22.894  1.00  0.00    -0.206 F 
ATOM     98  C   UNL A   1      50.554  27.361  21.856  1.00  0.00     0.060 A 
BRANCH  98  99
ATOM     99  S   UNL A   1      51.533  27.568  20.368  1.00  0.00     0.124 S 
ATOM    100  O   UNL A   1      52.122  28.888  20.566  1.00  0.00    -0.237 OA
ATOM    101  O   UNL A   1      52.454  26.440  20.470  1.00  0.00    -0.237 OA
ATOM    102  O   UNL A   1      50.547  27.481  19.296  1.00  0.00    -0.744 OA
ENDBRANCH  98  99
ENDBRANCH  66  91
ENDBRANCH  40  41
ENDBRANCH  32  35
ENDBRANCH  30  31
ENDBRANCH  29  30
ENDBRANCH  28  29
ENDBRANCH   3  28
TORSDOF 19
ENDMDL
