MODEL 1
REMARK VINA RESULT:      -9.7      0.000      0.000
REMARK SMILES C[C@H](NC(=O)N1CCN(/C=C/c2ccccc2)CC1)C(=O)NCCCNC(=O)c1ccc(-c2c3nc(c(-c4c(F)cc(S(=O)(=O)[O-])cc4F)c4ccc([nH]4)c(-c4c(F)cc(S(=O)(=O)[O-])cc4F)c4nc(c(-c5c(F)cc(S(=O)(=O)[O-])cc5F)c5ccc2[nH]5)C=C4)C=C3)cc1
REMARK SMILES IDX 24 1 23 2 22 3 20 4 21 5 2 7 1 8 3 9 4 10 5 12 6 13 7 14
REMARK SMILES IDX 19 15 8 16 18 17 9 18 10 19 11 20 12 21 13 22 17 23 14 24
REMARK SMILES IDX 16 25 15 26 25 27 26 28 27 29 28 31 29 32 30 33 94 34 31 35
REMARK SMILES IDX 93 36 32 37 33 38 34 39 87 40 35 41 92 42 86 43 88 44 36 45
REMARK SMILES IDX 91 46 85 47 84 48 37 50 71 51 50 52 70 53 51 54 54 55 69 56
REMARK SMILES IDX 89 57 52 58 53 59 68 61 90 62 55 63 38 64 39 65 48 66 40 67
REMARK SMILES IDX 41 68 47 69 49 70 42 71 43 72 44 73 45 74 46 75 72 76 73 77
REMARK SMILES IDX 82 78 74 79 75 80 81 81 83 82 76 83 77 84 78 85 79 86 80 87
REMARK SMILES IDX 56 88 57 89 66 90 58 91 59 92 65 93 67 94 60 95 61 96 62 97
REMARK SMILES IDX 63 98 64 99
REMARK H PARENT 22 6 3 11 26 30 88 49 54 60
REMARK Flexibility Score: inf
ROOT
ATOM      1  C   UNL A   1      34.247  33.744  28.971  1.00  0.00     0.042 C 
ENDROOT
BRANCH   1   2
ATOM      2  C   UNL A   1      34.496  34.572  30.221  1.00  0.00     0.117 C 
BRANCH   2   3
ATOM      3  N   UNL A   1      33.696  34.098  31.337  1.00  0.00    -0.354 N 
ATOM      4  C   UNL A   1      34.072  33.449  32.472  1.00  0.00     0.242 C 
ATOM      5  O   UNL A   1      33.187  33.110  33.262  1.00  0.00    -0.273 OA
ATOM      6  H   UNL A   1      32.731  34.273  31.258  1.00  0.00     0.163 HD
BRANCH   4   7
ATOM      7  C   UNL A   1      35.559  33.256  32.827  1.00  0.00     0.170 C 
ATOM      8  C   UNL A   1      35.923  31.834  32.433  1.00  0.00     0.041 C 
BRANCH   7   9
ATOM      9  N   UNL A   1      35.868  33.771  34.170  1.00  0.00    -0.326 N 
ATOM     10  C   UNL A   1      36.694  33.385  35.164  1.00  0.00     0.318 C 
ATOM     11  H   UNL A   1      35.357  34.582  34.394  1.00  0.00     0.166 HD
ATOM     12  O   UNL A   1      36.278  33.506  36.316  1.00  0.00    -0.249 OA
ATOM     13  N   UNL A   1      37.909  32.846  34.886  1.00  0.00    -0.321 N 
ATOM     14  C   UNL A   1      38.559  32.002  35.885  1.00  0.00     0.143 C 
ATOM     15  C   UNL A   1      38.843  33.367  33.895  1.00  0.00     0.143 C 
ATOM     16  C   UNL A   1      39.221  30.800  35.203  1.00  0.00     0.137 C 
ATOM     17  C   UNL A   1      39.653  32.253  33.205  1.00  0.00     0.137 C 
ATOM     18  N   UNL A   1      40.166  31.224  34.143  1.00  0.00    -0.374 N 
BRANCH  18  19
ATOM     19  C   UNL A   1      41.314  30.521  33.824  1.00  0.00     0.081 C 
ATOM     20  C   UNL A   1      41.466  29.357  33.178  1.00  0.00     0.025 C 
BRANCH  20  21
ATOM     21  C   UNL A   1      42.770  28.697  33.026  1.00  0.00    -0.024 A 
ATOM     22  C   UNL A   1      42.875  27.539  32.249  1.00  0.00     0.008 A 
ATOM     23  C   UNL A   1      43.899  29.150  33.723  1.00  0.00     0.008 A 
ATOM     24  C   UNL A   1      44.092  26.858  32.157  1.00  0.00     0.001 A 
ATOM     25  C   UNL A   1      45.115  28.474  33.628  1.00  0.00     0.001 A 
ATOM     26  C   UNL A   1      45.210  27.326  32.846  1.00  0.00     0.000 A 
ENDBRANCH  20  21
ENDBRANCH  18  19
ENDBRANCH   7   9
ENDBRANCH   4   7
ENDBRANCH   2   3
ENDBRANCH   1   2
BRANCH   1  27
ATOM     27  C   UNL A   1      35.094  32.482  28.918  1.00  0.00     0.118 C 
BRANCH  27  28
ATOM     28  N   UNL A   1      34.325  31.309  28.522  1.00  0.00    -0.352 N 
ATOM     29  C   UNL A   1      34.770  30.063  28.157  1.00  0.00     0.251 C 
ATOM     30  H   UNL A   1      33.348  31.427  28.515  1.00  0.00     0.163 HD
ATOM     31  O   UNL A   1      33.983  29.254  27.671  1.00  0.00    -0.269 OA
BRANCH  29  32
ATOM     32  C   UNL A   1      36.194  29.712  28.333  1.00  0.00     0.039 A 
ATOM     33  C   UNL A   1      37.057  29.819  27.240  1.00  0.00     0.014 A 
ATOM     34  C   UNL A   1      36.678  29.286  29.572  1.00  0.00     0.014 A 
ATOM     35  C   UNL A   1      38.415  29.547  27.409  1.00  0.00     0.010 A 
ATOM     36  C   UNL A   1      38.045  29.114  29.761  1.00  0.00     0.010 A 
ATOM     37  C   UNL A   1      38.926  29.224  28.677  1.00  0.00    -0.014 A 
BRANCH  37  38
ATOM     38  C   UNL A   1      40.376  28.977  28.879  1.00  0.00     0.031 A 
ATOM     39  C   UNL A   1      40.969  27.637  28.527  1.00  0.00     0.074 A 
ATOM     40  C   UNL A   1      41.148  29.942  29.416  1.00  0.00     0.049 A 
ATOM     41  N   UNL A   1      42.204  27.223  28.652  1.00  0.00    -0.248 NA
ATOM     42  C   UNL A   1      40.050  26.619  27.994  1.00  0.00     0.031 C 
ATOM     43  C   UNL A   1      40.676  31.258  29.853  1.00  0.00     0.029 A 
ATOM     44  N   UNL A   1      42.492  29.966  29.688  1.00  0.00    -0.354 N 
ATOM     45  C   UNL A   1      42.205  25.901  28.223  1.00  0.00     0.074 A 
ATOM     46  C   UNL A   1      40.839  25.559  27.900  1.00  0.00     0.031 C 
ATOM     47  C   UNL A   1      41.719  31.973  30.303  1.00  0.00     0.029 A 
ATOM     48  C   UNL A   1      42.925  31.156  30.226  1.00  0.00     0.049 A 
ATOM     49  H   UNL A   1      43.090  29.204  29.516  1.00  0.00     0.167 HD
ATOM     50  C   UNL A   1      43.255  25.056  28.082  1.00  0.00     0.037 A 
ATOM     51  C   UNL A   1      44.155  31.543  30.615  1.00  0.00     0.037 A 
ATOM     52  C   UNL A   1      44.617  25.412  28.386  1.00  0.00     0.049 A 
ATOM     53  C   UNL A   1      45.307  30.589  30.443  1.00  0.00     0.074 A 
ATOM     54  C   UNL A   1      45.761  24.651  28.231  1.00  0.00     0.029 A 
ATOM     55  N   UNL A   1      45.018  26.633  28.911  1.00  0.00    -0.354 N 
ATOM     56  N   UNL A   1      45.301  29.364  29.972  1.00  0.00    -0.248 NA
ATOM     57  C   UNL A   1      46.634  31.074  30.843  1.00  0.00     0.031 C 
ATOM     58  C   UNL A   1      46.847  25.390  28.709  1.00  0.00     0.029 A 
ATOM     59  C   UNL A   1      46.390  26.637  29.103  1.00  0.00     0.049 A 
ATOM     60  H   UNL A   1      44.417  27.385  29.117  1.00  0.00     0.167 HD
ATOM     61  C   UNL A   1      46.627  28.945  29.989  1.00  0.00     0.074 A 
ATOM     62  C   UNL A   1      47.406  30.053  30.501  1.00  0.00     0.031 C 
ATOM     63  C   UNL A   1      47.153  27.751  29.611  1.00  0.00     0.037 A 
BRANCH  50  64
ATOM     64  C   UNL A   1      42.971  23.668  27.572  1.00  0.00     0.058 A 
ATOM     65  C   UNL A   1      43.046  23.352  26.205  1.00  0.00     0.135 A 
ATOM     66  C   UNL A   1      42.650  22.631  28.463  1.00  0.00     0.135 A 
ATOM     67  F   UNL A   1      43.331  24.306  25.304  1.00  0.00    -0.206 F 
ATOM     68  C   UNL A   1      42.783  22.069  25.738  1.00  0.00     0.059 A 
ATOM     69  C   UNL A   1      42.417  21.332  28.021  1.00  0.00     0.059 A 
ATOM     70  F   UNL A   1      42.563  22.874  29.781  1.00  0.00    -0.206 F 
ATOM     71  C   UNL A   1      42.471  21.063  26.654  1.00  0.00     0.060 A 
BRANCH  71  72
ATOM     72  S   UNL A   1      42.145  19.402  26.031  1.00  0.00     0.124 S 
ATOM     73  O   UNL A   1      42.980  19.371  24.834  1.00  0.00    -0.237 OA
ATOM     74  O   UNL A   1      42.593  18.561  27.136  1.00  0.00    -0.237 OA
ATOM     75  O   UNL A   1      40.706  19.404  25.790  1.00  0.00    -0.744 OA
ENDBRANCH  71  72
ENDBRANCH  50  64
BRANCH  51  76
ATOM     76  C   UNL A   1      44.366  32.907  31.172  1.00  0.00     0.058 A 
ATOM     77  C   UNL A   1      44.584  34.007  30.329  1.00  0.00     0.135 A 
ATOM     78  C   UNL A   1      44.348  33.139  32.556  1.00  0.00     0.135 A 
ATOM     79  F   UNL A   1      44.615  33.838  28.999  1.00  0.00    -0.206 F 
ATOM     80  C   UNL A   1      44.798  35.285  30.836  1.00  0.00     0.059 A 
ATOM     81  C   UNL A   1      44.530  34.413  33.087  1.00  0.00     0.059 A 
ATOM     82  F   UNL A   1      44.125  32.125  33.405  1.00  0.00    -0.206 F 
ATOM     83  C   UNL A   1      44.767  35.478  32.220  1.00  0.00     0.060 A 
BRANCH  83  84
ATOM     84  S   UNL A   1      45.006  37.147  32.865  1.00  0.00     0.124 S 
ATOM     85  O   UNL A   1      44.317  37.068  34.147  1.00  0.00    -0.237 OA
ATOM     86  O   UNL A   1      46.461  37.246  32.926  1.00  0.00    -0.237 OA
ATOM     87  O   UNL A   1      44.370  37.991  31.856  1.00  0.00    -0.744 OA
ENDBRANCH  83  84
ENDBRANCH  51  76
BRANCH  63  88
ATOM     88  C   UNL A   1      48.648  27.601  29.694  1.00  0.00     0.058 A 
ATOM     89  C   UNL A   1      49.278  27.026  30.811  1.00  0.00     0.135 A 
ATOM     90  C   UNL A   1      49.461  28.018  28.628  1.00  0.00     0.135 A 
ATOM     91  F   UNL A   1      48.549  26.612  31.859  1.00  0.00    -0.206 F 
ATOM     92  C   UNL A   1      50.663  26.912  30.884  1.00  0.00     0.059 A 
ATOM     93  C   UNL A   1      50.845  27.880  28.665  1.00  0.00     0.059 A 
ATOM     94  F   UNL A   1      48.912  28.560  27.529  1.00  0.00    -0.206 F 
ATOM     95  C   UNL A   1      51.437  27.344  29.806  1.00  0.00     0.060 A 
BRANCH  95  96
ATOM     96  S   UNL A   1      53.233  27.189  29.914  1.00  0.00     0.124 S 
ATOM     97  O   UNL A   1      53.508  26.219  28.859  1.00  0.00    -0.237 OA
ATOM     98  O   UNL A   1      53.679  28.554  29.652  1.00  0.00    -0.237 OA
ATOM     99  O   UNL A   1      53.452  26.715  31.276  1.00  0.00    -0.744 OA
ENDBRANCH  95  96
ENDBRANCH  63  88
ENDBRANCH  37  38
ENDBRANCH  29  32
ENDBRANCH  27  28
ENDBRANCH   1  27
TORSDOF 16
ENDMDL
MODEL 2
REMARK VINA RESULT:      -9.7      5.518     12.393
REMARK SMILES C[C@H](NC(=O)N1CCN(/C=C/c2ccccc2)CC1)C(=O)NCCCNC(=O)c1ccc(-c2c3nc(c(-c4c(F)cc(S(=O)(=O)[O-])cc4F)c4ccc([nH]4)c(-c4c(F)cc(S(=O)(=O)[O-])cc4F)c4nc(c(-c5c(F)cc(S(=O)(=O)[O-])cc5F)c5ccc2[nH]5)C=C4)C=C3)cc1
REMARK SMILES IDX 24 1 23 2 22 3 20 4 21 5 2 7 1 8 3 9 4 10 5 12 6 13 7 14
REMARK SMILES IDX 19 15 8 16 18 17 9 18 10 19 11 20 12 21 13 22 17 23 14 24
REMARK SMILES IDX 16 25 15 26 25 27 26 28 27 29 28 31 29 32 30 33 94 34 31 35
REMARK SMILES IDX 93 36 32 37 33 38 34 39 87 40 35 41 92 42 86 43 88 44 36 45
REMARK SMILES IDX 91 46 85 47 84 48 37 50 71 51 50 52 70 53 51 54 54 55 69 56
REMARK SMILES IDX 89 57 52 58 53 59 68 61 90 62 55 63 38 64 39 65 48 66 40 67
REMARK SMILES IDX 41 68 47 69 49 70 42 71 43 72 44 73 45 74 46 75 72 76 73 77
REMARK SMILES IDX 82 78 74 79 75 80 81 81 83 82 76 83 77 84 78 85 79 86 80 87
REMARK SMILES IDX 56 88 57 89 66 90 58 91 59 92 65 93 67 94 60 95 61 96 62 97
REMARK SMILES IDX 63 98 64 99
REMARK H PARENT 22 6 3 11 26 30 88 49 54 60
REMARK Flexibility Score: inf
ROOT
ATOM      1  C   UNL A   1      38.233  24.083  26.455  1.00  0.00     0.042 C 
ENDROOT
BRANCH   1   2
ATOM      2  C   UNL A   1      37.606  23.091  25.489  1.00  0.00     0.117 C 
BRANCH   2   3
ATOM      3  N   UNL A   1      36.664  22.218  26.166  1.00  0.00    -0.354 N 
ATOM      4  C   UNL A   1      35.304  22.251  26.198  1.00  0.00     0.242 C 
ATOM      5  O   UNL A   1      34.723  21.410  26.889  1.00  0.00    -0.273 OA
ATOM      6  H   UNL A   1      37.074  21.487  26.683  1.00  0.00     0.163 HD
BRANCH   4   7
ATOM      7  C   UNL A   1      34.508  23.221  25.305  1.00  0.00     0.170 C 
ATOM      8  C   UNL A   1      33.801  24.194  26.235  1.00  0.00     0.041 C 
BRANCH   7   9
ATOM      9  N   UNL A   1      33.767  22.508  24.253  1.00  0.00    -0.326 N 
ATOM     10  C   UNL A   1      32.569  22.678  23.659  1.00  0.00     0.318 C 
ATOM     11  H   UNL A   1      34.259  21.731  23.902  1.00  0.00     0.166 HD
ATOM     12  O   UNL A   1      31.928  21.661  23.392  1.00  0.00    -0.249 OA
ATOM     13  N   UNL A   1      32.085  23.923  23.417  1.00  0.00    -0.321 N 
ATOM     14  C   UNL A   1      30.646  24.108  23.250  1.00  0.00     0.143 C 
ATOM     15  C   UNL A   1      32.862  25.023  22.858  1.00  0.00     0.143 C 
ATOM     16  C   UNL A   1      30.198  25.391  23.959  1.00  0.00     0.137 C 
ATOM     17  C   UNL A   1      32.434  26.392  23.419  1.00  0.00     0.137 C 
ATOM     18  N   UNL A   1      30.963  26.571  23.489  1.00  0.00    -0.374 N 
BRANCH  18  19
ATOM     19  C   UNL A   1      30.425  27.844  23.417  1.00  0.00     0.081 C 
ATOM     20  C   UNL A   1      29.640  28.401  22.486  1.00  0.00     0.025 C 
BRANCH  20  21
ATOM     21  C   UNL A   1      29.252  29.818  22.519  1.00  0.00    -0.024 A 
ATOM     22  C   UNL A   1      29.416  30.554  23.697  1.00  0.00     0.008 A 
ATOM     23  C   UNL A   1      28.631  30.428  21.420  1.00  0.00     0.008 A 
ATOM     24  C   UNL A   1      28.981  31.881  23.767  1.00  0.00     0.001 A 
ATOM     25  C   UNL A   1      28.201  31.753  21.487  1.00  0.00     0.001 A 
ATOM     26  C   UNL A   1      28.375  32.479  22.663  1.00  0.00     0.000 A 
ENDBRANCH  20  21
ENDBRANCH  18  19
ENDBRANCH   7   9
ENDBRANCH   4   7
ENDBRANCH   2   3
ENDBRANCH   1   2
BRANCH   1  27
ATOM     27  C   UNL A   1      39.634  23.682  26.889  1.00  0.00     0.118 C 
BRANCH  27  28
ATOM     28  N   UNL A   1      40.665  24.198  25.997  1.00  0.00    -0.352 N 
ATOM     29  C   UNL A   1      41.352  25.384  26.061  1.00  0.00     0.251 C 
ATOM     30  H   UNL A   1      40.901  23.613  25.242  1.00  0.00     0.163 HD
ATOM     31  O   UNL A   1      42.050  25.734  25.112  1.00  0.00    -0.269 OA
BRANCH  29  32
ATOM     32  C   UNL A   1      41.231  26.239  27.260  1.00  0.00     0.039 A 
ATOM     33  C   UNL A   1      41.986  27.411  27.333  1.00  0.00     0.014 A 
ATOM     34  C   UNL A   1      40.371  25.889  28.304  1.00  0.00     0.014 A 
ATOM     35  C   UNL A   1      41.836  28.256  28.433  1.00  0.00     0.010 A 
ATOM     36  C   UNL A   1      40.149  26.781  29.347  1.00  0.00     0.010 A 
ATOM     37  C   UNL A   1      40.893  27.965  29.433  1.00  0.00    -0.014 A 
BRANCH  37  38
ATOM     38  C   UNL A   1      40.691  28.879  30.586  1.00  0.00     0.031 A 
ATOM     39  C   UNL A   1      41.541  28.735  31.821  1.00  0.00     0.074 A 
ATOM     40  C   UNL A   1      39.718  29.809  30.536  1.00  0.00     0.049 A 
ATOM     41  N   UNL A   1      41.501  29.420  32.935  1.00  0.00    -0.248 NA
ATOM     42  C   UNL A   1      42.548  27.660  31.817  1.00  0.00     0.031 C 
ATOM     43  C   UNL A   1      38.790  30.005  29.418  1.00  0.00     0.029 A 
ATOM     44  N   UNL A   1      39.342  30.764  31.446  1.00  0.00    -0.354 N 
ATOM     45  C   UNL A   1      42.465  28.855  33.762  1.00  0.00     0.074 A 
ATOM     46  C   UNL A   1      43.027  27.730  33.050  1.00  0.00     0.031 C 
ATOM     47  C   UNL A   1      37.980  31.039  29.694  1.00  0.00     0.029 A 
ATOM     48  C   UNL A   1      38.300  31.554  31.021  1.00  0.00     0.049 A 
ATOM     49  H   UNL A   1      39.778  30.873  32.322  1.00  0.00     0.167 HD
ATOM     50  C   UNL A   1      42.868  29.257  34.991  1.00  0.00     0.037 A 
ATOM     51  C   UNL A   1      37.672  32.576  31.633  1.00  0.00     0.037 A 
ATOM     52  C   UNL A   1      42.318  30.392  35.684  1.00  0.00     0.049 A 
ATOM     53  C   UNL A   1      38.141  33.008  32.996  1.00  0.00     0.074 A 
ATOM     54  C   UNL A   1      42.689  30.916  36.910  1.00  0.00     0.029 A 
ATOM     55  N   UNL A   1      41.276  31.179  35.213  1.00  0.00    -0.354 N 
ATOM     56  N   UNL A   1      39.102  32.505  33.737  1.00  0.00    -0.248 NA
ATOM     57  C   UNL A   1      37.452  34.154  33.602  1.00  0.00     0.031 C 
ATOM     58  C   UNL A   1      41.839  31.987  37.203  1.00  0.00     0.029 A 
ATOM     59  C   UNL A   1      40.979  32.172  36.133  1.00  0.00     0.049 A 
ATOM     60  H   UNL A   1      40.816  31.051  34.352  1.00  0.00     0.167 HD
ATOM     61  C   UNL A   1      39.152  33.294  34.881  1.00  0.00     0.074 A 
ATOM     62  C   UNL A   1      38.137  34.315  34.726  1.00  0.00     0.031 C 
ATOM     63  C   UNL A   1      39.967  33.185  35.961  1.00  0.00     0.037 A 
BRANCH  50  64
ATOM     64  C   UNL A   1      43.960  28.465  35.661  1.00  0.00     0.058 A 
ATOM     65  C   UNL A   1      45.319  28.758  35.458  1.00  0.00     0.135 A 
ATOM     66  C   UNL A   1      43.646  27.418  36.544  1.00  0.00     0.135 A 
ATOM     67  F   UNL A   1      45.681  29.737  34.612  1.00  0.00    -0.206 F 
ATOM     68  C   UNL A   1      46.325  28.025  36.079  1.00  0.00     0.059 A 
ATOM     69  C   UNL A   1      44.635  26.693  37.202  1.00  0.00     0.059 A 
ATOM     70  F   UNL A   1      42.364  27.092  36.776  1.00  0.00    -0.206 F 
ATOM     71  C   UNL A   1      45.973  26.995  36.952  1.00  0.00     0.060 A 
BRANCH  71  72
ATOM     72  S   UNL A   1      47.290  26.062  37.758  1.00  0.00     0.124 S 
ATOM     73  O   UNL A   1      46.948  24.693  37.384  1.00  0.00    -0.237 OA
ATOM     74  O   UNL A   1      48.488  26.609  37.129  1.00  0.00    -0.237 OA
ATOM     75  O   UNL A   1      47.123  26.385  39.171  1.00  0.00    -0.744 OA
ENDBRANCH  71  72
ENDBRANCH  50  64
BRANCH  51  76
ATOM     76  C   UNL A   1      36.555  33.283  30.948  1.00  0.00     0.058 A 
ATOM     77  C   UNL A   1      35.225  33.101  31.355  1.00  0.00     0.135 A 
ATOM     78  C   UNL A   1      36.796  34.159  29.878  1.00  0.00     0.135 A 
ATOM     79  F   UNL A   1      34.941  32.271  32.370  1.00  0.00    -0.206 F 
ATOM     80  C   UNL A   1      34.171  33.742  30.713  1.00  0.00     0.059 A 
ATOM     81  C   UNL A   1      35.762  34.836  29.239  1.00  0.00     0.059 A 
ATOM     82  F   UNL A   1      38.052  34.383  29.461  1.00  0.00    -0.206 F 
ATOM     83  C   UNL A   1      34.450  34.611  29.655  1.00  0.00     0.060 A 
BRANCH  83  84
ATOM     84  S   UNL A   1      33.078  35.469  28.856  1.00  0.00     0.124 S 
ATOM     85  O   UNL A   1      32.339  35.977  30.006  1.00  0.00    -0.237 OA
ATOM     86  O   UNL A   1      33.769  36.469  28.049  1.00  0.00    -0.237 OA
ATOM     87  O   UNL A   1      32.416  34.411  28.097  1.00  0.00    -0.744 OA
ENDBRANCH  83  84
ENDBRANCH  51  76
BRANCH  63  88
ATOM     88  C   UNL A   1      39.825  34.227  37.038  1.00  0.00     0.058 A 
ATOM     89  C   UNL A   1      39.071  33.997  38.201  1.00  0.00     0.135 A 
ATOM     90  C   UNL A   1      40.474  35.466  36.914  1.00  0.00     0.135 A 
ATOM     91  F   UNL A   1      38.429  32.831  38.371  1.00  0.00    -0.206 F 
ATOM     92  C   UNL A   1      38.931  34.976  39.180  1.00  0.00     0.059 A 
ATOM     93  C   UNL A   1      40.376  36.445  37.896  1.00  0.00     0.059 A 
ATOM     94  F   UNL A   1      41.220  35.734  35.830  1.00  0.00    -0.206 F 
ATOM     95  C   UNL A   1      39.585  36.198  39.017  1.00  0.00     0.060 A 
BRANCH  95  96
ATOM     96  S   UNL A   1      39.395  37.460  40.294  1.00  0.00     0.124 S 
ATOM     97  O   UNL A   1      38.723  36.710  41.350  1.00  0.00    -0.237 OA
ATOM     98  O   UNL A   1      40.778  37.838  40.567  1.00  0.00    -0.237 OA
ATOM     99  O   UNL A   1      38.588  38.486  39.642  1.00  0.00    -0.744 OA
ENDBRANCH  95  96
ENDBRANCH  63  88
ENDBRANCH  37  38
ENDBRANCH  29  32
ENDBRANCH  27  28
ENDBRANCH   1  27
TORSDOF 16
ENDMDL
MODEL 3
REMARK VINA RESULT:      -9.7      0.966      8.276
REMARK SMILES C[C@H](NC(=O)N1CCN(/C=C/c2ccccc2)CC1)C(=O)NCCCNC(=O)c1ccc(-c2c3nc(c(-c4c(F)cc(S(=O)(=O)[O-])cc4F)c4ccc([nH]4)c(-c4c(F)cc(S(=O)(=O)[O-])cc4F)c4nc(c(-c5c(F)cc(S(=O)(=O)[O-])cc5F)c5ccc2[nH]5)C=C4)C=C3)cc1
REMARK SMILES IDX 24 1 23 2 22 3 20 4 21 5 2 7 1 8 3 9 4 10 5 12 6 13 7 14
REMARK SMILES IDX 19 15 8 16 18 17 9 18 10 19 11 20 12 21 13 22 17 23 14 24
REMARK SMILES IDX 16 25 15 26 25 27 26 28 27 29 28 31 29 32 30 33 94 34 31 35
REMARK SMILES IDX 93 36 32 37 33 38 34 39 87 40 35 41 92 42 86 43 88 44 36 45
REMARK SMILES IDX 91 46 85 47 84 48 37 50 71 51 50 52 70 53 51 54 54 55 69 56
REMARK SMILES IDX 89 57 52 58 53 59 68 61 90 62 55 63 38 64 39 65 48 66 40 67
REMARK SMILES IDX 41 68 47 69 49 70 42 71 43 72 44 73 45 74 46 75 72 76 73 77
REMARK SMILES IDX 82 78 74 79 75 80 81 81 83 82 76 83 77 84 78 85 79 86 80 87
REMARK SMILES IDX 56 88 57 89 66 90 58 91 59 92 65 93 67 94 60 95 61 96 62 97
REMARK SMILES IDX 63 98 64 99
REMARK H PARENT 22 6 3 11 26 30 88 49 54 60
REMARK Flexibility Score: inf
ROOT
ATOM      1  C   UNL A   1      33.889  33.670  28.738  1.00  0.00     0.042 C 
ENDROOT
BRANCH   1   2
ATOM      2  C   UNL A   1      34.557  34.182  30.003  1.00  0.00     0.117 C 
BRANCH   2   3
ATOM      3  N   UNL A   1      33.772  33.861  31.182  1.00  0.00    -0.354 N 
ATOM      4  C   UNL A   1      34.162  33.361  32.386  1.00  0.00     0.242 C 
ATOM      5  O   UNL A   1      33.288  33.131  33.226  1.00  0.00    -0.273 OA
ATOM      6  H   UNL A   1      32.806  34.032  31.096  1.00  0.00     0.163 HD
BRANCH   4   7
ATOM      7  C   UNL A   1      35.653  33.204  32.741  1.00  0.00     0.170 C 
ATOM      8  C   UNL A   1      36.005  31.741  32.520  1.00  0.00     0.041 C 
BRANCH   7   9
ATOM      9  N   UNL A   1      35.985  33.878  34.005  1.00  0.00    -0.326 N 
ATOM     10  C   UNL A   1      36.646  33.518  35.124  1.00  0.00     0.318 C 
ATOM     11  H   UNL A   1      35.649  34.803  34.043  1.00  0.00     0.166 HD
ATOM     12  O   UNL A   1      36.197  33.926  36.195  1.00  0.00    -0.249 OA
ATOM     13  N   UNL A   1      37.730  32.702  35.057  1.00  0.00    -0.321 N 
ATOM     14  C   UNL A   1      38.120  31.939  36.239  1.00  0.00     0.143 C 
ATOM     15  C   UNL A   1      38.813  32.837  34.091  1.00  0.00     0.143 C 
ATOM     16  C   UNL A   1      38.546  30.524  35.830  1.00  0.00     0.137 C 
ATOM     17  C   UNL A   1      39.402  31.476  33.673  1.00  0.00     0.137 C 
ATOM     18  N   UNL A   1      39.623  30.551  34.812  1.00  0.00    -0.374 N 
BRANCH  18  19
ATOM     19  C   UNL A   1      40.609  29.583  34.725  1.00  0.00     0.081 C 
ATOM     20  C   UNL A   1      41.146  28.988  33.652  1.00  0.00     0.025 C 
BRANCH  20  21
ATOM     21  C   UNL A   1      42.116  27.889  33.756  1.00  0.00    -0.024 A 
ATOM     22  C   UNL A   1      42.996  27.638  32.698  1.00  0.00     0.008 A 
ATOM     23  C   UNL A   1      42.116  27.021  34.858  1.00  0.00     0.008 A 
ATOM     24  C   UNL A   1      43.871  26.550  32.750  1.00  0.00     0.001 A 
ATOM     25  C   UNL A   1      42.992  25.938  34.912  1.00  0.00     0.001 A 
ATOM     26  C   UNL A   1      43.869  25.702  33.857  1.00  0.00     0.000 A 
ENDBRANCH  20  21
ENDBRANCH  18  19
ENDBRANCH   7   9
ENDBRANCH   4   7
ENDBRANCH   2   3
ENDBRANCH   1   2
BRANCH   1  27
ATOM     27  C   UNL A   1      34.692  32.580  28.044  1.00  0.00     0.118 C 
BRANCH  27  28
ATOM     28  N   UNL A   1      33.977  31.311  27.986  1.00  0.00    -0.352 N 
ATOM     29  C   UNL A   1      34.478  30.033  27.990  1.00  0.00     0.251 C 
ATOM     30  H   UNL A   1      32.997  31.379  27.937  1.00  0.00     0.163 HD
ATOM     31  O   UNL A   1      33.734  29.087  27.744  1.00  0.00    -0.269 OA
BRANCH  29  32
ATOM     32  C   UNL A   1      35.911  29.807  28.271  1.00  0.00     0.039 A 
ATOM     33  C   UNL A   1      36.290  29.366  29.540  1.00  0.00     0.014 A 
ATOM     34  C   UNL A   1      36.876  30.024  27.283  1.00  0.00     0.014 A 
ATOM     35  C   UNL A   1      37.634  29.093  29.799  1.00  0.00     0.010 A 
ATOM     36  C   UNL A   1      38.197  29.655  27.512  1.00  0.00     0.010 A 
ATOM     37  C   UNL A   1      38.594  29.203  28.778  1.00  0.00    -0.014 A 
BRANCH  37  38
ATOM     38  C   UNL A   1      40.020  28.872  29.028  1.00  0.00     0.031 A 
ATOM     39  C   UNL A   1      40.936  29.898  29.643  1.00  0.00     0.074 A 
ATOM     40  C   UNL A   1      40.497  27.666  28.664  1.00  0.00     0.049 A 
ATOM     41  N   UNL A   1      42.212  29.805  29.917  1.00  0.00    -0.248 NA
ATOM     42  C   UNL A   1      40.350  31.209  29.965  1.00  0.00     0.031 C 
ATOM     43  C   UNL A   1      39.720  26.612  28.004  1.00  0.00     0.029 A 
ATOM     44  N   UNL A   1      41.749  27.121  28.793  1.00  0.00    -0.354 N 
ATOM     45  C   UNL A   1      42.580  31.043  30.432  1.00  0.00     0.074 A 
ATOM     46  C   UNL A   1      41.411  31.891  30.369  1.00  0.00     0.031 C 
ATOM     47  C   UNL A   1      40.503  25.537  27.822  1.00  0.00     0.029 A 
ATOM     48  C   UNL A   1      41.844  25.836  28.311  1.00  0.00     0.049 A 
ATOM     49  H   UNL A   1      42.508  27.604  29.192  1.00  0.00     0.167 HD
ATOM     50  C   UNL A   1      43.775  31.429  30.940  1.00  0.00     0.037 A 
ATOM     51  C   UNL A   1      42.896  24.995  28.268  1.00  0.00     0.037 A 
ATOM     52  C   UNL A   1      44.928  30.570  31.017  1.00  0.00     0.049 A 
ATOM     53  C   UNL A   1      44.212  25.445  28.844  1.00  0.00     0.074 A 
ATOM     54  C   UNL A   1      46.170  30.844  31.560  1.00  0.00     0.029 A 
ATOM     55  N   UNL A   1      44.981  29.269  30.536  1.00  0.00    -0.354 N 
ATOM     56  N   UNL A   1      44.524  26.597  29.389  1.00  0.00    -0.248 NA
ATOM     57  C   UNL A   1      45.315  24.476  28.810  1.00  0.00     0.031 C 
ATOM     58  C   UNL A   1      46.990  29.729  31.362  1.00  0.00     0.029 A 
ATOM     59  C   UNL A   1      46.240  28.736  30.752  1.00  0.00     0.049 A 
ATOM     60  H   UNL A   1      44.233  28.796  30.105  1.00  0.00     0.167 HD
ATOM     61  C   UNL A   1      45.850  26.479  29.793  1.00  0.00     0.074 A 
ATOM     62  C   UNL A   1      46.273  25.139  29.443  1.00  0.00     0.031 C 
ATOM     63  C   UNL A   1      46.645  27.396  30.401  1.00  0.00     0.037 A 
BRANCH  50  64
ATOM     64  C   UNL A   1      43.892  32.840  31.454  1.00  0.00     0.058 A 
ATOM     65  C   UNL A   1      44.323  33.894  30.631  1.00  0.00     0.135 A 
ATOM     66  C   UNL A   1      43.538  33.150  32.777  1.00  0.00     0.135 A 
ATOM     67  F   UNL A   1      44.692  33.656  29.362  1.00  0.00    -0.206 F 
ATOM     68  C   UNL A   1      44.430  35.196  31.110  1.00  0.00     0.059 A 
ATOM     69  C   UNL A   1      43.604  34.451  33.267  1.00  0.00     0.059 A 
ATOM     70  F   UNL A   1      43.120  32.183  33.610  1.00  0.00    -0.206 F 
ATOM     71  C   UNL A   1      44.066  35.465  32.430  1.00  0.00     0.060 A 
BRANCH  71  72
ATOM     72  S   UNL A   1      44.199  37.162  33.030  1.00  0.00     0.124 S 
ATOM     73  O   UNL A   1      44.149  37.917  31.781  1.00  0.00    -0.237 OA
ATOM     74  O   UNL A   1      43.025  37.282  33.888  1.00  0.00    -0.237 OA
ATOM     75  O   UNL A   1      45.484  37.180  33.721  1.00  0.00    -0.744 OA
ENDBRANCH  71  72
ENDBRANCH  50  64
BRANCH  51  76
ATOM     76  C   UNL A   1      42.738  23.633  27.690  1.00  0.00     0.058 A 
ATOM     77  C   UNL A   1      42.516  22.519  28.512  1.00  0.00     0.135 A 
ATOM     78  C   UNL A   1      42.798  23.419  26.304  1.00  0.00     0.135 A 
ATOM     79  F   UNL A   1      42.454  22.669  29.844  1.00  0.00    -0.206 F 
ATOM     80  C   UNL A   1      42.382  21.238  27.986  1.00  0.00     0.059 A 
ATOM     81  C   UNL A   1      42.637  22.152  25.751  1.00  0.00     0.059 A 
ATOM     82  F   UNL A   1      42.989  24.453  25.471  1.00  0.00    -0.206 F 
ATOM     83  C   UNL A   1      42.442  21.065  26.601  1.00  0.00     0.060 A 
BRANCH  83  84
ATOM     84  S   UNL A   1      42.226  19.404  25.928  1.00  0.00     0.124 S 
ATOM     85  O   UNL A   1      40.797  19.386  25.642  1.00  0.00    -0.237 OA
ATOM     86  O   UNL A   1      43.110  19.427  24.767  1.00  0.00    -0.237 OA
ATOM     87  O   UNL A   1      42.662  18.539  27.021  1.00  0.00    -0.744 OA
ENDBRANCH  83  84
ENDBRANCH  51  76
BRANCH  63  88
ATOM     88  C   UNL A   1      48.039  26.963  30.770  1.00  0.00     0.058 A 
ATOM     89  C   UNL A   1      49.143  27.222  29.940  1.00  0.00     0.135 A 
ATOM     90  C   UNL A   1      48.275  26.299  31.984  1.00  0.00     0.135 A 
ATOM     91  F   UNL A   1      48.974  27.852  28.768  1.00  0.00    -0.206 F 
ATOM     92  C   UNL A   1      50.423  26.797  30.283  1.00  0.00     0.059 A 
ATOM     93  C   UNL A   1      49.551  25.897  32.363  1.00  0.00     0.059 A 
ATOM     94  F   UNL A   1      47.259  26.039  32.823  1.00  0.00    -0.206 F 
ATOM     95  C   UNL A   1      50.616  26.134  31.495  1.00  0.00     0.060 A 
BRANCH  95  96
ATOM     96  S   UNL A   1      52.282  25.589  31.928  1.00  0.00     0.124 S 
ATOM     97  O   UNL A   1      52.590  26.457  33.060  1.00  0.00    -0.237 OA
ATOM     98  O   UNL A   1      52.077  24.180  32.246  1.00  0.00    -0.237 OA
ATOM     99  O   UNL A   1      53.050  25.846  30.714  1.00  0.00    -0.744 OA
ENDBRANCH  95  96
ENDBRANCH  63  88
ENDBRANCH  37  38
ENDBRANCH  29  32
ENDBRANCH  27  28
ENDBRANCH   1  27
TORSDOF 16
ENDMDL
