MODEL 1
REMARK VINA RESULT:     -13.7      0.000      0.000
REMARK SMILES O=C(CSc1nnc2sc3ccccc3n12)N[C@H](Cc1c[nH]c2ccccc12)C(=O)NCCCNC(=O)c1ccc(-c2c3nc(c(-c4c(F)cc(S(=O)(=O)[O-])cc4F)c4ccc([nH]4)c(-c4c(F)cc(S(=O)(=O)[O-])cc4F)c4nc(c(-c5c(F)cc(S(=O)(=O)[O-])cc5F)c5ccc2[nH]5)C=C4)C=C3)cc1
REMARK SMILES IDX 32 1 31 2 29 3 30 4 18 6 17 7 1 8 2 9 3 11 4 12 5 13 6 14
REMARK SMILES IDX 16 15 7 16 8 17 15 18 9 19 10 20 14 21 11 22 13 23 12 24
REMARK SMILES IDX 19 25 20 26 21 27 28 28 22 29 23 30 27 31 24 33 26 34 25 35
REMARK SMILES IDX 33 36 34 37 35 38 36 39 37 41 38 42 39 43 103 44 40 45
REMARK SMILES IDX 102 46 41 47 42 48 43 49 96 50 44 51 101 52 95 53 97 54
REMARK SMILES IDX 45 55 100 56 94 57 93 58 46 60 80 61 59 62 79 63 60 64 63 65
REMARK SMILES IDX 78 66 98 67 61 68 62 69 77 71 99 72 64 73 47 74 48 75 57 76
REMARK SMILES IDX 49 77 50 78 56 79 58 80 51 81 52 82 53 83 54 84 55 85 81 86
REMARK SMILES IDX 82 87 91 88 83 89 84 90 90 91 92 92 85 93 86 94 87 95 88 96
REMARK SMILES IDX 89 97 65 98 66 99 75 100 67 101 68 102 74 103 76 104 69 105
REMARK SMILES IDX 70 106 71 107 72 108 73 109
REMARK H PARENT 31 5 17 10 22 32 35 40 97 59 63 70
REMARK Flexibility Score: inf
ROOT
ATOM      1  C   UNL A   1      32.355  28.179  27.152  1.00  0.00     0.117 C 
ENDROOT
BRANCH   1   2
ATOM      2  N   UNL A   1      33.338  27.691  26.211  1.00  0.00    -0.354 N 
ATOM      3  C   UNL A   1      33.154  26.975  25.065  1.00  0.00     0.242 C 
ATOM      4  O   UNL A   1      34.057  27.017  24.219  1.00  0.00    -0.273 OA
ATOM      5  H   UNL A   1      34.274  27.906  26.428  1.00  0.00     0.163 HD
BRANCH   3   6
ATOM      6  C   UNL A   1      31.829  26.251  24.732  1.00  0.00     0.175 C 
BRANCH   6   7
ATOM      7  N   UNL A   1      31.935  24.935  25.374  1.00  0.00    -0.343 N 
ATOM      8  O   UNL A   1      29.981  24.812  26.543  1.00  0.00    -0.274 OA
ATOM      9  C   UNL A   1      30.930  24.250  26.002  1.00  0.00     0.231 C 
ATOM     10  H   UNL A   1      32.818  24.500  25.350  1.00  0.00     0.164 HD
BRANCH   9  11
ATOM     11  C   UNL A   1      30.971  22.730  25.899  1.00  0.00     0.178 C 
BRANCH  11  12
ATOM     12  S   UNL A   1      31.524  22.089  24.294  1.00  0.00    -0.076 SA
BRANCH  12  13
ATOM     13  C   UNL A   1      32.558  20.781  24.762  1.00  0.00     0.197 A 
ATOM     14  N   UNL A   1      32.200  19.510  24.825  1.00  0.00    -0.122 NA
ATOM     15  N   UNL A   1      33.916  20.862  24.871  1.00  0.00    -0.260 N 
ATOM     16  N   UNL A   1      33.353  18.732  24.929  1.00  0.00    -0.118 NA
ATOM     17  C   UNL A   1      34.353  19.573  24.909  1.00  0.00     0.217 A 
ATOM     18  C   UNL A   1      34.906  21.836  24.882  1.00  0.00     0.068 A 
ATOM     19  S   UNL A   1      36.077  19.430  24.859  1.00  0.00    -0.094 S 
ATOM     20  C   UNL A   1      36.171  21.226  24.842  1.00  0.00     0.055 A 
ATOM     21  C   UNL A   1      34.743  23.208  24.940  1.00  0.00     0.028 A 
ATOM     22  C   UNL A   1      37.314  22.004  24.799  1.00  0.00     0.021 A 
ATOM     23  C   UNL A   1      35.898  23.990  24.923  1.00  0.00     0.002 A 
ATOM     24  C   UNL A   1      37.170  23.396  24.838  1.00  0.00     0.002 A 
ENDBRANCH  12  13
ENDBRANCH  11  12
ENDBRANCH   9  11
ENDBRANCH   6   7
BRANCH   6  25
ATOM     25  C   UNL A   1      31.363  26.365  23.275  1.00  0.00     0.072 C 
BRANCH  25  26
ATOM     26  C   UNL A   1      30.947  27.744  22.800  1.00  0.00    -0.020 A 
ATOM     27  C   UNL A   1      31.845  28.672  22.297  1.00  0.00     0.087 A 
ATOM     28  C   UNL A   1      29.658  28.388  22.783  1.00  0.00     0.003 A 
ATOM     29  N   UNL A   1      31.184  29.840  22.050  1.00  0.00    -0.361 N 
ATOM     30  C   UNL A   1      29.857  29.712  22.379  1.00  0.00     0.046 A 
ATOM     31  C   UNL A   1      28.338  28.007  23.112  1.00  0.00     0.010 A 
ATOM     32  H   UNL A   1      31.598  30.657  21.688  1.00  0.00     0.166 HD
ATOM     33  C   UNL A   1      28.832  30.668  22.354  1.00  0.00     0.026 A 
ATOM     34  C   UNL A   1      27.306  28.954  23.114  1.00  0.00     0.001 A 
ATOM     35  C   UNL A   1      27.554  30.270  22.749  1.00  0.00     0.002 A 
ENDBRANCH  25  26
ENDBRANCH   6  25
ENDBRANCH   3   6
ENDBRANCH   1   2
BRANCH   1  36
ATOM     36  C   UNL A   1      32.105  29.676  27.088  1.00  0.00     0.042 C 
BRANCH  36  37
ATOM     37  C   UNL A   1      33.351  30.546  26.950  1.00  0.00     0.118 C 
BRANCH  37  38
ATOM     38  N   UNL A   1      33.617  31.424  28.073  1.00  0.00    -0.352 N 
ATOM     39  C   UNL A   1      34.709  31.749  28.827  1.00  0.00     0.251 C 
ATOM     40  H   UNL A   1      32.809  31.906  28.367  1.00  0.00     0.163 HD
ATOM     41  O   UNL A   1      34.555  32.694  29.608  1.00  0.00    -0.269 OA
BRANCH  39  42
ATOM     42  C   UNL A   1      36.020  31.039  28.830  1.00  0.00     0.039 A 
ATOM     43  C   UNL A   1      36.205  29.661  28.737  1.00  0.00     0.014 A 
ATOM     44  C   UNL A   1      37.158  31.849  29.030  1.00  0.00     0.014 A 
ATOM     45  C   UNL A   1      37.472  29.105  28.935  1.00  0.00     0.010 A 
ATOM     46  C   UNL A   1      38.427  31.300  29.203  1.00  0.00     0.010 A 
ATOM     47  C   UNL A   1      38.582  29.919  29.200  1.00  0.00    -0.014 A 
BRANCH  47  48
ATOM     48  C   UNL A   1      39.899  29.286  29.320  1.00  0.00     0.031 A 
ATOM     49  C   UNL A   1      40.389  29.141  30.720  1.00  0.00     0.074 A 
ATOM     50  C   UNL A   1      40.610  28.742  28.308  1.00  0.00     0.049 A 
ATOM     51  N   UNL A   1      41.391  29.736  31.280  1.00  0.00    -0.248 NA
ATOM     52  C   UNL A   1      39.590  28.317  31.642  1.00  0.00     0.031 C 
ATOM     53  C   UNL A   1      40.188  28.528  26.923  1.00  0.00     0.029 A 
ATOM     54  N   UNL A   1      41.858  28.181  28.337  1.00  0.00    -0.354 N 
ATOM     55  C   UNL A   1      41.486  29.199  32.562  1.00  0.00     0.074 A 
ATOM     56  C   UNL A   1      40.270  28.461  32.782  1.00  0.00     0.031 C 
ATOM     57  C   UNL A   1      41.070  27.709  26.305  1.00  0.00     0.029 A 
ATOM     58  C   UNL A   1      42.189  27.451  27.198  1.00  0.00     0.049 A 
ATOM     59  H   UNL A   1      42.471  28.284  29.099  1.00  0.00     0.167 HD
ATOM     60  C   UNL A   1      42.656  29.215  33.260  1.00  0.00     0.037 A 
ATOM     61  C   UNL A   1      43.281  26.665  27.012  1.00  0.00     0.037 A 
ATOM     62  C   UNL A   1      43.587  30.170  32.716  1.00  0.00     0.049 A 
ATOM     63  C   UNL A   1      44.318  27.119  27.973  1.00  0.00     0.074 A 
ATOM     64  C   UNL A   1      43.569  31.533  32.489  1.00  0.00     0.029 A 
ATOM     65  N   UNL A   1      44.648  29.686  31.993  1.00  0.00    -0.354 N 
ATOM     66  N   UNL A   1      44.929  28.268  27.904  1.00  0.00    -0.248 NA
ATOM     67  C   UNL A   1      44.415  26.436  29.253  1.00  0.00     0.031 C 
ATOM     68  C   UNL A   1      44.306  31.719  31.284  1.00  0.00     0.029 A 
ATOM     69  C   UNL A   1      44.769  30.468  30.873  1.00  0.00     0.049 A 
ATOM     70  H   UNL A   1      45.218  28.920  32.234  1.00  0.00     0.167 HD
ATOM     71  C   UNL A   1      45.113  28.648  29.224  1.00  0.00     0.074 A 
ATOM     72  C   UNL A   1      44.884  27.436  30.002  1.00  0.00     0.031 C 
ATOM     73  C   UNL A   1      45.164  29.964  29.578  1.00  0.00     0.037 A 
BRANCH  60  74
ATOM     74  C   UNL A   1      43.103  28.109  34.191  1.00  0.00     0.058 A 
ATOM     75  C   UNL A   1      43.380  28.409  35.541  1.00  0.00     0.135 A 
ATOM     76  C   UNL A   1      43.562  26.851  33.740  1.00  0.00     0.135 A 
ATOM     77  F   UNL A   1      42.998  29.581  36.074  1.00  0.00    -0.206 F 
ATOM     78  C   UNL A   1      44.131  27.562  36.357  1.00  0.00     0.059 A 
ATOM     79  C   UNL A   1      44.263  25.968  34.552  1.00  0.00     0.059 A 
ATOM     80  F   UNL A   1      43.444  26.461  32.466  1.00  0.00    -0.206 F 
ATOM     81  C   UNL A   1      44.585  26.350  35.844  1.00  0.00     0.060 A 
BRANCH  81  82
ATOM     82  S   UNL A   1      45.662  25.313  36.847  1.00  0.00     0.124 S 
ATOM     83  O   UNL A   1      44.864  25.155  38.058  1.00  0.00    -0.237 OA
ATOM     84  O   UNL A   1      45.802  24.125  36.012  1.00  0.00    -0.237 OA
ATOM     85  O   UNL A   1      46.870  26.121  36.986  1.00  0.00    -0.744 OA
ENDBRANCH  81  82
ENDBRANCH  60  74
BRANCH  61  86
ATOM     86  C   UNL A   1      43.413  25.386  26.259  1.00  0.00     0.058 A 
ATOM     87  C   UNL A   1      44.439  25.199  25.311  1.00  0.00     0.135 A 
ATOM     88  C   UNL A   1      42.731  24.223  26.664  1.00  0.00     0.135 A 
ATOM     89  F   UNL A   1      45.154  26.247  24.872  1.00  0.00    -0.206 F 
ATOM     90  C   UNL A   1      44.809  23.931  24.845  1.00  0.00     0.059 A 
ATOM     91  C   UNL A   1      43.075  22.950  26.205  1.00  0.00     0.059 A 
ATOM     92  F   UNL A   1      41.768  24.275  27.595  1.00  0.00    -0.206 F 
ATOM     93  C   UNL A   1      44.136  22.808  25.320  1.00  0.00     0.060 A 
BRANCH  93  94
ATOM     94  S   UNL A   1      44.731  21.159  24.872  1.00  0.00     0.124 S 
ATOM     95  O   UNL A   1      43.823  20.296  25.620  1.00  0.00    -0.237 OA
ATOM     96  O   UNL A   1      44.566  21.155  23.424  1.00  0.00    -0.237 OA
ATOM     97  O   UNL A   1      46.116  21.160  25.339  1.00  0.00    -0.744 OA
ENDBRANCH  93  94
ENDBRANCH  61  86
BRANCH  73  98
ATOM     98  C   UNL A   1      45.399  30.991  28.501  1.00  0.00     0.058 A 
ATOM     99  C   UNL A   1      44.394  31.536  27.684  1.00  0.00     0.135 A 
ATOM    100  C   UNL A   1      46.678  31.564  28.421  1.00  0.00     0.135 A 
ATOM    101  F   UNL A   1      43.127  31.108  27.767  1.00  0.00    -0.206 F 
ATOM    102  C   UNL A   1      44.659  32.591  26.808  1.00  0.00     0.059 A 
ATOM    103  C   UNL A   1      46.955  32.636  27.577  1.00  0.00     0.059 A 
ATOM    104  F   UNL A   1      47.666  31.121  29.216  1.00  0.00    -0.206 F 
ATOM    105  C   UNL A   1      45.940  33.142  26.769  1.00  0.00     0.060 A 
BRANCH 105 106
ATOM    106  S   UNL A   1      46.253  34.579  25.722  1.00  0.00     0.124 S 
ATOM    107  O   UNL A   1      45.336  34.350  24.606  1.00  0.00    -0.237 OA
ATOM    108  O   UNL A   1      45.902  35.692  26.605  1.00  0.00    -0.237 OA
ATOM    109  O   UNL A   1      47.667  34.472  25.400  1.00  0.00    -0.744 OA
ENDBRANCH 105 106
ENDBRANCH  73  98
ENDBRANCH  47  48
ENDBRANCH  39  42
ENDBRANCH  37  38
ENDBRANCH  36  37
ENDBRANCH   1  36
TORSDOF 19
ENDMDL
MODEL 2
REMARK VINA RESULT:     -13.6      2.788      9.465
REMARK SMILES O=C(CSc1nnc2sc3ccccc3n12)N[C@H](Cc1c[nH]c2ccccc12)C(=O)NCCCNC(=O)c1ccc(-c2c3nc(c(-c4c(F)cc(S(=O)(=O)[O-])cc4F)c4ccc([nH]4)c(-c4c(F)cc(S(=O)(=O)[O-])cc4F)c4nc(c(-c5c(F)cc(S(=O)(=O)[O-])cc5F)c5ccc2[nH]5)C=C4)C=C3)cc1
REMARK SMILES IDX 32 1 31 2 29 3 30 4 18 6 17 7 1 8 2 9 3 11 4 12 5 13 6 14
REMARK SMILES IDX 16 15 7 16 8 17 15 18 9 19 10 20 14 21 11 22 13 23 12 24
REMARK SMILES IDX 19 25 20 26 21 27 28 28 22 29 23 30 27 31 24 33 26 34 25 35
REMARK SMILES IDX 33 36 34 37 35 38 36 39 37 41 38 42 39 43 103 44 40 45
REMARK SMILES IDX 102 46 41 47 42 48 43 49 96 50 44 51 101 52 95 53 97 54
REMARK SMILES IDX 45 55 100 56 94 57 93 58 46 60 80 61 59 62 79 63 60 64 63 65
REMARK SMILES IDX 78 66 98 67 61 68 62 69 77 71 99 72 64 73 47 74 48 75 57 76
REMARK SMILES IDX 49 77 50 78 56 79 58 80 51 81 52 82 53 83 54 84 55 85 81 86
REMARK SMILES IDX 82 87 91 88 83 89 84 90 90 91 92 92 85 93 86 94 87 95 88 96
REMARK SMILES IDX 89 97 65 98 66 99 75 100 67 101 68 102 74 103 76 104 69 105
REMARK SMILES IDX 70 106 71 107 72 108 73 109
REMARK H PARENT 31 5 17 10 22 32 35 40 97 59 63 70
REMARK Flexibility Score: inf
ROOT
ATOM      1  C   UNL A   1      36.529  23.589  24.110  1.00  0.00     0.117 C 
ENDROOT
BRANCH   1   2
ATOM      2  N   UNL A   1      35.688  24.133  25.154  1.00  0.00    -0.354 N 
ATOM      3  C   UNL A   1      34.333  24.060  25.295  1.00  0.00     0.242 C 
ATOM      4  O   UNL A   1      33.873  24.226  26.433  1.00  0.00    -0.273 OA
ATOM      5  H   UNL A   1      36.160  24.627  25.862  1.00  0.00     0.163 HD
BRANCH   3   6
ATOM      6  C   UNL A   1      33.390  23.643  24.144  1.00  0.00     0.175 C 
BRANCH   6   7
ATOM      7  N   UNL A   1      33.068  24.890  23.437  1.00  0.00    -0.343 N 
ATOM      8  O   UNL A   1      33.297  24.275  21.253  1.00  0.00    -0.274 OA
ATOM      9  C   UNL A   1      32.817  25.027  22.098  1.00  0.00     0.231 C 
ATOM     10  H   UNL A   1      33.026  25.709  23.980  1.00  0.00     0.164 HD
BRANCH   9  11
ATOM     11  C   UNL A   1      31.805  26.094  21.699  1.00  0.00     0.178 C 
BRANCH  11  12
ATOM     12  S   UNL A   1      30.436  26.323  22.867  1.00  0.00    -0.076 SA
BRANCH  12  13
ATOM     13  C   UNL A   1      30.305  28.048  22.941  1.00  0.00     0.197 A 
ATOM     14  N   UNL A   1      29.485  28.783  22.210  1.00  0.00    -0.122 NA
ATOM     15  N   UNL A   1      30.834  28.827  23.928  1.00  0.00    -0.260 N 
ATOM     16  N   UNL A   1      29.436  30.065  22.757  1.00  0.00    -0.118 NA
ATOM     17  C   UNL A   1      30.218  30.036  23.803  1.00  0.00     0.217 A 
ATOM     18  C   UNL A   1      31.716  28.707  24.994  1.00  0.00     0.068 A 
ATOM     19  S   UNL A   1      30.602  31.138  25.080  1.00  0.00    -0.094 S 
ATOM     20  C   UNL A   1      31.693  29.882  25.764  1.00  0.00     0.055 A 
ATOM     21  C   UNL A   1      32.533  27.634  25.299  1.00  0.00     0.028 A 
ATOM     22  C   UNL A   1      32.463  29.975  26.909  1.00  0.00     0.021 A 
ATOM     23  C   UNL A   1      33.328  27.740  26.440  1.00  0.00     0.002 A 
ATOM     24  C   UNL A   1      33.283  28.891  27.246  1.00  0.00     0.002 A 
ENDBRANCH  12  13
ENDBRANCH  11  12
ENDBRANCH   9  11
ENDBRANCH   6   7
BRANCH   6  25
ATOM     25  C   UNL A   1      32.276  22.660  24.526  1.00  0.00     0.072 C 
BRANCH  25  26
ATOM     26  C   UNL A   1      32.701  21.239  24.840  1.00  0.00    -0.020 A 
ATOM     27  C   UNL A   1      33.278  20.873  26.045  1.00  0.00     0.087 A 
ATOM     28  C   UNL A   1      32.652  20.041  24.041  1.00  0.00     0.003 A 
ATOM     29  N   UNL A   1      33.635  19.556  25.984  1.00  0.00    -0.361 N 
ATOM     30  C   UNL A   1      33.306  19.034  24.757  1.00  0.00     0.046 A 
ATOM     31  C   UNL A   1      32.163  19.705  22.758  1.00  0.00     0.010 A 
ATOM     32  H   UNL A   1      34.064  19.054  26.714  1.00  0.00     0.166 HD
ATOM     33  C   UNL A   1      33.547  17.755  24.236  1.00  0.00     0.026 A 
ATOM     34  C   UNL A   1      32.414  18.440  22.213  1.00  0.00     0.001 A 
ATOM     35  C   UNL A   1      33.107  17.482  22.940  1.00  0.00     0.002 A 
ENDBRANCH  25  26
ENDBRANCH   6  25
ENDBRANCH   3   6
ENDBRANCH   1   2
BRANCH   1  36
ATOM     36  C   UNL A   1      36.869  22.118  24.273  1.00  0.00     0.042 C 
BRANCH  36  37
ATOM     37  C   UNL A   1      37.354  21.705  25.660  1.00  0.00     0.118 C 
BRANCH  37  38
ATOM     38  N   UNL A   1      38.726  21.239  25.718  1.00  0.00    -0.352 N 
ATOM     39  C   UNL A   1      39.886  21.675  26.293  1.00  0.00     0.251 C 
ATOM     40  H   UNL A   1      38.854  20.399  25.220  1.00  0.00     0.163 HD
ATOM     41  O   UNL A   1      40.833  20.882  26.249  1.00  0.00    -0.269 OA
BRANCH  39  42
ATOM     42  C   UNL A   1      40.119  23.017  26.899  1.00  0.00     0.039 A 
ATOM     43  C   UNL A   1      39.461  24.196  26.555  1.00  0.00     0.014 A 
ATOM     44  C   UNL A   1      41.162  23.092  27.846  1.00  0.00     0.014 A 
ATOM     45  C   UNL A   1      39.896  25.422  27.066  1.00  0.00     0.010 A 
ATOM     46  C   UNL A   1      41.582  24.310  28.379  1.00  0.00     0.010 A 
ATOM     47  C   UNL A   1      40.978  25.487  27.955  1.00  0.00    -0.014 A 
BRANCH  47  48
ATOM     48  C   UNL A   1      41.339  26.791  28.521  1.00  0.00     0.031 A 
ATOM     49  C   UNL A   1      42.586  27.383  27.960  1.00  0.00     0.074 A 
ATOM     50  C   UNL A   1      40.591  27.512  29.384  1.00  0.00     0.049 A 
ATOM     51  N   UNL A   1      43.713  27.586  28.561  1.00  0.00    -0.248 NA
ATOM     52  C   UNL A   1      42.614  27.679  26.519  1.00  0.00     0.031 C 
ATOM     53  C   UNL A   1      39.223  27.246  29.833  1.00  0.00     0.029 A 
ATOM     54  N   UNL A   1      40.883  28.706  29.988  1.00  0.00    -0.354 N 
ATOM     55  C   UNL A   1      44.527  28.236  27.637  1.00  0.00     0.074 A 
ATOM     56  C   UNL A   1      43.863  28.122  26.364  1.00  0.00     0.031 C 
ATOM     57  C   UNL A   1      38.735  28.339  30.464  1.00  0.00     0.029 A 
ATOM     58  C   UNL A   1      39.793  29.330  30.589  1.00  0.00     0.049 A 
ATOM     59  H   UNL A   1      41.788  29.091  29.996  1.00  0.00     0.167 HD
ATOM     60  C   UNL A   1      45.574  29.015  28.028  1.00  0.00     0.037 A 
ATOM     61  C   UNL A   1      39.750  30.580  31.119  1.00  0.00     0.037 A 
ATOM     62  C   UNL A   1      45.959  28.745  29.389  1.00  0.00     0.049 A 
ATOM     63  C   UNL A   1      41.145  30.968  31.446  1.00  0.00     0.074 A 
ATOM     64  C   UNL A   1      46.381  27.626  30.082  1.00  0.00     0.029 A 
ATOM     65  N   UNL A   1      45.612  29.666  30.346  1.00  0.00    -0.354 N 
ATOM     66  N   UNL A   1      41.860  30.415  32.386  1.00  0.00    -0.248 NA
ATOM     67  C   UNL A   1      41.893  31.735  30.463  1.00  0.00     0.031 C 
ATOM     68  C   UNL A   1      45.817  27.760  31.384  1.00  0.00     0.029 A 
ATOM     69  C   UNL A   1      45.126  28.972  31.423  1.00  0.00     0.049 A 
ATOM     70  H   UNL A   1      45.697  30.644  30.272  1.00  0.00     0.167 HD
ATOM     71  C   UNL A   1      43.150  30.399  31.882  1.00  0.00     0.074 A 
ATOM     72  C   UNL A   1      43.128  31.324  30.754  1.00  0.00     0.031 C 
ATOM     73  C   UNL A   1      44.040  29.436  32.256  1.00  0.00     0.037 A 
BRANCH  60  74
ATOM     74  C   UNL A   1      46.002  30.280  27.317  1.00  0.00     0.058 A 
ATOM     75  C   UNL A   1      47.377  30.543  27.137  1.00  0.00     0.135 A 
ATOM     76  C   UNL A   1      45.138  31.373  27.085  1.00  0.00     0.135 A 
ATOM     77  F   UNL A   1      48.290  29.579  27.338  1.00  0.00    -0.206 F 
ATOM     78  C   UNL A   1      47.862  31.817  26.837  1.00  0.00     0.059 A 
ATOM     79  C   UNL A   1      45.596  32.636  26.730  1.00  0.00     0.059 A 
ATOM     80  F   UNL A   1      43.818  31.298  27.292  1.00  0.00    -0.206 F 
ATOM     81  C   UNL A   1      46.960  32.862  26.655  1.00  0.00     0.060 A 
BRANCH  81  82
ATOM     82  S   UNL A   1      47.584  34.532  26.396  1.00  0.00     0.124 S 
ATOM     83  O   UNL A   1      46.375  35.324  26.593  1.00  0.00    -0.237 OA
ATOM     84  O   UNL A   1      48.599  34.640  27.439  1.00  0.00    -0.237 OA
ATOM     85  O   UNL A   1      48.097  34.488  25.030  1.00  0.00    -0.744 OA
ENDBRANCH  81  82
ENDBRANCH  60  74
BRANCH  61  86
ATOM     86  C   UNL A   1      38.637  31.570  31.125  1.00  0.00     0.058 A 
ATOM     87  C   UNL A   1      37.917  31.868  29.950  1.00  0.00     0.135 A 
ATOM     88  C   UNL A   1      38.059  32.017  32.330  1.00  0.00     0.135 A 
ATOM     89  F   UNL A   1      38.381  31.474  28.755  1.00  0.00    -0.206 F 
ATOM     90  C   UNL A   1      36.672  32.509  29.975  1.00  0.00     0.059 A 
ATOM     91  C   UNL A   1      36.825  32.667  32.377  1.00  0.00     0.059 A 
ATOM     92  F   UNL A   1      38.632  31.750  33.512  1.00  0.00    -0.206 F 
ATOM     93  C   UNL A   1      36.121  32.882  31.198  1.00  0.00     0.060 A 
BRANCH  93  94
ATOM     94  S   UNL A   1      34.435  33.534  31.253  1.00  0.00     0.124 S 
ATOM     95  O   UNL A   1      33.820  32.700  32.280  1.00  0.00    -0.237 OA
ATOM     96  O   UNL A   1      34.656  34.930  31.615  1.00  0.00    -0.237 OA
ATOM     97  O   UNL A   1      33.942  33.315  29.895  1.00  0.00    -0.744 OA
ENDBRANCH  93  94
ENDBRANCH  61  86
BRANCH  73  98
ATOM     98  C   UNL A   1      43.746  28.622  33.489  1.00  0.00     0.058 A 
ATOM     99  C   UNL A   1      44.060  29.019  34.801  1.00  0.00     0.135 A 
ATOM    100  C   UNL A   1      42.958  27.471  33.335  1.00  0.00     0.135 A 
ATOM    101  F   UNL A   1      44.728  30.156  35.039  1.00  0.00    -0.206 F 
ATOM    102  C   UNL A   1      43.627  28.286  35.907  1.00  0.00     0.059 A 
ATOM    103  C   UNL A   1      42.491  26.744  34.425  1.00  0.00     0.059 A 
ATOM    104  F   UNL A   1      42.582  27.072  32.108  1.00  0.00    -0.206 F 
ATOM    105  C   UNL A   1      42.834  27.155  35.711  1.00  0.00     0.060 A 
BRANCH 105 106
ATOM    106  S   UNL A   1      42.178  26.275  37.145  1.00  0.00     0.124 S 
ATOM    107  O   UNL A   1      40.879  26.919  37.332  1.00  0.00    -0.237 OA
ATOM    108  O   UNL A   1      42.132  24.892  36.668  1.00  0.00    -0.237 OA
ATOM    109  O   UNL A   1      43.159  26.533  38.187  1.00  0.00    -0.744 OA
ENDBRANCH 105 106
ENDBRANCH  73  98
ENDBRANCH  47  48
ENDBRANCH  39  42
ENDBRANCH  37  38
ENDBRANCH  36  37
ENDBRANCH   1  36
TORSDOF 19
ENDMDL
MODEL 3
REMARK VINA RESULT:     -13.5      2.881      9.697
REMARK SMILES O=C(CSc1nnc2sc3ccccc3n12)N[C@H](Cc1c[nH]c2ccccc12)C(=O)NCCCNC(=O)c1ccc(-c2c3nc(c(-c4c(F)cc(S(=O)(=O)[O-])cc4F)c4ccc([nH]4)c(-c4c(F)cc(S(=O)(=O)[O-])cc4F)c4nc(c(-c5c(F)cc(S(=O)(=O)[O-])cc5F)c5ccc2[nH]5)C=C4)C=C3)cc1
REMARK SMILES IDX 32 1 31 2 29 3 30 4 18 6 17 7 1 8 2 9 3 11 4 12 5 13 6 14
REMARK SMILES IDX 16 15 7 16 8 17 15 18 9 19 10 20 14 21 11 22 13 23 12 24
REMARK SMILES IDX 19 25 20 26 21 27 28 28 22 29 23 30 27 31 24 33 26 34 25 35
REMARK SMILES IDX 33 36 34 37 35 38 36 39 37 41 38 42 39 43 103 44 40 45
REMARK SMILES IDX 102 46 41 47 42 48 43 49 96 50 44 51 101 52 95 53 97 54
REMARK SMILES IDX 45 55 100 56 94 57 93 58 46 60 80 61 59 62 79 63 60 64 63 65
REMARK SMILES IDX 78 66 98 67 61 68 62 69 77 71 99 72 64 73 47 74 48 75 57 76
REMARK SMILES IDX 49 77 50 78 56 79 58 80 51 81 52 82 53 83 54 84 55 85 81 86
REMARK SMILES IDX 82 87 91 88 83 89 84 90 90 91 92 92 85 93 86 94 87 95 88 96
REMARK SMILES IDX 89 97 65 98 66 99 75 100 67 101 68 102 74 103 76 104 69 105
REMARK SMILES IDX 70 106 71 107 72 108 73 109
REMARK H PARENT 31 5 17 10 22 32 35 40 97 59 63 70
REMARK Flexibility Score: inf
ROOT
ATOM      1  C   UNL A   1      36.514  22.607  23.780  1.00  0.00     0.117 C 
ENDROOT
BRANCH   1   2
ATOM      2  N   UNL A   1      36.088  23.692  24.635  1.00  0.00    -0.354 N 
ATOM      3  C   UNL A   1      34.833  24.190  24.836  1.00  0.00     0.242 C 
ATOM      4  O   UNL A   1      34.635  24.819  25.884  1.00  0.00    -0.273 OA
ATOM      5  H   UNL A   1      36.804  24.134  25.145  1.00  0.00     0.163 HD
BRANCH   3   6
ATOM      6  C   UNL A   1      33.647  23.878  23.897  1.00  0.00     0.175 C 
BRANCH   6   7
ATOM      7  N   UNL A   1      33.149  25.188  23.454  1.00  0.00    -0.343 N 
ATOM      8  O   UNL A   1      33.233  24.990  21.184  1.00  0.00    -0.274 OA
ATOM      9  C   UNL A   1      32.766  25.528  22.185  1.00  0.00     0.231 C 
ATOM     10  H   UNL A   1      33.084  25.892  24.139  1.00  0.00     0.164 HD
BRANCH   9  11
ATOM     11  C   UNL A   1      31.630  26.537  22.062  1.00  0.00     0.178 C 
BRANCH  11  12
ATOM     12  S   UNL A   1      30.593  26.701  23.542  1.00  0.00    -0.076 SA
BRANCH  12  13
ATOM     13  C   UNL A   1      30.425  28.419  23.679  1.00  0.00     0.197 A 
ATOM     14  N   UNL A   1      29.455  29.137  23.141  1.00  0.00    -0.122 NA
ATOM     15  N   UNL A   1      31.116  29.201  24.559  1.00  0.00    -0.260 N 
ATOM     16  N   UNL A   1      29.475  30.408  23.717  1.00  0.00    -0.118 NA
ATOM     17  C   UNL A   1      30.451  30.389  24.585  1.00  0.00     0.217 A 
ATOM     18  C   UNL A   1      32.196  29.094  25.426  1.00  0.00     0.068 A 
ATOM     19  S   UNL A   1      31.047  31.483  25.786  1.00  0.00    -0.094 S 
ATOM     20  C   UNL A   1      32.290  30.256  26.211  1.00  0.00     0.055 A 
ATOM     21  C   UNL A   1      33.091  28.045  25.538  1.00  0.00     0.028 A 
ATOM     22  C   UNL A   1      33.269  30.356  27.183  1.00  0.00     0.021 A 
ATOM     23  C   UNL A   1      34.092  28.161  26.501  1.00  0.00     0.002 A 
ATOM     24  C   UNL A   1      34.173  29.297  27.326  1.00  0.00     0.002 A 
ENDBRANCH  12  13
ENDBRANCH  11  12
ENDBRANCH   9  11
ENDBRANCH   6   7
BRANCH   6  25
ATOM     25  C   UNL A   1      32.668  22.810  24.401  1.00  0.00     0.072 C 
BRANCH  25  26
ATOM     26  C   UNL A   1      32.487  21.587  23.524  1.00  0.00    -0.020 A 
ATOM     27  C   UNL A   1      31.821  21.620  22.310  1.00  0.00     0.087 A 
ATOM     28  C   UNL A   1      32.886  20.216  23.722  1.00  0.00     0.003 A 
ATOM     29  N   UNL A   1      31.741  20.351  21.812  1.00  0.00    -0.361 N 
ATOM     30  C   UNL A   1      32.343  19.467  22.674  1.00  0.00     0.046 A 
ATOM     31  C   UNL A   1      33.615  19.511  24.707  1.00  0.00     0.010 A 
ATOM     32  H   UNL A   1      31.316  20.105  20.959  1.00  0.00     0.166 HD
ATOM     33  C   UNL A   1      32.436  18.070  22.601  1.00  0.00     0.026 A 
ATOM     34  C   UNL A   1      33.700  18.114  24.662  1.00  0.00     0.001 A 
ATOM     35  C   UNL A   1      33.108  17.403  23.627  1.00  0.00     0.002 A 
ENDBRANCH  25  26
ENDBRANCH   6  25
ENDBRANCH   3   6
ENDBRANCH   1   2
BRANCH   1  36
ATOM     36  C   UNL A   1      37.317  21.525  24.481  1.00  0.00     0.042 C 
BRANCH  36  37
ATOM     37  C   UNL A   1      38.177  21.997  25.650  1.00  0.00     0.118 C 
BRANCH  37  38
ATOM     38  N   UNL A   1      39.564  21.576  25.603  1.00  0.00    -0.352 N 
ATOM     39  C   UNL A   1      40.744  22.028  26.123  1.00  0.00     0.251 C 
ATOM     40  H   UNL A   1      39.686  20.762  25.063  1.00  0.00     0.163 HD
ATOM     41  O   UNL A   1      41.710  21.271  25.986  1.00  0.00    -0.269 OA
BRANCH  39  42
ATOM     42  C   UNL A   1      40.972  23.352  26.770  1.00  0.00     0.039 A 
ATOM     43  C   UNL A   1      41.860  23.613  27.811  1.00  0.00     0.014 A 
ATOM     44  C   UNL A   1      40.142  24.404  26.326  1.00  0.00     0.014 A 
ATOM     45  C   UNL A   1      41.850  24.854  28.452  1.00  0.00     0.010 A 
ATOM     46  C   UNL A   1      40.147  25.652  26.948  1.00  0.00     0.010 A 
ATOM     47  C   UNL A   1      40.972  25.867  28.044  1.00  0.00    -0.014 A 
BRANCH  47  48
ATOM     48  C   UNL A   1      41.062  27.175  28.703  1.00  0.00     0.031 A 
ATOM     49  C   UNL A   1      42.155  28.050  28.192  1.00  0.00     0.074 A 
ATOM     50  C   UNL A   1      40.190  27.664  29.611  1.00  0.00     0.049 A 
ATOM     51  N   UNL A   1      43.222  28.438  28.811  1.00  0.00    -0.248 NA
ATOM     52  C   UNL A   1      42.108  28.446  26.775  1.00  0.00     0.031 C 
ATOM     53  C   UNL A   1      38.910  27.091  30.033  1.00  0.00     0.029 A 
ATOM     54  N   UNL A   1      40.235  28.847  30.299  1.00  0.00    -0.354 N 
ATOM     55  C   UNL A   1      43.875  29.306  27.939  1.00  0.00     0.074 A 
ATOM     56  C   UNL A   1      43.237  29.147  26.658  1.00  0.00     0.031 C 
ATOM     57  C   UNL A   1      38.214  28.013  30.737  1.00  0.00     0.029 A 
ATOM     58  C   UNL A   1      39.046  29.189  30.937  1.00  0.00     0.049 A 
ATOM     59  H   UNL A   1      41.041  29.409  30.339  1.00  0.00     0.167 HD
ATOM     60  C   UNL A   1      44.743  30.254  28.391  1.00  0.00     0.037 A 
ATOM     61  C   UNL A   1      38.751  30.363  31.555  1.00  0.00     0.037 A 
ATOM     62  C   UNL A   1      45.188  29.974  29.731  1.00  0.00     0.049 A 
ATOM     63  C   UNL A   1      40.039  31.006  31.915  1.00  0.00     0.074 A 
ATOM     64  C   UNL A   1      45.839  28.921  30.345  1.00  0.00     0.029 A 
ATOM     65  N   UNL A   1      44.668  30.734  30.749  1.00  0.00    -0.354 N 
ATOM     66  N   UNL A   1      40.861  30.548  32.817  1.00  0.00    -0.248 NA
ATOM     67  C   UNL A   1      40.604  31.978  30.993  1.00  0.00     0.031 C 
ATOM     68  C   UNL A   1      45.272  28.844  31.650  1.00  0.00     0.029 A 
ATOM     69  C   UNL A   1      44.346  29.881  31.772  1.00  0.00     0.049 A 
ATOM     70  H   UNL A   1      44.549  31.711  30.744  1.00  0.00     0.167 HD
ATOM     71  C   UNL A   1      42.123  30.834  32.321  1.00  0.00     0.074 A 
ATOM     72  C   UNL A   1      41.900  31.811  31.261  1.00  0.00     0.031 C 
ATOM     73  C   UNL A   1      43.196  30.050  32.630  1.00  0.00     0.037 A 
BRANCH  60  74
ATOM     74  C   UNL A   1      44.894  31.627  27.773  1.00  0.00     0.058 A 
ATOM     75  C   UNL A   1      46.118  31.983  27.167  1.00  0.00     0.135 A 
ATOM     76  C   UNL A   1      44.005  32.695  28.024  1.00  0.00     0.135 A 
ATOM     77  F   UNL A   1      47.042  31.049  26.890  1.00  0.00    -0.206 F 
ATOM     78  C   UNL A   1      46.467  33.310  26.911  1.00  0.00     0.059 A 
ATOM     79  C   UNL A   1      44.311  34.018  27.725  1.00  0.00     0.059 A 
ATOM     80  F   UNL A   1      42.843  32.524  28.664  1.00  0.00    -0.206 F 
ATOM     81  C   UNL A   1      45.561  34.323  27.214  1.00  0.00     0.060 A 
BRANCH  81  82
ATOM     82  S   UNL A   1      46.055  36.042  27.007  1.00  0.00     0.124 S 
ATOM     83  O   UNL A   1      46.846  36.262  28.212  1.00  0.00    -0.237 OA
ATOM     84  O   UNL A   1      46.797  35.994  25.751  1.00  0.00    -0.237 OA
ATOM     85  O   UNL A   1      44.780  36.751  26.948  1.00  0.00    -0.744 OA
ENDBRANCH  81  82
ENDBRANCH  60  74
BRANCH  61  86
ATOM     86  C   UNL A   1      37.458  31.099  31.625  1.00  0.00     0.058 A 
ATOM     87  C   UNL A   1      36.847  31.388  32.862  1.00  0.00     0.135 A 
ATOM     88  C   UNL A   1      36.949  31.795  30.511  1.00  0.00     0.135 A 
ATOM     89  F   UNL A   1      37.271  30.784  33.983  1.00  0.00    -0.206 F 
ATOM     90  C   UNL A   1      35.842  32.353  32.996  1.00  0.00     0.059 A 
ATOM     91  C   UNL A   1      35.940  32.753  30.619  1.00  0.00     0.059 A 
ATOM     92  F   UNL A   1      37.483  31.634  29.292  1.00  0.00    -0.206 F 
ATOM     93  C   UNL A   1      35.413  33.052  31.870  1.00  0.00     0.060 A 
BRANCH  93  94
ATOM     94  S   UNL A   1      34.256  34.429  32.063  1.00  0.00     0.124 S 
ATOM     95  O   UNL A   1      33.705  34.553  30.718  1.00  0.00    -0.237 OA
ATOM     96  O   UNL A   1      33.343  33.923  33.081  1.00  0.00    -0.237 OA
ATOM     97  O   UNL A   1      35.113  35.533  32.489  1.00  0.00    -0.744 OA
ENDBRANCH  93  94
ENDBRANCH  61  86
BRANCH  73  98
ATOM     98  C   UNL A   1      43.087  29.109  33.801  1.00  0.00     0.058 A 
ATOM     99  C   UNL A   1      43.303  29.474  35.141  1.00  0.00     0.135 A 
ATOM    100  C   UNL A   1      42.576  27.825  33.556  1.00  0.00     0.135 A 
ATOM    101  F   UNL A   1      43.702  30.712  35.466  1.00  0.00    -0.206 F 
ATOM    102  C   UNL A   1      43.042  28.589  36.189  1.00  0.00     0.059 A 
ATOM    103  C   UNL A   1      42.279  26.939  34.588  1.00  0.00     0.059 A 
ATOM    104  F   UNL A   1      42.299  27.439  32.299  1.00  0.00    -0.206 F 
ATOM    105  C   UNL A   1      42.520  27.328  35.903  1.00  0.00     0.060 A 
BRANCH 105 106
ATOM    106  S   UNL A   1      42.074  26.227  37.264  1.00  0.00     0.124 S 
ATOM    107  O   UNL A   1      43.079  26.563  38.272  1.00  0.00    -0.237 OA
ATOM    108  O   UNL A   1      40.707  26.650  37.574  1.00  0.00    -0.237 OA
ATOM    109  O   UNL A   1      42.190  24.898  36.686  1.00  0.00    -0.744 OA
ENDBRANCH 105 106
ENDBRANCH  73  98
ENDBRANCH  47  48
ENDBRANCH  39  42
ENDBRANCH  37  38
ENDBRANCH  36  37
ENDBRANCH   1  36
TORSDOF 19
ENDMDL
