MODEL 1
REMARK VINA RESULT:     -12.3      0.000      0.000
REMARK SMILES Cc1ccc2nc(C(=O)NCCCNC(=O)c3ccc(-c4c5nc(c(-c6c(F)cc(S(=O)(=O)[O-])cc6F)c6ccc([nH]6)c(-c6c(F)cc(S(=O)(=O)[O-])cc6F)c6nc(c(-c7c(F)cc(S(=O)(=O)[O-])cc7F)c7ccc4[nH]7)C=C6)C=C5)cc3)cc(N3CCOCC3)c2c1
REMARK SMILES IDX 13 1 12 2 11 3 10 4 8 5 9 6 7 8 1 9 2 10 3 11 92 12 4 13
REMARK SMILES IDX 91 14 5 15 84 16 6 17 83 18 85 19 86 20 90 21 87 22 89 23
REMARK SMILES IDX 88 24 14 25 15 26 16 28 17 29 18 30 82 31 19 32 81 33 20 34
REMARK SMILES IDX 21 35 22 36 75 37 23 38 80 39 74 40 76 41 24 42 79 43 73 44
REMARK SMILES IDX 72 45 25 47 59 48 38 49 58 50 39 51 42 52 57 53 77 54 40 55
REMARK SMILES IDX 41 56 56 58 78 59 43 60 26 61 27 62 36 63 28 64 29 65 35 66
REMARK SMILES IDX 37 67 30 68 31 69 32 70 33 71 34 72 60 73 61 74 70 75 62 76
REMARK SMILES IDX 63 77 69 78 71 79 64 80 65 81 66 82 67 83 68 84 44 85 45 86
REMARK SMILES IDX 54 87 46 88 47 89 53 90 55 91 48 92 49 93 50 94 51 95 52 96
REMARK H PARENT 10 7 14 27 76 46 42 57
REMARK Flexibility Score: inf
ROOT
ATOM      1  C   UNL A   1      33.539  28.137  26.982  1.00  0.00     0.118 C 
ENDROOT
BRANCH   1   2
ATOM      2  C   UNL A   1      32.180  27.438  27.001  1.00  0.00     0.042 C 
BRANCH   2   3
ATOM      3  C   UNL A   1      32.131  26.183  26.127  1.00  0.00     0.118 C 
BRANCH   3   4
ATOM      4  N   UNL A   1      31.136  25.245  26.609  1.00  0.00    -0.351 N 
ATOM      5  C   UNL A   1      31.103  23.872  26.700  1.00  0.00     0.269 C 
ATOM      6  O   UNL A   1      30.091  23.391  27.216  1.00  0.00    -0.268 OA
ATOM      7  H   UNL A   1      30.316  25.680  26.939  1.00  0.00     0.163 HD
BRANCH   5   8
ATOM      8  C   UNL A   1      32.221  22.965  26.254  1.00  0.00     0.130 A 
ATOM      9  C   UNL A   1      38.109  20.708  24.794  1.00  0.00     0.044 C 
ATOM     10  C   UNL A   1      36.878  21.446  25.223  1.00  0.00    -0.050 A 
ATOM     11  C   UNL A   1      36.952  22.697  25.826  1.00  0.00     0.005 A 
ATOM     12  C   UNL A   1      35.618  20.875  25.022  1.00  0.00     0.016 A 
ATOM     13  C   UNL A   1      35.781  23.360  26.205  1.00  0.00     0.029 A 
ATOM     14  C   UNL A   1      34.429  21.515  25.447  1.00  0.00     0.024 A 
ATOM     15  C   UNL A   1      34.526  22.798  26.020  1.00  0.00     0.073 A 
ATOM     16  C   UNL A   1      33.138  20.943  25.317  1.00  0.00     0.049 A 
ATOM     17  N   UNL A   1      33.456  23.510  26.390  1.00  0.00    -0.242 NA
ATOM     18  C   UNL A   1      32.040  21.681  25.771  1.00  0.00     0.060 A 
BRANCH  16  19
ATOM     19  N   UNL A   1      32.957  19.683  24.750  1.00  0.00    -0.366 N 
ATOM     20  C   UNL A   1      32.774  18.535  25.659  1.00  0.00     0.145 C 
ATOM     21  C   UNL A   1      32.244  19.533  23.471  1.00  0.00     0.145 C 
ATOM     22  C   UNL A   1      33.176  17.248  24.918  1.00  0.00     0.181 C 
ATOM     23  C   UNL A   1      32.660  18.205  22.817  1.00  0.00     0.181 C 
ATOM     24  O   UNL A   1      32.437  17.088  23.694  1.00  0.00    -0.378 OA
ENDBRANCH  16  19
ENDBRANCH   5   8
ENDBRANCH   3   4
ENDBRANCH   2   3
ENDBRANCH   1   2
BRANCH   1  25
ATOM     25  N   UNL A   1      33.418  29.550  27.302  1.00  0.00    -0.352 N 
ATOM     26  C   UNL A   1      34.290  30.392  27.945  1.00  0.00     0.251 C 
ATOM     27  H   UNL A   1      32.576  29.971  27.011  1.00  0.00     0.163 HD
ATOM     28  O   UNL A   1      33.882  31.485  28.328  1.00  0.00    -0.269 OA
BRANCH  26  29
ATOM     29  C   UNL A   1      35.701  30.005  28.181  1.00  0.00     0.039 A 
ATOM     30  C   UNL A   1      36.077  29.614  29.471  1.00  0.00     0.014 A 
ATOM     31  C   UNL A   1      36.668  30.102  27.176  1.00  0.00     0.014 A 
ATOM     32  C   UNL A   1      37.410  29.295  29.744  1.00  0.00     0.010 A 
ATOM     33  C   UNL A   1      37.985  29.721  27.433  1.00  0.00     0.010 A 
ATOM     34  C   UNL A   1      38.372  29.332  28.724  1.00  0.00    -0.014 A 
BRANCH  34  35
ATOM     35  C   UNL A   1      39.792  28.992  29.001  1.00  0.00     0.031 A 
ATOM     36  C   UNL A   1      40.712  30.021  29.605  1.00  0.00     0.074 A 
ATOM     37  C   UNL A   1      40.263  27.774  28.673  1.00  0.00     0.049 A 
ATOM     38  N   UNL A   1      41.989  29.930  29.876  1.00  0.00    -0.248 NA
ATOM     39  C   UNL A   1      40.125  31.333  29.921  1.00  0.00     0.031 C 
ATOM     40  C   UNL A   1      39.481  26.708  28.042  1.00  0.00     0.029 A 
ATOM     41  N   UNL A   1      41.513  27.227  28.817  1.00  0.00    -0.354 N 
ATOM     42  C   UNL A   1      42.361  31.173  30.378  1.00  0.00     0.074 A 
ATOM     43  C   UNL A   1      41.185  32.015  30.330  1.00  0.00     0.031 C 
ATOM     44  C   UNL A   1      40.263  25.631  27.872  1.00  0.00     0.029 A 
ATOM     45  C   UNL A   1      41.607  25.936  28.354  1.00  0.00     0.049 A 
ATOM     46  H   UNL A   1      42.270  27.714  29.214  1.00  0.00     0.167 HD
ATOM     47  C   UNL A   1      43.566  31.569  30.855  1.00  0.00     0.037 A 
ATOM     48  C   UNL A   1      42.658  25.094  28.321  1.00  0.00     0.037 A 
ATOM     49  C   UNL A   1      44.724  30.717  30.930  1.00  0.00     0.049 A 
ATOM     50  C   UNL A   1      43.976  25.547  28.884  1.00  0.00     0.074 A 
ATOM     51  C   UNL A   1      45.977  31.006  31.442  1.00  0.00     0.029 A 
ATOM     52  N   UNL A   1      44.768  29.403  30.485  1.00  0.00    -0.354 N 
ATOM     53  N   UNL A   1      44.297  26.709  29.399  1.00  0.00    -0.248 NA
ATOM     54  C   UNL A   1      45.073  24.569  28.872  1.00  0.00     0.031 C 
ATOM     55  C   UNL A   1      46.788  29.877  31.279  1.00  0.00     0.029 A 
ATOM     56  C   UNL A   1      46.029  28.871  30.703  1.00  0.00     0.049 A 
ATOM     57  H   UNL A   1      44.015  28.920  30.075  1.00  0.00     0.167 HD
ATOM     58  C   UNL A   1      45.624  26.595  29.798  1.00  0.00     0.074 A 
ATOM     59  C   UNL A   1      46.042  25.247  29.474  1.00  0.00     0.031 C 
ATOM     60  C   UNL A   1      46.424  27.522  30.381  1.00  0.00     0.037 A 
BRANCH  47  61
ATOM     61  C   UNL A   1      43.689  32.988  31.341  1.00  0.00     0.058 A 
ATOM     62  C   UNL A   1      44.070  34.031  30.480  1.00  0.00     0.135 A 
ATOM     63  C   UNL A   1      43.401  33.317  32.675  1.00  0.00     0.135 A 
ATOM     64  F   UNL A   1      44.371  33.771  29.198  1.00  0.00    -0.206 F 
ATOM     65  C   UNL A   1      44.192  35.340  30.930  1.00  0.00     0.059 A 
ATOM     66  C   UNL A   1      43.491  34.625  33.143  1.00  0.00     0.059 A 
ATOM     67  F   UNL A   1      43.031  32.361  33.542  1.00  0.00    -0.206 F 
ATOM     68  C   UNL A   1      43.903  35.628  32.266  1.00  0.00     0.060 A 
BRANCH  68  69
ATOM     69  S   UNL A   1      44.069  37.333  32.838  1.00  0.00     0.124 S 
ATOM     70  O   UNL A   1      42.955  37.431  33.777  1.00  0.00    -0.237 OA
ATOM     71  O   UNL A   1      45.401  37.335  33.434  1.00  0.00    -0.237 OA
ATOM     72  O   UNL A   1      43.931  38.116  31.615  1.00  0.00    -0.744 OA
ENDBRANCH  68  69
ENDBRANCH  47  61
BRANCH  48  73
ATOM     73  C   UNL A   1      42.491  23.724  27.768  1.00  0.00     0.058 A 
ATOM     74  C   UNL A   1      42.495  23.501  26.383  1.00  0.00     0.135 A 
ATOM     75  C   UNL A   1      42.346  22.611  28.610  1.00  0.00     0.135 A 
ATOM     76  F   UNL A   1      42.627  24.535  25.539  1.00  0.00    -0.206 F 
ATOM     77  C   UNL A   1      42.346  22.225  25.851  1.00  0.00     0.059 A 
ATOM     78  C   UNL A   1      42.218  21.322  28.102  1.00  0.00     0.059 A 
ATOM     79  F   UNL A   1      42.355  22.770  29.943  1.00  0.00    -0.206 F 
ATOM     80  C   UNL A   1      42.210  21.140  26.719  1.00  0.00     0.060 A 
BRANCH  80  81
ATOM     81  S   UNL A   1      42.071  19.481  26.020  1.00  0.00     0.124 S 
ATOM     82  O   UNL A   1      42.896  19.597  24.823  1.00  0.00    -0.237 OA
ATOM     83  O   UNL A   1      42.611  18.650  27.091  1.00  0.00    -0.237 OA
ATOM     84  O   UNL A   1      40.636  19.336  25.790  1.00  0.00    -0.744 OA
ENDBRANCH  80  81
ENDBRANCH  48  73
BRANCH  60  85
ATOM     85  C   UNL A   1      47.819  27.096  30.740  1.00  0.00     0.058 A 
ATOM     86  C   UNL A   1      48.106  26.461  31.958  1.00  0.00     0.135 A 
ATOM     87  C   UNL A   1      48.876  27.301  29.840  1.00  0.00     0.135 A 
ATOM     88  F   UNL A   1      47.130  26.248  32.855  1.00  0.00    -0.206 F 
ATOM     89  C   UNL A   1      49.399  26.068  32.284  1.00  0.00     0.059 A 
ATOM     90  C   UNL A   1      50.174  26.893  30.135  1.00  0.00     0.059 A 
ATOM     91  F   UNL A   1      48.652  27.894  28.657  1.00  0.00    -0.206 F 
ATOM     92  C   UNL A   1      50.429  26.291  31.366  1.00  0.00     0.060 A 
BRANCH  92  93
ATOM     93  S   UNL A   1      52.102  25.764  31.790  1.00  0.00     0.124 S 
ATOM     94  O   UNL A   1      52.814  26.016  30.542  1.00  0.00    -0.237 OA
ATOM     95  O   UNL A   1      52.439  26.649  32.901  1.00  0.00    -0.237 OA
ATOM     96  O   UNL A   1      51.934  24.359  32.146  1.00  0.00    -0.744 OA
ENDBRANCH  92  93
ENDBRANCH  60  85
ENDBRANCH  34  35
ENDBRANCH  26  29
ENDBRANCH   1  25
TORSDOF 14
ENDMDL
MODEL 2
REMARK VINA RESULT:     -12.2      1.652      2.779
REMARK SMILES Cc1ccc2nc(C(=O)NCCCNC(=O)c3ccc(-c4c5nc(c(-c6c(F)cc(S(=O)(=O)[O-])cc6F)c6ccc([nH]6)c(-c6c(F)cc(S(=O)(=O)[O-])cc6F)c6nc(c(-c7c(F)cc(S(=O)(=O)[O-])cc7F)c7ccc4[nH]7)C=C6)C=C5)cc3)cc(N3CCOCC3)c2c1
REMARK SMILES IDX 13 1 12 2 11 3 10 4 8 5 9 6 7 8 1 9 2 10 3 11 92 12 4 13
REMARK SMILES IDX 91 14 5 15 84 16 6 17 83 18 85 19 86 20 90 21 87 22 89 23
REMARK SMILES IDX 88 24 14 25 15 26 16 28 17 29 18 30 82 31 19 32 81 33 20 34
REMARK SMILES IDX 21 35 22 36 75 37 23 38 80 39 74 40 76 41 24 42 79 43 73 44
REMARK SMILES IDX 72 45 25 47 59 48 38 49 58 50 39 51 42 52 57 53 77 54 40 55
REMARK SMILES IDX 41 56 56 58 78 59 43 60 26 61 27 62 36 63 28 64 29 65 35 66
REMARK SMILES IDX 37 67 30 68 31 69 32 70 33 71 34 72 60 73 61 74 70 75 62 76
REMARK SMILES IDX 63 77 69 78 71 79 64 80 65 81 66 82 67 83 68 84 44 85 45 86
REMARK SMILES IDX 54 87 46 88 47 89 53 90 55 91 48 92 49 93 50 94 51 95 52 96
REMARK H PARENT 10 7 14 27 76 46 42 57
REMARK Flexibility Score: inf
ROOT
ATOM      1  C   UNL A   1      33.848  28.096  26.545  1.00  0.00     0.118 C 
ENDROOT
BRANCH   1   2
ATOM      2  C   UNL A   1      33.867  28.031  25.019  1.00  0.00     0.042 C 
BRANCH   2   3
ATOM      3  C   UNL A   1      32.718  27.208  24.432  1.00  0.00     0.118 C 
BRANCH   3   4
ATOM      4  N   UNL A   1      32.909  26.974  23.014  1.00  0.00    -0.351 N 
ATOM      5  C   UNL A   1      33.325  25.880  22.288  1.00  0.00     0.269 C 
ATOM      6  O   UNL A   1      33.330  26.018  21.062  1.00  0.00    -0.268 OA
ATOM      7  H   UNL A   1      32.699  27.758  22.456  1.00  0.00     0.163 HD
BRANCH   5   8
ATOM      8  C   UNL A   1      33.721  24.559  22.896  1.00  0.00     0.130 A 
ATOM      9  C   UNL A   1      33.556  18.407  24.901  1.00  0.00     0.044 C 
ATOM     10  C   UNL A   1      33.356  19.776  24.326  1.00  0.00    -0.050 A 
ATOM     11  C   UNL A   1      32.228  20.093  23.575  1.00  0.00     0.005 A 
ATOM     12  C   UNL A   1      34.317  20.768  24.538  1.00  0.00     0.016 A 
ATOM     13  C   UNL A   1      32.071  21.384  23.062  1.00  0.00     0.029 A 
ATOM     14  C   UNL A   1      34.193  22.064  23.980  1.00  0.00     0.024 A 
ATOM     15  C   UNL A   1      33.025  22.373  23.257  1.00  0.00     0.073 A 
ATOM     16  C   UNL A   1      35.174  23.078  24.120  1.00  0.00     0.049 A 
ATOM     17  N   UNL A   1      32.785  23.587  22.751  1.00  0.00    -0.242 NA
ATOM     18  C   UNL A   1      34.929  24.320  23.527  1.00  0.00     0.060 A 
BRANCH  16  19
ATOM     19  N   UNL A   1      36.352  22.854  24.832  1.00  0.00    -0.366 N 
ATOM     20  C   UNL A   1      37.304  21.861  24.299  1.00  0.00     0.145 C 
ATOM     21  C   UNL A   1      37.004  23.952  25.564  1.00  0.00     0.145 C 
ATOM     22  C   UNL A   1      38.181  21.347  25.453  1.00  0.00     0.181 C 
ATOM     23  C   UNL A   1      37.899  23.359  26.665  1.00  0.00     0.181 C 
ATOM     24  O   UNL A   1      38.852  22.425  26.130  1.00  0.00    -0.378 OA
ENDBRANCH  16  19
ENDBRANCH   5   8
ENDBRANCH   3   4
ENDBRANCH   2   3
ENDBRANCH   1   2
BRANCH   1  25
ATOM     25  N   UNL A   1      33.664  29.458  27.021  1.00  0.00    -0.352 N 
ATOM     26  C   UNL A   1      34.477  30.245  27.796  1.00  0.00     0.251 C 
ATOM     27  H   UNL A   1      32.821  29.884  26.741  1.00  0.00     0.163 HD
ATOM     28  O   UNL A   1      34.014  31.273  28.282  1.00  0.00    -0.269 OA
BRANCH  26  29
ATOM     29  C   UNL A   1      35.889  29.876  28.052  1.00  0.00     0.039 A 
ATOM     30  C   UNL A   1      36.230  29.391  29.319  1.00  0.00     0.014 A 
ATOM     31  C   UNL A   1      36.887  30.078  27.094  1.00  0.00     0.014 A 
ATOM     32  C   UNL A   1      37.562  29.084  29.614  1.00  0.00     0.010 A 
ATOM     33  C   UNL A   1      38.204  29.711  27.368  1.00  0.00     0.010 A 
ATOM     34  C   UNL A   1      38.558  29.228  28.636  1.00  0.00    -0.014 A 
BRANCH  34  35
ATOM     35  C   UNL A   1      39.976  28.903  28.938  1.00  0.00     0.031 A 
ATOM     36  C   UNL A   1      40.867  29.931  29.585  1.00  0.00     0.074 A 
ATOM     37  C   UNL A   1      40.472  27.699  28.593  1.00  0.00     0.049 A 
ATOM     38  N   UNL A   1      42.139  29.853  29.882  1.00  0.00    -0.248 NA
ATOM     39  C   UNL A   1      40.253  31.227  29.916  1.00  0.00     0.031 C 
ATOM     40  C   UNL A   1      39.720  26.637  27.921  1.00  0.00     0.029 A 
ATOM     41  N   UNL A   1      41.726  27.168  28.752  1.00  0.00    -0.354 N 
ATOM     42  C   UNL A   1      42.481  31.089  30.420  1.00  0.00     0.074 A 
ATOM     43  C   UNL A   1      41.294  31.915  30.364  1.00  0.00     0.031 C 
ATOM     44  C   UNL A   1      40.522  25.575  27.745  1.00  0.00     0.029 A 
ATOM     45  C   UNL A   1      41.850  25.889  28.263  1.00  0.00     0.049 A 
ATOM     46  H   UNL A   1      42.468  27.656  29.177  1.00  0.00     0.167 HD
ATOM     47  C   UNL A   1      43.669  31.492  30.932  1.00  0.00     0.037 A 
ATOM     48  C   UNL A   1      42.914  25.063  28.235  1.00  0.00     0.037 A 
ATOM     49  C   UNL A   1      44.838  30.655  31.014  1.00  0.00     0.049 A 
ATOM     50  C   UNL A   1      44.213  25.522  28.837  1.00  0.00     0.074 A 
ATOM     51  C   UNL A   1      46.075  30.951  31.559  1.00  0.00     0.029 A 
ATOM     52  N   UNL A   1      44.912  29.353  30.540  1.00  0.00    -0.354 N 
ATOM     53  N   UNL A   1      44.505  26.677  29.385  1.00  0.00    -0.248 NA
ATOM     54  C   UNL A   1      45.324  24.561  28.828  1.00  0.00     0.031 C 
ATOM     55  C   UNL A   1      46.907  29.838  31.390  1.00  0.00     0.029 A 
ATOM     56  C   UNL A   1      46.175  28.834  30.775  1.00  0.00     0.049 A 
ATOM     57  H   UNL A   1      44.175  28.868  30.103  1.00  0.00     0.167 HD
ATOM     58  C   UNL A   1      45.824  26.574  29.811  1.00  0.00     0.074 A 
ATOM     59  C   UNL A   1      46.269  25.239  29.466  1.00  0.00     0.031 C 
ATOM     60  C   UNL A   1      46.597  27.499  30.432  1.00  0.00     0.037 A 
BRANCH  47  61
ATOM     61  C   UNL A   1      43.760  32.901  31.451  1.00  0.00     0.058 A 
ATOM     62  C   UNL A   1      43.458  33.215  32.787  1.00  0.00     0.135 A 
ATOM     63  C   UNL A   1      44.176  33.949  30.613  1.00  0.00     0.135 A 
ATOM     64  F   UNL A   1      43.041  32.256  33.628  1.00  0.00    -0.206 F 
ATOM     65  C   UNL A   1      43.534  34.519  33.264  1.00  0.00     0.059 A 
ATOM     66  C   UNL A   1      44.285  35.257  31.076  1.00  0.00     0.059 A 
ATOM     67  F   UNL A   1      44.479  33.706  29.329  1.00  0.00    -0.206 F 
ATOM     68  C   UNL A   1      43.946  35.535  32.400  1.00  0.00     0.060 A 
BRANCH  68  69
ATOM     69  S   UNL A   1      44.037  37.224  33.033  1.00  0.00     0.124 S 
ATOM     70  O   UNL A   1      43.894  38.001  31.805  1.00  0.00    -0.237 OA
ATOM     71  O   UNL A   1      42.903  37.277  33.950  1.00  0.00    -0.237 OA
ATOM     72  O   UNL A   1      45.353  37.279  33.662  1.00  0.00    -0.744 OA
ENDBRANCH  68  69
ENDBRANCH  47  61
BRANCH  48  73
ATOM     73  C   UNL A   1      42.780  23.704  27.648  1.00  0.00     0.058 A 
ATOM     74  C   UNL A   1      42.992  23.486  26.279  1.00  0.00     0.135 A 
ATOM     75  C   UNL A   1      42.459  22.594  28.445  1.00  0.00     0.135 A 
ATOM     76  F   UNL A   1      43.297  24.517  25.477  1.00  0.00    -0.206 F 
ATOM     77  C   UNL A   1      42.876  22.220  25.716  1.00  0.00     0.059 A 
ATOM     78  C   UNL A   1      42.360  21.314  27.909  1.00  0.00     0.059 A 
ATOM     79  F   UNL A   1      42.266  22.748  29.765  1.00  0.00    -0.206 F 
ATOM     80  C   UNL A   1      42.561  21.139  26.540  1.00  0.00     0.060 A 
BRANCH  80  81
ATOM     81  S   UNL A   1      42.465  19.490  25.811  1.00  0.00     0.124 S 
ATOM     82  O   UNL A   1      42.869  18.649  26.931  1.00  0.00    -0.237 OA
ATOM     83  O   UNL A   1      41.061  19.406  25.421  1.00  0.00    -0.237 OA
ATOM     84  O   UNL A   1      43.410  19.562  24.700  1.00  0.00    -0.744 OA
ENDBRANCH  80  81
ENDBRANCH  48  73
BRANCH  60  85
ATOM     85  C   UNL A   1      47.991  27.085  30.812  1.00  0.00     0.058 A 
ATOM     86  C   UNL A   1      48.260  26.420  32.018  1.00  0.00     0.135 A 
ATOM     87  C   UNL A   1      49.065  27.332  29.943  1.00  0.00     0.135 A 
ATOM     88  F   UNL A   1      47.266  26.166  32.885  1.00  0.00    -0.206 F 
ATOM     89  C   UNL A   1      49.551  26.038  32.364  1.00  0.00     0.059 A 
ATOM     90  C   UNL A   1      50.362  26.937  30.258  1.00  0.00     0.059 A 
ATOM     91  F   UNL A   1      48.859  27.955  28.773  1.00  0.00    -0.206 F 
ATOM     92  C   UNL A   1      50.598  26.304  31.477  1.00  0.00     0.060 A 
BRANCH  92  93
ATOM     93  S   UNL A   1      52.269  25.792  31.927  1.00  0.00     0.124 S 
ATOM     94  O   UNL A   1      52.577  26.718  33.012  1.00  0.00    -0.237 OA
ATOM     95  O   UNL A   1      52.077  24.400  32.319  1.00  0.00    -0.237 OA
ATOM     96  O   UNL A   1      53.027  25.991  30.696  1.00  0.00    -0.744 OA
ENDBRANCH  92  93
ENDBRANCH  60  85
ENDBRANCH  34  35
ENDBRANCH  26  29
ENDBRANCH   1  25
TORSDOF 14
ENDMDL
MODEL 3
REMARK VINA RESULT:     -12.2      3.383      9.652
REMARK SMILES Cc1ccc2nc(C(=O)NCCCNC(=O)c3ccc(-c4c5nc(c(-c6c(F)cc(S(=O)(=O)[O-])cc6F)c6ccc([nH]6)c(-c6c(F)cc(S(=O)(=O)[O-])cc6F)c6nc(c(-c7c(F)cc(S(=O)(=O)[O-])cc7F)c7ccc4[nH]7)C=C6)C=C5)cc3)cc(N3CCOCC3)c2c1
REMARK SMILES IDX 13 1 12 2 11 3 10 4 8 5 9 6 7 8 1 9 2 10 3 11 92 12 4 13
REMARK SMILES IDX 91 14 5 15 84 16 6 17 83 18 85 19 86 20 90 21 87 22 89 23
REMARK SMILES IDX 88 24 14 25 15 26 16 28 17 29 18 30 82 31 19 32 81 33 20 34
REMARK SMILES IDX 21 35 22 36 75 37 23 38 80 39 74 40 76 41 24 42 79 43 73 44
REMARK SMILES IDX 72 45 25 47 59 48 38 49 58 50 39 51 42 52 57 53 77 54 40 55
REMARK SMILES IDX 41 56 56 58 78 59 43 60 26 61 27 62 36 63 28 64 29 65 35 66
REMARK SMILES IDX 37 67 30 68 31 69 32 70 33 71 34 72 60 73 61 74 70 75 62 76
REMARK SMILES IDX 63 77 69 78 71 79 64 80 65 81 66 82 67 83 68 84 44 85 45 86
REMARK SMILES IDX 54 87 46 88 47 89 53 90 55 91 48 92 49 93 50 94 51 95 52 96
REMARK H PARENT 10 7 14 27 76 46 42 57
REMARK Flexibility Score: inf
ROOT
ATOM      1  C   UNL A   1      36.114  23.762  25.635  1.00  0.00     0.118 C 
ENDROOT
BRANCH   1   2
ATOM      2  C   UNL A   1      34.809  23.527  26.395  1.00  0.00     0.042 C 
BRANCH   2   3
ATOM      3  C   UNL A   1      33.571  24.018  25.642  1.00  0.00     0.118 C 
BRANCH   3   4
ATOM      4  N   UNL A   1      33.863  24.242  24.240  1.00  0.00    -0.351 N 
ATOM      5  C   UNL A   1      33.650  25.307  23.393  1.00  0.00     0.269 C 
ATOM      6  O   UNL A   1      34.076  25.174  22.243  1.00  0.00    -0.268 OA
ATOM      7  H   UNL A   1      34.306  23.478  23.805  1.00  0.00     0.163 HD
BRANCH   5   8
ATOM      8  C   UNL A   1      32.980  26.595  23.801  1.00  0.00     0.130 A 
ATOM      9  C   UNL A   1      31.531  32.044  26.978  1.00  0.00     0.044 C 
ATOM     10  C   UNL A   1      32.078  30.771  26.408  1.00  0.00    -0.050 A 
ATOM     11  C   UNL A   1      33.255  30.205  26.888  1.00  0.00     0.005 A 
ATOM     12  C   UNL A   1      31.403  30.127  25.367  1.00  0.00     0.016 A 
ATOM     13  C   UNL A   1      33.729  29.011  26.337  1.00  0.00     0.029 A 
ATOM     14  C   UNL A   1      31.901  28.945  24.768  1.00  0.00     0.024 A 
ATOM     15  C   UNL A   1      33.073  28.369  25.295  1.00  0.00     0.073 A 
ATOM     16  C   UNL A   1      31.279  28.296  23.671  1.00  0.00     0.049 A 
ATOM     17  N   UNL A   1      33.584  27.219  24.843  1.00  0.00    -0.242 NA
ATOM     18  C   UNL A   1      31.869  27.130  23.174  1.00  0.00     0.060 A 
BRANCH  16  19
ATOM     19  N   UNL A   1      30.111  28.797  23.100  1.00  0.00    -0.366 N 
ATOM     20  C   UNL A   1      30.238  29.688  21.931  1.00  0.00     0.145 C 
ATOM     21  C   UNL A   1      28.879  27.990  23.087  1.00  0.00     0.145 C 
ATOM     22  C   UNL A   1      28.974  30.560  21.833  1.00  0.00     0.181 C 
ATOM     23  C   UNL A   1      27.668  28.926  22.938  1.00  0.00     0.181 C 
ATOM     24  O   UNL A   1      27.781  29.759  21.772  1.00  0.00    -0.378 OA
ENDBRANCH  16  19
ENDBRANCH   5   8
ENDBRANCH   3   4
ENDBRANCH   2   3
ENDBRANCH   1   2
BRANCH   1  25
ATOM     25  N   UNL A   1      37.066  22.686  25.860  1.00  0.00    -0.352 N 
ATOM     26  C   UNL A   1      38.391  22.733  26.210  1.00  0.00     0.251 C 
ATOM     27  H   UNL A   1      36.701  21.779  25.743  1.00  0.00     0.163 HD
ATOM     28  O   UNL A   1      39.066  21.712  26.105  1.00  0.00    -0.269 OA
BRANCH  26  29
ATOM     29  C   UNL A   1      39.013  23.983  26.708  1.00  0.00     0.039 A 
ATOM     30  C   UNL A   1      39.762  24.755  25.813  1.00  0.00     0.014 A 
ATOM     31  C   UNL A   1      38.936  24.358  28.052  1.00  0.00     0.014 A 
ATOM     32  C   UNL A   1      40.408  25.911  26.259  1.00  0.00     0.010 A 
ATOM     33  C   UNL A   1      39.527  25.547  28.482  1.00  0.00     0.010 A 
ATOM     34  C   UNL A   1      40.284  26.325  27.594  1.00  0.00    -0.014 A 
BRANCH  34  35
ATOM     35  C   UNL A   1      40.965  27.554  28.079  1.00  0.00     0.031 A 
ATOM     36  C   UNL A   1      42.465  27.668  28.004  1.00  0.00     0.074 A 
ATOM     37  C   UNL A   1      40.236  28.547  28.624  1.00  0.00     0.049 A 
ATOM     38  N   UNL A   1      43.241  28.636  28.418  1.00  0.00    -0.248 NA
ATOM     39  C   UNL A   1      43.188  26.532  27.410  1.00  0.00     0.031 C 
ATOM     40  C   UNL A   1      38.782  28.534  28.792  1.00  0.00     0.029 A 
ATOM     41  N   UNL A   1      40.620  29.758  29.143  1.00  0.00    -0.354 N 
ATOM     42  C   UNL A   1      44.541  28.222  28.150  1.00  0.00     0.074 A 
ATOM     43  C   UNL A   1      44.452  26.894  27.581  1.00  0.00     0.031 C 
ATOM     44  C   UNL A   1      38.394  29.690  29.355  1.00  0.00     0.029 A 
ATOM     45  C   UNL A   1      39.572  30.513  29.614  1.00  0.00     0.049 A 
ATOM     46  H   UNL A   1      41.556  30.058  29.174  1.00  0.00     0.167 HD
ATOM     47  C   UNL A   1      45.702  28.895  28.341  1.00  0.00     0.037 A 
ATOM     48  C   UNL A   1      39.561  31.731  30.190  1.00  0.00     0.037 A 
ATOM     49  C   UNL A   1      45.784  30.228  28.879  1.00  0.00     0.049 A 
ATOM     50  C   UNL A   1      40.859  32.469  30.363  1.00  0.00     0.074 A 
ATOM     51  C   UNL A   1      46.905  31.016  29.066  1.00  0.00     0.029 A 
ATOM     52  N   UNL A   1      44.695  30.973  29.310  1.00  0.00    -0.354 N 
ATOM     53  N   UNL A   1      42.075  32.082  30.059  1.00  0.00    -0.248 NA
ATOM     54  C   UNL A   1      40.783  33.816  30.946  1.00  0.00     0.031 C 
ATOM     55  C   UNL A   1      46.499  32.228  29.638  1.00  0.00     0.029 A 
ATOM     56  C   UNL A   1      45.120  32.210  29.769  1.00  0.00     0.049 A 
ATOM     57  H   UNL A   1      43.759  30.670  29.292  1.00  0.00     0.167 HD
ATOM     58  C   UNL A   1      42.906  33.147  30.388  1.00  0.00     0.074 A 
ATOM     59  C   UNL A   1      42.053  34.197  30.905  1.00  0.00     0.031 C 
ATOM     60  C   UNL A   1      44.254  33.247  30.273  1.00  0.00     0.037 A 
BRANCH  47  61
ATOM     61  C   UNL A   1      46.980  28.199  27.958  1.00  0.00     0.058 A 
ATOM     62  C   UNL A   1      47.685  27.397  28.871  1.00  0.00     0.135 A 
ATOM     63  C   UNL A   1      47.497  28.313  26.657  1.00  0.00     0.135 A 
ATOM     64  F   UNL A   1      47.245  27.264  30.132  1.00  0.00    -0.206 F 
ATOM     65  C   UNL A   1      48.870  26.761  28.520  1.00  0.00     0.059 A 
ATOM     66  C   UNL A   1      48.668  27.664  26.275  1.00  0.00     0.059 A 
ATOM     67  F   UNL A   1      46.865  29.066  25.743  1.00  0.00    -0.206 F 
ATOM     68  C   UNL A   1      49.356  26.903  27.218  1.00  0.00     0.060 A 
BRANCH  68  69
ATOM     69  S   UNL A   1      50.898  26.074  26.776  1.00  0.00     0.124 S 
ATOM     70  O   UNL A   1      51.877  26.877  27.504  1.00  0.00    -0.237 OA
ATOM     71  O   UNL A   1      50.685  24.723  27.285  1.00  0.00    -0.237 OA
ATOM     72  O   UNL A   1      50.943  26.194  25.323  1.00  0.00    -0.744 OA
ENDBRANCH  68  69
ENDBRANCH  47  61
BRANCH  48  73
ATOM     73  C   UNL A   1      38.271  32.340  30.608  1.00  0.00     0.058 A 
ATOM     74  C   UNL A   1      37.758  32.127  31.896  1.00  0.00     0.135 A 
ATOM     75  C   UNL A   1      37.538  33.163  29.739  1.00  0.00     0.135 A 
ATOM     76  F   UNL A   1      38.422  31.345  32.760  1.00  0.00    -0.206 F 
ATOM     77  C   UNL A   1      36.556  32.694  32.304  1.00  0.00     0.059 A 
ATOM     78  C   UNL A   1      36.345  33.760  30.132  1.00  0.00     0.059 A 
ATOM     79  F   UNL A   1      37.997  33.413  28.503  1.00  0.00    -0.206 F 
ATOM     80  C   UNL A   1      35.857  33.512  31.415  1.00  0.00     0.060 A 
BRANCH  80  81
ATOM     81  S   UNL A   1      34.325  34.288  31.972  1.00  0.00     0.124 S 
ATOM     82  O   UNL A   1      33.764  33.250  32.828  1.00  0.00    -0.237 OA
ATOM     83  O   UNL A   1      34.814  35.483  32.652  1.00  0.00    -0.237 OA
ATOM     84  O   UNL A   1      33.606  34.539  30.726  1.00  0.00    -0.744 OA
ENDBRANCH  80  81
ENDBRANCH  48  73
BRANCH  60  85
ATOM     85  C   UNL A   1      44.883  34.550  30.677  1.00  0.00     0.058 A 
ATOM     86  C   UNL A   1      45.042  35.606  29.767  1.00  0.00     0.135 A 
ATOM     87  C   UNL A   1      45.303  34.753  32.000  1.00  0.00     0.135 A 
ATOM     88  F   UNL A   1      44.660  35.459  28.488  1.00  0.00    -0.206 F 
ATOM     89  C   UNL A   1      45.623  36.810  30.148  1.00  0.00     0.059 A 
ATOM     90  C   UNL A   1      45.865  35.959  32.410  1.00  0.00     0.059 A 
ATOM     91  F   UNL A   1      45.163  33.778  32.912  1.00  0.00    -0.206 F 
ATOM     92  C   UNL A   1      46.036  36.976  31.472  1.00  0.00     0.060 A 
BRANCH  92  93
ATOM     93  S   UNL A   1      46.776  38.548  31.962  1.00  0.00     0.124 S 
ATOM     94  O   UNL A   1      46.819  39.260  30.689  1.00  0.00    -0.237 OA
ATOM     95  O   UNL A   1      45.818  39.056  32.939  1.00  0.00    -0.237 OA
ATOM     96  O   UNL A   1      48.071  38.157  32.508  1.00  0.00    -0.744 OA
ENDBRANCH  92  93
ENDBRANCH  60  85
ENDBRANCH  34  35
ENDBRANCH  26  29
ENDBRANCH   1  25
TORSDOF 14
ENDMDL
