MODEL 1
REMARK VINA RESULT:     -11.8      0.000      0.000
REMARK SMILES Cc1ccc(C(=O)NCCCNC(=O)c2ccc(-c3c4nc(c(-c5c(F)cc(S(=O)(=O)[O-])cc5F)c5ccc([nH]5)c(-c5c(F)cc(S(=O)(=O)[O-])cc5F)c5nc(c(-c6c(F)cc(S(=O)(=O)[O-])cc6F)c6ccc3[nH]6)C=C5)C=C4)cc2)cc1S(=O)(=O)N(CC1CC1)C(C)C
REMARK SMILES IDX 9 1 8 2 6 3 7 4 5 6 1 7 2 8 3 9 82 10 4 11 81 12 83 13 84 14
REMARK SMILES IDX 85 15 86 16 87 17 88 18 89 19 90 20 91 21 92 22 93 23 10 24
REMARK SMILES IDX 11 25 12 26 13 27 14 29 15 30 16 31 80 32 17 33 79 34 18 35
REMARK SMILES IDX 19 36 20 37 73 38 21 39 78 40 72 41 74 42 22 43 77 44 71 45
REMARK SMILES IDX 70 46 23 48 57 49 36 50 56 51 37 52 40 53 55 54 75 55 38 56
REMARK SMILES IDX 39 57 54 59 76 60 41 61 24 62 25 63 34 64 26 65 27 66 33 67
REMARK SMILES IDX 35 68 28 69 29 70 30 71 31 72 32 73 58 74 59 75 68 76 60 77
REMARK SMILES IDX 61 78 67 79 69 80 62 81 63 82 64 83 65 84 66 85 42 86 43 87
REMARK SMILES IDX 52 88 44 89 45 90 51 91 53 92 46 93 47 94 48 95 49 96 50 97
REMARK H PARENT 8 5 12 28 74 47 40 58
REMARK Flexibility Score: inf
ROOT
ATOM      1  C   UNL A   1      33.078  29.639  25.736  1.00  0.00     0.118 C 
ENDROOT
BRANCH   1   2
ATOM      2  N   UNL A   1      32.636  29.500  24.312  1.00  0.00    -0.352 N 
ATOM      3  C   UNL A   1      31.896  28.615  23.550  1.00  0.00     0.251 C 
ATOM      4  O   UNL A   1      31.438  28.927  22.452  1.00  0.00    -0.269 OA
ATOM      5  H   UNL A   1      32.964  30.249  23.764  1.00  0.00     0.163 HD
BRANCH   3   6
ATOM      6  C   UNL A   1      31.599  27.271  24.058  1.00  0.00     0.041 A 
ATOM      7  C   UNL A   1      31.694  23.911  26.673  1.00  0.00     0.046 C 
ATOM      8  C   UNL A   1      31.630  24.976  25.620  1.00  0.00    -0.031 A 
ATOM      9  C   UNL A   1      30.553  25.884  25.710  1.00  0.00     0.005 A 
ATOM     10  C   UNL A   1      32.572  25.157  24.584  1.00  0.00     0.086 A 
ATOM     11  C   UNL A   1      30.563  27.059  24.965  1.00  0.00     0.014 A 
ATOM     12  C   UNL A   1      32.458  26.243  23.719  1.00  0.00     0.035 A 
BRANCH  10  13
ATOM     13  S   UNL A   1      34.236  24.499  24.552  1.00  0.00     0.243 S 
ATOM     14  O   UNL A   1      34.789  24.683  23.261  1.00  0.00    -0.207 OA
ATOM     15  O   UNL A   1      34.854  25.160  25.716  1.00  0.00    -0.207 OA
BRANCH  13  16
ATOM     16  N   UNL A   1      34.186  22.842  24.855  1.00  0.00    -0.195 NA
BRANCH  16  17
ATOM     17  C   UNL A   1      33.825  21.908  23.766  1.00  0.00     0.106 C 
BRANCH  17  18
ATOM     18  C   UNL A   1      32.534  21.150  23.835  1.00  0.00     0.004 C 
ATOM     19  C   UNL A   1      32.113  19.920  23.061  1.00  0.00     0.005 C 
ATOM     20  C   UNL A   1      32.587  19.773  24.472  1.00  0.00     0.005 C 
ENDBRANCH  17  18
ENDBRANCH  16  17
BRANCH  16  21
ATOM     21  C   UNL A   1      35.089  22.266  25.917  1.00  0.00     0.067 C 
ATOM     22  C   UNL A   1      34.345  21.816  27.168  1.00  0.00     0.025 C 
ATOM     23  C   UNL A   1      35.974  21.108  25.451  1.00  0.00     0.025 C 
ENDBRANCH  16  21
ENDBRANCH  13  16
ENDBRANCH  10  13
ENDBRANCH   3   6
ENDBRANCH   1   2
BRANCH   1  24
ATOM     24  C   UNL A   1      34.485  28.983  26.258  1.00  0.00     0.042 C 
BRANCH  24  25
ATOM     25  C   UNL A   1      34.847  29.264  27.795  1.00  0.00     0.118 C 
BRANCH  25  26
ATOM     26  N   UNL A   1      36.209  29.719  28.483  1.00  0.00    -0.352 N 
ATOM     27  C   UNL A   1      37.667  29.826  28.256  1.00  0.00     0.251 C 
ATOM     28  H   UNL A   1      36.007  30.050  29.388  1.00  0.00     0.163 HD
ATOM     29  O   UNL A   1      38.101  30.948  28.594  1.00  0.00    -0.269 OA
BRANCH  27  30
ATOM     30  C   UNL A   1      38.834  28.906  27.628  1.00  0.00     0.039 A 
ATOM     31  C   UNL A   1      39.156  27.621  28.173  1.00  0.00     0.014 A 
ATOM     32  C   UNL A   1      39.685  29.234  26.590  1.00  0.00     0.014 A 
ATOM     33  C   UNL A   1      40.531  27.185  28.235  1.00  0.00     0.010 A 
ATOM     34  C   UNL A   1      41.036  28.787  26.615  1.00  0.00     0.010 A 
ATOM     35  C   UNL A   1      41.524  27.953  27.625  1.00  0.00    -0.014 A 
BRANCH  35  36
ATOM     36  C   UNL A   1      42.984  27.996  28.023  1.00  0.00     0.031 A 
ATOM     37  C   UNL A   1      43.711  29.258  27.929  1.00  0.00     0.074 A 
ATOM     38  C   UNL A   1      43.756  27.011  28.575  1.00  0.00     0.049 A 
ATOM     39  N   UNL A   1      44.809  29.445  27.276  1.00  0.00    -0.248 NA
ATOM     40  C   UNL A   1      43.233  30.417  28.657  1.00  0.00     0.031 C 
ATOM     41  C   UNL A   1      45.164  26.979  29.024  1.00  0.00     0.029 A 
ATOM     42  N   UNL A   1      43.411  25.699  28.832  1.00  0.00    -0.354 N 
ATOM     43  C   UNL A   1      45.331  30.627  27.762  1.00  0.00     0.074 A 
ATOM     44  C   UNL A   1      44.229  31.278  28.440  1.00  0.00     0.031 C 
ATOM     45  C   UNL A   1      45.597  25.695  29.051  1.00  0.00     0.029 A 
ATOM     46  C   UNL A   1      44.502  24.860  28.605  1.00  0.00     0.049 A 
ATOM     47  H   UNL A   1      42.523  25.398  29.133  1.00  0.00     0.167 HD
ATOM     48  C   UNL A   1      46.681  30.836  27.807  1.00  0.00     0.037 A 
ATOM     49  C   UNL A   1      44.456  23.981  27.556  1.00  0.00     0.037 A 
ATOM     50  C   UNL A   1      47.408  29.596  27.499  1.00  0.00     0.049 A 
ATOM     51  C   UNL A   1      45.430  24.372  26.484  1.00  0.00     0.074 A 
ATOM     52  C   UNL A   1      48.082  28.698  28.315  1.00  0.00     0.029 A 
ATOM     53  N   UNL A   1      47.233  28.952  26.280  1.00  0.00    -0.354 N 
ATOM     54  N   UNL A   1      46.008  25.535  26.464  1.00  0.00    -0.248 NA
ATOM     55  C   UNL A   1      45.847  23.526  25.372  1.00  0.00     0.031 C 
ATOM     56  C   UNL A   1      48.241  27.484  27.602  1.00  0.00     0.029 A 
ATOM     57  C   UNL A   1      47.689  27.648  26.343  1.00  0.00     0.049 A 
ATOM     58  H   UNL A   1      46.836  29.367  25.480  1.00  0.00     0.167 HD
ATOM     59  C   UNL A   1      46.860  25.621  25.408  1.00  0.00     0.074 A 
ATOM     60  C   UNL A   1      46.735  24.330  24.755  1.00  0.00     0.031 C 
ATOM     61  C   UNL A   1      47.588  26.754  25.193  1.00  0.00     0.037 A 
BRANCH  48  62
ATOM     62  C   UNL A   1      47.332  32.041  28.476  1.00  0.00     0.058 A 
ATOM     63  C   UNL A   1      47.476  32.121  29.879  1.00  0.00     0.135 A 
ATOM     64  C   UNL A   1      47.875  33.143  27.780  1.00  0.00     0.135 A 
ATOM     65  F   UNL A   1      47.138  31.101  30.679  1.00  0.00    -0.206 F 
ATOM     66  C   UNL A   1      48.011  33.235  30.533  1.00  0.00     0.059 A 
ATOM     67  C   UNL A   1      48.352  34.298  28.410  1.00  0.00     0.059 A 
ATOM     68  F   UNL A   1      48.052  33.114  26.451  1.00  0.00    -0.206 F 
ATOM     69  C   UNL A   1      48.423  34.332  29.792  1.00  0.00     0.060 A 
BRANCH  69  70
ATOM     70  S   UNL A   1      49.143  35.746  30.647  1.00  0.00     0.124 S 
ATOM     71  O   UNL A   1      49.648  35.143  31.876  1.00  0.00    -0.237 OA
ATOM     72  O   UNL A   1      50.155  36.192  29.696  1.00  0.00    -0.237 OA
ATOM     73  O   UNL A   1      48.011  36.654  30.822  1.00  0.00    -0.744 OA
ENDBRANCH  69  70
ENDBRANCH  48  62
BRANCH  49  74
ATOM     74  C   UNL A   1      43.095  23.348  27.307  1.00  0.00     0.058 A 
ATOM     75  C   UNL A   1      42.749  23.286  25.954  1.00  0.00     0.135 A 
ATOM     76  C   UNL A   1      42.869  22.142  27.942  1.00  0.00     0.135 A 
ATOM     77  F   UNL A   1      42.330  24.380  25.310  1.00  0.00    -0.206 F 
ATOM     78  C   UNL A   1      42.943  22.121  25.217  1.00  0.00     0.059 A 
ATOM     79  C   UNL A   1      42.949  20.963  27.192  1.00  0.00     0.059 A 
ATOM     80  F   UNL A   1      42.699  22.079  29.271  1.00  0.00    -0.206 F 
ATOM     81  C   UNL A   1      43.343  20.976  25.870  1.00  0.00     0.060 A 
BRANCH  81  82
ATOM     82  S   UNL A   1      44.489  19.677  24.879  1.00  0.00     0.124 S 
ATOM     83  O   UNL A   1      43.786  18.443  25.180  1.00  0.00    -0.237 OA
ATOM     84  O   UNL A   1      44.380  20.039  23.478  1.00  0.00    -0.237 OA
ATOM     85  O   UNL A   1      45.824  19.712  25.446  1.00  0.00    -0.744 OA
ENDBRANCH  81  82
ENDBRANCH  49  74
BRANCH  61  86
ATOM     86  C   UNL A   1      48.370  27.073  23.948  1.00  0.00     0.058 A 
ATOM     87  C   UNL A   1      47.850  27.778  22.851  1.00  0.00     0.135 A 
ATOM     88  C   UNL A   1      49.751  26.765  23.877  1.00  0.00     0.135 A 
ATOM     89  F   UNL A   1      46.599  28.259  22.850  1.00  0.00    -0.206 F 
ATOM     90  C   UNL A   1      48.613  28.061  21.720  1.00  0.00     0.059 A 
ATOM     91  C   UNL A   1      50.548  27.106  22.793  1.00  0.00     0.059 A 
ATOM     92  F   UNL A   1      50.388  26.127  24.870  1.00  0.00    -0.206 F 
ATOM     93  C   UNL A   1      49.960  27.714  21.698  1.00  0.00     0.060 A 
BRANCH  93  94
ATOM     94  S   UNL A   1      50.942  28.091  20.242  1.00  0.00     0.124 S 
ATOM     95  O   UNL A   1      50.964  29.549  20.279  1.00  0.00    -0.237 OA
ATOM     96  O   UNL A   1      52.211  27.433  20.536  1.00  0.00    -0.237 OA
ATOM     97  O   UNL A   1      50.175  27.498  19.152  1.00  0.00    -0.744 OA
ENDBRANCH  93  94
ENDBRANCH  61  86
ENDBRANCH  35  36
ENDBRANCH  27  30
ENDBRANCH  25  26
ENDBRANCH  24  25
ENDBRANCH   1  24
TORSDOF 18
ENDMDL
MODEL 2
REMARK VINA RESULT:     -11.4      1.703      2.506
REMARK SMILES Cc1ccc(C(=O)NCCCNC(=O)c2ccc(-c3c4nc(c(-c5c(F)cc(S(=O)(=O)[O-])cc5F)c5ccc([nH]5)c(-c5c(F)cc(S(=O)(=O)[O-])cc5F)c5nc(c(-c6c(F)cc(S(=O)(=O)[O-])cc6F)c6ccc3[nH]6)C=C5)C=C4)cc2)cc1S(=O)(=O)N(CC1CC1)C(C)C
REMARK SMILES IDX 9 1 8 2 6 3 7 4 5 6 1 7 2 8 3 9 82 10 4 11 81 12 83 13 84 14
REMARK SMILES IDX 85 15 86 16 87 17 88 18 89 19 90 20 91 21 92 22 93 23 10 24
REMARK SMILES IDX 11 25 12 26 13 27 14 29 15 30 16 31 80 32 17 33 79 34 18 35
REMARK SMILES IDX 19 36 20 37 73 38 21 39 78 40 72 41 74 42 22 43 77 44 71 45
REMARK SMILES IDX 70 46 23 48 57 49 36 50 56 51 37 52 40 53 55 54 75 55 38 56
REMARK SMILES IDX 39 57 54 59 76 60 41 61 24 62 25 63 34 64 26 65 27 66 33 67
REMARK SMILES IDX 35 68 28 69 29 70 30 71 31 72 32 73 58 74 59 75 68 76 60 77
REMARK SMILES IDX 61 78 67 79 69 80 62 81 63 82 64 83 65 84 66 85 42 86 43 87
REMARK SMILES IDX 52 88 44 89 45 90 51 91 53 92 46 93 47 94 48 95 49 96 50 97
REMARK H PARENT 8 5 12 28 74 47 40 58
REMARK Flexibility Score: inf
ROOT
ATOM      1  C   UNL A   1      34.070  31.246  27.590  1.00  0.00     0.118 C 
ENDROOT
BRANCH   1   2
ATOM      2  N   UNL A   1      34.022  29.750  27.521  1.00  0.00    -0.352 N 
ATOM      3  C   UNL A   1      33.665  28.778  26.607  1.00  0.00     0.251 C 
ATOM      4  O   UNL A   1      34.027  27.608  26.726  1.00  0.00    -0.269 OA
ATOM      5  H   UNL A   1      34.333  29.347  28.364  1.00  0.00     0.163 HD
BRANCH   3   6
ATOM      6  C   UNL A   1      32.864  29.128  25.429  1.00  0.00     0.041 A 
ATOM      7  C   UNL A   1      29.769  28.854  22.516  1.00  0.00     0.046 C 
ATOM      8  C   UNL A   1      30.957  29.031  23.414  1.00  0.00    -0.031 A 
ATOM      9  C   UNL A   1      30.788  29.902  24.512  1.00  0.00     0.005 A 
ATOM     10  C   UNL A   1      32.197  28.375  23.265  1.00  0.00     0.086 A 
ATOM     11  C   UNL A   1      31.719  29.913  25.547  1.00  0.00     0.014 A 
ATOM     12  C   UNL A   1      33.197  28.548  24.219  1.00  0.00     0.035 A 
BRANCH  10  13
ATOM     13  S   UNL A   1      32.492  26.892  22.306  1.00  0.00     0.243 S 
ATOM     14  O   UNL A   1      31.374  26.640  21.474  1.00  0.00    -0.207 OA
ATOM     15  O   UNL A   1      33.808  27.169  21.703  1.00  0.00    -0.207 OA
BRANCH  13  16
ATOM     16  N   UNL A   1      32.659  25.579  23.349  1.00  0.00    -0.195 NA
BRANCH  16  17
ATOM     17  C   UNL A   1      31.466  24.798  23.742  1.00  0.00     0.106 C 
BRANCH  17  18
ATOM     18  C   UNL A   1      30.856  25.003  25.097  1.00  0.00     0.004 C 
ATOM     19  C   UNL A   1      30.963  26.201  26.014  1.00  0.00     0.005 C 
ATOM     20  C   UNL A   1      29.730  26.016  25.188  1.00  0.00     0.005 C 
ENDBRANCH  17  18
ENDBRANCH  16  17
BRANCH  16  21
ATOM     21  C   UNL A   1      33.955  24.807  23.350  1.00  0.00     0.067 C 
ATOM     22  C   UNL A   1      34.599  24.705  24.727  1.00  0.00     0.025 C 
ATOM     23  C   UNL A   1      33.866  23.397  22.764  1.00  0.00     0.025 C 
ENDBRANCH  16  21
ENDBRANCH  13  16
ENDBRANCH  10  13
ENDBRANCH   3   6
ENDBRANCH   1   2
BRANCH   1  24
ATOM     24  C   UNL A   1      35.477  32.042  27.852  1.00  0.00     0.042 C 
BRANCH  24  25
ATOM     25  C   UNL A   1      36.407  31.434  29.008  1.00  0.00     0.118 C 
BRANCH  25  26
ATOM     26  N   UNL A   1      36.723  29.928  29.413  1.00  0.00    -0.352 N 
ATOM     27  C   UNL A   1      37.812  28.928  29.485  1.00  0.00     0.251 C 
ATOM     28  H   UNL A   1      35.891  29.508  29.732  1.00  0.00     0.163 HD
ATOM     29  O   UNL A   1      37.823  28.342  30.588  1.00  0.00    -0.269 OA
BRANCH  27  30
ATOM     30  C   UNL A   1      39.031  28.442  28.546  1.00  0.00     0.039 A 
ATOM     31  C   UNL A   1      39.368  27.058  28.405  1.00  0.00     0.014 A 
ATOM     32  C   UNL A   1      39.914  29.243  27.848  1.00  0.00     0.014 A 
ATOM     33  C   UNL A   1      40.751  26.654  28.315  1.00  0.00     0.010 A 
ATOM     34  C   UNL A   1      41.276  28.848  27.719  1.00  0.00     0.010 A 
ATOM     35  C   UNL A   1      41.746  27.628  28.212  1.00  0.00    -0.014 A 
BRANCH  35  36
ATOM     36  C   UNL A   1      43.185  27.477  28.653  1.00  0.00     0.031 A 
ATOM     37  C   UNL A   1      44.021  28.667  28.778  1.00  0.00     0.074 A 
ATOM     38  C   UNL A   1      43.847  26.353  29.067  1.00  0.00     0.049 A 
ATOM     39  N   UNL A   1      45.158  28.851  28.194  1.00  0.00    -0.248 NA
ATOM     40  C   UNL A   1      43.614  29.740  29.664  1.00  0.00     0.031 C 
ATOM     41  C   UNL A   1      45.227  26.125  29.546  1.00  0.00     0.029 A 
ATOM     42  N   UNL A   1      43.381  25.054  29.106  1.00  0.00    -0.354 N 
ATOM     43  C   UNL A   1      45.757  29.893  28.873  1.00  0.00     0.074 A 
ATOM     44  C   UNL A   1      44.687  30.529  29.613  1.00  0.00     0.031 C 
ATOM     45  C   UNL A   1      45.548  24.818  29.384  1.00  0.00     0.029 A 
ATOM     46  C   UNL A   1      44.405  24.164  28.783  1.00  0.00     0.049 A 
ATOM     47  H   UNL A   1      42.459  24.792  29.331  1.00  0.00     0.167 HD
ATOM     48  C   UNL A   1      47.117  29.969  28.989  1.00  0.00     0.037 A 
ATOM     49  C   UNL A   1      44.329  23.464  27.608  1.00  0.00     0.037 A 
ATOM     50  C   UNL A   1      47.748  28.730  28.512  1.00  0.00     0.049 A 
ATOM     51  C   UNL A   1      45.377  23.924  26.639  1.00  0.00     0.074 A 
ATOM     52  C   UNL A   1      48.308  27.660  29.197  1.00  0.00     0.029 A 
ATOM     53  N   UNL A   1      47.570  28.299  27.202  1.00  0.00    -0.354 N 
ATOM     54  N   UNL A   1      46.052  25.019  26.817  1.00  0.00    -0.248 NA
ATOM     55  C   UNL A   1      45.767  23.223  25.420  1.00  0.00     0.031 C 
ATOM     56  C   UNL A   1      48.393  26.560  28.308  1.00  0.00     0.029 A 
ATOM     57  C   UNL A   1      47.911  26.963  27.075  1.00  0.00     0.049 A 
ATOM     58  H   UNL A   1      47.245  28.865  26.466  1.00  0.00     0.167 HD
ATOM     59  C   UNL A   1      46.952  25.187  25.812  1.00  0.00     0.074 A 
ATOM     60  C   UNL A   1      46.745  24.028  24.962  1.00  0.00     0.031 C 
ATOM     61  C   UNL A   1      47.783  26.269  25.797  1.00  0.00     0.037 A 
BRANCH  48  62
ATOM     62  C   UNL A   1      47.840  30.994  29.855  1.00  0.00     0.058 A 
ATOM     63  C   UNL A   1      47.944  30.836  31.255  1.00  0.00     0.135 A 
ATOM     64  C   UNL A   1      48.491  32.144  29.357  1.00  0.00     0.135 A 
ATOM     65  F   UNL A   1      47.501  29.733  31.874  1.00  0.00    -0.206 F 
ATOM     66  C   UNL A   1      48.545  31.783  32.091  1.00  0.00     0.059 A 
ATOM     67  C   UNL A   1      49.037  33.139  30.174  1.00  0.00     0.059 A 
ATOM     68  F   UNL A   1      48.707  32.312  28.045  1.00  0.00    -0.206 F 
ATOM     69  C   UNL A   1      49.066  32.947  31.545  1.00  0.00     0.060 A 
BRANCH  69  70
ATOM     70  S   UNL A   1      49.868  34.141  32.630  1.00  0.00     0.124 S 
ATOM     71  O   UNL A   1      50.128  33.348  33.827  1.00  0.00    -0.237 OA
ATOM     72  O   UNL A   1      51.041  34.519  31.850  1.00  0.00    -0.237 OA
ATOM     73  O   UNL A   1      48.862  35.189  32.789  1.00  0.00    -0.744 OA
ENDBRANCH  69  70
ENDBRANCH  48  62
BRANCH  49  74
ATOM     74  C   UNL A   1      42.931  23.002  27.224  1.00  0.00     0.058 A 
ATOM     75  C   UNL A   1      42.764  22.812  25.850  1.00  0.00     0.135 A 
ATOM     76  C   UNL A   1      42.432  21.935  27.946  1.00  0.00     0.135 A 
ATOM     77  F   UNL A   1      42.615  23.860  25.033  1.00  0.00    -0.206 F 
ATOM     78  C   UNL A   1      42.868  21.545  25.283  1.00  0.00     0.059 A 
ATOM     79  C   UNL A   1      42.423  20.667  27.351  1.00  0.00     0.059 A 
ATOM     80  F   UNL A   1      42.077  22.071  29.233  1.00  0.00    -0.206 F 
ATOM     81  C   UNL A   1      42.989  20.450  26.111  1.00  0.00     0.060 A 
BRANCH  81  82
ATOM     82  S   UNL A   1      44.036  18.884  25.456  1.00  0.00     0.124 S 
ATOM     83  O   UNL A   1      43.803  17.953  26.546  1.00  0.00    -0.237 OA
ATOM     84  O   UNL A   1      43.391  18.459  24.228  1.00  0.00    -0.237 OA
ATOM     85  O   UNL A   1      45.430  19.273  25.344  1.00  0.00    -0.744 OA
ENDBRANCH  81  82
ENDBRANCH  49  74
BRANCH  61  86
ATOM     86  C   UNL A   1      48.640  26.702  24.640  1.00  0.00     0.058 A 
ATOM     87  C   UNL A   1      48.160  27.403  23.522  1.00  0.00     0.135 A 
ATOM     88  C   UNL A   1      50.044  26.517  24.687  1.00  0.00     0.135 A 
ATOM     89  F   UNL A   1      46.876  27.774  23.420  1.00  0.00    -0.206 F 
ATOM     90  C   UNL A   1      48.992  27.794  22.476  1.00  0.00     0.059 A 
ATOM     91  C   UNL A   1      50.902  26.967  23.692  1.00  0.00     0.059 A 
ATOM     92  F   UNL A   1      50.645  25.897  25.713  1.00  0.00    -0.206 F 
ATOM     93  C   UNL A   1      50.361  27.565  22.567  1.00  0.00     0.060 A 
BRANCH  93  94
ATOM     94  S   UNL A   1      51.432  28.081  21.219  1.00  0.00     0.124 S 
ATOM     95  O   UNL A   1      50.531  27.964  20.077  1.00  0.00    -0.237 OA
ATOM     96  O   UNL A   1      51.791  29.443  21.603  1.00  0.00    -0.237 OA
ATOM     97  O   UNL A   1      52.524  27.115  21.264  1.00  0.00    -0.744 OA
ENDBRANCH  93  94
ENDBRANCH  61  86
ENDBRANCH  35  36
ENDBRANCH  27  30
ENDBRANCH  25  26
ENDBRANCH  24  25
ENDBRANCH   1  24
TORSDOF 18
ENDMDL
MODEL 3
REMARK VINA RESULT:     -11.3      5.787      8.099
REMARK SMILES Cc1ccc(C(=O)NCCCNC(=O)c2ccc(-c3c4nc(c(-c5c(F)cc(S(=O)(=O)[O-])cc5F)c5ccc([nH]5)c(-c5c(F)cc(S(=O)(=O)[O-])cc5F)c5nc(c(-c6c(F)cc(S(=O)(=O)[O-])cc6F)c6ccc3[nH]6)C=C5)C=C4)cc2)cc1S(=O)(=O)N(CC1CC1)C(C)C
REMARK SMILES IDX 9 1 8 2 6 3 7 4 5 6 1 7 2 8 3 9 82 10 4 11 81 12 83 13 84 14
REMARK SMILES IDX 85 15 86 16 87 17 88 18 89 19 90 20 91 21 92 22 93 23 10 24
REMARK SMILES IDX 11 25 12 26 13 27 14 29 15 30 16 31 80 32 17 33 79 34 18 35
REMARK SMILES IDX 19 36 20 37 73 38 21 39 78 40 72 41 74 42 22 43 77 44 71 45
REMARK SMILES IDX 70 46 23 48 57 49 36 50 56 51 37 52 40 53 55 54 75 55 38 56
REMARK SMILES IDX 39 57 54 59 76 60 41 61 24 62 25 63 34 64 26 65 27 66 33 67
REMARK SMILES IDX 35 68 28 69 29 70 30 71 31 72 32 73 58 74 59 75 68 76 60 77
REMARK SMILES IDX 61 78 67 79 69 80 62 81 63 82 64 83 65 84 66 85 42 86 43 87
REMARK SMILES IDX 52 88 44 89 45 90 51 91 53 92 46 93 47 94 48 95 49 96 50 97
REMARK H PARENT 8 5 12 28 74 47 40 58
REMARK Flexibility Score: inf
ROOT
ATOM      1  C   UNL A   1      34.832  29.372  27.500  1.00  0.00     0.118 C 
ENDROOT
BRANCH   1   2
ATOM      2  N   UNL A   1      33.445  28.945  27.871  1.00  0.00    -0.352 N 
ATOM      3  C   UNL A   1      32.413  28.215  27.313  1.00  0.00     0.251 C 
ATOM      4  O   UNL A   1      31.490  27.769  27.992  1.00  0.00    -0.269 OA
ATOM      5  H   UNL A   1      33.199  29.278  28.765  1.00  0.00     0.163 HD
BRANCH   3   6
ATOM      6  C   UNL A   1      32.412  27.915  25.877  1.00  0.00     0.041 A 
ATOM      7  C   UNL A   1      31.556  25.827  22.264  1.00  0.00     0.046 C 
ATOM      8  C   UNL A   1      32.006  26.621  23.454  1.00  0.00    -0.031 A 
ATOM      9  C   UNL A   1      31.195  27.717  23.820  1.00  0.00     0.005 A 
ATOM     10  C   UNL A   1      33.141  26.336  24.243  1.00  0.00     0.086 A 
ATOM     11  C   UNL A   1      31.366  28.333  25.057  1.00  0.00     0.014 A 
ATOM     12  C   UNL A   1      33.406  27.091  25.383  1.00  0.00     0.035 A 
BRANCH  10  13
ATOM     13  S   UNL A   1      34.007  24.770  24.309  1.00  0.00     0.243 S 
ATOM     14  O   UNL A   1      34.375  24.381  22.998  1.00  0.00    -0.207 OA
ATOM     15  O   UNL A   1      35.051  25.036  25.316  1.00  0.00    -0.207 OA
BRANCH  13  16
ATOM     16  N   UNL A   1      32.975  23.589  24.923  1.00  0.00    -0.195 NA
BRANCH  16  17
ATOM     17  C   UNL A   1      33.190  22.170  24.565  1.00  0.00     0.106 C 
BRANCH  17  18
ATOM     18  C   UNL A   1      32.116  21.414  23.841  1.00  0.00     0.004 C 
ATOM     19  C   UNL A   1      32.050  21.023  22.382  1.00  0.00     0.005 C 
ATOM     20  C   UNL A   1      32.460  20.004  23.397  1.00  0.00     0.005 C 
ENDBRANCH  17  18
ENDBRANCH  16  17
BRANCH  16  21
ATOM     21  C   UNL A   1      32.316  23.817  26.260  1.00  0.00     0.067 C 
ATOM     22  C   UNL A   1      30.825  24.111  26.160  1.00  0.00     0.025 C 
ATOM     23  C   UNL A   1      32.508  22.686  27.273  1.00  0.00     0.025 C 
ENDBRANCH  16  21
ENDBRANCH  13  16
ENDBRANCH  10  13
ENDBRANCH   3   6
ENDBRANCH   1   2
BRANCH   1  24
ATOM     24  C   UNL A   1      35.455  30.792  28.026  1.00  0.00     0.042 C 
BRANCH  24  25
ATOM     25  C   UNL A   1      34.489  32.064  27.883  1.00  0.00     0.118 C 
BRANCH  25  26
ATOM     26  N   UNL A   1      34.061  33.176  28.937  1.00  0.00    -0.352 N 
ATOM     27  C   UNL A   1      34.469  33.819  30.207  1.00  0.00     0.251 C 
ATOM     28  H   UNL A   1      33.218  33.586  28.635  1.00  0.00     0.163 HD
ATOM     29  O   UNL A   1      34.403  35.064  30.131  1.00  0.00    -0.269 OA
BRANCH  27  30
ATOM     30  C   UNL A   1      35.040  33.344  31.639  1.00  0.00     0.039 A 
ATOM     31  C   UNL A   1      35.254  34.270  32.709  1.00  0.00     0.014 A 
ATOM     32  C   UNL A   1      35.449  32.072  31.991  1.00  0.00     0.014 A 
ATOM     33  C   UNL A   1      36.399  34.122  33.577  1.00  0.00     0.010 A 
ATOM     34  C   UNL A   1      36.555  31.903  32.871  1.00  0.00     0.010 A 
ATOM     35  C   UNL A   1      37.206  32.989  33.462  1.00  0.00    -0.014 A 
BRANCH  35  36
ATOM     36  C   UNL A   1      38.670  32.901  33.836  1.00  0.00     0.031 A 
ATOM     37  C   UNL A   1      39.364  34.103  34.287  1.00  0.00     0.074 A 
ATOM     38  C   UNL A   1      39.476  31.798  33.913  1.00  0.00     0.049 A 
ATOM     39  N   UNL A   1      40.447  34.583  33.774  1.00  0.00    -0.248 NA
ATOM     40  C   UNL A   1      38.868  34.827  35.442  1.00  0.00     0.031 C 
ATOM     41  C   UNL A   1      40.890  31.619  34.302  1.00  0.00     0.029 A 
ATOM     42  N   UNL A   1      39.168  30.492  33.587  1.00  0.00    -0.354 N 
ATOM     43  C   UNL A   1      40.946  35.460  34.716  1.00  0.00     0.074 A 
ATOM     44  C   UNL A   1      39.838  35.726  35.610  1.00  0.00     0.031 C 
ATOM     45  C   UNL A   1      41.356  30.459  33.778  1.00  0.00     0.029 A 
ATOM     46  C   UNL A   1      40.275  29.862  33.021  1.00  0.00     0.049 A 
ATOM     47  H   UNL A   1      38.292  30.065  33.733  1.00  0.00     0.167 HD
ATOM     48  C   UNL A   1      42.291  35.669  34.842  1.00  0.00     0.037 A 
ATOM     49  C   UNL A   1      40.236  29.513  31.697  1.00  0.00     0.037 A 
ATOM     50  C   UNL A   1      43.045  34.700  34.033  1.00  0.00     0.049 A 
ATOM     51  C   UNL A   1      41.184  30.352  30.892  1.00  0.00     0.074 A 
ATOM     52  C   UNL A   1      43.753  33.560  34.385  1.00  0.00     0.029 A 
ATOM     53  N   UNL A   1      42.867  34.633  32.655  1.00  0.00    -0.354 N 
ATOM     54  N   UNL A   1      41.732  31.429  31.368  1.00  0.00    -0.248 NA
ATOM     55  C   UNL A   1      41.605  30.073  29.524  1.00  0.00     0.031 C 
ATOM     56  C   UNL A   1      43.932  32.771  33.222  1.00  0.00     0.029 A 
ATOM     57  C   UNL A   1      43.357  33.439  32.155  1.00  0.00     0.049 A 
ATOM     58  H   UNL A   1      42.448  35.338  32.110  1.00  0.00     0.167 HD
ATOM     59  C   UNL A   1      42.566  31.981  30.447  1.00  0.00     0.074 A 
ATOM     60  C   UNL A   1      42.463  31.089  29.306  1.00  0.00     0.031 C 
ATOM     61  C   UNL A   1      43.261  33.119  30.734  1.00  0.00     0.037 A 
BRANCH  48  62
ATOM     62  C   UNL A   1      42.921  36.492  35.959  1.00  0.00     0.058 A 
ATOM     63  C   UNL A   1      42.862  36.077  37.308  1.00  0.00     0.135 A 
ATOM     64  C   UNL A   1      43.639  37.692  35.759  1.00  0.00     0.135 A 
ATOM     65  F   UNL A   1      42.338  34.894  37.658  1.00  0.00    -0.206 F 
ATOM     66  C   UNL A   1      43.375  36.834  38.366  1.00  0.00     0.059 A 
ATOM     67  C   UNL A   1      44.099  38.502  36.803  1.00  0.00     0.059 A 
ATOM     68  F   UNL A   1      44.006  38.092  34.533  1.00  0.00    -0.206 F 
ATOM     69  C   UNL A   1      43.969  38.060  38.109  1.00  0.00     0.060 A 
BRANCH  69  70
ATOM     70  S   UNL A   1      44.654  39.008  39.479  1.00  0.00     0.124 S 
ATOM     71  O   UNL A   1      43.659  40.059  39.659  1.00  0.00    -0.237 OA
ATOM     72  O   UNL A   1      44.718  38.006  40.538  1.00  0.00    -0.237 OA
ATOM     73  O   UNL A   1      45.947  39.459  38.971  1.00  0.00    -0.744 OA
ENDBRANCH  69  70
ENDBRANCH  48  62
BRANCH  49  74
ATOM     74  C   UNL A   1      38.888  29.007  31.205  1.00  0.00     0.058 A 
ATOM     75  C   UNL A   1      38.530  29.507  29.950  1.00  0.00     0.135 A 
ATOM     76  C   UNL A   1      38.697  27.641  31.279  1.00  0.00     0.135 A 
ATOM     77  F   UNL A   1      38.078  30.759  29.821  1.00  0.00    -0.206 F 
ATOM     78  C   UNL A   1      38.744  28.761  28.794  1.00  0.00     0.059 A 
ATOM     79  C   UNL A   1      38.797  26.885  30.105  1.00  0.00     0.059 A 
ATOM     80  F   UNL A   1      38.542  27.024  32.461  1.00  0.00    -0.206 F 
ATOM     81  C   UNL A   1      39.177  27.458  28.909  1.00  0.00     0.060 A 
BRANCH  81  82
ATOM     82  S   UNL A   1      40.343  26.722  27.468  1.00  0.00     0.124 S 
ATOM     83  O   UNL A   1      41.509  26.355  28.251  1.00  0.00    -0.237 OA
ATOM     84  O   UNL A   1      39.647  25.559  26.949  1.00  0.00    -0.237 OA
ATOM     85  O   UNL A   1      40.621  27.778  26.513  1.00  0.00    -0.744 OA
ENDBRANCH  81  82
ENDBRANCH  49  74
BRANCH  61  86
ATOM     86  C   UNL A   1      44.016  33.961  29.742  1.00  0.00     0.058 A 
ATOM     87  C   UNL A   1      43.428  34.952  28.941  1.00  0.00     0.135 A 
ATOM     88  C   UNL A   1      45.427  33.865  29.656  1.00  0.00     0.135 A 
ATOM     89  F   UNL A   1      42.123  35.249  29.031  1.00  0.00    -0.206 F 
ATOM     90  C   UNL A   1      44.166  35.717  28.041  1.00  0.00     0.059 A 
ATOM     91  C   UNL A   1      46.192  34.670  28.822  1.00  0.00     0.059 A 
ATOM     92  F   UNL A   1      46.125  32.987  30.391  1.00  0.00    -0.206 F 
ATOM     93  C   UNL A   1      45.547  35.563  27.984  1.00  0.00     0.060 A 
BRANCH  93  94
ATOM     94  S   UNL A   1      46.497  36.559  26.829  1.00  0.00     0.124 S 
ATOM     95  O   UNL A   1      45.603  37.694  26.626  1.00  0.00    -0.237 OA
ATOM     96  O   UNL A   1      47.715  36.842  27.581  1.00  0.00    -0.237 OA
ATOM     97  O   UNL A   1      46.669  35.676  25.680  1.00  0.00    -0.744 OA
ENDBRANCH  93  94
ENDBRANCH  61  86
ENDBRANCH  35  36
ENDBRANCH  27  30
ENDBRANCH  25  26
ENDBRANCH  24  25
ENDBRANCH   1  24
TORSDOF 18
ENDMDL
