MODEL 1
REMARK VINA RESULT:     -10.1      0.000      0.000
REMARK SMILES COc1ccccc1Nc1nc(C)c(C(=O)NCCCNC(=O)c2ccc(-c3c4nc(c(-c5c(F)cc(S(=O)(=O)[O-])cc5F)c5ccc([nH]5)c(-c5c(F)cc(S(=O)(=O)[O-])cc5F)c5nc(c(-c6c(F)cc(S(=O)(=O)[O-])cc6F)c6ccc3[nH]6)C=C5)C=C4)cc2)s1
REMARK SMILES IDX 19 1 18 2 17 3 15 4 16 5 14 7 10 8 11 9 90 10 12 11 13 12
REMARK SMILES IDX 9 13 8 15 3 16 4 17 5 18 7 19 6 20 2 21 1 22 20 23 21 24
REMARK SMILES IDX 22 25 23 27 24 28 25 29 89 30 26 31 88 32 27 33 28 34 29 35
REMARK SMILES IDX 82 36 30 37 87 38 81 39 83 40 31 41 86 42 80 43 79 44 32 46
REMARK SMILES IDX 66 47 45 48 65 49 46 50 49 51 64 52 84 53 47 54 48 55 63 57
REMARK SMILES IDX 85 58 50 59 33 60 34 61 43 62 35 63 36 64 42 65 44 66 37 67
REMARK SMILES IDX 38 68 39 69 40 70 41 71 67 72 68 73 77 74 69 75 70 76 76 77
REMARK SMILES IDX 78 78 71 79 72 80 73 81 74 82 75 83 51 84 52 85 61 86 53 87
REMARK SMILES IDX 54 88 60 89 62 90 55 91 56 92 57 93 58 94 59 95
REMARK H PARENT 17 6 9 14 21 26 83 45 49 56
REMARK Flexibility Score: inf
ROOT
ATOM      1  C   UNL A   1      33.719  33.827  28.305  1.00  0.00     0.042 C 
ENDROOT
BRANCH   1   2
ATOM      2  C   UNL A   1      34.443  35.059  28.841  1.00  0.00     0.118 C 
BRANCH   2   3
ATOM      3  N   UNL A   1      33.999  35.373  30.177  1.00  0.00    -0.351 N 
ATOM      4  C   UNL A   1      34.373  34.940  31.423  1.00  0.00     0.263 C 
ATOM      5  O   UNL A   1      33.747  35.498  32.332  1.00  0.00    -0.268 OA
ATOM      6  H   UNL A   1      33.272  36.037  30.199  1.00  0.00     0.163 HD
BRANCH   4   7
ATOM      7  C   UNL A   1      35.417  33.956  31.686  1.00  0.00     0.117 A 
ATOM      8  C   UNL A   1      36.449  31.938  32.645  1.00  0.00     0.188 A 
ATOM      9  N   UNL A   1      37.239  32.484  31.761  1.00  0.00    -0.225 NA
ATOM     10  S   UNL A   1      35.099  32.902  33.045  1.00  0.00    -0.091 S 
ATOM     11  C   UNL A   1      36.617  33.541  31.113  1.00  0.00     0.063 A 
ATOM     12  C   UNL A   1      37.337  33.948  29.883  1.00  0.00     0.068 C 
BRANCH   8  13
ATOM     13  N   UNL A   1      36.775  30.753  33.198  1.00  0.00    -0.328 N 
ATOM     14  H   UNL A   1      36.024  30.231  33.562  1.00  0.00     0.169 HD
BRANCH  13  15
ATOM     15  C   UNL A   1      38.052  30.159  33.327  1.00  0.00     0.083 A 
ATOM     16  C   UNL A   1      39.063  30.821  34.058  1.00  0.00     0.142 A 
ATOM     17  C   UNL A   1      40.368  30.311  34.089  1.00  0.00     0.048 A 
ATOM     18  C   UNL A   1      40.678  29.117  33.441  1.00  0.00     0.004 A 
ATOM     19  C   UNL A   1      38.385  28.942  32.709  1.00  0.00     0.030 A 
ATOM     20  C   UNL A   1      39.684  28.428  32.758  1.00  0.00     0.002 A 
BRANCH  16  21
ATOM     21  O   UNL A   1      38.921  32.043  34.671  1.00  0.00    -0.495 OA
ATOM     22  C   UNL A   1      39.777  33.079  34.198  1.00  0.00     0.278 C 
ENDBRANCH  16  21
ENDBRANCH  13  15
ENDBRANCH   8  13
ENDBRANCH   4   7
ENDBRANCH   2   3
ENDBRANCH   1   2
BRANCH   1  23
ATOM     23  C   UNL A   1      34.641  32.648  28.022  1.00  0.00     0.118 C 
BRANCH  23  24
ATOM     24  N   UNL A   1      33.900  31.402  27.924  1.00  0.00    -0.352 N 
ATOM     25  C   UNL A   1      34.357  30.109  27.831  1.00  0.00     0.251 C 
ATOM     26  H   UNL A   1      32.920  31.498  27.924  1.00  0.00     0.163 HD
ATOM     27  O   UNL A   1      33.575  29.228  27.486  1.00  0.00    -0.269 OA
BRANCH  25  28
ATOM     28  C   UNL A   1      35.768  29.773  28.135  1.00  0.00     0.039 A 
ATOM     29  C   UNL A   1      36.104  29.395  29.439  1.00  0.00     0.014 A 
ATOM     30  C   UNL A   1      36.772  29.893  27.170  1.00  0.00     0.014 A 
ATOM     31  C   UNL A   1      37.431  29.099  29.762  1.00  0.00     0.010 A 
ATOM     32  C   UNL A   1      38.080  29.521  27.472  1.00  0.00     0.010 A 
ATOM     33  C   UNL A   1      38.428  29.138  28.775  1.00  0.00    -0.014 A 
BRANCH  33  34
ATOM     34  C   UNL A   1      39.844  28.820  29.089  1.00  0.00     0.031 A 
ATOM     35  C   UNL A   1      40.721  29.857  29.741  1.00  0.00     0.074 A 
ATOM     36  C   UNL A   1      40.357  27.627  28.731  1.00  0.00     0.049 A 
ATOM     37  N   UNL A   1      42.000  29.809  30.011  1.00  0.00    -0.248 NA
ATOM     38  C   UNL A   1      40.080  31.129  30.112  1.00  0.00     0.031 C 
ATOM     39  C   UNL A   1      39.619  26.557  28.055  1.00  0.00     0.029 A 
ATOM     40  N   UNL A   1      41.623  27.117  28.872  1.00  0.00    -0.354 N 
ATOM     41  C   UNL A   1      42.320  31.045  30.559  1.00  0.00     0.074 A 
ATOM     42  C   UNL A   1      41.112  31.841  30.539  1.00  0.00     0.031 C 
ATOM     43  C   UNL A   1      40.440  25.514  27.857  1.00  0.00     0.029 A 
ATOM     44  C   UNL A   1      41.769  25.851  28.356  1.00  0.00     0.049 A 
ATOM     45  H   UNL A   1      42.358  27.612  29.302  1.00  0.00     0.167 HD
ATOM     46  C   UNL A   1      43.506  31.471  31.055  1.00  0.00     0.037 A 
ATOM     47  C   UNL A   1      42.855  25.056  28.287  1.00  0.00     0.037 A 
ATOM     48  C   UNL A   1      44.695  30.661  31.103  1.00  0.00     0.049 A 
ATOM     49  C   UNL A   1      44.158  25.545  28.857  1.00  0.00     0.074 A 
ATOM     50  C   UNL A   1      45.931  30.976  31.639  1.00  0.00     0.029 A 
ATOM     51  N   UNL A   1      44.794  29.372  30.600  1.00  0.00    -0.354 N 
ATOM     52  N   UNL A   1      44.429  26.698  29.420  1.00  0.00    -0.248 NA
ATOM     53  C   UNL A   1      45.300  24.623  28.789  1.00  0.00     0.031 C 
ATOM     54  C   UNL A   1      46.788  29.890  31.428  1.00  0.00     0.029 A 
ATOM     55  C   UNL A   1      46.074  28.882  30.798  1.00  0.00     0.049 A 
ATOM     56  H   UNL A   1      44.061  28.878  30.165  1.00  0.00     0.167 HD
ATOM     57  C   UNL A   1      45.766  26.632  29.795  1.00  0.00     0.074 A 
ATOM     58  C   UNL A   1      46.244  25.321  29.405  1.00  0.00     0.031 C 
ATOM     59  C   UNL A   1      46.529  27.571  30.409  1.00  0.00     0.037 A 
BRANCH  46  60
ATOM     60  C   UNL A   1      43.574  32.877  31.589  1.00  0.00     0.058 A 
ATOM     61  C   UNL A   1      43.392  33.157  32.953  1.00  0.00     0.135 A 
ATOM     62  C   UNL A   1      43.844  33.956  30.731  1.00  0.00     0.135 A 
ATOM     63  F   UNL A   1      43.117  32.166  33.816  1.00  0.00    -0.206 F 
ATOM     64  C   UNL A   1      43.441  34.459  33.442  1.00  0.00     0.059 A 
ATOM     65  C   UNL A   1      43.925  35.263  31.204  1.00  0.00     0.059 A 
ATOM     66  F   UNL A   1      44.027  33.747  29.418  1.00  0.00    -0.206 F 
ATOM     67  C   UNL A   1      43.704  35.506  32.559  1.00  0.00     0.060 A 
BRANCH  67  68
ATOM     68  S   UNL A   1      43.756  37.190  33.208  1.00  0.00     0.124 S 
ATOM     69  O   UNL A   1      45.023  37.182  33.933  1.00  0.00    -0.237 OA
ATOM     70  O   UNL A   1      43.728  37.996  31.992  1.00  0.00    -0.237 OA
ATOM     71  O   UNL A   1      42.559  37.272  34.038  1.00  0.00    -0.744 OA
ENDBRANCH  67  68
ENDBRANCH  46  60
BRANCH  47  72
ATOM     72  C   UNL A   1      42.743  23.704  27.676  1.00  0.00     0.058 A 
ATOM     73  C   UNL A   1      42.938  23.519  26.300  1.00  0.00     0.135 A 
ATOM     74  C   UNL A   1      42.466  22.572  28.456  1.00  0.00     0.135 A 
ATOM     75  F   UNL A   1      43.202  24.574  25.512  1.00  0.00    -0.206 F 
ATOM     76  C   UNL A   1      42.852  22.261  25.714  1.00  0.00     0.059 A 
ATOM     77  C   UNL A   1      42.396  21.299  27.898  1.00  0.00     0.059 A 
ATOM     78  F   UNL A   1      42.289  22.693  29.780  1.00  0.00    -0.206 F 
ATOM     79  C   UNL A   1      42.583  21.155  26.523  1.00  0.00     0.060 A 
BRANCH  79  80
ATOM     80  S   UNL A   1      42.529  19.518  25.761  1.00  0.00     0.124 S 
ATOM     81  O   UNL A   1      41.132  19.429  25.355  1.00  0.00    -0.237 OA
ATOM     82  O   UNL A   1      43.502  19.650  24.681  1.00  0.00    -0.237 OA
ATOM     83  O   UNL A   1      42.930  18.630  26.850  1.00  0.00    -0.744 OA
ENDBRANCH  79  80
ENDBRANCH  47  72
BRANCH  59  84
ATOM     84  C   UNL A   1      47.952  27.205  30.725  1.00  0.00     0.058 A 
ATOM     85  C   UNL A   1      48.283  26.457  31.865  1.00  0.00     0.135 A 
ATOM     86  C   UNL A   1      48.989  27.562  29.848  1.00  0.00     0.135 A 
ATOM     87  F   UNL A   1      47.329  26.098  32.738  1.00  0.00    -0.206 F 
ATOM     88  C   UNL A   1      49.597  26.093  32.136  1.00  0.00     0.059 A 
ATOM     89  C   UNL A   1      50.307  27.188  30.086  1.00  0.00     0.059 A 
ATOM     90  F   UNL A   1      48.722  28.268  28.738  1.00  0.00    -0.206 F 
ATOM     91  C   UNL A   1      50.603  26.462  31.240  1.00  0.00     0.060 A 
BRANCH  91  92
ATOM     92  S   UNL A   1      52.300  25.953  31.582  1.00  0.00     0.124 S 
ATOM     93  O   UNL A   1      52.103  24.600  32.093  1.00  0.00    -0.237 OA
ATOM     94  O   UNL A   1      52.928  26.047  30.267  1.00  0.00    -0.237 OA
ATOM     95  O   UNL A   1      52.759  26.934  32.560  1.00  0.00    -0.744 OA
ENDBRANCH  91  92
ENDBRANCH  59  84
ENDBRANCH  33  34
ENDBRANCH  25  28
ENDBRANCH  23  24
ENDBRANCH   1  23
TORSDOF 16
ENDMDL
MODEL 2
REMARK VINA RESULT:      -9.9      0.645      1.819
REMARK SMILES COc1ccccc1Nc1nc(C)c(C(=O)NCCCNC(=O)c2ccc(-c3c4nc(c(-c5c(F)cc(S(=O)(=O)[O-])cc5F)c5ccc([nH]5)c(-c5c(F)cc(S(=O)(=O)[O-])cc5F)c5nc(c(-c6c(F)cc(S(=O)(=O)[O-])cc6F)c6ccc3[nH]6)C=C5)C=C4)cc2)s1
REMARK SMILES IDX 19 1 18 2 17 3 15 4 16 5 14 7 10 8 11 9 90 10 12 11 13 12
REMARK SMILES IDX 9 13 8 15 3 16 4 17 5 18 7 19 6 20 2 21 1 22 20 23 21 24
REMARK SMILES IDX 22 25 23 27 24 28 25 29 89 30 26 31 88 32 27 33 28 34 29 35
REMARK SMILES IDX 82 36 30 37 87 38 81 39 83 40 31 41 86 42 80 43 79 44 32 46
REMARK SMILES IDX 66 47 45 48 65 49 46 50 49 51 64 52 84 53 47 54 48 55 63 57
REMARK SMILES IDX 85 58 50 59 33 60 34 61 43 62 35 63 36 64 42 65 44 66 37 67
REMARK SMILES IDX 38 68 39 69 40 70 41 71 67 72 68 73 77 74 69 75 70 76 76 77
REMARK SMILES IDX 78 78 71 79 72 80 73 81 74 82 75 83 51 84 52 85 61 86 53 87
REMARK SMILES IDX 54 88 60 89 62 90 55 91 56 92 57 93 58 94 59 95
REMARK H PARENT 17 6 9 14 21 26 83 45 49 56
REMARK Flexibility Score: inf
ROOT
ATOM      1  C   UNL A   1      34.411  33.245  29.636  1.00  0.00     0.042 C 
ENDROOT
BRANCH   1   2
ATOM      2  C   UNL A   1      34.754  34.729  29.737  1.00  0.00     0.118 C 
BRANCH   2   3
ATOM      3  N   UNL A   1      34.388  35.252  31.032  1.00  0.00    -0.351 N 
ATOM      4  C   UNL A   1      34.885  35.073  32.297  1.00  0.00     0.263 C 
ATOM      5  O   UNL A   1      34.288  35.747  33.145  1.00  0.00    -0.268 OA
ATOM      6  H   UNL A   1      33.619  35.865  31.000  1.00  0.00     0.163 HD
BRANCH   4   7
ATOM      7  C   UNL A   1      36.015  34.216  32.636  1.00  0.00     0.117 A 
ATOM      8  C   UNL A   1      37.211  32.350  33.706  1.00  0.00     0.188 A 
ATOM      9  N   UNL A   1      37.978  32.952  32.838  1.00  0.00    -0.225 NA
ATOM     10  S   UNL A   1      35.750  33.173  34.016  1.00  0.00    -0.091 S 
ATOM     11  C   UNL A   1      37.276  33.915  32.129  1.00  0.00     0.063 A 
ATOM     12  C   UNL A   1      38.004  34.361  30.916  1.00  0.00     0.068 C 
BRANCH   8  13
ATOM     13  N   UNL A   1      37.637  31.223  34.312  1.00  0.00    -0.328 N 
ATOM     14  H   UNL A   1      37.260  31.051  35.205  1.00  0.00     0.169 HD
BRANCH  13  15
ATOM     15  C   UNL A   1      38.553  30.257  33.839  1.00  0.00     0.083 A 
ATOM     16  C   UNL A   1      39.939  30.445  34.040  1.00  0.00     0.142 A 
ATOM     17  C   UNL A   1      40.866  29.565  33.467  1.00  0.00     0.048 A 
ATOM     18  C   UNL A   1      40.437  28.461  32.733  1.00  0.00     0.004 A 
ATOM     19  C   UNL A   1      38.148  29.118  33.121  1.00  0.00     0.030 A 
ATOM     20  C   UNL A   1      39.077  28.233  32.567  1.00  0.00     0.002 A 
BRANCH  16  21
ATOM     21  O   UNL A   1      40.504  31.531  34.666  1.00  0.00    -0.495 OA
ATOM     22  C   UNL A   1      40.539  31.478  36.089  1.00  0.00     0.278 C 
ENDBRANCH  16  21
ENDBRANCH  13  15
ENDBRANCH   8  13
ENDBRANCH   4   7
ENDBRANCH   2   3
ENDBRANCH   1   2
BRANCH   1  23
ATOM     23  C   UNL A   1      34.640  32.656  28.250  1.00  0.00     0.118 C 
BRANCH  23  24
ATOM     24  N   UNL A   1      33.917  31.407  28.075  1.00  0.00    -0.352 N 
ATOM     25  C   UNL A   1      34.393  30.132  27.889  1.00  0.00     0.251 C 
ATOM     26  H   UNL A   1      32.936  31.488  28.091  1.00  0.00     0.163 HD
ATOM     27  O   UNL A   1      33.621  29.264  27.493  1.00  0.00    -0.269 OA
BRANCH  25  28
ATOM     28  C   UNL A   1      35.813  29.798  28.155  1.00  0.00     0.039 A 
ATOM     29  C   UNL A   1      36.170  29.345  29.429  1.00  0.00     0.014 A 
ATOM     30  C   UNL A   1      36.802  29.993  27.188  1.00  0.00     0.014 A 
ATOM     31  C   UNL A   1      37.505  29.049  29.718  1.00  0.00     0.010 A 
ATOM     32  C   UNL A   1      38.119  29.623  27.451  1.00  0.00     0.010 A 
ATOM     33  C   UNL A   1      38.489  29.164  28.723  1.00  0.00    -0.014 A 
BRANCH  33  34
ATOM     34  C   UNL A   1      39.913  28.848  29.000  1.00  0.00     0.031 A 
ATOM     35  C   UNL A   1      40.817  29.902  29.587  1.00  0.00     0.074 A 
ATOM     36  C   UNL A   1      40.408  27.641  28.667  1.00  0.00     0.049 A 
ATOM     37  N   UNL A   1      42.104  29.854  29.815  1.00  0.00    -0.248 NA
ATOM     38  C   UNL A   1      40.195  31.190  29.935  1.00  0.00     0.031 C 
ATOM     39  C   UNL A   1      39.642  26.553  28.054  1.00  0.00     0.029 A 
ATOM     40  N   UNL A   1      41.675  27.128  28.783  1.00  0.00    -0.354 N 
ATOM     41  C   UNL A   1      42.449  31.107  30.309  1.00  0.00     0.074 A 
ATOM     42  C   UNL A   1      41.244  31.909  30.302  1.00  0.00     0.031 C 
ATOM     43  C   UNL A   1      40.451  25.498  27.864  1.00  0.00     0.029 A 
ATOM     44  C   UNL A   1      41.797  25.844  28.307  1.00  0.00     0.049 A 
ATOM     45  H   UNL A   1      42.427  27.632  29.171  1.00  0.00     0.167 HD
ATOM     46  C   UNL A   1      43.653  31.543  30.750  1.00  0.00     0.037 A 
ATOM     47  C   UNL A   1      42.876  25.040  28.229  1.00  0.00     0.037 A 
ATOM     48  C   UNL A   1      44.838  30.727  30.786  1.00  0.00     0.049 A 
ATOM     49  C   UNL A   1      44.200  25.540  28.738  1.00  0.00     0.074 A 
ATOM     50  C   UNL A   1      46.094  31.052  31.270  1.00  0.00     0.029 A 
ATOM     51  N   UNL A   1      44.914  29.421  30.325  1.00  0.00    -0.354 N 
ATOM     52  N   UNL A   1      44.496  26.710  29.251  1.00  0.00    -0.248 NA
ATOM     53  C   UNL A   1      45.335  24.610  28.663  1.00  0.00     0.031 C 
ATOM     54  C   UNL A   1      46.938  29.954  31.068  1.00  0.00     0.029 A 
ATOM     55  C   UNL A   1      46.197  28.930  30.497  1.00  0.00     0.049 A 
ATOM     56  H   UNL A   1      44.165  28.917  29.932  1.00  0.00     0.167 HD
ATOM     57  C   UNL A   1      45.845  26.649  29.584  1.00  0.00     0.074 A 
ATOM     58  C   UNL A   1      46.303  25.323  29.223  1.00  0.00     0.031 C 
ATOM     59  C   UNL A   1      46.633  27.604  30.138  1.00  0.00     0.037 A 
BRANCH  46  60
ATOM     60  C   UNL A   1      43.746  32.966  31.232  1.00  0.00     0.058 A 
ATOM     61  C   UNL A   1      44.061  34.020  30.360  1.00  0.00     0.135 A 
ATOM     62  C   UNL A   1      43.498  33.283  32.578  1.00  0.00     0.135 A 
ATOM     63  F   UNL A   1      44.322  33.773  29.066  1.00  0.00    -0.206 F 
ATOM     64  C   UNL A   1      44.161  35.333  30.810  1.00  0.00     0.059 A 
ATOM     65  C   UNL A   1      43.565  34.594  33.044  1.00  0.00     0.059 A 
ATOM     66  F   UNL A   1      43.193  32.316  33.456  1.00  0.00    -0.206 F 
ATOM     67  C   UNL A   1      43.915  35.609  32.155  1.00  0.00     0.060 A 
BRANCH  67  68
ATOM     68  S   UNL A   1      44.056  37.317  32.725  1.00  0.00     0.124 S 
ATOM     69  O   UNL A   1      43.890  38.054  31.477  1.00  0.00    -0.237 OA
ATOM     70  O   UNL A   1      42.952  37.422  33.674  1.00  0.00    -0.237 OA
ATOM     71  O   UNL A   1      45.390  37.370  33.313  1.00  0.00    -0.744 OA
ENDBRANCH  67  68
ENDBRANCH  46  60
BRANCH  47  72
ATOM     72  C   UNL A   1      42.737  23.669  27.669  1.00  0.00     0.058 A 
ATOM     73  C   UNL A   1      42.495  22.572  28.508  1.00  0.00     0.135 A 
ATOM     74  C   UNL A   1      42.819  23.432  26.289  1.00  0.00     0.135 A 
ATOM     75  F   UNL A   1      42.413  22.748  29.836  1.00  0.00    -0.206 F 
ATOM     76  C   UNL A   1      42.349  21.285  28.001  1.00  0.00     0.059 A 
ATOM     77  C   UNL A   1      42.654  22.158  25.755  1.00  0.00     0.059 A 
ATOM     78  F   UNL A   1      43.032  24.451  25.443  1.00  0.00    -0.206 F 
ATOM     79  C   UNL A   1      42.427  21.088  26.621  1.00  0.00     0.060 A 
BRANCH  79  80
ATOM     80  S   UNL A   1      42.179  19.423  25.968  1.00  0.00     0.124 S 
ATOM     81  O   UNL A   1      42.987  19.460  24.755  1.00  0.00    -0.237 OA
ATOM     82  O   UNL A   1      42.690  18.589  27.051  1.00  0.00    -0.237 OA
ATOM     83  O   UNL A   1      40.734  19.355  25.765  1.00  0.00    -0.744 OA
ENDBRANCH  79  80
ENDBRANCH  47  72
BRANCH  59  84
ATOM     84  C   UNL A   1      48.063  27.240  30.419  1.00  0.00     0.058 A 
ATOM     85  C   UNL A   1      49.094  27.567  29.525  1.00  0.00     0.135 A 
ATOM     86  C   UNL A   1      48.412  26.604  31.620  1.00  0.00     0.135 A 
ATOM     87  F   UNL A   1      48.813  28.169  28.359  1.00  0.00    -0.206 F 
ATOM     88  C   UNL A   1      50.421  27.257  29.804  1.00  0.00     0.059 A 
ATOM     89  C   UNL A   1      49.734  26.307  31.933  1.00  0.00     0.059 A 
ATOM     90  F   UNL A   1      47.463  26.280  32.514  1.00  0.00    -0.206 F 
ATOM     91  C   UNL A   1      50.731  26.628  31.012  1.00  0.00     0.060 A 
BRANCH  91  92
ATOM     92  S   UNL A   1      52.460  26.263  31.381  1.00  0.00     0.124 S 
ATOM     93  O   UNL A   1      53.034  26.178  30.042  1.00  0.00    -0.237 OA
ATOM     94  O   UNL A   1      52.864  27.423  32.170  1.00  0.00    -0.237 OA
ATOM     95  O   UNL A   1      52.393  25.005  32.117  1.00  0.00    -0.744 OA
ENDBRANCH  91  92
ENDBRANCH  59  84
ENDBRANCH  33  34
ENDBRANCH  25  28
ENDBRANCH  23  24
ENDBRANCH   1  23
TORSDOF 16
ENDMDL
MODEL 3
REMARK VINA RESULT:      -9.8      3.730      6.128
REMARK SMILES COc1ccccc1Nc1nc(C)c(C(=O)NCCCNC(=O)c2ccc(-c3c4nc(c(-c5c(F)cc(S(=O)(=O)[O-])cc5F)c5ccc([nH]5)c(-c5c(F)cc(S(=O)(=O)[O-])cc5F)c5nc(c(-c6c(F)cc(S(=O)(=O)[O-])cc6F)c6ccc3[nH]6)C=C5)C=C4)cc2)s1
REMARK SMILES IDX 19 1 18 2 17 3 15 4 16 5 14 7 10 8 11 9 90 10 12 11 13 12
REMARK SMILES IDX 9 13 8 15 3 16 4 17 5 18 7 19 6 20 2 21 1 22 20 23 21 24
REMARK SMILES IDX 22 25 23 27 24 28 25 29 89 30 26 31 88 32 27 33 28 34 29 35
REMARK SMILES IDX 82 36 30 37 87 38 81 39 83 40 31 41 86 42 80 43 79 44 32 46
REMARK SMILES IDX 66 47 45 48 65 49 46 50 49 51 64 52 84 53 47 54 48 55 63 57
REMARK SMILES IDX 85 58 50 59 33 60 34 61 43 62 35 63 36 64 42 65 44 66 37 67
REMARK SMILES IDX 38 68 39 69 40 70 41 71 67 72 68 73 77 74 69 75 70 76 76 77
REMARK SMILES IDX 78 78 71 79 72 80 73 81 74 82 75 83 51 84 52 85 61 86 53 87
REMARK SMILES IDX 54 88 60 89 62 90 55 91 56 92 57 93 58 94 59 95
REMARK H PARENT 17 6 9 14 21 26 83 45 49 56
REMARK Flexibility Score: inf
ROOT
ATOM      1  C   UNL A   1      33.042  28.001  25.332  1.00  0.00     0.042 C 
ENDROOT
BRANCH   1   2
ATOM      2  C   UNL A   1      31.737  28.793  25.353  1.00  0.00     0.118 C 
BRANCH   2   3
ATOM      3  N   UNL A   1      31.170  28.879  24.028  1.00  0.00    -0.351 N 
ATOM      4  C   UNL A   1      30.751  27.943  23.118  1.00  0.00     0.263 C 
ATOM      5  O   UNL A   1      30.287  28.450  22.089  1.00  0.00    -0.268 OA
ATOM      6  H   UNL A   1      31.063  29.805  23.711  1.00  0.00     0.163 HD
BRANCH   4   7
ATOM      7  C   UNL A   1      30.800  26.500  23.322  1.00  0.00     0.117 A 
ATOM      8  C   UNL A   1      31.596  24.190  23.032  1.00  0.00     0.188 A 
ATOM      9  N   UNL A   1      30.723  24.258  24.000  1.00  0.00    -0.225 NA
ATOM     10  S   UNL A   1      31.721  25.625  22.119  1.00  0.00    -0.091 S 
ATOM     11  C   UNL A   1      30.369  25.572  24.267  1.00  0.00     0.063 A 
ATOM     12  C   UNL A   1      29.668  25.713  25.566  1.00  0.00     0.068 C 
BRANCH   8  13
ATOM     13  N   UNL A   1      32.246  23.033  22.794  1.00  0.00    -0.328 N 
ATOM     14  H   UNL A   1      31.789  22.403  22.191  1.00  0.00     0.169 HD
BRANCH  13  15
ATOM     15  C   UNL A   1      33.496  22.602  23.294  1.00  0.00     0.083 A 
ATOM     16  C   UNL A   1      33.566  21.452  24.113  1.00  0.00     0.142 A 
ATOM     17  C   UNL A   1      34.774  21.085  24.721  1.00  0.00     0.048 A 
ATOM     18  C   UNL A   1      35.936  21.817  24.488  1.00  0.00     0.004 A 
ATOM     19  C   UNL A   1      34.690  23.303  23.052  1.00  0.00     0.030 A 
ATOM     20  C   UNL A   1      35.896  22.921  23.647  1.00  0.00     0.002 A 
BRANCH  16  21
ATOM     21  O   UNL A   1      32.488  20.690  24.495  1.00  0.00    -0.495 OA
ATOM     22  C   UNL A   1      32.778  19.588  25.351  1.00  0.00     0.278 C 
ENDBRANCH  16  21
ENDBRANCH  13  15
ENDBRANCH   8  13
ENDBRANCH   4   7
ENDBRANCH   2   3
ENDBRANCH   1   2
BRANCH   1  23
ATOM     23  C   UNL A   1      33.952  28.287  26.520  1.00  0.00     0.118 C 
BRANCH  23  24
ATOM     24  N   UNL A   1      33.742  29.627  27.042  1.00  0.00    -0.352 N 
ATOM     25  C   UNL A   1      34.525  30.376  27.888  1.00  0.00     0.251 C 
ATOM     26  H   UNL A   1      32.913  30.066  26.744  1.00  0.00     0.163 HD
ATOM     27  O   UNL A   1      34.039  31.371  28.419  1.00  0.00    -0.269 OA
BRANCH  25  28
ATOM     28  C   UNL A   1      35.931  29.997  28.165  1.00  0.00     0.039 A 
ATOM     29  C   UNL A   1      36.265  29.537  29.443  1.00  0.00     0.014 A 
ATOM     30  C   UNL A   1      36.932  30.155  27.203  1.00  0.00     0.014 A 
ATOM     31  C   UNL A   1      37.588  29.199  29.741  1.00  0.00     0.010 A 
ATOM     32  C   UNL A   1      38.235  29.743  27.476  1.00  0.00     0.010 A 
ATOM     33  C   UNL A   1      38.581  29.278  28.752  1.00  0.00    -0.014 A 
BRANCH  33  34
ATOM     34  C   UNL A   1      39.993  28.917  29.039  1.00  0.00     0.031 A 
ATOM     35  C   UNL A   1      40.924  29.940  29.636  1.00  0.00     0.074 A 
ATOM     36  C   UNL A   1      40.453  27.695  28.706  1.00  0.00     0.049 A 
ATOM     37  N   UNL A   1      42.208  29.852  29.875  1.00  0.00    -0.248 NA
ATOM     38  C   UNL A   1      40.340  31.245  29.983  1.00  0.00     0.031 C 
ATOM     39  C   UNL A   1      39.658  26.634  28.084  1.00  0.00     0.029 A 
ATOM     40  N   UNL A   1      41.702  27.143  28.831  1.00  0.00    -0.354 N 
ATOM     41  C   UNL A   1      42.588  31.092  30.375  1.00  0.00     0.074 A 
ATOM     42  C   UNL A   1      41.409  31.931  30.361  1.00  0.00     0.031 C 
ATOM     43  C   UNL A   1      40.434  25.555  27.897  1.00  0.00     0.029 A 
ATOM     44  C   UNL A   1      41.788  25.857  28.351  1.00  0.00     0.049 A 
ATOM     45  H   UNL A   1      42.466  27.622  29.226  1.00  0.00     0.167 HD
ATOM     46  C   UNL A   1      43.801  31.488  30.827  1.00  0.00     0.037 A 
ATOM     47  C   UNL A   1      42.841  25.020  28.279  1.00  0.00     0.037 A 
ATOM     48  C   UNL A   1      44.960  30.636  30.870  1.00  0.00     0.049 A 
ATOM     49  C   UNL A   1      44.176  25.477  28.800  1.00  0.00     0.074 A 
ATOM     50  C   UNL A   1      46.221  30.920  31.364  1.00  0.00     0.029 A 
ATOM     51  N   UNL A   1      44.998  29.329  30.405  1.00  0.00    -0.354 N 
ATOM     52  N   UNL A   1      44.505  26.636  29.319  1.00  0.00    -0.248 NA
ATOM     53  C   UNL A   1      45.282  24.512  28.731  1.00  0.00     0.031 C 
ATOM     54  C   UNL A   1      47.032  29.796  31.165  1.00  0.00     0.029 A 
ATOM     55  C   UNL A   1      46.265  28.797  30.586  1.00  0.00     0.049 A 
ATOM     56  H   UNL A   1      44.237  28.850  30.004  1.00  0.00     0.167 HD
ATOM     57  C   UNL A   1      45.848  26.531  29.662  1.00  0.00     0.074 A 
ATOM     58  C   UNL A   1      46.267  25.192  29.301  1.00  0.00     0.031 C 
ATOM     59  C   UNL A   1      46.661  27.459  30.226  1.00  0.00     0.037 A 
BRANCH  46  60
ATOM     60  C   UNL A   1      43.935  32.906  31.314  1.00  0.00     0.058 A 
ATOM     61  C   UNL A   1      43.688  33.251  32.653  1.00  0.00     0.135 A 
ATOM     62  C   UNL A   1      44.334  33.928  30.438  1.00  0.00     0.135 A 
ATOM     63  F   UNL A   1      43.290  32.316  33.530  1.00  0.00    -0.206 F 
ATOM     64  C   UNL A   1      43.798  34.564  33.099  1.00  0.00     0.059 A 
ATOM     65  C   UNL A   1      44.477  35.245  30.870  1.00  0.00     0.059 A 
ATOM     66  F   UNL A   1      44.583  33.657  29.148  1.00  0.00    -0.206 F 
ATOM     67  C   UNL A   1      44.189  35.556  32.198  1.00  0.00     0.060 A 
BRANCH  67  68
ATOM     68  S   UNL A   1      44.320  37.257  32.790  1.00  0.00     0.124 S 
ATOM     69  O   UNL A   1      45.689  37.283  33.295  1.00  0.00    -0.237 OA
ATOM     70  O   UNL A   1      44.077  38.030  31.577  1.00  0.00    -0.237 OA
ATOM     71  O   UNL A   1      43.275  37.345  33.805  1.00  0.00    -0.744 OA
ENDBRANCH  67  68
ENDBRANCH  46  60
BRANCH  47  72
ATOM     72  C   UNL A   1      42.664  23.656  27.714  1.00  0.00     0.058 A 
ATOM     73  C   UNL A   1      42.784  23.428  26.335  1.00  0.00     0.135 A 
ATOM     74  C   UNL A   1      42.398  22.553  28.539  1.00  0.00     0.135 A 
ATOM     75  F   UNL A   1      43.033  24.452  25.505  1.00  0.00    -0.206 F 
ATOM     76  C   UNL A   1      42.635  22.156  25.791  1.00  0.00     0.059 A 
ATOM     77  C   UNL A   1      42.267  21.268  28.022  1.00  0.00     0.059 A 
ATOM     78  F   UNL A   1      42.292  22.716  29.867  1.00  0.00    -0.206 F 
ATOM     79  C   UNL A   1      42.380  21.081  26.644  1.00  0.00     0.060 A 
BRANCH  79  80
ATOM     80  S   UNL A   1      42.245  19.425  25.934  1.00  0.00     0.124 S 
ATOM     81  O   UNL A   1      42.800  18.602  27.002  1.00  0.00    -0.237 OA
ATOM     82  O   UNL A   1      40.808  19.302  25.714  1.00  0.00    -0.237 OA
ATOM     83  O   UNL A   1      43.052  19.516  24.721  1.00  0.00    -0.744 OA
ENDBRANCH  79  80
ENDBRANCH  47  72
BRANCH  59  84
ATOM     84  C   UNL A   1      48.078  27.050  30.516  1.00  0.00     0.058 A 
ATOM     85  C   UNL A   1      49.127  27.360  29.639  1.00  0.00     0.135 A 
ATOM     86  C   UNL A   1      48.394  26.387  31.713  1.00  0.00     0.135 A 
ATOM     87  F   UNL A   1      48.876  27.986  28.478  1.00  0.00    -0.206 F 
ATOM     88  C   UNL A   1      50.441  27.007  29.928  1.00  0.00     0.059 A 
ATOM     89  C   UNL A   1      49.703  26.047  32.035  1.00  0.00     0.059 A 
ATOM     90  F   UNL A   1      47.426  26.078  32.591  1.00  0.00    -0.206 F 
ATOM     91  C   UNL A   1      50.720  26.352  31.129  1.00  0.00     0.060 A 
BRANCH  91  92
ATOM     92  S   UNL A   1      52.433  25.932  31.511  1.00  0.00     0.124 S 
ATOM     93  O   UNL A   1      52.288  24.594  32.076  1.00  0.00    -0.237 OA
ATOM     94  O   UNL A   1      53.073  26.000  30.201  1.00  0.00    -0.237 OA
ATOM     95  O   UNL A   1      52.836  26.972  32.453  1.00  0.00    -0.744 OA
ENDBRANCH  91  92
ENDBRANCH  59  84
ENDBRANCH  33  34
ENDBRANCH  25  28
ENDBRANCH  23  24
ENDBRANCH   1  23
TORSDOF 16
ENDMDL
