MODEL 1
REMARK VINA RESULT:     -12.4      0.000      0.000
REMARK SMILES COc1ccc(-c2nc(NCC(=O)NCCCNC(=O)c3ccc(-c4c5nc(c(-c6c(F)cc(S(=O)(=O)[O-])cc6F)c6ccc([nH]6)c(-c6c(F)cc(S(=O)(=O)[O-])cc6F)c6nc(c(-c7c(F)cc(S(=O)(=O)[O-])cc7F)c7ccc4[nH]7)C=C6)C=C5)cc3)sc2-c2ccc(OC)cc2)cc1
REMARK SMILES IDX 15 1 14 2 12 3 13 4 11 6 10 7 9 9 7 10 8 11 88 12 87 13 6 14
REMARK SMILES IDX 3 15 4 16 98 17 5 18 97 19 2 20 1 21 89 22 90 23 96 24 91 25
REMARK SMILES IDX 95 26 92 27 93 28 94 29 16 30 17 31 18 32 19 33 20 35 21 36
REMARK SMILES IDX 22 37 86 38 23 39 85 40 24 41 25 42 26 43 79 44 27 45 84 46
REMARK SMILES IDX 78 47 80 48 28 49 83 50 77 51 76 52 29 54 63 55 42 56 62 57
REMARK SMILES IDX 43 58 46 59 61 60 81 61 44 62 45 63 60 65 82 66 47 67 30 68
REMARK SMILES IDX 31 69 40 70 32 71 33 72 39 73 41 74 34 75 35 76 36 77 37 78
REMARK SMILES IDX 38 79 64 80 65 81 74 82 66 83 67 84 73 85 75 86 68 87 69 88
REMARK SMILES IDX 70 89 71 90 72 91 48 92 49 93 58 94 50 95 51 96 57 97 59 98
REMARK SMILES IDX 52 99 53 100 54 101 55 102 56 103
REMARK H PARENT 14 5 10 8 18 34 80 53 46 64
REMARK Flexibility Score: inf
ROOT
ATOM      1  C   UNL A   1      36.114  23.373  25.868  1.00  0.00     0.117 C 
ENDROOT
BRANCH   1   2
ATOM      2  N   UNL A   1      35.365  22.194  26.257  1.00  0.00    -0.355 N 
ATOM      3  C   UNL A   1      34.319  21.597  25.609  1.00  0.00     0.239 C 
ATOM      4  O   UNL A   1      33.794  20.610  26.132  1.00  0.00    -0.273 OA
ATOM      5  H   UNL A   1      35.646  21.767  27.098  1.00  0.00     0.163 HD
BRANCH   3   6
ATOM      6  C   UNL A   1      33.863  22.117  24.241  1.00  0.00     0.215 C 
BRANCH   6   7
ATOM      7  N   UNL A   1      32.453  22.467  24.239  1.00  0.00    -0.352 N 
ATOM      8  H   UNL A   1      31.807  21.729  24.161  1.00  0.00     0.163 HD
BRANCH   7   9
ATOM      9  C   UNL A   1      31.951  23.718  24.335  1.00  0.00     0.184 A 
ATOM     10  C   UNL A   1      31.905  25.856  24.925  1.00  0.00     0.091 A 
ATOM     11  N   UNL A   1      32.545  24.635  25.064  1.00  0.00    -0.220 NA
ATOM     12  C   UNL A   1      30.862  25.876  24.009  1.00  0.00     0.064 A 
ATOM     13  S   UNL A   1      30.538  24.272  23.514  1.00  0.00    -0.096 S 
BRANCH  10  14
ATOM     14  C   UNL A   1      32.321  27.035  25.671  1.00  0.00     0.002 A 
ATOM     15  C   UNL A   1      32.986  29.435  26.976  1.00  0.00     0.118 A 
ATOM     16  C   UNL A   1      31.784  28.785  27.262  1.00  0.00     0.047 A 
ATOM     17  C   UNL A   1      33.877  28.859  26.069  1.00  0.00     0.047 A 
ATOM     18  C   UNL A   1      31.450  27.597  26.615  1.00  0.00     0.014 A 
ATOM     19  C   UNL A   1      33.549  27.656  25.423  1.00  0.00     0.014 A 
BRANCH  15  20
ATOM     20  O   UNL A   1      33.176  30.593  27.674  1.00  0.00    -0.497 OA
ATOM     21  C   UNL A   1      34.513  31.084  27.759  1.00  0.00     0.278 C 
ENDBRANCH  15  20
ENDBRANCH  10  14
BRANCH  12  22
ATOM     22  C   UNL A   1      30.099  26.997  23.455  1.00  0.00    -0.006 A 
ATOM     23  C   UNL A   1      28.723  27.129  23.661  1.00  0.00     0.013 A 
ATOM     24  C   UNL A   1      30.767  27.987  22.719  1.00  0.00     0.013 A 
ATOM     25  C   UNL A   1      28.039  28.241  23.159  1.00  0.00     0.047 A 
ATOM     26  C   UNL A   1      30.083  29.101  22.223  1.00  0.00     0.047 A 
ATOM     27  C   UNL A   1      28.716  29.238  22.452  1.00  0.00     0.118 A 
BRANCH  27  28
ATOM     28  O   UNL A   1      27.938  30.284  22.039  1.00  0.00    -0.497 OA
ATOM     29  C   UNL A   1      27.929  31.434  22.879  1.00  0.00     0.278 C 
ENDBRANCH  27  28
ENDBRANCH  12  22
ENDBRANCH   7   9
ENDBRANCH   6   7
ENDBRANCH   3   6
ENDBRANCH   1   2
BRANCH   1  30
ATOM     30  C   UNL A   1      37.607  23.089  25.747  1.00  0.00     0.042 C 
BRANCH  30  31
ATOM     31  C   UNL A   1      38.475  24.133  26.443  1.00  0.00     0.118 C 
BRANCH  31  32
ATOM     32  N   UNL A   1      39.900  23.868  26.284  1.00  0.00    -0.352 N 
ATOM     33  C   UNL A   1      40.985  24.577  26.733  1.00  0.00     0.251 C 
ATOM     34  H   UNL A   1      40.117  23.055  25.773  1.00  0.00     0.163 HD
ATOM     35  O   UNL A   1      42.108  24.295  26.316  1.00  0.00    -0.269 OA
BRANCH  33  36
ATOM     36  C   UNL A   1      40.808  25.681  27.697  1.00  0.00     0.039 A 
ATOM     37  C   UNL A   1      39.716  25.654  28.571  1.00  0.00     0.014 A 
ATOM     38  C   UNL A   1      41.706  26.752  27.731  1.00  0.00     0.014 A 
ATOM     39  C   UNL A   1      39.567  26.662  29.524  1.00  0.00     0.010 A 
ATOM     40  C   UNL A   1      41.599  27.713  28.731  1.00  0.00     0.010 A 
ATOM     41  C   UNL A   1      40.529  27.680  29.638  1.00  0.00    -0.014 A 
BRANCH  41  42
ATOM     42  C   UNL A   1      40.446  28.714  30.700  1.00  0.00     0.031 A 
ATOM     43  C   UNL A   1      41.310  28.603  31.927  1.00  0.00     0.074 A 
ATOM     44  C   UNL A   1      39.537  29.704  30.599  1.00  0.00     0.049 A 
ATOM     45  N   UNL A   1      41.304  29.336  33.010  1.00  0.00    -0.248 NA
ATOM     46  C   UNL A   1      42.292  27.506  31.950  1.00  0.00     0.031 C 
ATOM     47  C   UNL A   1      38.619  29.896  29.473  1.00  0.00     0.029 A 
ATOM     48  N   UNL A   1      39.222  30.724  31.461  1.00  0.00    -0.354 N 
ATOM     49  C   UNL A   1      42.266  28.783  33.847  1.00  0.00     0.074 A 
ATOM     50  C   UNL A   1      42.798  27.621  33.168  1.00  0.00     0.031 C 
ATOM     51  C   UNL A   1      37.855  30.976  29.708  1.00  0.00     0.029 A 
ATOM     52  C   UNL A   1      38.193  31.524  31.019  1.00  0.00     0.049 A 
ATOM     53  H   UNL A   1      39.688  30.870  32.315  1.00  0.00     0.167 HD
ATOM     54  C   UNL A   1      42.681  29.216  35.062  1.00  0.00     0.037 A 
ATOM     55  C   UNL A   1      37.578  32.566  31.609  1.00  0.00     0.037 A 
ATOM     56  C   UNL A   1      42.155  30.383  35.722  1.00  0.00     0.049 A 
ATOM     57  C   UNL A   1      38.036  33.013  32.971  1.00  0.00     0.074 A 
ATOM     58  C   UNL A   1      42.543  30.935  36.930  1.00  0.00     0.029 A 
ATOM     59  N   UNL A   1      41.125  31.174  35.234  1.00  0.00    -0.354 N 
ATOM     60  N   UNL A   1      38.987  32.514  33.724  1.00  0.00    -0.248 NA
ATOM     61  C   UNL A   1      37.343  34.164  33.564  1.00  0.00     0.031 C 
ATOM     62  C   UNL A   1      41.712  32.026  37.199  1.00  0.00     0.029 A 
ATOM     63  C   UNL A   1      40.847  32.195  36.129  1.00  0.00     0.049 A 
ATOM     64  H   UNL A   1      40.660  31.032  34.378  1.00  0.00     0.167 HD
ATOM     65  C   UNL A   1      39.029  33.311  34.862  1.00  0.00     0.074 A 
ATOM     66  C   UNL A   1      38.011  34.328  34.698  1.00  0.00     0.031 C 
ATOM     67  C   UNL A   1      39.840  33.211  35.944  1.00  0.00     0.037 A 
BRANCH  54  68
ATOM     68  C   UNL A   1      43.754  28.423  35.759  1.00  0.00     0.058 A 
ATOM     69  C   UNL A   1      43.443  27.374  36.639  1.00  0.00     0.135 A 
ATOM     70  C   UNL A   1      45.111  28.690  35.516  1.00  0.00     0.135 A 
ATOM     71  F   UNL A   1      42.162  27.083  36.920  1.00  0.00    -0.206 F 
ATOM     72  C   UNL A   1      44.437  26.642  37.279  1.00  0.00     0.059 A 
ATOM     73  C   UNL A   1      46.123  27.949  36.120  1.00  0.00     0.059 A 
ATOM     74  F   UNL A   1      45.467  29.681  34.683  1.00  0.00    -0.206 F 
ATOM     75  C   UNL A   1      45.775  26.936  37.012  1.00  0.00     0.060 A 
BRANCH  75  76
ATOM     76  S   UNL A   1      47.051  25.974  37.849  1.00  0.00     0.124 S 
ATOM     77  O   UNL A   1      46.315  25.448  38.995  1.00  0.00    -0.237 OA
ATOM     78  O   UNL A   1      47.422  24.995  36.832  1.00  0.00    -0.237 OA
ATOM     79  O   UNL A   1      48.075  26.965  38.164  1.00  0.00    -0.744 OA
ENDBRANCH  75  76
ENDBRANCH  54  68
BRANCH  55  80
ATOM     80  C   UNL A   1      36.470  33.268  30.906  1.00  0.00     0.058 A 
ATOM     81  C   UNL A   1      35.139  33.108  31.318  1.00  0.00     0.135 A 
ATOM     82  C   UNL A   1      36.720  34.127  29.824  1.00  0.00     0.135 A 
ATOM     83  F   UNL A   1      34.847  32.290  32.341  1.00  0.00    -0.206 F 
ATOM     84  C   UNL A   1      34.094  33.768  30.680  1.00  0.00     0.059 A 
ATOM     85  C   UNL A   1      35.696  34.821  29.189  1.00  0.00     0.059 A 
ATOM     86  F   UNL A   1      37.978  34.329  29.402  1.00  0.00    -0.206 F 
ATOM     87  C   UNL A   1      34.384  34.629  29.621  1.00  0.00     0.060 A 
BRANCH  87  88
ATOM     88  S   UNL A   1      33.030  35.544  28.854  1.00  0.00     0.124 S 
ATOM     89  O   UNL A   1      32.369  34.500  28.081  1.00  0.00    -0.237 OA
ATOM     90  O   UNL A   1      32.304  36.041  30.019  1.00  0.00    -0.237 OA
ATOM     91  O   UNL A   1      33.719  36.571  28.080  1.00  0.00    -0.744 OA
ENDBRANCH  87  88
ENDBRANCH  55  80
BRANCH  67  92
ATOM     92  C   UNL A   1      39.704  34.253  37.021  1.00  0.00     0.058 A 
ATOM     93  C   UNL A   1      38.975  34.013  38.196  1.00  0.00     0.135 A 
ATOM     94  C   UNL A   1      40.384  35.476  36.909  1.00  0.00     0.135 A 
ATOM     95  F   UNL A   1      38.298  32.864  38.349  1.00  0.00    -0.206 F 
ATOM     96  C   UNL A   1      38.918  34.954  39.219  1.00  0.00     0.059 A 
ATOM     97  C   UNL A   1      40.365  36.420  37.932  1.00  0.00     0.059 A 
ATOM     98  F   UNL A   1      41.102  35.753  35.809  1.00  0.00    -0.206 F 
ATOM     99  C   UNL A   1      39.624  36.151  39.081  1.00  0.00     0.060 A 
BRANCH  99 100
ATOM    100  S   UNL A   1      39.592  37.336  40.443  1.00  0.00     0.124 S 
ATOM    101  O   UNL A   1      38.884  36.584  41.473  1.00  0.00    -0.237 OA
ATOM    102  O   UNL A   1      41.013  37.565  40.689  1.00  0.00    -0.237 OA
ATOM    103  O   UNL A   1      38.867  38.475  39.888  1.00  0.00    -0.744 OA
ENDBRANCH  99 100
ENDBRANCH  67  92
ENDBRANCH  41  42
ENDBRANCH  33  36
ENDBRANCH  31  32
ENDBRANCH  30  31
ENDBRANCH   1  30
TORSDOF 19
ENDMDL
MODEL 2
REMARK VINA RESULT:     -12.1      4.990     12.569
REMARK SMILES COc1ccc(-c2nc(NCC(=O)NCCCNC(=O)c3ccc(-c4c5nc(c(-c6c(F)cc(S(=O)(=O)[O-])cc6F)c6ccc([nH]6)c(-c6c(F)cc(S(=O)(=O)[O-])cc6F)c6nc(c(-c7c(F)cc(S(=O)(=O)[O-])cc7F)c7ccc4[nH]7)C=C6)C=C5)cc3)sc2-c2ccc(OC)cc2)cc1
REMARK SMILES IDX 15 1 14 2 12 3 13 4 11 6 10 7 9 9 7 10 8 11 88 12 87 13 6 14
REMARK SMILES IDX 3 15 4 16 98 17 5 18 97 19 2 20 1 21 89 22 90 23 96 24 91 25
REMARK SMILES IDX 95 26 92 27 93 28 94 29 16 30 17 31 18 32 19 33 20 35 21 36
REMARK SMILES IDX 22 37 86 38 23 39 85 40 24 41 25 42 26 43 79 44 27 45 84 46
REMARK SMILES IDX 78 47 80 48 28 49 83 50 77 51 76 52 29 54 63 55 42 56 62 57
REMARK SMILES IDX 43 58 46 59 61 60 81 61 44 62 45 63 60 65 82 66 47 67 30 68
REMARK SMILES IDX 31 69 40 70 32 71 33 72 39 73 41 74 34 75 35 76 36 77 37 78
REMARK SMILES IDX 38 79 64 80 65 81 74 82 66 83 67 84 73 85 75 86 68 87 69 88
REMARK SMILES IDX 70 89 71 90 72 91 48 92 49 93 58 94 50 95 51 96 57 97 59 98
REMARK SMILES IDX 52 99 53 100 54 101 55 102 56 103
REMARK H PARENT 14 5 10 8 18 34 80 53 46 64
REMARK Flexibility Score: inf
ROOT
ATOM      1  C   UNL A   1      34.289  34.997  28.262  1.00  0.00     0.117 C 
ENDROOT
BRANCH   1   2
ATOM      2  N   UNL A   1      33.494  35.921  29.049  1.00  0.00    -0.355 N 
ATOM      3  C   UNL A   1      33.263  35.911  30.397  1.00  0.00     0.239 C 
ATOM      4  O   UNL A   1      32.523  36.778  30.869  1.00  0.00    -0.273 OA
ATOM      5  H   UNL A   1      33.065  36.650  28.547  1.00  0.00     0.163 HD
BRANCH   3   6
ATOM      6  C   UNL A   1      33.962  34.880  31.291  1.00  0.00     0.215 C 
BRANCH   6   7
ATOM      7  N   UNL A   1      34.975  35.492  32.132  1.00  0.00    -0.352 N 
ATOM      8  H   UNL A   1      34.872  36.450  32.335  1.00  0.00     0.163 HD
BRANCH   7   9
ATOM      9  C   UNL A   1      36.047  34.863  32.661  1.00  0.00     0.184 A 
ATOM     10  C   UNL A   1      37.408  34.152  34.262  1.00  0.00     0.091 A 
ATOM     11  N   UNL A   1      36.332  34.962  33.939  1.00  0.00    -0.220 NA
ATOM     12  C   UNL A   1      37.889  33.366  33.224  1.00  0.00     0.064 A 
ATOM     13  S   UNL A   1      37.126  33.850  31.772  1.00  0.00    -0.096 S 
BRANCH  10  14
ATOM     14  C   UNL A   1      37.973  34.116  35.603  1.00  0.00     0.002 A 
ATOM     15  C   UNL A   1      38.888  34.173  38.261  1.00  0.00     0.118 A 
ATOM     16  C   UNL A   1      37.854  33.313  37.889  1.00  0.00     0.047 A 
ATOM     17  C   UNL A   1      39.496  34.973  37.292  1.00  0.00     0.047 A 
ATOM     18  C   UNL A   1      37.397  33.284  36.573  1.00  0.00     0.014 A 
ATOM     19  C   UNL A   1      39.045  34.938  35.962  1.00  0.00     0.014 A 
BRANCH  15  20
ATOM     20  O   UNL A   1      39.226  34.104  39.582  1.00  0.00    -0.497 OA
ATOM     21  C   UNL A   1      40.600  34.301  39.909  1.00  0.00     0.278 C 
ENDBRANCH  15  20
ENDBRANCH  10  14
BRANCH  12  22
ATOM     22  C   UNL A   1      38.857  32.267  33.228  1.00  0.00    -0.006 A 
ATOM     23  C   UNL A   1      40.211  32.475  33.507  1.00  0.00     0.013 A 
ATOM     24  C   UNL A   1      38.416  30.960  32.971  1.00  0.00     0.013 A 
ATOM     25  C   UNL A   1      41.095  31.391  33.552  1.00  0.00     0.047 A 
ATOM     26  C   UNL A   1      39.300  29.878  33.022  1.00  0.00     0.047 A 
ATOM     27  C   UNL A   1      40.643  30.089  33.325  1.00  0.00     0.118 A 
BRANCH  27  28
ATOM     28  O   UNL A   1      41.601  29.119  33.424  1.00  0.00    -0.497 OA
ATOM     29  C   UNL A   1      41.243  27.951  34.156  1.00  0.00     0.278 C 
ENDBRANCH  27  28
ENDBRANCH  12  22
ENDBRANCH   7   9
ENDBRANCH   6   7
ENDBRANCH   3   6
ENDBRANCH   1   2
BRANCH   1  30
ATOM     30  C   UNL A   1      33.590  33.655  28.075  1.00  0.00     0.042 C 
BRANCH  30  31
ATOM     31  C   UNL A   1      34.416  32.474  28.576  1.00  0.00     0.118 C 
BRANCH  31  32
ATOM     32  N   UNL A   1      33.842  31.190  28.187  1.00  0.00    -0.352 N 
ATOM     33  C   UNL A   1      34.458  29.996  27.913  1.00  0.00     0.251 C 
ATOM     34  H   UNL A   1      32.861  31.180  28.109  1.00  0.00     0.163 HD
ATOM     35  O   UNL A   1      33.810  29.083  27.402  1.00  0.00    -0.269 OA
BRANCH  33  36
ATOM     36  C   UNL A   1      35.892  29.809  28.211  1.00  0.00     0.039 A 
ATOM     37  C   UNL A   1      36.272  29.398  29.493  1.00  0.00     0.014 A 
ATOM     38  C   UNL A   1      36.863  30.054  27.237  1.00  0.00     0.014 A 
ATOM     39  C   UNL A   1      37.620  29.164  29.774  1.00  0.00     0.010 A 
ATOM     40  C   UNL A   1      38.196  29.746  27.495  1.00  0.00     0.010 A 
ATOM     41  C   UNL A   1      38.588  29.299  28.765  1.00  0.00    -0.014 A 
BRANCH  41  42
ATOM     42  C   UNL A   1      40.016  28.969  29.008  1.00  0.00     0.031 A 
ATOM     43  C   UNL A   1      40.958  30.028  29.512  1.00  0.00     0.074 A 
ATOM     44  C   UNL A   1      40.480  27.743  28.696  1.00  0.00     0.049 A 
ATOM     45  N   UNL A   1      42.254  29.970  29.677  1.00  0.00    -0.248 NA
ATOM     46  C   UNL A   1      40.368  31.334  29.849  1.00  0.00     0.031 C 
ATOM     47  C   UNL A   1      39.670  26.642  28.167  1.00  0.00     0.029 A 
ATOM     48  N   UNL A   1      41.747  27.219  28.762  1.00  0.00    -0.354 N 
ATOM     49  C   UNL A   1      42.636  31.230  30.121  1.00  0.00     0.074 A 
ATOM     50  C   UNL A   1      41.443  32.048  30.149  1.00  0.00     0.031 C 
ATOM     51  C   UNL A   1      40.458  25.572  27.971  1.00  0.00     0.029 A 
ATOM     52  C   UNL A   1      41.833  25.922  28.311  1.00  0.00     0.049 A 
ATOM     53  H   UNL A   1      42.521  27.725  29.099  1.00  0.00     0.167 HD
ATOM     54  C   UNL A   1      43.867  31.661  30.491  1.00  0.00     0.037 A 
ATOM     55  C   UNL A   1      42.901  25.113  28.170  1.00  0.00     0.037 A 
ATOM     56  C   UNL A   1      45.045  30.833  30.474  1.00  0.00     0.049 A 
ATOM     57  C   UNL A   1      44.263  25.620  28.560  1.00  0.00     0.074 A 
ATOM     58  C   UNL A   1      46.329  31.159  30.877  1.00  0.00     0.029 A 
ATOM     59  N   UNL A   1      45.088  29.520  30.026  1.00  0.00    -0.354 N 
ATOM     60  N   UNL A   1      44.598  26.797  29.034  1.00  0.00    -0.248 NA
ATOM     61  C   UNL A   1      45.391  24.694  28.401  1.00  0.00     0.031 C 
ATOM     62  C   UNL A   1      47.158  30.062  30.623  1.00  0.00     0.029 A 
ATOM     63  C   UNL A   1      46.381  29.031  30.119  1.00  0.00     0.049 A 
ATOM     64  H   UNL A   1      44.315  29.013  29.691  1.00  0.00     0.167 HD
ATOM     65  C   UNL A   1      45.968  26.739  29.262  1.00  0.00     0.074 A 
ATOM     66  C   UNL A   1      46.400  25.411  28.879  1.00  0.00     0.031 C 
ATOM     67  C   UNL A   1      46.793  27.699  29.748  1.00  0.00     0.037 A 
BRANCH  54  68
ATOM     68  C   UNL A   1      44.002  33.089  30.943  1.00  0.00     0.058 A 
ATOM     69  C   UNL A   1      44.033  34.154  30.026  1.00  0.00     0.135 A 
ATOM     70  C   UNL A   1      44.065  33.405  32.310  1.00  0.00     0.135 A 
ATOM     71  F   UNL A   1      43.990  33.912  28.706  1.00  0.00    -0.206 F 
ATOM     72  C   UNL A   1      44.155  35.474  30.448  1.00  0.00     0.059 A 
ATOM     73  C   UNL A   1      44.155  34.720  32.755  1.00  0.00     0.059 A 
ATOM     74  F   UNL A   1      44.040  32.427  33.230  1.00  0.00    -0.206 F 
ATOM     75  C   UNL A   1      44.215  35.747  31.815  1.00  0.00     0.060 A 
BRANCH  75  76
ATOM     76  S   UNL A   1      44.371  37.466  32.342  1.00  0.00     0.124 S 
ATOM     77  O   UNL A   1      44.193  38.175  31.079  1.00  0.00    -0.237 OA
ATOM     78  O   UNL A   1      43.280  37.597  33.302  1.00  0.00    -0.237 OA
ATOM     79  O   UNL A   1      45.714  37.527  32.911  1.00  0.00    -0.744 OA
ENDBRANCH  75  76
ENDBRANCH  54  68
BRANCH  55  80
ATOM     80  C   UNL A   1      42.720  23.732  27.647  1.00  0.00     0.058 A 
ATOM     81  C   UNL A   1      42.597  22.641  28.520  1.00  0.00     0.135 A 
ATOM     82  C   UNL A   1      42.645  23.477  26.268  1.00  0.00     0.135 A 
ATOM     83  F   UNL A   1      42.671  22.832  29.846  1.00  0.00    -0.206 F 
ATOM     84  C   UNL A   1      42.413  21.346  28.047  1.00  0.00     0.059 A 
ATOM     85  C   UNL A   1      42.433  22.195  25.772  1.00  0.00     0.059 A 
ATOM     86  F   UNL A   1      42.739  24.488  25.391  1.00  0.00    -0.206 F 
ATOM     87  C   UNL A   1      42.324  21.135  26.671  1.00  0.00     0.060 A 
BRANCH  87  88
ATOM     88  S   UNL A   1      42.002  19.463  26.071  1.00  0.00     0.124 S 
ATOM     89  O   UNL A   1      42.910  19.377  24.935  1.00  0.00    -0.237 OA
ATOM     90  O   UNL A   1      42.348  18.653  27.236  1.00  0.00    -0.237 OA
ATOM     91  O   UNL A   1      40.579  19.494  25.749  1.00  0.00    -0.744 OA
ENDBRANCH  87  88
ENDBRANCH  55  80
BRANCH  67  92
ATOM     92  C   UNL A   1      48.242  27.344  29.945  1.00  0.00     0.058 A 
ATOM     93  C   UNL A   1      49.202  27.565  28.945  1.00  0.00     0.135 A 
ATOM     94  C   UNL A   1      48.686  26.854  31.184  1.00  0.00     0.135 A 
ATOM     95  F   UNL A   1      48.829  28.023  27.740  1.00  0.00    -0.206 F 
ATOM     96  C   UNL A   1      50.551  27.305  29.165  1.00  0.00     0.059 A 
ATOM     97  C   UNL A   1      50.034  26.614  31.436  1.00  0.00     0.059 A 
ATOM     98  F   UNL A   1      47.810  26.632  32.177  1.00  0.00    -0.206 F 
ATOM     99  C   UNL A   1      50.957  26.837  30.417  1.00  0.00     0.060 A 
BRANCH  99 100
ATOM    100  S   UNL A   1      52.719  26.564  30.706  1.00  0.00     0.124 S 
ATOM    101  O   UNL A   1      52.700  25.352  31.518  1.00  0.00    -0.237 OA
ATOM    102  O   UNL A   1      53.237  26.411  29.350  1.00  0.00    -0.237 OA
ATOM    103  O   UNL A   1      53.143  27.776  31.399  1.00  0.00    -0.744 OA
ENDBRANCH  99 100
ENDBRANCH  67  92
ENDBRANCH  41  42
ENDBRANCH  33  36
ENDBRANCH  31  32
ENDBRANCH  30  31
ENDBRANCH   1  30
TORSDOF 19
ENDMDL
MODEL 3
REMARK VINA RESULT:     -12.1      0.419      8.036
REMARK SMILES COc1ccc(-c2nc(NCC(=O)NCCCNC(=O)c3ccc(-c4c5nc(c(-c6c(F)cc(S(=O)(=O)[O-])cc6F)c6ccc([nH]6)c(-c6c(F)cc(S(=O)(=O)[O-])cc6F)c6nc(c(-c7c(F)cc(S(=O)(=O)[O-])cc7F)c7ccc4[nH]7)C=C6)C=C5)cc3)sc2-c2ccc(OC)cc2)cc1
REMARK SMILES IDX 15 1 14 2 12 3 13 4 11 6 10 7 9 9 7 10 8 11 88 12 87 13 6 14
REMARK SMILES IDX 3 15 4 16 98 17 5 18 97 19 2 20 1 21 89 22 90 23 96 24 91 25
REMARK SMILES IDX 95 26 92 27 93 28 94 29 16 30 17 31 18 32 19 33 20 35 21 36
REMARK SMILES IDX 22 37 86 38 23 39 85 40 24 41 25 42 26 43 79 44 27 45 84 46
REMARK SMILES IDX 78 47 80 48 28 49 83 50 77 51 76 52 29 54 63 55 42 56 62 57
REMARK SMILES IDX 43 58 46 59 61 60 81 61 44 62 45 63 60 65 82 66 47 67 30 68
REMARK SMILES IDX 31 69 40 70 32 71 33 72 39 73 41 74 34 75 35 76 36 77 37 78
REMARK SMILES IDX 38 79 64 80 65 81 74 82 66 83 67 84 73 85 75 86 68 87 69 88
REMARK SMILES IDX 70 89 71 90 72 91 48 92 49 93 58 94 50 95 51 96 57 97 59 98
REMARK SMILES IDX 52 99 53 100 54 101 55 102 56 103
REMARK H PARENT 14 5 10 8 18 34 80 53 46 64
REMARK Flexibility Score: inf
ROOT
ATOM      1  C   UNL A   1      36.005  23.115  26.041  1.00  0.00     0.117 C 
ENDROOT
BRANCH   1   2
ATOM      2  N   UNL A   1      35.569  21.750  25.819  1.00  0.00    -0.355 N 
ATOM      3  C   UNL A   1      34.633  21.288  24.935  1.00  0.00     0.239 C 
ATOM      4  O   UNL A   1      34.384  20.080  24.927  1.00  0.00    -0.273 OA
ATOM      5  H   UNL A   1      36.004  21.066  26.377  1.00  0.00     0.163 HD
BRANCH   3   6
ATOM      6  C   UNL A   1      33.965  22.251  23.947  1.00  0.00     0.215 C 
BRANCH   6   7
ATOM      7  N   UNL A   1      32.629  22.625  24.376  1.00  0.00    -0.352 N 
ATOM      8  H   UNL A   1      32.020  21.897  24.635  1.00  0.00     0.163 HD
BRANCH   7   9
ATOM      9  C   UNL A   1      32.149  23.886  24.453  1.00  0.00     0.184 A 
ATOM     10  C   UNL A   1      32.120  26.023  25.046  1.00  0.00     0.091 A 
ATOM     11  N   UNL A   1      32.726  24.788  25.212  1.00  0.00    -0.220 NA
ATOM     12  C   UNL A   1      31.121  26.067  24.083  1.00  0.00     0.064 A 
ATOM     13  S   UNL A   1      30.788  24.471  23.568  1.00  0.00    -0.096 S 
BRANCH  10  14
ATOM     14  C   UNL A   1      32.523  27.192  25.815  1.00  0.00     0.002 A 
ATOM     15  C   UNL A   1      33.180  29.576  27.153  1.00  0.00     0.118 A 
ATOM     16  C   UNL A   1      31.939  28.970  27.358  1.00  0.00     0.047 A 
ATOM     17  C   UNL A   1      34.112  28.962  26.313  1.00  0.00     0.047 A 
ATOM     18  C   UNL A   1      31.610  27.790  26.693  1.00  0.00     0.014 A 
ATOM     19  C   UNL A   1      33.787  27.768  25.651  1.00  0.00     0.014 A 
BRANCH  15  20
ATOM     20  O   UNL A   1      33.363  30.730  27.859  1.00  0.00    -0.497 OA
ATOM     21  C   UNL A   1      34.605  31.408  27.679  1.00  0.00     0.278 C 
ENDBRANCH  15  20
ENDBRANCH  10  14
BRANCH  12  22
ATOM     22  C   UNL A   1      30.409  27.205  23.497  1.00  0.00    -0.006 A 
ATOM     23  C   UNL A   1      31.072  28.198  22.771  1.00  0.00     0.013 A 
ATOM     24  C   UNL A   1      29.016  27.293  23.641  1.00  0.00     0.013 A 
ATOM     25  C   UNL A   1      30.349  29.242  22.183  1.00  0.00     0.047 A 
ATOM     26  C   UNL A   1      28.295  28.333  23.049  1.00  0.00     0.047 A 
ATOM     27  C   UNL A   1      28.959  29.307  22.307  1.00  0.00     0.118 A 
BRANCH  27  28
ATOM     28  O   UNL A   1      28.370  30.361  21.664  1.00  0.00    -0.497 OA
ATOM     29  C   UNL A   1      28.043  31.488  22.469  1.00  0.00     0.278 C 
ENDBRANCH  27  28
ENDBRANCH  12  22
ENDBRANCH   7   9
ENDBRANCH   6   7
ENDBRANCH   3   6
ENDBRANCH   1   2
BRANCH   1  30
ATOM     30  C   UNL A   1      37.421  23.356  25.528  1.00  0.00     0.042 C 
BRANCH  30  31
ATOM     31  C   UNL A   1      38.286  24.148  26.504  1.00  0.00     0.118 C 
BRANCH  31  32
ATOM     32  N   UNL A   1      39.697  24.136  26.132  1.00  0.00    -0.352 N 
ATOM     33  C   UNL A   1      40.716  24.971  26.514  1.00  0.00     0.251 C 
ATOM     34  H   UNL A   1      39.956  23.419  25.511  1.00  0.00     0.163 HD
ATOM     35  O   UNL A   1      41.795  24.917  25.926  1.00  0.00    -0.269 OA
BRANCH  33  36
ATOM     36  C   UNL A   1      40.517  25.940  27.609  1.00  0.00     0.039 A 
ATOM     37  C   UNL A   1      39.541  25.682  28.577  1.00  0.00     0.014 A 
ATOM     38  C   UNL A   1      41.279  27.110  27.676  1.00  0.00     0.014 A 
ATOM     39  C   UNL A   1      39.379  26.562  29.649  1.00  0.00     0.010 A 
ATOM     40  C   UNL A   1      41.170  27.944  28.785  1.00  0.00     0.010 A 
ATOM     41  C   UNL A   1      40.219  27.680  29.783  1.00  0.00    -0.014 A 
BRANCH  41  42
ATOM     42  C   UNL A   1      40.133  28.582  30.959  1.00  0.00     0.031 A 
ATOM     43  C   UNL A   1      39.166  29.734  30.954  1.00  0.00     0.074 A 
ATOM     44  C   UNL A   1      40.981  28.415  31.992  1.00  0.00     0.049 A 
ATOM     45  N   UNL A   1      39.021  30.695  31.830  1.00  0.00    -0.248 NA
ATOM     46  C   UNL A   1      38.259  29.835  29.798  1.00  0.00     0.031 C 
ATOM     47  C   UNL A   1      41.988  27.355  32.096  1.00  0.00     0.029 A 
ATOM     48  N   UNL A   1      41.147  29.142  33.145  1.00  0.00    -0.354 N 
ATOM     49  C   UNL A   1      38.022  31.520  31.326  1.00  0.00     0.074 A 
ATOM     50  C   UNL A   1      37.633  30.976  30.043  1.00  0.00     0.031 C 
ATOM     51  C   UNL A   1      42.654  27.493  33.255  1.00  0.00     0.029 A 
ATOM     52  C   UNL A   1      42.159  28.676  33.952  1.00  0.00     0.049 A 
ATOM     53  H   UNL A   1      40.593  29.923  33.372  1.00  0.00     0.167 HD
ATOM     54  C   UNL A   1      37.466  32.618  31.891  1.00  0.00     0.037 A 
ATOM     55  C   UNL A   1      42.646  29.157  35.112  1.00  0.00     0.037 A 
ATOM     56  C   UNL A   1      37.850  33.142  33.176  1.00  0.00     0.049 A 
ATOM     57  C   UNL A   1      42.032  30.395  35.708  1.00  0.00     0.074 A 
ATOM     58  C   UNL A   1      37.313  34.219  33.860  1.00  0.00     0.029 A 
ATOM     59  N   UNL A   1      38.868  32.633  33.969  1.00  0.00    -0.354 N 
ATOM     60  N   UNL A   1      41.048  31.130  35.247  1.00  0.00    -0.248 NA
ATOM     61  C   UNL A   1      42.590  30.870  36.982  1.00  0.00     0.031 C 
ATOM     62  C   UNL A   1      38.042  34.395  35.040  1.00  0.00     0.029 A 
ATOM     63  C   UNL A   1      38.993  33.389  35.124  1.00  0.00     0.049 A 
ATOM     64  H   UNL A   1      39.421  31.850  33.746  1.00  0.00     0.167 HD
ATOM     65  C   UNL A   1      40.847  32.131  36.190  1.00  0.00     0.074 A 
ATOM     66  C   UNL A   1      41.808  31.906  37.250  1.00  0.00     0.031 C 
ATOM     67  C   UNL A   1      39.945  33.144  36.179  1.00  0.00     0.037 A 
BRANCH  54  68
ATOM     68  C   UNL A   1      36.385  33.330  31.123  1.00  0.00     0.058 A 
ATOM     69  C   UNL A   1      36.666  34.056  29.953  1.00  0.00     0.135 A 
ATOM     70  C   UNL A   1      35.045  33.256  31.538  1.00  0.00     0.135 A 
ATOM     71  F   UNL A   1      37.930  34.172  29.516  1.00  0.00    -0.206 F 
ATOM     72  C   UNL A   1      35.664  34.710  29.244  1.00  0.00     0.059 A 
ATOM     73  C   UNL A   1      34.022  33.876  30.826  1.00  0.00     0.059 A 
ATOM     74  F   UNL A   1      34.719  32.577  32.649  1.00  0.00    -0.206 F 
ATOM     75  C   UNL A   1      34.344  34.613  29.689  1.00  0.00     0.060 A 
BRANCH  75  76
ATOM     76  S   UNL A   1      33.058  35.467  28.754  1.00  0.00     0.124 S 
ATOM     77  O   UNL A   1      33.843  36.439  27.999  1.00  0.00    -0.237 OA
ATOM     78  O   UNL A   1      32.471  34.383  27.972  1.00  0.00    -0.237 OA
ATOM     79  O   UNL A   1      32.197  36.026  29.791  1.00  0.00    -0.744 OA
ENDBRANCH  75  76
ENDBRANCH  54  68
BRANCH  55  80
ATOM     80  C   UNL A   1      43.767  28.455  35.792  1.00  0.00     0.058 A 
ATOM     81  C   UNL A   1      43.526  27.365  36.642  1.00  0.00     0.135 A 
ATOM     82  C   UNL A   1      45.101  28.844  35.592  1.00  0.00     0.135 A 
ATOM     83  F   UNL A   1      42.268  26.961  36.873  1.00  0.00    -0.206 F 
ATOM     84  C   UNL A   1      44.564  26.689  37.274  1.00  0.00     0.059 A 
ATOM     85  C   UNL A   1      46.159  28.167  36.190  1.00  0.00     0.059 A 
ATOM     86  F   UNL A   1      45.388  29.869  34.775  1.00  0.00    -0.206 F 
ATOM     87  C   UNL A   1      45.878  27.094  37.035  1.00  0.00     0.060 A 
BRANCH  87  88
ATOM     88  S   UNL A   1      47.223  26.158  37.794  1.00  0.00     0.124 S 
ATOM     89  O   UNL A   1      46.518  24.987  38.300  1.00  0.00    -0.237 OA
ATOM     90  O   UNL A   1      48.114  25.934  36.660  1.00  0.00    -0.237 OA
ATOM     91  O   UNL A   1      47.738  27.077  38.805  1.00  0.00    -0.744 OA
ENDBRANCH  87  88
ENDBRANCH  55  80
BRANCH  67  92
ATOM     92  C   UNL A   1      39.910  34.064  37.369  1.00  0.00     0.058 A 
ATOM     93  C   UNL A   1      40.617  35.276  37.389  1.00  0.00     0.135 A 
ATOM     94  C   UNL A   1      39.089  33.765  38.469  1.00  0.00     0.135 A 
ATOM     95  F   UNL A   1      41.424  35.605  36.368  1.00  0.00    -0.206 F 
ATOM     96  C   UNL A   1      40.518  36.156  38.463  1.00  0.00     0.059 A 
ATOM     97  C   UNL A   1      38.952  34.643  39.540  1.00  0.00     0.059 A 
ATOM     98  F   UNL A   1      38.386  32.621  38.496  1.00  0.00    -0.206 F 
ATOM     99  C   UNL A   1      39.676  35.834  39.529  1.00  0.00     0.060 A 
BRANCH  99 100
ATOM    100  S   UNL A   1      39.509  37.014  40.886  1.00  0.00     0.124 S 
ATOM    101  O   UNL A   1      40.904  37.303  41.199  1.00  0.00    -0.237 OA
ATOM    102  O   UNL A   1      38.760  38.100  40.262  1.00  0.00    -0.237 OA
ATOM    103  O   UNL A   1      38.780  36.263  41.904  1.00  0.00    -0.744 OA
ENDBRANCH  99 100
ENDBRANCH  67  92
ENDBRANCH  41  42
ENDBRANCH  33  36
ENDBRANCH  31  32
ENDBRANCH  30  31
ENDBRANCH   1  30
TORSDOF 19
ENDMDL
