MODEL 1
REMARK VINA RESULT:     -12.5      0.000      0.000
REMARK SMILES Cc1ccc(-c2ncccc2C(=O)NCCCNC(=O)c2ccc(-c3c4nc(c(-c5c(F)cc(S(=O)(=O)[O-])cc5F)c5ccc([nH]5)c(-c5c(F)cc(S(=O)(=O)[O-])cc5F)c5nc(c(-c6c(F)cc(S(=O)(=O)[O-])cc6F)c6ccc3[nH]6)C=C5)C=C4)cc2)c(Cl)c1
REMARK SMILES IDX 17 1 16 2 15 3 14 4 12 5 13 6 11 8 6 9 7 10 8 11 10 12 9 13
REMARK SMILES IDX 5 14 1 15 2 16 3 17 89 18 4 19 87 20 88 21 18 22 19 23 20 25
REMARK SMILES IDX 21 26 22 27 86 28 23 29 85 30 24 31 25 32 26 33 79 34 27 35
REMARK SMILES IDX 84 36 78 37 80 38 28 39 83 40 77 41 76 42 29 44 63 45 42 46
REMARK SMILES IDX 62 47 43 48 46 49 61 50 81 51 44 52 45 53 60 55 82 56 47 57
REMARK SMILES IDX 30 58 31 59 40 60 32 61 33 62 39 63 41 64 34 65 35 66 36 67
REMARK SMILES IDX 37 68 38 69 64 70 65 71 74 72 66 73 67 74 73 75 75 76 68 77
REMARK SMILES IDX 69 78 70 79 71 80 72 81 48 82 49 83 58 84 50 85 51 86 57 87
REMARK SMILES IDX 59 88 52 89 53 90 54 91 55 92 56 93
REMARK H PARENT 14 7 18 24 80 43 46 54
REMARK Flexibility Score: inf
ROOT
ATOM      1  C   UNL A   1      40.042  23.257  27.145  1.00  0.00     0.118 C 
ENDROOT
BRANCH   1   2
ATOM      2  C   UNL A   1      38.790  22.662  26.494  1.00  0.00     0.042 C 
BRANCH   2   3
ATOM      3  C   UNL A   1      37.813  23.715  25.967  1.00  0.00     0.118 C 
BRANCH   3   4
ATOM      4  N   UNL A   1      37.507  23.494  24.567  1.00  0.00    -0.352 N 
ATOM      5  C   UNL A   1      36.475  22.936  23.858  1.00  0.00     0.253 C 
ATOM      6  O   UNL A   1      36.642  22.975  22.640  1.00  0.00    -0.269 OA
ATOM      7  H   UNL A   1      38.220  23.828  23.977  1.00  0.00     0.163 HD
BRANCH   5   8
ATOM      8  C   UNL A   1      35.226  22.352  24.449  1.00  0.00     0.066 A 
ATOM      9  C   UNL A   1      34.070  23.144  24.627  1.00  0.00     0.084 A 
ATOM     10  N   UNL A   1      32.937  22.678  25.240  1.00  0.00    -0.255 NA
ATOM     11  C   UNL A   1      32.925  21.406  25.673  1.00  0.00     0.112 A 
ATOM     12  C   UNL A   1      35.120  21.013  24.842  1.00  0.00     0.018 A 
ATOM     13  C   UNL A   1      33.975  20.536  25.480  1.00  0.00     0.021 A 
BRANCH   9  14
ATOM     14  C   UNL A   1      33.884  24.508  24.102  1.00  0.00     0.020 A 
ATOM     15  C   UNL A   1      33.226  28.576  22.752  1.00  0.00     0.044 C 
ATOM     16  C   UNL A   1      33.484  27.175  23.218  1.00  0.00    -0.050 A 
ATOM     17  C   UNL A   1      33.862  26.920  24.537  1.00  0.00     0.004 A 
ATOM     18  C   UNL A   1      33.349  26.100  22.331  1.00  0.00     0.024 A 
ATOM     19  C   UNL A   1      34.074  25.607  24.965  1.00  0.00     0.012 A 
ATOM     20  C   UNL A   1      33.540  24.780  22.768  1.00  0.00     0.050 A 
ATOM     21  Cl  UNL A   1      33.303  23.517  21.606  1.00  0.00    -0.084 Cl
ENDBRANCH   9  14
ENDBRANCH   5   8
ENDBRANCH   3   4
ENDBRANCH   2   3
ENDBRANCH   1   2
BRANCH   1  22
ATOM     22  N   UNL A   1      40.939  23.852  26.163  1.00  0.00    -0.352 N 
ATOM     23  C   UNL A   1      41.404  25.138  26.046  1.00  0.00     0.251 C 
ATOM     24  H   UNL A   1      41.265  23.231  25.470  1.00  0.00     0.163 HD
ATOM     25  O   UNL A   1      41.947  25.484  25.001  1.00  0.00    -0.269 OA
BRANCH  23  26
ATOM     26  C   UNL A   1      41.259  26.102  27.159  1.00  0.00     0.039 A 
ATOM     27  C   UNL A   1      40.230  25.909  28.087  1.00  0.00     0.014 A 
ATOM     28  C   UNL A   1      42.079  27.230  27.253  1.00  0.00     0.014 A 
ATOM     29  C   UNL A   1      40.056  26.818  29.134  1.00  0.00     0.010 A 
ATOM     30  C   UNL A   1      41.944  28.102  28.332  1.00  0.00     0.010 A 
ATOM     31  C   UNL A   1      40.926  27.910  29.280  1.00  0.00    -0.014 A 
BRANCH  31  32
ATOM     32  C   UNL A   1      40.785  28.864  30.410  1.00  0.00     0.031 A 
ATOM     33  C   UNL A   1      41.659  28.727  31.628  1.00  0.00     0.074 A 
ATOM     34  C   UNL A   1      39.829  29.813  30.364  1.00  0.00     0.049 A 
ATOM     35  N   UNL A   1      41.621  29.399  32.751  1.00  0.00    -0.248 NA
ATOM     36  C   UNL A   1      42.693  27.680  31.590  1.00  0.00     0.031 C 
ATOM     37  C   UNL A   1      38.896  30.021  29.255  1.00  0.00     0.029 A 
ATOM     38  N   UNL A   1      39.474  30.772  31.280  1.00  0.00    -0.354 N 
ATOM     39  C   UNL A   1      42.612  28.848  33.556  1.00  0.00     0.074 A 
ATOM     40  C   UNL A   1      43.203  27.757  32.810  1.00  0.00     0.031 C 
ATOM     41  C   UNL A   1      38.086  31.051  29.548  1.00  0.00     0.029 A 
ATOM     42  C   UNL A   1      38.416  31.553  30.879  1.00  0.00     0.049 A 
ATOM     43  H   UNL A   1      39.933  30.889  32.143  1.00  0.00     0.167 HD
ATOM     44  C   UNL A   1      43.007  29.229  34.795  1.00  0.00     0.037 A 
ATOM     45  C   UNL A   1      37.777  32.554  31.515  1.00  0.00     0.037 A 
ATOM     46  C   UNL A   1      42.435  30.335  35.519  1.00  0.00     0.049 A 
ATOM     47  C   UNL A   1      38.239  32.964  32.887  1.00  0.00     0.074 A 
ATOM     48  C   UNL A   1      42.797  30.830  36.760  1.00  0.00     0.029 A 
ATOM     49  N   UNL A   1      41.386  31.121  35.065  1.00  0.00    -0.354 N 
ATOM     50  N   UNL A   1      39.207  32.458  33.615  1.00  0.00    -0.248 NA
ATOM     51  C   UNL A   1      37.527  34.080  33.523  1.00  0.00     0.031 C 
ATOM     52  C   UNL A   1      41.946  31.897  37.070  1.00  0.00     0.029 A 
ATOM     53  C   UNL A   1      41.081  32.092  36.004  1.00  0.00     0.049 A 
ATOM     54  H   UNL A   1      40.927  31.006  34.202  1.00  0.00     0.167 HD
ATOM     55  C   UNL A   1      39.237  33.214  34.782  1.00  0.00     0.074 A 
ATOM     56  C   UNL A   1      38.199  34.216  34.658  1.00  0.00     0.031 C 
ATOM     57  C   UNL A   1      40.051  33.090  35.858  1.00  0.00     0.037 A 
BRANCH  44  58
ATOM     58  C   UNL A   1      44.118  28.451  35.444  1.00  0.00     0.058 A 
ATOM     59  C   UNL A   1      45.462  28.829  35.298  1.00  0.00     0.135 A 
ATOM     60  C   UNL A   1      43.837  27.339  36.255  1.00  0.00     0.135 A 
ATOM     61  F   UNL A   1      45.789  29.875  34.523  1.00  0.00    -0.206 F 
ATOM     62  C   UNL A   1      46.489  28.119  35.910  1.00  0.00     0.059 A 
ATOM     63  C   UNL A   1      44.846  26.628  36.897  1.00  0.00     0.059 A 
ATOM     64  F   UNL A   1      42.569  26.932  36.429  1.00  0.00    -0.206 F 
ATOM     65  C   UNL A   1      46.172  27.017  36.707  1.00  0.00     0.060 A 
BRANCH  65  66
ATOM     66  S   UNL A   1      47.516  26.111  37.500  1.00  0.00     0.124 S 
ATOM     67  O   UNL A   1      47.188  26.283  38.912  1.00  0.00    -0.237 OA
ATOM     68  O   UNL A   1      47.341  24.763  36.969  1.00  0.00    -0.237 OA
ATOM     69  O   UNL A   1      48.713  26.809  37.043  1.00  0.00    -0.744 OA
ENDBRANCH  65  66
ENDBRANCH  44  58
BRANCH  45  70
ATOM     70  C   UNL A   1      36.645  33.254  30.853  1.00  0.00     0.058 A 
ATOM     71  C   UNL A   1      35.328  33.073  31.298  1.00  0.00     0.135 A 
ATOM     72  C   UNL A   1      36.857  34.119  29.767  1.00  0.00     0.135 A 
ATOM     73  F   UNL A   1      35.076  32.252  32.329  1.00  0.00    -0.206 F 
ATOM     74  C   UNL A   1      34.255  33.707  30.679  1.00  0.00     0.059 A 
ATOM     75  C   UNL A   1      35.802  34.783  29.148  1.00  0.00     0.059 A 
ATOM     76  F   UNL A   1      38.100  34.341  29.316  1.00  0.00    -0.206 F 
ATOM     77  C   UNL A   1      34.503  34.561  29.603  1.00  0.00     0.060 A 
BRANCH  77  78
ATOM     78  S   UNL A   1      33.110  35.411  28.830  1.00  0.00     0.124 S 
ATOM     79  O   UNL A   1      33.790  36.435  28.046  1.00  0.00    -0.237 OA
ATOM     80  O   UNL A   1      32.478  34.338  28.068  1.00  0.00    -0.237 OA
ATOM     81  O   UNL A   1      32.341  35.895  29.972  1.00  0.00    -0.744 OA
ENDBRANCH  77  78
ENDBRANCH  45  70
BRANCH  57  82
ATOM     82  C   UNL A   1      39.880  34.084  36.972  1.00  0.00     0.058 A 
ATOM     83  C   UNL A   1      40.461  35.359  36.917  1.00  0.00     0.135 A 
ATOM     84  C   UNL A   1      39.081  33.772  38.084  1.00  0.00     0.135 A 
ATOM     85  F   UNL A   1      41.240  35.703  35.878  1.00  0.00    -0.206 F 
ATOM     86  C   UNL A   1      40.274  36.285  37.938  1.00  0.00     0.059 A 
ATOM     87  C   UNL A   1      38.860  34.691  39.103  1.00  0.00     0.059 A 
ATOM     88  F   UNL A   1      38.494  32.568  38.179  1.00  0.00    -0.206 F 
ATOM     89  C   UNL A   1      39.471  35.942  39.027  1.00  0.00     0.060 A 
BRANCH  89  90
ATOM     90  S   UNL A   1      39.206  37.165  40.328  1.00  0.00     0.124 S 
ATOM     91  O   UNL A   1      38.515  38.223  39.600  1.00  0.00    -0.237 OA
ATOM     92  O   UNL A   1      38.397  36.427  41.294  1.00  0.00    -0.237 OA
ATOM     93  O   UNL A   1      40.560  37.487  40.771  1.00  0.00    -0.744 OA
ENDBRANCH  89  90
ENDBRANCH  57  82
ENDBRANCH  31  32
ENDBRANCH  23  26
ENDBRANCH   1  22
TORSDOF 14
ENDMDL
MODEL 2
REMARK VINA RESULT:     -12.4      6.570     12.143
REMARK SMILES Cc1ccc(-c2ncccc2C(=O)NCCCNC(=O)c2ccc(-c3c4nc(c(-c5c(F)cc(S(=O)(=O)[O-])cc5F)c5ccc([nH]5)c(-c5c(F)cc(S(=O)(=O)[O-])cc5F)c5nc(c(-c6c(F)cc(S(=O)(=O)[O-])cc6F)c6ccc3[nH]6)C=C5)C=C4)cc2)c(Cl)c1
REMARK SMILES IDX 17 1 16 2 15 3 14 4 12 5 13 6 11 8 6 9 7 10 8 11 10 12 9 13
REMARK SMILES IDX 5 14 1 15 2 16 3 17 89 18 4 19 87 20 88 21 18 22 19 23 20 25
REMARK SMILES IDX 21 26 22 27 86 28 23 29 85 30 24 31 25 32 26 33 79 34 27 35
REMARK SMILES IDX 84 36 78 37 80 38 28 39 83 40 77 41 76 42 29 44 63 45 42 46
REMARK SMILES IDX 62 47 43 48 46 49 61 50 81 51 44 52 45 53 60 55 82 56 47 57
REMARK SMILES IDX 30 58 31 59 40 60 32 61 33 62 39 63 41 64 34 65 35 66 36 67
REMARK SMILES IDX 37 68 38 69 64 70 65 71 74 72 66 73 67 74 73 75 75 76 68 77
REMARK SMILES IDX 69 78 70 79 71 80 72 81 48 82 49 83 58 84 50 85 51 86 57 87
REMARK SMILES IDX 59 88 52 89 53 90 54 91 55 92 56 93
REMARK H PARENT 14 7 18 24 80 43 46 54
REMARK Flexibility Score: inf
ROOT
ATOM      1  C   UNL A   1      35.562  31.461  28.283  1.00  0.00     0.118 C 
ENDROOT
BRANCH   1   2
ATOM      2  C   UNL A   1      34.288  31.006  27.563  1.00  0.00     0.042 C 
BRANCH   2   3
ATOM      3  C   UNL A   1      34.288  29.521  27.196  1.00  0.00     0.118 C 
BRANCH   3   4
ATOM      4  N   UNL A   1      33.080  28.866  27.659  1.00  0.00    -0.352 N 
ATOM      5  C   UNL A   1      31.984  28.288  27.073  1.00  0.00     0.253 C 
ATOM      6  O   UNL A   1      31.179  27.832  27.884  1.00  0.00    -0.269 OA
ATOM      7  H   UNL A   1      33.036  28.826  28.641  1.00  0.00     0.163 HD
BRANCH   5   8
ATOM      8  C   UNL A   1      31.748  28.164  25.596  1.00  0.00     0.066 A 
ATOM      9  C   UNL A   1      32.097  26.983  24.904  1.00  0.00     0.084 A 
ATOM     10  N   UNL A   1      31.979  26.856  23.546  1.00  0.00    -0.255 NA
ATOM     11  C   UNL A   1      31.494  27.898  22.848  1.00  0.00     0.112 A 
ATOM     12  C   UNL A   1      31.168  29.179  24.827  1.00  0.00     0.018 A 
ATOM     13  C   UNL A   1      31.059  29.062  23.441  1.00  0.00     0.021 A 
BRANCH   9  14
ATOM     14  C   UNL A   1      32.524  25.721  25.534  1.00  0.00     0.020 A 
ATOM     15  C   UNL A   1      33.931  21.981  27.218  1.00  0.00     0.044 C 
ATOM     16  C   UNL A   1      33.455  23.289  26.661  1.00  0.00    -0.050 A 
ATOM     17  C   UNL A   1      34.359  24.209  26.127  1.00  0.00     0.004 A 
ATOM     18  C   UNL A   1      32.091  23.605  26.670  1.00  0.00     0.024 A 
ATOM     19  C   UNL A   1      33.899  25.413  25.588  1.00  0.00     0.012 A 
ATOM     20  C   UNL A   1      31.628  24.805  26.108  1.00  0.00     0.050 A 
ATOM     21  Cl  UNL A   1      29.918  25.082  26.127  1.00  0.00    -0.084 Cl
ENDBRANCH   9  14
ENDBRANCH   5   8
ENDBRANCH   3   4
ENDBRANCH   2   3
ENDBRANCH   1   2
BRANCH   1  22
ATOM     22  N   UNL A   1      35.470  31.277  29.725  1.00  0.00    -0.352 N 
ATOM     23  C   UNL A   1      36.303  30.616  30.592  1.00  0.00     0.251 C 
ATOM     24  H   UNL A   1      34.683  31.695  30.146  1.00  0.00     0.163 HD
ATOM     25  O   UNL A   1      35.908  30.367  31.727  1.00  0.00    -0.269 OA
BRANCH  23  26
ATOM     26  C   UNL A   1      37.662  30.205  30.175  1.00  0.00     0.039 A 
ATOM     27  C   UNL A   1      37.956  30.139  28.809  1.00  0.00     0.014 A 
ATOM     28  C   UNL A   1      38.622  29.816  31.114  1.00  0.00     0.014 A 
ATOM     29  C   UNL A   1      39.225  29.731  28.388  1.00  0.00     0.010 A 
ATOM     30  C   UNL A   1      39.905  29.468  30.696  1.00  0.00     0.010 A 
ATOM     31  C   UNL A   1      40.219  29.415  29.329  1.00  0.00    -0.014 A 
BRANCH  31  32
ATOM     32  C   UNL A   1      41.586  29.020  28.903  1.00  0.00     0.031 A 
ATOM     33  C   UNL A   1      42.683  30.049  28.835  1.00  0.00     0.074 A 
ATOM     34  C   UNL A   1      41.823  27.750  28.520  1.00  0.00     0.049 A 
ATOM     35  N   UNL A   1      43.910  29.920  28.399  1.00  0.00    -0.248 NA
ATOM     36  C   UNL A   1      42.349  31.407  29.293  1.00  0.00     0.031 C 
ATOM     37  C   UNL A   1      40.832  26.673  28.505  1.00  0.00     0.029 A 
ATOM     38  N   UNL A   1      42.968  27.153  28.053  1.00  0.00    -0.354 N 
ATOM     39  C   UNL A   1      44.488  31.180  28.514  1.00  0.00     0.074 A 
ATOM     40  C   UNL A   1      43.464  32.069  29.019  1.00  0.00     0.031 C 
ATOM     41  C   UNL A   1      41.415  25.544  28.068  1.00  0.00     0.029 A 
ATOM     42  C   UNL A   1      42.809  25.825  27.737  1.00  0.00     0.049 A 
ATOM     43  H   UNL A   1      43.823  27.632  27.955  1.00  0.00     0.167 HD
ATOM     44  C   UNL A   1      45.761  31.555  28.244  1.00  0.00     0.037 A 
ATOM     45  C   UNL A   1      43.683  24.937  27.227  1.00  0.00     0.037 A 
ATOM     46  C   UNL A   1      46.784  30.659  27.770  1.00  0.00     0.049 A 
ATOM     47  C   UNL A   1      45.093  25.376  26.942  1.00  0.00     0.074 A 
ATOM     48  C   UNL A   1      48.116  30.932  27.511  1.00  0.00     0.029 A 
ATOM     49  N   UNL A   1      46.591  29.314  27.491  1.00  0.00    -0.354 N 
ATOM     50  N   UNL A   1      45.634  26.562  27.098  1.00  0.00    -0.248 NA
ATOM     51  C   UNL A   1      46.014  24.360  26.415  1.00  0.00     0.031 C 
ATOM     52  C   UNL A   1      48.721  29.759  27.046  1.00  0.00     0.029 A 
ATOM     53  C   UNL A   1      47.776  28.746  27.054  1.00  0.00     0.049 A 
ATOM     54  H   UNL A   1      45.737  28.834  27.590  1.00  0.00     0.167 HD
ATOM     55  C   UNL A   1      46.964  26.426  26.716  1.00  0.00     0.074 A 
ATOM     56  C   UNL A   1      47.148  25.042  26.331  1.00  0.00     0.031 C 
ATOM     57  C   UNL A   1      47.944  27.362  26.687  1.00  0.00     0.037 A 
BRANCH  44  58
ATOM     58  C   UNL A   1      46.125  32.998  28.462  1.00  0.00     0.058 A 
ATOM     59  C   UNL A   1      45.990  33.952  27.440  1.00  0.00     0.135 A 
ATOM     60  C   UNL A   1      46.574  33.444  29.716  1.00  0.00     0.135 A 
ATOM     61  F   UNL A   1      45.579  33.579  26.218  1.00  0.00    -0.206 F 
ATOM     62  C   UNL A   1      46.312  35.290  27.645  1.00  0.00     0.059 A 
ATOM     63  C   UNL A   1      46.878  34.781  29.951  1.00  0.00     0.059 A 
ATOM     64  F   UNL A   1      46.722  32.575  30.729  1.00  0.00    -0.206 F 
ATOM     65  C   UNL A   1      46.758  35.695  28.904  1.00  0.00     0.060 A 
BRANCH  65  66
ATOM     66  S   UNL A   1      47.164  37.435  29.156  1.00  0.00     0.124 S 
ATOM     67  O   UNL A   1      47.156  37.527  30.612  1.00  0.00    -0.237 OA
ATOM     68  O   UNL A   1      48.474  37.546  28.522  1.00  0.00    -0.237 OA
ATOM     69  O   UNL A   1      46.082  38.139  28.475  1.00  0.00    -0.744 OA
ENDBRANCH  65  66
ENDBRANCH  44  58
BRANCH  45  70
ATOM     70  C   UNL A   1      43.259  23.535  26.974  1.00  0.00     0.058 A 
ATOM     71  C   UNL A   1      43.046  23.073  25.667  1.00  0.00     0.135 A 
ATOM     72  C   UNL A   1      43.059  22.631  28.029  1.00  0.00     0.135 A 
ATOM     73  F   UNL A   1      43.219  23.901  24.627  1.00  0.00    -0.206 F 
ATOM     74  C   UNL A   1      42.632  21.769  25.413  1.00  0.00     0.059 A 
ATOM     75  C   UNL A   1      42.668  21.315  27.798  1.00  0.00     0.059 A 
ATOM     76  F   UNL A   1      43.267  23.018  29.296  1.00  0.00    -0.206 F 
ATOM     77  C   UNL A   1      42.444  20.897  26.487  1.00  0.00     0.060 A 
BRANCH  77  78
ATOM     78  S   UNL A   1      41.945  19.196  26.147  1.00  0.00     0.124 S 
ATOM     79  O   UNL A   1      42.786  18.866  25.002  1.00  0.00    -0.237 OA
ATOM     80  O   UNL A   1      42.277  18.521  27.398  1.00  0.00    -0.237 OA
ATOM     81  O   UNL A   1      40.517  19.316  25.870  1.00  0.00    -0.744 OA
ENDBRANCH  77  78
ENDBRANCH  45  70
BRANCH  57  82
ATOM     82  C   UNL A   1      49.313  26.914  26.261  1.00  0.00     0.058 A 
ATOM     83  C   UNL A   1      50.187  26.268  27.148  1.00  0.00     0.135 A 
ATOM     84  C   UNL A   1      49.736  27.090  24.933  1.00  0.00     0.135 A 
ATOM     85  F   UNL A   1      49.832  26.083  28.431  1.00  0.00    -0.206 F 
ATOM     86  C   UNL A   1      51.442  25.830  26.740  1.00  0.00     0.059 A 
ATOM     87  C   UNL A   1      50.976  26.638  24.497  1.00  0.00     0.059 A 
ATOM     88  F   UNL A   1      48.932  27.694  24.043  1.00  0.00    -0.206 F 
ATOM     89  C   UNL A   1      51.827  26.018  25.411  1.00  0.00     0.060 A 
BRANCH  89  90
ATOM     90  S   UNL A   1      53.444  25.413  24.883  1.00  0.00     0.124 S 
ATOM     91  O   UNL A   1      54.342  26.312  25.599  1.00  0.00    -0.237 OA
ATOM     92  O   UNL A   1      53.429  24.029  25.348  1.00  0.00    -0.237 OA
ATOM     93  O   UNL A   1      53.411  25.580  23.433  1.00  0.00    -0.744 OA
ENDBRANCH  89  90
ENDBRANCH  57  82
ENDBRANCH  31  32
ENDBRANCH  23  26
ENDBRANCH   1  22
TORSDOF 14
ENDMDL
MODEL 3
REMARK VINA RESULT:     -12.4      6.757     12.174
REMARK SMILES Cc1ccc(-c2ncccc2C(=O)NCCCNC(=O)c2ccc(-c3c4nc(c(-c5c(F)cc(S(=O)(=O)[O-])cc5F)c5ccc([nH]5)c(-c5c(F)cc(S(=O)(=O)[O-])cc5F)c5nc(c(-c6c(F)cc(S(=O)(=O)[O-])cc6F)c6ccc3[nH]6)C=C5)C=C4)cc2)c(Cl)c1
REMARK SMILES IDX 17 1 16 2 15 3 14 4 12 5 13 6 11 8 6 9 7 10 8 11 10 12 9 13
REMARK SMILES IDX 5 14 1 15 2 16 3 17 89 18 4 19 87 20 88 21 18 22 19 23 20 25
REMARK SMILES IDX 21 26 22 27 86 28 23 29 85 30 24 31 25 32 26 33 79 34 27 35
REMARK SMILES IDX 84 36 78 37 80 38 28 39 83 40 77 41 76 42 29 44 63 45 42 46
REMARK SMILES IDX 62 47 43 48 46 49 61 50 81 51 44 52 45 53 60 55 82 56 47 57
REMARK SMILES IDX 30 58 31 59 40 60 32 61 33 62 39 63 41 64 34 65 35 66 36 67
REMARK SMILES IDX 37 68 38 69 64 70 65 71 74 72 66 73 67 74 73 75 75 76 68 77
REMARK SMILES IDX 69 78 70 79 71 80 72 81 48 82 49 83 58 84 50 85 51 86 57 87
REMARK SMILES IDX 59 88 52 89 53 90 54 91 55 92 56 93
REMARK H PARENT 14 7 18 24 80 43 46 54
REMARK Flexibility Score: inf
ROOT
ATOM      1  C   UNL A   1      35.244  29.341  27.540  1.00  0.00     0.118 C 
ENDROOT
BRANCH   1   2
ATOM      2  C   UNL A   1      33.823  28.920  27.151  1.00  0.00     0.042 C 
BRANCH   2   3
ATOM      3  C   UNL A   1      33.121  29.914  26.226  1.00  0.00     0.118 C 
BRANCH   3   4
ATOM      4  N   UNL A   1      33.491  29.695  24.841  1.00  0.00    -0.352 N 
ATOM      5  C   UNL A   1      32.914  29.104  23.747  1.00  0.00     0.253 C 
ATOM      6  O   UNL A   1      33.613  29.160  22.736  1.00  0.00    -0.269 OA
ATOM      7  H   UNL A   1      34.380  30.063  24.634  1.00  0.00     0.163 HD
BRANCH   5   8
ATOM      8  C   UNL A   1      31.557  28.464  23.715  1.00  0.00     0.066 A 
ATOM      9  C   UNL A   1      31.410  27.070  23.883  1.00  0.00     0.084 A 
ATOM     10  N   UNL A   1      30.202  26.432  23.776  1.00  0.00    -0.255 NA
ATOM     11  C   UNL A   1      29.111  27.173  23.517  1.00  0.00     0.112 A 
ATOM     12  C   UNL A   1      30.374  29.191  23.535  1.00  0.00     0.018 A 
ATOM     13  C   UNL A   1      29.143  28.546  23.411  1.00  0.00     0.021 A 
BRANCH   9  14
ATOM     14  C   UNL A   1      32.481  26.143  24.288  1.00  0.00     0.020 A 
ATOM     15  C   UNL A   1      35.679  23.554  25.658  1.00  0.00     0.044 C 
ATOM     16  C   UNL A   1      34.553  24.426  25.190  1.00  0.00    -0.050 A 
ATOM     17  C   UNL A   1      33.676  25.012  26.104  1.00  0.00     0.004 A 
ATOM     18  C   UNL A   1      34.366  24.665  23.823  1.00  0.00     0.024 A 
ATOM     19  C   UNL A   1      32.647  25.843  25.657  1.00  0.00     0.012 A 
ATOM     20  C   UNL A   1      33.346  25.518  23.376  1.00  0.00     0.050 A 
ATOM     21  Cl  UNL A   1      33.227  25.786  21.668  1.00  0.00    -0.084 Cl
ENDBRANCH   9  14
ENDBRANCH   5   8
ENDBRANCH   3   4
ENDBRANCH   2   3
ENDBRANCH   1   2
BRANCH   1  22
ATOM     22  N   UNL A   1      35.266  30.121  28.770  1.00  0.00    -0.352 N 
ATOM     23  C   UNL A   1      36.262  30.288  29.700  1.00  0.00     0.251 C 
ATOM     24  H   UNL A   1      34.431  30.606  28.967  1.00  0.00     0.163 HD
ATOM     25  O   UNL A   1      35.985  30.782  30.789  1.00  0.00    -0.269 OA
BRANCH  23  26
ATOM     26  C   UNL A   1      37.654  29.883  29.403  1.00  0.00     0.039 A 
ATOM     27  C   UNL A   1      38.086  29.885  28.073  1.00  0.00     0.014 A 
ATOM     28  C   UNL A   1      38.509  29.434  30.414  1.00  0.00     0.014 A 
ATOM     29  C   UNL A   1      39.389  29.485  27.763  1.00  0.00     0.010 A 
ATOM     30  C   UNL A   1      39.826  29.093  30.111  1.00  0.00     0.010 A 
ATOM     31  C   UNL A   1      40.278  29.108  28.782  1.00  0.00    -0.014 A 
BRANCH  31  32
ATOM     32  C   UNL A   1      41.680  28.719  28.478  1.00  0.00     0.031 A 
ATOM     33  C   UNL A   1      42.768  29.760  28.470  1.00  0.00     0.074 A 
ATOM     34  C   UNL A   1      41.960  27.443  28.150  1.00  0.00     0.049 A 
ATOM     35  N   UNL A   1      44.027  29.635  28.137  1.00  0.00    -0.248 NA
ATOM     36  C   UNL A   1      42.383  31.126  28.863  1.00  0.00     0.031 C 
ATOM     37  C   UNL A   1      40.985  26.353  28.085  1.00  0.00     0.029 A 
ATOM     38  N   UNL A   1      43.145  26.849  27.793  1.00  0.00    -0.354 N 
ATOM     39  C   UNL A   1      44.581  30.905  28.264  1.00  0.00     0.074 A 
ATOM     40  C   UNL A   1      43.510  31.794  28.661  1.00  0.00     0.031 C 
ATOM     41  C   UNL A   1      41.613  25.221  27.727  1.00  0.00     0.029 A 
ATOM     42  C   UNL A   1      43.026  25.510  27.501  1.00  0.00     0.049 A 
ATOM     43  H   UNL A   1      44.000  27.335  27.751  1.00  0.00     0.167 HD
ATOM     44  C   UNL A   1      45.867  31.290  28.086  1.00  0.00     0.037 A 
ATOM     45  C   UNL A   1      43.948  24.621  27.088  1.00  0.00     0.037 A 
ATOM     46  C   UNL A   1      46.934  30.394  27.721  1.00  0.00     0.049 A 
ATOM     47  C   UNL A   1      45.372  25.070  26.904  1.00  0.00     0.074 A 
ATOM     48  C   UNL A   1      48.280  30.677  27.562  1.00  0.00     0.029 A 
ATOM     49  N   UNL A   1      46.779  29.040  27.464  1.00  0.00    -0.354 N 
ATOM     50  N   UNL A   1      45.885  26.267  27.071  1.00  0.00    -0.248 NA
ATOM     51  C   UNL A   1      46.343  24.053  26.481  1.00  0.00     0.031 C 
ATOM     52  C   UNL A   1      48.933  29.500  27.179  1.00  0.00     0.029 A 
ATOM     53  C   UNL A   1      48.001  28.476  27.139  1.00  0.00     0.049 A 
ATOM     54  H   UNL A   1      45.924  28.552  27.508  1.00  0.00     0.167 HD
ATOM     55  C   UNL A   1      47.243  26.137  26.800  1.00  0.00     0.074 A 
ATOM     56  C   UNL A   1      47.473  24.747  26.470  1.00  0.00     0.031 C 
ATOM     57  C   UNL A   1      48.212  27.085  26.825  1.00  0.00     0.037 A 
BRANCH  44  58
ATOM     58  C   UNL A   1      46.197  32.742  28.294  1.00  0.00     0.058 A 
ATOM     59  C   UNL A   1      46.614  33.229  29.543  1.00  0.00     0.135 A 
ATOM     60  C   UNL A   1      46.136  33.652  27.226  1.00  0.00     0.135 A 
ATOM     61  F   UNL A   1      46.676  32.407  30.602  1.00  0.00    -0.206 F 
ATOM     62  C   UNL A   1      46.933  34.570  29.733  1.00  0.00     0.059 A 
ATOM     63  C   UNL A   1      46.474  34.992  27.386  1.00  0.00     0.059 A 
ATOM     64  F   UNL A   1      45.743  33.241  26.009  1.00  0.00    -0.206 F 
ATOM     65  C   UNL A   1      46.858  35.445  28.648  1.00  0.00     0.060 A 
BRANCH  65  66
ATOM     66  S   UNL A   1      47.283  37.180  28.909  1.00  0.00     0.124 S 
ATOM     67  O   UNL A   1      48.616  37.244  28.319  1.00  0.00    -0.237 OA
ATOM     68  O   UNL A   1      46.230  37.874  28.174  1.00  0.00    -0.237 OA
ATOM     69  O   UNL A   1      47.230  37.328  30.360  1.00  0.00    -0.744 OA
ENDBRANCH  65  66
ENDBRANCH  44  58
BRANCH  45  70
ATOM     70  C   UNL A   1      43.560  23.207  26.839  1.00  0.00     0.058 A 
ATOM     71  C   UNL A   1      43.256  22.347  27.904  1.00  0.00     0.135 A 
ATOM     72  C   UNL A   1      43.483  22.690  25.536  1.00  0.00     0.135 A 
ATOM     73  F   UNL A   1      43.321  22.794  29.166  1.00  0.00    -0.206 F 
ATOM     74  C   UNL A   1      42.908  21.016  27.690  1.00  0.00     0.059 A 
ATOM     75  C   UNL A   1      43.115  21.370  25.296  1.00  0.00     0.059 A 
ATOM     76  F   UNL A   1      43.746  23.477  24.483  1.00  0.00    -0.206 F 
ATOM     77  C   UNL A   1      42.841  20.537  26.381  1.00  0.00     0.060 A 
BRANCH  77  78
ATOM     78  S   UNL A   1      42.349  18.821  26.109  1.00  0.00     0.124 S 
ATOM     79  O   UNL A   1      40.956  18.975  25.706  1.00  0.00    -0.237 OA
ATOM     80  O   UNL A   1      43.274  18.397  25.061  1.00  0.00    -0.237 OA
ATOM     81  O   UNL A   1      42.567  18.202  27.413  1.00  0.00    -0.744 OA
ENDBRANCH  77  78
ENDBRANCH  45  70
BRANCH  57  82
ATOM     82  C   UNL A   1      49.616  26.644  26.522  1.00  0.00     0.058 A 
ATOM     83  C   UNL A   1      50.465  26.150  27.523  1.00  0.00     0.135 A 
ATOM     84  C   UNL A   1      50.099  26.669  25.203  1.00  0.00     0.135 A 
ATOM     85  F   UNL A   1      50.053  26.112  28.801  1.00  0.00    -0.206 F 
ATOM     86  C   UNL A   1      51.755  25.716  27.231  1.00  0.00     0.059 A 
ATOM     87  C   UNL A   1      51.375  26.217  24.885  1.00  0.00     0.059 A 
ATOM     88  F   UNL A   1      49.321  27.124  24.207  1.00  0.00    -0.206 F 
ATOM     89  C   UNL A   1      52.199  25.752  25.909  1.00  0.00     0.060 A 
BRANCH  89  90
ATOM     90  S   UNL A   1      53.861  25.152  25.536  1.00  0.00     0.124 S 
ATOM     91  O   UNL A   1      53.573  23.975  24.724  1.00  0.00    -0.237 OA
ATOM     92  O   UNL A   1      54.453  26.283  24.828  1.00  0.00    -0.237 OA
ATOM     93  O   UNL A   1      54.427  24.882  26.855  1.00  0.00    -0.744 OA
ENDBRANCH  89  90
ENDBRANCH  57  82
ENDBRANCH  31  32
ENDBRANCH  23  26
ENDBRANCH   1  22
TORSDOF 14
ENDMDL
