MODEL 1
REMARK VINA RESULT:      -9.9      0.000      0.000
REMARK SMILES Cc1ccc(O)c(C[N@H+]2CC[C@](C)(C(=O)NCCCNC(=O)c3ccc(-c4c5nc(c(-c6c(F)cc(S(=O)(=O)[O-])cc6F)c6ccc([nH]6)c(-c6c(F)cc(S(=O)(=O)[O-])cc6F)c6nc(c(-c7c(F)cc(S(=O)(=O)[O-])cc7F)c7ccc4[nH]7)C=C6)C=C5)cc3)C2)n1
REMARK SMILES IDX 18 1 17 2 16 3 14 4 15 5 12 7 9 8 10 9 89 10 11 12 13 13
REMARK SMILES IDX 8 14 7 15 1 16 2 17 3 18 90 19 4 20 5 21 6 22 19 24 20 25
REMARK SMILES IDX 21 26 22 28 23 29 24 30 88 31 25 32 87 33 26 34 27 35 28 36
REMARK SMILES IDX 81 37 29 38 86 39 80 40 82 41 30 42 85 43 79 44 78 45 31 47
REMARK SMILES IDX 65 48 44 49 64 50 45 51 48 52 63 53 83 54 46 55 47 56 62 58
REMARK SMILES IDX 84 59 49 60 32 61 33 62 42 63 34 64 35 65 41 66 43 67 36 68
REMARK SMILES IDX 37 69 38 70 39 71 40 72 66 73 67 74 76 75 68 76 69 77 75 78
REMARK SMILES IDX 77 79 70 80 71 81 72 82 73 83 74 84 50 85 51 86 60 87 52 88
REMARK SMILES IDX 53 89 59 90 61 91 54 92 55 93 56 94 57 95 58 96
REMARK H PARENT 16 6 9 11 6 23 20 27 82 46 48 57
REMARK Flexibility Score: inf
ROOT
ATOM      1  C   UNL A   1      34.754  32.507  30.486  1.00  0.00     0.042 C 
ENDROOT
BRANCH   1   2
ATOM      2  C   UNL A   1      35.389  33.734  31.124  1.00  0.00     0.117 C 
BRANCH   2   3
ATOM      3  N   UNL A   1      36.601  34.178  30.451  1.00  0.00    -0.355 N 
ATOM      4  C   UNL A   1      37.898  34.241  30.874  1.00  0.00     0.231 C 
ATOM      5  O   UNL A   1      38.744  34.568  30.037  1.00  0.00    -0.274 OA
ATOM      6  H   UNL A   1      36.461  34.486  29.526  1.00  0.00     0.163 HD
BRANCH   4   7
ATOM      7  C   UNL A   1      38.283  33.878  32.309  1.00  0.00     0.100 C 
ATOM      8  N   UNL A   1      37.613  32.130  33.843  1.00  0.00    -0.329 N 
ATOM      9  C   UNL A   1      37.428  33.412  34.506  1.00  0.00     0.263 C 
ATOM     10  C   UNL A   1      38.200  32.358  32.519  1.00  0.00     0.279 C 
ATOM     11  H   UNL A   1      36.692  31.711  33.714  1.00  0.00     0.348 HD
ATOM     12  C   UNL A   1      37.244  34.371  33.336  1.00  0.00     0.084 C 
ATOM     13  C   UNL A   1      39.638  34.518  32.669  1.00  0.00     0.028 C 
BRANCH   8  14
ATOM     14  C   UNL A   1      38.262  31.083  34.648  1.00  0.00     0.323 C 
BRANCH  14  15
ATOM     15  C   UNL A   1      38.970  29.966  33.893  1.00  0.00     0.136 A 
ATOM     16  C   UNL A   1      42.500  29.089  33.299  1.00  0.00     0.067 C 
ATOM     17  C   UNL A   1      41.005  29.016  33.235  1.00  0.00     0.038 A 
ATOM     18  C   UNL A   1      40.354  27.987  32.571  1.00  0.00     0.027 A 
ATOM     19  N   UNL A   1      40.332  29.994  33.878  1.00  0.00    -0.248 NA
ATOM     20  C   UNL A   1      38.961  27.968  32.563  1.00  0.00     0.050 A 
ATOM     21  C   UNL A   1      38.259  28.968  33.230  1.00  0.00     0.142 A 
BRANCH  21  22
ATOM     22  O   UNL A   1      36.894  28.961  33.231  1.00  0.00    -0.506 OA
ATOM     23  H   UNL A   1      36.428  28.644  33.979  1.00  0.00     0.293 HD
ENDBRANCH  21  22
ENDBRANCH  14  15
ENDBRANCH   8  14
ENDBRANCH   4   7
ENDBRANCH   2   3
ENDBRANCH   1   2
BRANCH   1  24
ATOM     24  C   UNL A   1      34.541  32.614  28.982  1.00  0.00     0.118 C 
BRANCH  24  25
ATOM     25  N   UNL A   1      33.931  31.421  28.410  1.00  0.00    -0.352 N 
ATOM     26  C   UNL A   1      34.491  30.252  27.967  1.00  0.00     0.251 C 
ATOM     27  H   UNL A   1      32.951  31.463  28.328  1.00  0.00     0.163 HD
ATOM     28  O   UNL A   1      33.780  29.455  27.349  1.00  0.00    -0.269 OA
BRANCH  26  29
ATOM     29  C   UNL A   1      35.918  29.935  28.201  1.00  0.00     0.039 A 
ATOM     30  C   UNL A   1      36.294  29.426  29.448  1.00  0.00     0.014 A 
ATOM     31  C   UNL A   1      36.896  30.183  27.234  1.00  0.00     0.014 A 
ATOM     32  C   UNL A   1      37.634  29.123  29.704  1.00  0.00     0.010 A 
ATOM     33  C   UNL A   1      38.217  29.798  27.459  1.00  0.00     0.010 A 
ATOM     34  C   UNL A   1      38.605  29.278  28.702  1.00  0.00    -0.014 A 
BRANCH  34  35
ATOM     35  C   UNL A   1      40.030  28.937  28.952  1.00  0.00     0.031 A 
ATOM     36  C   UNL A   1      40.959  29.963  29.549  1.00  0.00     0.074 A 
ATOM     37  C   UNL A   1      40.494  27.718  28.614  1.00  0.00     0.049 A 
ATOM     38  N   UNL A   1      42.242  29.871  29.793  1.00  0.00    -0.248 NA
ATOM     39  C   UNL A   1      40.378  31.271  29.893  1.00  0.00     0.031 C 
ATOM     40  C   UNL A   1      39.708  26.655  27.984  1.00  0.00     0.029 A 
ATOM     41  N   UNL A   1      41.745  27.167  28.746  1.00  0.00    -0.354 N 
ATOM     42  C   UNL A   1      42.618  31.104  30.315  1.00  0.00     0.074 A 
ATOM     43  C   UNL A   1      41.445  31.949  30.292  1.00  0.00     0.031 C 
ATOM     44  C   UNL A   1      40.487  25.576  27.803  1.00  0.00     0.029 A 
ATOM     45  C   UNL A   1      41.834  25.878  28.274  1.00  0.00     0.049 A 
ATOM     46  H   UNL A   1      42.506  27.649  29.142  1.00  0.00     0.167 HD
ATOM     47  C   UNL A   1      43.821  31.489  30.803  1.00  0.00     0.037 A 
ATOM     48  C   UNL A   1      42.886  25.037  28.222  1.00  0.00     0.037 A 
ATOM     49  C   UNL A   1      44.981  30.638  30.849  1.00  0.00     0.049 A 
ATOM     50  C   UNL A   1      44.214  25.488  28.771  1.00  0.00     0.074 A 
ATOM     51  C   UNL A   1      46.241  30.926  31.345  1.00  0.00     0.029 A 
ATOM     52  N   UNL A   1      45.021  29.329  30.393  1.00  0.00    -0.354 N 
ATOM     53  N   UNL A   1      44.535  26.643  29.303  1.00  0.00    -0.248 NA
ATOM     54  C   UNL A   1      45.317  24.520  28.725  1.00  0.00     0.031 C 
ATOM     55  C   UNL A   1      47.050  29.799  31.166  1.00  0.00     0.029 A 
ATOM     56  C   UNL A   1      46.284  28.797  30.593  1.00  0.00     0.049 A 
ATOM     57  H   UNL A   1      44.264  28.850  29.986  1.00  0.00     0.167 HD
ATOM     58  C   UNL A   1      45.870  26.529  29.678  1.00  0.00     0.074 A 
ATOM     59  C   UNL A   1      46.289  25.189  29.329  1.00  0.00     0.031 C 
ATOM     60  C   UNL A   1      46.677  27.452  30.257  1.00  0.00     0.037 A 
BRANCH  47  61
ATOM     61  C   UNL A   1      43.937  32.881  31.359  1.00  0.00     0.058 A 
ATOM     62  C   UNL A   1      44.180  33.982  30.520  1.00  0.00     0.135 A 
ATOM     63  C   UNL A   1      43.752  33.131  32.728  1.00  0.00     0.135 A 
ATOM     64  F   UNL A   1      44.380  33.798  29.206  1.00  0.00    -0.206 F 
ATOM     65  C   UNL A   1      44.255  35.276  31.021  1.00  0.00     0.059 A 
ATOM     66  C   UNL A   1      43.797  34.422  33.248  1.00  0.00     0.059 A 
ATOM     67  F   UNL A   1      43.519  32.116  33.574  1.00  0.00    -0.206 F 
ATOM     68  C   UNL A   1      44.060  35.487  32.386  1.00  0.00     0.060 A 
BRANCH  68  69
ATOM     69  S   UNL A   1      44.135  37.178  33.015  1.00  0.00     0.124 S 
ATOM     70  O   UNL A   1      44.236  37.944  31.775  1.00  0.00    -0.237 OA
ATOM     71  O   UNL A   1      42.870  37.301  33.732  1.00  0.00    -0.237 OA
ATOM     72  O   UNL A   1      45.330  37.179  33.851  1.00  0.00    -0.744 OA
ENDBRANCH  68  69
ENDBRANCH  47  61
BRANCH  48  73
ATOM     73  C   UNL A   1      42.732  23.676  27.638  1.00  0.00     0.058 A 
ATOM     74  C   UNL A   1      42.404  22.576  28.443  1.00  0.00     0.135 A 
ATOM     75  C   UNL A   1      42.936  23.445  26.269  1.00  0.00     0.135 A 
ATOM     76  F   UNL A   1      42.202  22.743  29.759  1.00  0.00    -0.206 F 
ATOM     77  C   UNL A   1      42.319  21.289  27.921  1.00  0.00     0.059 A 
ATOM     78  C   UNL A   1      42.830  22.173  25.718  1.00  0.00     0.059 A 
ATOM     79  F   UNL A   1      43.231  24.468  25.451  1.00  0.00    -0.206 F 
ATOM     80  C   UNL A   1      42.541  21.097  26.557  1.00  0.00     0.060 A 
BRANCH  80  81
ATOM     81  S   UNL A   1      42.424  19.426  25.883  1.00  0.00     0.124 S 
ATOM     82  O   UNL A   1      42.931  18.627  26.992  1.00  0.00    -0.237 OA
ATOM     83  O   UNL A   1      40.996  19.302  25.607  1.00  0.00    -0.237 OA
ATOM     84  O   UNL A   1      43.279  19.482  24.701  1.00  0.00    -0.744 OA
ENDBRANCH  80  81
ENDBRANCH  48  73
BRANCH  60  85
ATOM     85  C   UNL A   1      48.082  27.033  30.584  1.00  0.00     0.058 A 
ATOM     86  C   UNL A   1      49.130  27.184  29.663  1.00  0.00     0.135 A 
ATOM     87  C   UNL A   1      48.392  26.520  31.855  1.00  0.00     0.135 A 
ATOM     88  F   UNL A   1      48.885  27.664  28.434  1.00  0.00    -0.206 F 
ATOM     89  C   UNL A   1      50.433  26.818  29.981  1.00  0.00     0.059 A 
ATOM     90  C   UNL A   1      49.693  26.173  32.202  1.00  0.00     0.059 A 
ATOM     91  F   UNL A   1      47.427  26.366  32.775  1.00  0.00    -0.206 F 
ATOM     92  C   UNL A   1      50.705  26.313  31.255  1.00  0.00     0.060 A 
BRANCH  92  93
ATOM     93  S   UNL A   1      52.407  25.874  31.666  1.00  0.00     0.124 S 
ATOM     94  O   UNL A   1      53.074  26.049  30.380  1.00  0.00    -0.237 OA
ATOM     95  O   UNL A   1      52.744  26.853  32.694  1.00  0.00    -0.237 OA
ATOM     96  O   UNL A   1      52.297  24.494  32.133  1.00  0.00    -0.744 OA
ENDBRANCH  92  93
ENDBRANCH  60  85
ENDBRANCH  34  35
ENDBRANCH  26  29
ENDBRANCH  24  25
ENDBRANCH   1  24
TORSDOF 16
ENDMDL
MODEL 2
REMARK VINA RESULT:      -9.4      3.570      5.867
REMARK SMILES Cc1ccc(O)c(C[N@H+]2CC[C@](C)(C(=O)NCCCNC(=O)c3ccc(-c4c5nc(c(-c6c(F)cc(S(=O)(=O)[O-])cc6F)c6ccc([nH]6)c(-c6c(F)cc(S(=O)(=O)[O-])cc6F)c6nc(c(-c7c(F)cc(S(=O)(=O)[O-])cc7F)c7ccc4[nH]7)C=C6)C=C5)cc3)C2)n1
REMARK SMILES IDX 18 1 17 2 16 3 14 4 15 5 12 7 9 8 10 9 89 10 11 12 13 13
REMARK SMILES IDX 8 14 7 15 1 16 2 17 3 18 90 19 4 20 5 21 6 22 19 24 20 25
REMARK SMILES IDX 21 26 22 28 23 29 24 30 88 31 25 32 87 33 26 34 27 35 28 36
REMARK SMILES IDX 81 37 29 38 86 39 80 40 82 41 30 42 85 43 79 44 78 45 31 47
REMARK SMILES IDX 65 48 44 49 64 50 45 51 48 52 63 53 83 54 46 55 47 56 62 58
REMARK SMILES IDX 84 59 49 60 32 61 33 62 42 63 34 64 35 65 41 66 43 67 36 68
REMARK SMILES IDX 37 69 38 70 39 71 40 72 66 73 67 74 76 75 68 76 69 77 75 78
REMARK SMILES IDX 77 79 70 80 71 81 72 82 73 83 74 84 50 85 51 86 60 87 52 88
REMARK SMILES IDX 53 89 59 90 61 91 54 92 55 93 56 94 57 95 58 96
REMARK H PARENT 16 6 9 11 6 23 20 27 82 46 48 57
REMARK Flexibility Score: inf
ROOT
ATOM      1  C   UNL A   1      34.308  31.549  27.658  1.00  0.00     0.042 C 
ENDROOT
BRANCH   1   2
ATOM      2  C   UNL A   1      34.062  30.140  27.138  1.00  0.00     0.117 C 
BRANCH   2   3
ATOM      3  N   UNL A   1      33.303  30.102  25.897  1.00  0.00    -0.355 N 
ATOM      4  C   UNL A   1      32.485  29.146  25.367  1.00  0.00     0.231 C 
ATOM      5  O   UNL A   1      31.883  29.436  24.329  1.00  0.00    -0.274 OA
ATOM      6  H   UNL A   1      33.395  30.909  25.341  1.00  0.00     0.163 HD
BRANCH   4   7
ATOM      7  C   UNL A   1      32.292  27.795  26.058  1.00  0.00     0.100 C 
ATOM      8  N   UNL A   1      32.878  25.515  25.496  1.00  0.00    -0.329 N 
ATOM      9  C   UNL A   1      31.453  25.559  25.785  1.00  0.00     0.263 C 
ATOM     10  C   UNL A   1      33.452  26.846  25.715  1.00  0.00     0.279 C 
ATOM     11  H   UNL A   1      32.988  25.281  24.509  1.00  0.00     0.348 HD
ATOM     12  C   UNL A   1      31.095  27.010  25.485  1.00  0.00     0.084 C 
ATOM     13  C   UNL A   1      32.038  28.005  27.564  1.00  0.00     0.028 C 
BRANCH   8  14
ATOM     14  C   UNL A   1      33.619  24.401  26.108  1.00  0.00     0.323 C 
BRANCH  14  15
ATOM     15  C   UNL A   1      34.812  23.853  25.336  1.00  0.00     0.136 A 
ATOM     16  C   UNL A   1      38.344  23.205  26.165  1.00  0.00     0.067 C 
ATOM     17  C   UNL A   1      37.084  23.292  25.360  1.00  0.00     0.038 A 
ATOM     18  C   UNL A   1      37.033  22.865  24.041  1.00  0.00     0.027 A 
ATOM     19  N   UNL A   1      36.001  23.785  25.998  1.00  0.00    -0.248 NA
ATOM     20  C   UNL A   1      35.824  22.957  23.353  1.00  0.00     0.050 A 
ATOM     21  C   UNL A   1      34.701  23.457  24.005  1.00  0.00     0.142 A 
BRANCH  21  22
ATOM     22  O   UNL A   1      33.511  23.551  23.343  1.00  0.00    -0.506 OA
ATOM     23  H   UNL A   1      32.841  22.913  23.490  1.00  0.00     0.293 HD
ENDBRANCH  21  22
ENDBRANCH  14  15
ENDBRANCH   8  14
ENDBRANCH   4   7
ENDBRANCH   2   3
ENDBRANCH   1   2
BRANCH   1  24
ATOM     24  C   UNL A   1      35.606  31.720  28.436  1.00  0.00     0.118 C 
BRANCH  24  25
ATOM     25  N   UNL A   1      35.506  31.260  29.813  1.00  0.00    -0.352 N 
ATOM     26  C   UNL A   1      36.340  30.466  30.557  1.00  0.00     0.251 C 
ATOM     27  H   UNL A   1      34.703  31.570  30.291  1.00  0.00     0.163 HD
ATOM     28  O   UNL A   1      35.945  30.061  31.654  1.00  0.00    -0.269 OA
BRANCH  26  29
ATOM     29  C   UNL A   1      37.684  30.081  30.071  1.00  0.00     0.039 A 
ATOM     30  C   UNL A   1      38.674  29.780  31.013  1.00  0.00     0.014 A 
ATOM     31  C   UNL A   1      38.000  30.066  28.710  1.00  0.00     0.014 A 
ATOM     32  C   UNL A   1      39.956  29.419  30.588  1.00  0.00     0.010 A 
ATOM     33  C   UNL A   1      39.251  29.621  28.286  1.00  0.00     0.010 A 
ATOM     34  C   UNL A   1      40.248  29.307  29.219  1.00  0.00    -0.014 A 
BRANCH  34  35
ATOM     35  C   UNL A   1      41.600  28.901  28.754  1.00  0.00     0.031 A 
ATOM     36  C   UNL A   1      42.707  29.920  28.664  1.00  0.00     0.074 A 
ATOM     37  C   UNL A   1      41.824  27.625  28.381  1.00  0.00     0.049 A 
ATOM     38  N   UNL A   1      43.934  29.771  28.234  1.00  0.00    -0.248 NA
ATOM     39  C   UNL A   1      42.387  31.293  29.090  1.00  0.00     0.031 C 
ATOM     40  C   UNL A   1      40.822  26.556  28.374  1.00  0.00     0.029 A 
ATOM     41  N   UNL A   1      42.965  27.010  27.928  1.00  0.00    -0.354 N 
ATOM     42  C   UNL A   1      44.527  31.025  28.336  1.00  0.00     0.074 A 
ATOM     43  C   UNL A   1      43.510  31.938  28.805  1.00  0.00     0.031 C 
ATOM     44  C   UNL A   1      41.397  25.415  27.959  1.00  0.00     0.029 A 
ATOM     45  C   UNL A   1      42.796  25.675  27.640  1.00  0.00     0.049 A 
ATOM     46  H   UNL A   1      43.823  27.480  27.820  1.00  0.00     0.167 HD
ATOM     47  C   UNL A   1      45.812  31.379  28.095  1.00  0.00     0.037 A 
ATOM     48  C   UNL A   1      43.671  24.766  27.168  1.00  0.00     0.037 A 
ATOM     49  C   UNL A   1      46.831  30.463  27.652  1.00  0.00     0.049 A 
ATOM     50  C   UNL A   1      45.095  25.184  26.908  1.00  0.00     0.074 A 
ATOM     51  C   UNL A   1      48.169  30.718  27.401  1.00  0.00     0.029 A 
ATOM     52  N   UNL A   1      46.629  29.113  27.405  1.00  0.00    -0.354 N 
ATOM     53  N   UNL A   1      45.646  26.365  27.055  1.00  0.00    -0.248 NA
ATOM     54  C   UNL A   1      46.017  24.146  26.429  1.00  0.00     0.031 C 
ATOM     55  C   UNL A   1      48.769  29.528  26.978  1.00  0.00     0.029 A 
ATOM     56  C   UNL A   1      47.814  28.523  27.002  1.00  0.00     0.049 A 
ATOM     57  H   UNL A   1      45.769  28.645  27.501  1.00  0.00     0.167 HD
ATOM     58  C   UNL A   1      46.985  26.204  26.713  1.00  0.00     0.074 A 
ATOM     59  C   UNL A   1      47.163  24.810  26.369  1.00  0.00     0.031 C 
ATOM     60  C   UNL A   1      47.977  27.128  26.683  1.00  0.00     0.037 A 
BRANCH  47  61
ATOM     61  C   UNL A   1      46.200  32.811  28.338  1.00  0.00     0.058 A 
ATOM     62  C   UNL A   1      46.088  33.777  27.323  1.00  0.00     0.135 A 
ATOM     63  C   UNL A   1      46.634  33.238  29.603  1.00  0.00     0.135 A 
ATOM     64  F   UNL A   1      45.694  33.420  26.091  1.00  0.00    -0.206 F 
ATOM     65  C   UNL A   1      46.413  35.110  27.548  1.00  0.00     0.059 A 
ATOM     66  C   UNL A   1      46.940  34.572  29.857  1.00  0.00     0.059 A 
ATOM     67  F   UNL A   1      46.761  32.357  30.606  1.00  0.00    -0.206 F 
ATOM     68  C   UNL A   1      46.835  35.499  28.819  1.00  0.00     0.060 A 
BRANCH  68  69
ATOM     69  S   UNL A   1      47.226  37.239  29.101  1.00  0.00     0.124 S 
ATOM     70  O   UNL A   1      46.484  37.882  28.019  1.00  0.00    -0.237 OA
ATOM     71  O   UNL A   1      46.705  37.463  30.445  1.00  0.00    -0.237 OA
ATOM     72  O   UNL A   1      48.679  37.286  28.979  1.00  0.00    -0.744 OA
ENDBRANCH  68  69
ENDBRANCH  47  61
BRANCH  48  73
ATOM     73  C   UNL A   1      43.237  23.365  26.917  1.00  0.00     0.058 A 
ATOM     74  C   UNL A   1      42.989  22.482  27.978  1.00  0.00     0.135 A 
ATOM     75  C   UNL A   1      43.087  22.873  25.611  1.00  0.00     0.135 A 
ATOM     76  F   UNL A   1      43.121  22.903  29.245  1.00  0.00    -0.206 F 
ATOM     77  C   UNL A   1      42.644  21.153  27.756  1.00  0.00     0.059 A 
ATOM     78  C   UNL A   1      42.717  21.556  25.363  1.00  0.00     0.059 A 
ATOM     79  F   UNL A   1      43.292  23.682  24.560  1.00  0.00    -0.206 F 
ATOM     80  C   UNL A   1      42.517  20.698  26.443  1.00  0.00     0.060 A 
BRANCH  80  81
ATOM     81  S   UNL A   1      42.063  18.972  26.161  1.00  0.00     0.124 S 
ATOM     82  O   UNL A   1      43.001  18.591  25.111  1.00  0.00    -0.237 OA
ATOM     83  O   UNL A   1      42.294  18.372  27.472  1.00  0.00    -0.237 OA
ATOM     84  O   UNL A   1      40.663  19.057  25.759  1.00  0.00    -0.744 OA
ENDBRANCH  80  81
ENDBRANCH  48  73
BRANCH  60  85
ATOM     85  C   UNL A   1      49.351  26.654  26.303  1.00  0.00     0.058 A 
ATOM     86  C   UNL A   1      49.826  26.753  24.986  1.00  0.00     0.135 A 
ATOM     87  C   UNL A   1      50.220  26.140  27.279  1.00  0.00     0.135 A 
ATOM     88  F   UNL A   1      49.033  27.232  24.015  1.00  0.00    -0.206 F 
ATOM     89  C   UNL A   1      51.109  26.336  24.645  1.00  0.00     0.059 A 
ATOM     90  C   UNL A   1      51.515  25.742  26.965  1.00  0.00     0.059 A 
ATOM     91  F   UNL A   1      49.817  26.035  28.555  1.00  0.00    -0.206 F 
ATOM     92  C   UNL A   1      51.947  25.832  25.643  1.00  0.00     0.060 A 
BRANCH  92  93
ATOM     93  S   UNL A   1      53.620  25.326  25.193  1.00  0.00     0.124 S 
ATOM     94  O   UNL A   1      54.351  25.601  26.425  1.00  0.00    -0.237 OA
ATOM     95  O   UNL A   1      53.443  23.916  24.861  1.00  0.00    -0.237 OA
ATOM     96  O   UNL A   1      53.945  26.194  24.064  1.00  0.00    -0.744 OA
ENDBRANCH  92  93
ENDBRANCH  60  85
ENDBRANCH  34  35
ENDBRANCH  26  29
ENDBRANCH  24  25
ENDBRANCH   1  24
TORSDOF 16
ENDMDL
MODEL 3
REMARK VINA RESULT:      -9.3      5.231     12.047
REMARK SMILES Cc1ccc(O)c(C[N@H+]2CC[C@](C)(C(=O)NCCCNC(=O)c3ccc(-c4c5nc(c(-c6c(F)cc(S(=O)(=O)[O-])cc6F)c6ccc([nH]6)c(-c6c(F)cc(S(=O)(=O)[O-])cc6F)c6nc(c(-c7c(F)cc(S(=O)(=O)[O-])cc7F)c7ccc4[nH]7)C=C6)C=C5)cc3)C2)n1
REMARK SMILES IDX 18 1 17 2 16 3 14 4 15 5 12 7 9 8 10 9 89 10 11 12 13 13
REMARK SMILES IDX 8 14 7 15 1 16 2 17 3 18 90 19 4 20 5 21 6 22 19 24 20 25
REMARK SMILES IDX 21 26 22 28 23 29 24 30 88 31 25 32 87 33 26 34 27 35 28 36
REMARK SMILES IDX 81 37 29 38 86 39 80 40 82 41 30 42 85 43 79 44 78 45 31 47
REMARK SMILES IDX 65 48 44 49 64 50 45 51 48 52 63 53 83 54 46 55 47 56 62 58
REMARK SMILES IDX 84 59 49 60 32 61 33 62 42 63 34 64 35 65 41 66 43 67 36 68
REMARK SMILES IDX 37 69 38 70 39 71 40 72 66 73 67 74 76 75 68 76 69 77 75 78
REMARK SMILES IDX 77 79 70 80 71 81 72 82 73 83 74 84 50 85 51 86 60 87 52 88
REMARK SMILES IDX 53 89 59 90 61 91 54 92 55 93 56 94 57 95 58 96
REMARK H PARENT 16 6 9 11 6 23 20 27 82 46 48 57
REMARK Flexibility Score: inf
ROOT
ATOM      1  C   UNL A   1      37.666  23.129  25.630  1.00  0.00     0.042 C 
ENDROOT
BRANCH   1   2
ATOM      2  C   UNL A   1      36.247  22.948  26.151  1.00  0.00     0.117 C 
BRANCH   2   3
ATOM      3  N   UNL A   1      35.642  21.682  25.761  1.00  0.00    -0.355 N 
ATOM      4  C   UNL A   1      34.512  21.404  25.047  1.00  0.00     0.231 C 
ATOM      5  O   UNL A   1      34.299  20.218  24.778  1.00  0.00    -0.274 OA
ATOM      6  H   UNL A   1      36.136  20.887  26.065  1.00  0.00     0.163 HD
BRANCH   4   7
ATOM      7  C   UNL A   1      33.582  22.519  24.566  1.00  0.00     0.100 C 
ATOM      8  N   UNL A   1      31.700  23.683  25.546  1.00  0.00    -0.329 N 
ATOM      9  C   UNL A   1      31.285  23.153  24.255  1.00  0.00     0.263 C 
ATOM     10  C   UNL A   1      33.119  23.380  25.752  1.00  0.00     0.279 C 
ATOM     11  H   UNL A   1      31.164  23.200  26.267  1.00  0.00     0.348 HD
ATOM     12  C   UNL A   1      32.232  21.976  24.057  1.00  0.00     0.084 C 
ATOM     13  C   UNL A   1      34.242  23.294  23.409  1.00  0.00     0.028 C 
BRANCH   8  14
ATOM     14  C   UNL A   1      31.306  25.073  25.821  1.00  0.00     0.323 C 
BRANCH  14  15
ATOM     15  C   UNL A   1      31.207  26.016  24.629  1.00  0.00     0.136 A 
ATOM     16  C   UNL A   1      33.666  27.696  22.459  1.00  0.00     0.067 C 
ATOM     17  C   UNL A   1      32.341  27.286  23.023  1.00  0.00     0.038 A 
ATOM     18  C   UNL A   1      31.147  27.713  22.461  1.00  0.00     0.027 A 
ATOM     19  N   UNL A   1      32.378  26.460  24.091  1.00  0.00    -0.248 NA
ATOM     20  C   UNL A   1      29.948  27.281  23.024  1.00  0.00     0.050 A 
ATOM     21  C   UNL A   1      29.976  26.423  24.120  1.00  0.00     0.142 A 
BRANCH  21  22
ATOM     22  O   UNL A   1      28.808  25.991  24.680  1.00  0.00    -0.506 OA
ATOM     23  H   UNL A   1      28.096  25.725  24.132  1.00  0.00     0.293 HD
ENDBRANCH  21  22
ENDBRANCH  14  15
ENDBRANCH   8  14
ENDBRANCH   4   7
ENDBRANCH   2   3
ENDBRANCH   1   2
BRANCH   1  24
ATOM     24  C   UNL A   1      38.522  24.089  26.445  1.00  0.00     0.118 C 
BRANCH  24  25
ATOM     25  N   UNL A   1      39.937  24.011  26.108  1.00  0.00    -0.352 N 
ATOM     26  C   UNL A   1      40.996  24.786  26.502  1.00  0.00     0.251 C 
ATOM     27  H   UNL A   1      40.171  23.279  25.494  1.00  0.00     0.163 HD
ATOM     28  O   UNL A   1      42.081  24.635  25.932  1.00  0.00    -0.269 OA
BRANCH  26  29
ATOM     29  C   UNL A   1      40.865  25.796  27.575  1.00  0.00     0.039 A 
ATOM     30  C   UNL A   1      39.824  25.659  28.499  1.00  0.00     0.014 A 
ATOM     31  C   UNL A   1      41.714  26.903  27.653  1.00  0.00     0.014 A 
ATOM     32  C   UNL A   1      39.668  26.600  29.521  1.00  0.00     0.010 A 
ATOM     33  C   UNL A   1      41.612  27.791  28.723  1.00  0.00     0.010 A 
ATOM     34  C   UNL A   1      40.579  27.659  29.661  1.00  0.00    -0.014 A 
BRANCH  34  35
ATOM     35  C   UNL A   1      40.439  28.653  30.757  1.00  0.00     0.031 A 
ATOM     36  C   UNL A   1      41.303  28.548  31.988  1.00  0.00     0.074 A 
ATOM     37  C   UNL A   1      39.514  29.629  30.661  1.00  0.00     0.049 A 
ATOM     38  N   UNL A   1      41.293  29.284  33.069  1.00  0.00    -0.248 NA
ATOM     39  C   UNL A   1      42.291  27.456  32.019  1.00  0.00     0.031 C 
ATOM     40  C   UNL A   1      38.583  29.808  29.545  1.00  0.00     0.029 A 
ATOM     41  N   UNL A   1      39.198  30.652  31.520  1.00  0.00    -0.354 N 
ATOM     42  C   UNL A   1      42.266  28.747  33.904  1.00  0.00     0.074 A 
ATOM     43  C   UNL A   1      42.802  27.583  33.235  1.00  0.00     0.031 C 
ATOM     44  C   UNL A   1      37.816  30.886  29.777  1.00  0.00     0.029 A 
ATOM     45  C   UNL A   1      38.176  31.456  31.070  1.00  0.00     0.049 A 
ATOM     46  H   UNL A   1      39.659  30.797  32.377  1.00  0.00     0.167 HD
ATOM     47  C   UNL A   1      42.701  29.200  35.104  1.00  0.00     0.037 A 
ATOM     48  C   UNL A   1      37.594  32.530  31.639  1.00  0.00     0.037 A 
ATOM     49  C   UNL A   1      42.184  30.374  35.757  1.00  0.00     0.049 A 
ATOM     50  C   UNL A   1      38.095  33.015  32.975  1.00  0.00     0.074 A 
ATOM     51  C   UNL A   1      42.573  30.931  36.964  1.00  0.00     0.029 A 
ATOM     52  N   UNL A   1      41.175  31.181  35.253  1.00  0.00    -0.354 N 
ATOM     53  N   UNL A   1      39.049  32.518  33.726  1.00  0.00    -0.248 NA
ATOM     54  C   UNL A   1      37.452  34.211  33.533  1.00  0.00     0.031 C 
ATOM     55  C   UNL A   1      41.781  32.058  37.202  1.00  0.00     0.029 A 
ATOM     56  C   UNL A   1      40.925  32.227  36.125  1.00  0.00     0.049 A 
ATOM     57  H   UNL A   1      40.704  31.030  34.402  1.00  0.00     0.167 HD
ATOM     58  C   UNL A   1      39.136  33.357  34.832  1.00  0.00     0.074 A 
ATOM     59  C   UNL A   1      38.152  34.401  34.643  1.00  0.00     0.031 C 
ATOM     60  C   UNL A   1      39.954  33.269  35.909  1.00  0.00     0.037 A 
BRANCH  47  61
ATOM     61  C   UNL A   1      43.814  28.445  35.775  1.00  0.00     0.058 A 
ATOM     62  C   UNL A   1      45.160  28.778  35.547  1.00  0.00     0.135 A 
ATOM     63  C   UNL A   1      43.541  27.417  36.692  1.00  0.00     0.135 A 
ATOM     64  F   UNL A   1      45.478  29.741  34.669  1.00  0.00    -0.206 F 
ATOM     65  C   UNL A   1      46.195  28.107  36.188  1.00  0.00     0.059 A 
ATOM     66  C   UNL A   1      44.560  26.748  37.364  1.00  0.00     0.059 A 
ATOM     67  F   UNL A   1      42.274  27.057  36.945  1.00  0.00    -0.206 F 
ATOM     68  C   UNL A   1      45.886  27.095  37.098  1.00  0.00     0.060 A 
BRANCH  68  69
ATOM     69  S   UNL A   1      47.241  26.252  37.941  1.00  0.00     0.124 S 
ATOM     70  O   UNL A   1      46.940  26.546  39.339  1.00  0.00    -0.237 OA
ATOM     71  O   UNL A   1      47.048  24.864  37.531  1.00  0.00    -0.237 OA
ATOM     72  O   UNL A   1      48.433  26.900  37.405  1.00  0.00    -0.744 OA
ENDBRANCH  68  69
ENDBRANCH  47  61
BRANCH  48  73
ATOM     73  C   UNL A   1      36.477  33.232  30.951  1.00  0.00     0.058 A 
ATOM     74  C   UNL A   1      36.713  34.054  29.839  1.00  0.00     0.135 A 
ATOM     75  C   UNL A   1      35.154  33.116  31.407  1.00  0.00     0.135 A 
ATOM     76  F   UNL A   1      37.960  34.200  29.366  1.00  0.00    -0.206 F 
ATOM     77  C   UNL A   1      35.686  34.765  29.226  1.00  0.00     0.059 A 
ATOM     78  C   UNL A   1      34.107  33.795  30.794  1.00  0.00     0.059 A 
ATOM     79  F   UNL A   1      34.871  32.325  32.454  1.00  0.00    -0.206 F 
ATOM     80  C   UNL A   1      34.387  34.633  29.716  1.00  0.00     0.060 A 
BRANCH  80  81
ATOM     81  S   UNL A   1      33.057  35.554  28.913  1.00  0.00     0.124 S 
ATOM     82  O   UNL A   1      32.440  34.520  28.090  1.00  0.00    -0.237 OA
ATOM     83  O   UNL A   1      32.270  36.020  30.051  1.00  0.00    -0.237 OA
ATOM     84  O   UNL A   1      33.768  36.601  28.185  1.00  0.00    -0.744 OA
ENDBRANCH  80  81
ENDBRANCH  48  73
BRANCH  60  85
ATOM     85  C   UNL A   1      39.849  34.351  36.946  1.00  0.00     0.058 A 
ATOM     86  C   UNL A   1      40.556  35.558  36.827  1.00  0.00     0.135 A 
ATOM     87  C   UNL A   1      38.992  34.197  38.048  1.00  0.00     0.135 A 
ATOM     88  F   UNL A   1      41.392  35.752  35.796  1.00  0.00    -0.206 F 
ATOM     89  C   UNL A   1      40.434  36.566  37.778  1.00  0.00     0.059 A 
ATOM     90  C   UNL A   1      38.835  35.203  38.996  1.00  0.00     0.059 A 
ATOM     91  F   UNL A   1      38.286  33.066  38.202  1.00  0.00    -0.206 F 
ATOM     92  C   UNL A   1      39.570  36.379  38.859  1.00  0.00     0.060 A 
BRANCH  92  93
ATOM     93  S   UNL A   1      39.397  37.709  40.067  1.00  0.00     0.124 S 
ATOM     94  O   UNL A   1      38.202  38.392  39.582  1.00  0.00    -0.237 OA
ATOM     95  O   UNL A   1      39.244  36.977  41.320  1.00  0.00    -0.237 OA
ATOM     96  O   UNL A   1      40.645  38.455  39.932  1.00  0.00    -0.744 OA
ENDBRANCH  92  93
ENDBRANCH  60  85
ENDBRANCH  34  35
ENDBRANCH  26  29
ENDBRANCH  24  25
ENDBRANCH   1  24
TORSDOF 16
ENDMDL
