MODEL 1
REMARK VINA RESULT:     -13.5      0.000      0.000
REMARK SMILES O=C(NCCCNC(=O)[C@H]1[C@H]2CC[C@H](CC2)[C@@H]1C(=O)Nc1ccc(Cc2ccncc2)cc1)c1ccc(-c2c3nc(c(-c4c(F)cc(S(=O)(=O)[O-])cc4F)c4ccc([nH]4)c(-c4c(F)cc(S(=O)(=O)[O-])cc4F)c4nc(c(-c5c(F)cc(S(=O)(=O)[O-])cc5F)c5ccc2[nH]5)C=C4)C=C3)cc1
REMARK SMILES IDX 5 1 4 2 3 3 1 4 2 5 34 7 35 8 99 9 36 10 98 11 37 12 38 13
REMARK SMILES IDX 39 14 92 15 40 16 97 17 91 18 93 19 41 20 96 21 90 22 89 23
REMARK SMILES IDX 42 25 76 26 55 27 75 28 56 29 59 30 74 31 94 32 57 33 58 34
REMARK SMILES IDX 73 36 95 37 60 38 43 39 44 40 53 41 45 42 46 43 52 44 54 45
REMARK SMILES IDX 47 46 48 47 49 48 50 49 51 50 77 51 78 52 87 53 79 54 80 55
REMARK SMILES IDX 86 56 88 57 81 58 82 59 83 60 84 61 85 62 61 63 62 64 71 65
REMARK SMILES IDX 63 66 64 67 70 68 72 69 65 70 66 71 67 72 68 73 69 74 6 75
REMARK SMILES IDX 7 76 8 77 9 79 10 80 11 81 17 82 12 83 16 84 14 85 13 86
REMARK SMILES IDX 15 87 18 88 19 89 20 90 21 92 22 93 33 94 23 95 32 96 24 97
REMARK SMILES IDX 25 98 26 99 27 100 31 101 28 102 30 103 29 104
REMARK H PARENT 3 6 93 24 59 35 7 78 20 91
REMARK Flexibility Score: inf
ROOT
ATOM      1  C   UNL A   1      33.866  30.762  27.301  1.00  0.00     0.042 C 
ENDROOT
BRANCH   1   2
ATOM      2  C   UNL A   1      35.236  30.453  27.889  1.00  0.00     0.118 C 
BRANCH   2   3
ATOM      3  N   UNL A   1      35.283  30.590  29.340  1.00  0.00    -0.352 N 
ATOM      4  O   UNL A   1      36.033  30.288  31.440  1.00  0.00    -0.269 OA
ATOM      5  C   UNL A   1      36.265  30.240  30.235  1.00  0.00     0.251 C 
ATOM      6  H   UNL A   1      34.483  30.999  29.742  1.00  0.00     0.163 HD
BRANCH   5   7
ATOM      7  C   UNL A   1      37.581  29.774  29.750  1.00  0.00     0.039 A 
ATOM      8  C   UNL A   1      38.469  29.129  30.611  1.00  0.00     0.014 A 
ATOM      9  C   UNL A   1      37.935  29.986  28.414  1.00  0.00     0.014 A 
ATOM     10  C   UNL A   1      39.771  28.880  30.198  1.00  0.00     0.010 A 
ATOM     11  C   UNL A   1      39.211  29.628  27.968  1.00  0.00     0.010 A 
ATOM     12  C   UNL A   1      40.156  29.113  28.869  1.00  0.00    -0.014 A 
BRANCH  12  13
ATOM     13  C   UNL A   1      41.536  28.766  28.445  1.00  0.00     0.031 A 
ATOM     14  C   UNL A   1      42.649  29.777  28.502  1.00  0.00     0.074 A 
ATOM     15  C   UNL A   1      41.789  27.502  28.048  1.00  0.00     0.049 A 
ATOM     16  N   UNL A   1      43.914  29.626  28.197  1.00  0.00    -0.248 NA
ATOM     17  C   UNL A   1      42.300  31.134  28.948  1.00  0.00     0.031 C 
ATOM     18  C   UNL A   1      40.788  26.437  27.945  1.00  0.00     0.029 A 
ATOM     19  N   UNL A   1      42.960  26.890  27.687  1.00  0.00    -0.354 N 
ATOM     20  C   UNL A   1      44.504  30.870  28.382  1.00  0.00     0.074 A 
ATOM     21  C   UNL A   1      43.454  31.772  28.809  1.00  0.00     0.031 C 
ATOM     22  C   UNL A   1      41.396  25.290  27.615  1.00  0.00     0.029 A 
ATOM     23  C   UNL A   1      42.816  25.551  27.412  1.00  0.00     0.049 A 
ATOM     24  H   UNL A   1      43.822  27.363  27.629  1.00  0.00     0.167 HD
ATOM     25  C   UNL A   1      45.801  31.226  28.214  1.00  0.00     0.037 A 
ATOM     26  C   UNL A   1      43.722  24.632  27.029  1.00  0.00     0.037 A 
ATOM     27  C   UNL A   1      46.843  30.315  27.813  1.00  0.00     0.049 A 
ATOM     28  C   UNL A   1      45.150  25.050  26.851  1.00  0.00     0.074 A 
ATOM     29  C   UNL A   1      48.194  30.569  27.649  1.00  0.00     0.029 A 
ATOM     30  N   UNL A   1      46.651  28.974  27.512  1.00  0.00    -0.354 N 
ATOM     31  N   UNL A   1      45.691  26.229  27.043  1.00  0.00    -0.248 NA
ATOM     32  C   UNL A   1      46.089  24.019  26.394  1.00  0.00     0.031 C 
ATOM     33  C   UNL A   1      48.812  29.390  27.212  1.00  0.00     0.029 A 
ATOM     34  C   UNL A   1      47.853  28.391  27.145  1.00  0.00     0.049 A 
ATOM     35  H   UNL A   1      45.786  28.504  27.552  1.00  0.00     0.167 HD
ATOM     36  C   UNL A   1      47.038  26.080  26.742  1.00  0.00     0.074 A 
ATOM     37  C   UNL A   1      47.231  24.692  26.369  1.00  0.00     0.031 C 
ATOM     38  C   UNL A   1      48.026  27.009  26.772  1.00  0.00     0.037 A 
BRANCH  25  39
ATOM     39  C   UNL A   1      46.158  32.671  28.437  1.00  0.00     0.058 A 
ATOM     40  C   UNL A   1      46.113  33.617  27.401  1.00  0.00     0.135 A 
ATOM     41  C   UNL A   1      46.544  33.118  29.711  1.00  0.00     0.135 A 
ATOM     42  F   UNL A   1      45.763  33.243  26.159  1.00  0.00    -0.206 F 
ATOM     43  C   UNL A   1      46.477  34.944  27.610  1.00  0.00     0.059 A 
ATOM     44  C   UNL A   1      46.890  34.446  29.949  1.00  0.00     0.059 A 
ATOM     45  F   UNL A   1      46.601  32.258  30.740  1.00  0.00    -0.206 F 
ATOM     46  C   UNL A   1      46.873  35.347  28.886  1.00  0.00     0.060 A 
BRANCH  46  47
ATOM     47  S   UNL A   1      47.376  37.063  29.138  1.00  0.00     0.124 S 
ATOM     48  O   UNL A   1      48.337  37.245  28.054  1.00  0.00    -0.237 OA
ATOM     49  O   UNL A   1      46.116  37.786  28.994  1.00  0.00    -0.237 OA
ATOM     50  O   UNL A   1      47.941  37.057  30.484  1.00  0.00    -0.744 OA
ENDBRANCH  46  47
ENDBRANCH  25  39
BRANCH  26  51
ATOM     51  C   UNL A   1      43.286  23.229  26.806  1.00  0.00     0.058 A 
ATOM     52  C   UNL A   1      43.204  22.700  25.511  1.00  0.00     0.135 A 
ATOM     53  C   UNL A   1      43.014  22.374  27.885  1.00  0.00     0.135 A 
ATOM     54  F   UNL A   1      43.453  23.482  24.449  1.00  0.00    -0.206 F 
ATOM     55  C   UNL A   1      42.871  21.368  25.291  1.00  0.00     0.059 A 
ATOM     56  C   UNL A   1      42.703  21.033  27.692  1.00  0.00     0.059 A 
ATOM     57  F   UNL A   1      43.099  22.831  29.144  1.00  0.00    -0.206 F 
ATOM     58  C   UNL A   1      42.632  20.540  26.389  1.00  0.00     0.060 A 
BRANCH  58  59
ATOM     59  S   UNL A   1      42.290  18.790  26.099  1.00  0.00     0.124 S 
ATOM     60  O   UNL A   1      40.880  18.825  25.729  1.00  0.00    -0.237 OA
ATOM     61  O   UNL A   1      43.226  18.468  25.026  1.00  0.00    -0.237 OA
ATOM     62  O   UNL A   1      42.592  18.172  27.387  1.00  0.00    -0.744 OA
ENDBRANCH  58  59
ENDBRANCH  26  51
BRANCH  38  63
ATOM     63  C   UNL A   1      49.408  26.544  26.413  1.00  0.00     0.058 A 
ATOM     64  C   UNL A   1      49.920  26.694  25.115  1.00  0.00     0.135 A 
ATOM     65  C   UNL A   1      50.239  25.970  27.387  1.00  0.00     0.135 A 
ATOM     66  F   UNL A   1      49.159  27.228  24.146  1.00  0.00    -0.206 F 
ATOM     67  C   UNL A   1      51.203  26.266  24.788  1.00  0.00     0.059 A 
ATOM     68  C   UNL A   1      51.533  25.556  27.088  1.00  0.00     0.059 A 
ATOM     69  F   UNL A   1      49.799  25.812  28.644  1.00  0.00    -0.206 F 
ATOM     70  C   UNL A   1      52.001  25.697  25.781  1.00  0.00     0.060 A 
BRANCH  70  71
ATOM     71  S   UNL A   1      53.673  25.168  25.354  1.00  0.00     0.124 S 
ATOM     72  O   UNL A   1      53.550  23.715  25.434  1.00  0.00    -0.237 OA
ATOM     73  O   UNL A   1      53.844  25.715  24.012  1.00  0.00    -0.237 OA
ATOM     74  O   UNL A   1      54.498  25.786  26.386  1.00  0.00    -0.744 OA
ENDBRANCH  70  71
ENDBRANCH  38  63
ENDBRANCH  12  13
ENDBRANCH   5   7
ENDBRANCH   2   3
ENDBRANCH   1   2
BRANCH   1  75
ATOM     75  C   UNL A   1      32.945  29.559  27.201  1.00  0.00     0.117 C 
BRANCH  75  76
ATOM     76  N   UNL A   1      33.656  28.349  26.832  1.00  0.00    -0.356 N 
ATOM     77  C   UNL A   1      33.302  27.354  25.976  1.00  0.00     0.224 C 
ATOM     78  H   UNL A   1      34.531  28.230  27.268  1.00  0.00     0.163 HD
ATOM     79  O   UNL A   1      34.115  26.447  25.800  1.00  0.00    -0.275 OA
BRANCH  77  80
ATOM     80  C   UNL A   1      31.956  27.426  25.260  1.00  0.00     0.094 C 
ATOM     81  C   UNL A   1      31.951  28.641  24.292  1.00  0.00     0.002 C 
ATOM     82  C   UNL A   1      31.655  26.128  24.465  1.00  0.00     0.094 C 
ATOM     83  C   UNL A   1      32.984  28.430  23.166  1.00  0.00     0.005 C 
ATOM     84  C   UNL A   1      30.553  28.742  23.665  1.00  0.00     0.005 C 
ATOM     85  C   UNL A   1      31.412  26.476  22.966  1.00  0.00     0.002 C 
ATOM     86  C   UNL A   1      32.708  27.116  22.428  1.00  0.00     0.005 C 
ATOM     87  C   UNL A   1      30.287  27.515  22.789  1.00  0.00     0.005 C 
BRANCH  82  88
ATOM     88  C   UNL A   1      30.451  25.370  25.041  1.00  0.00     0.228 C 
ATOM     89  O   UNL A   1      29.459  25.962  25.472  1.00  0.00    -0.274 OA
ATOM     90  N   UNL A   1      30.398  24.006  24.923  1.00  0.00    -0.326 N 
ATOM     91  H   UNL A   1      29.493  23.620  24.888  1.00  0.00     0.169 HD
BRANCH  90  92
ATOM     92  C   UNL A   1      31.450  23.083  24.845  1.00  0.00     0.041 A 
ATOM     93  C   UNL A   1      32.105  22.720  26.020  1.00  0.00     0.026 A 
ATOM     94  C   UNL A   1      31.894  22.564  23.629  1.00  0.00     0.026 A 
ATOM     95  C   UNL A   1      33.108  21.746  25.989  1.00  0.00     0.006 A 
ATOM     96  C   UNL A   1      32.919  21.615  23.592  1.00  0.00     0.006 A 
ATOM     97  C   UNL A   1      33.515  21.169  24.777  1.00  0.00    -0.043 A 
BRANCH  97  98
ATOM     98  C   UNL A   1      34.543  20.061  24.742  1.00  0.00     0.071 C 
BRANCH  98  99
ATOM     99  C   UNL A   1      33.982  18.659  24.750  1.00  0.00    -0.041 A 
ATOM    100  C   UNL A   1      32.836  18.345  25.486  1.00  0.00     0.024 A 
ATOM    101  C   UNL A   1      34.578  17.644  23.997  1.00  0.00     0.024 A 
ATOM    102  C   UNL A   1      32.341  17.051  25.438  1.00  0.00     0.111 A 
ATOM    103  C   UNL A   1      34.002  16.381  24.005  1.00  0.00     0.111 A 
ATOM    104  N   UNL A   1      32.893  16.063  24.706  1.00  0.00    -0.265 NA
ENDBRANCH  98  99
ENDBRANCH  97  98
ENDBRANCH  90  92
ENDBRANCH  82  88
ENDBRANCH  77  80
ENDBRANCH  75  76
ENDBRANCH   1  75
TORSDOF 17
ENDMDL
MODEL 2
REMARK VINA RESULT:     -13.4      1.125      2.093
REMARK SMILES O=C(NCCCNC(=O)[C@H]1[C@H]2CC[C@H](CC2)[C@@H]1C(=O)Nc1ccc(Cc2ccncc2)cc1)c1ccc(-c2c3nc(c(-c4c(F)cc(S(=O)(=O)[O-])cc4F)c4ccc([nH]4)c(-c4c(F)cc(S(=O)(=O)[O-])cc4F)c4nc(c(-c5c(F)cc(S(=O)(=O)[O-])cc5F)c5ccc2[nH]5)C=C4)C=C3)cc1
REMARK SMILES IDX 5 1 4 2 3 3 1 4 2 5 34 7 35 8 99 9 36 10 98 11 37 12 38 13
REMARK SMILES IDX 39 14 92 15 40 16 97 17 91 18 93 19 41 20 96 21 90 22 89 23
REMARK SMILES IDX 42 25 76 26 55 27 75 28 56 29 59 30 74 31 94 32 57 33 58 34
REMARK SMILES IDX 73 36 95 37 60 38 43 39 44 40 53 41 45 42 46 43 52 44 54 45
REMARK SMILES IDX 47 46 48 47 49 48 50 49 51 50 77 51 78 52 87 53 79 54 80 55
REMARK SMILES IDX 86 56 88 57 81 58 82 59 83 60 84 61 85 62 61 63 62 64 71 65
REMARK SMILES IDX 63 66 64 67 70 68 72 69 65 70 66 71 67 72 68 73 69 74 6 75
REMARK SMILES IDX 7 76 8 77 9 79 10 80 11 81 17 82 12 83 16 84 14 85 13 86
REMARK SMILES IDX 15 87 18 88 19 89 20 90 21 92 22 93 33 94 23 95 32 96 24 97
REMARK SMILES IDX 25 98 26 99 27 100 31 101 28 102 30 103 29 104
REMARK H PARENT 3 6 93 24 59 35 7 78 20 91
REMARK Flexibility Score: inf
ROOT
ATOM      1  C   UNL A   1      33.862  30.688  27.254  1.00  0.00     0.042 C 
ENDROOT
BRANCH   1   2
ATOM      2  C   UNL A   1      35.213  30.341  27.861  1.00  0.00     0.118 C 
BRANCH   2   3
ATOM      3  N   UNL A   1      35.264  30.538  29.305  1.00  0.00    -0.352 N 
ATOM      4  O   UNL A   1      36.025  30.333  31.413  1.00  0.00    -0.269 OA
ATOM      5  C   UNL A   1      36.254  30.238  30.210  1.00  0.00     0.251 C 
ATOM      6  H   UNL A   1      34.460  30.953  29.693  1.00  0.00     0.163 HD
BRANCH   5   7
ATOM      7  C   UNL A   1      37.574  29.771  29.739  1.00  0.00     0.039 A 
ATOM      8  C   UNL A   1      38.452  29.126  30.610  1.00  0.00     0.014 A 
ATOM      9  C   UNL A   1      37.943  29.982  28.408  1.00  0.00     0.014 A 
ATOM     10  C   UNL A   1      39.758  28.875  30.212  1.00  0.00     0.010 A 
ATOM     11  C   UNL A   1      39.222  29.622  27.975  1.00  0.00     0.010 A 
ATOM     12  C   UNL A   1      40.157  29.107  28.886  1.00  0.00    -0.014 A 
BRANCH  12  13
ATOM     13  C   UNL A   1      41.542  28.758  28.477  1.00  0.00     0.031 A 
ATOM     14  C   UNL A   1      42.655  29.767  28.548  1.00  0.00     0.074 A 
ATOM     15  C   UNL A   1      41.797  27.495  28.082  1.00  0.00     0.049 A 
ATOM     16  N   UNL A   1      43.923  29.614  28.257  1.00  0.00    -0.248 NA
ATOM     17  C   UNL A   1      42.303  31.124  28.991  1.00  0.00     0.031 C 
ATOM     18  C   UNL A   1      40.796  26.431  27.967  1.00  0.00     0.029 A 
ATOM     19  N   UNL A   1      42.972  26.881  27.733  1.00  0.00    -0.354 N 
ATOM     20  C   UNL A   1      44.513  30.858  28.450  1.00  0.00     0.074 A 
ATOM     21  C   UNL A   1      43.460  31.761  28.866  1.00  0.00     0.031 C 
ATOM     22  C   UNL A   1      41.406  25.284  27.642  1.00  0.00     0.029 A 
ATOM     23  C   UNL A   1      42.828  25.542  27.456  1.00  0.00     0.049 A 
ATOM     24  H   UNL A   1      43.834  27.352  27.686  1.00  0.00     0.167 HD
ATOM     25  C   UNL A   1      45.813  31.212  28.297  1.00  0.00     0.037 A 
ATOM     26  C   UNL A   1      43.737  24.622  27.082  1.00  0.00     0.037 A 
ATOM     27  C   UNL A   1      46.858  30.300  27.906  1.00  0.00     0.049 A 
ATOM     28  C   UNL A   1      45.168  25.038  26.920  1.00  0.00     0.074 A 
ATOM     29  C   UNL A   1      48.211  30.552  27.758  1.00  0.00     0.029 A 
ATOM     30  N   UNL A   1      46.667  28.959  27.602  1.00  0.00    -0.354 N 
ATOM     31  N   UNL A   1      45.709  26.216  27.119  1.00  0.00    -0.248 NA
ATOM     32  C   UNL A   1      46.110  24.006  26.472  1.00  0.00     0.031 C 
ATOM     33  C   UNL A   1      48.832  29.373  27.327  1.00  0.00     0.029 A 
ATOM     34  C   UNL A   1      47.872  28.375  27.247  1.00  0.00     0.049 A 
ATOM     35  H   UNL A   1      45.801  28.491  27.632  1.00  0.00     0.167 HD
ATOM     36  C   UNL A   1      47.059  26.065  26.833  1.00  0.00     0.074 A 
ATOM     37  C   UNL A   1      47.254  24.678  26.461  1.00  0.00     0.031 C 
ATOM     38  C   UNL A   1      48.047  26.993  26.875  1.00  0.00     0.037 A 
BRANCH  25  39
ATOM     39  C   UNL A   1      46.169  32.656  28.525  1.00  0.00     0.058 A 
ATOM     40  C   UNL A   1      46.564  33.136  29.784  1.00  0.00     0.135 A 
ATOM     41  C   UNL A   1      46.122  33.574  27.463  1.00  0.00     0.135 A 
ATOM     42  F   UNL A   1      46.614  32.306  30.838  1.00  0.00    -0.206 F 
ATOM     43  C   UNL A   1      46.860  34.480  29.991  1.00  0.00     0.059 A 
ATOM     44  C   UNL A   1      46.436  34.919  27.641  1.00  0.00     0.059 A 
ATOM     45  F   UNL A   1      45.755  33.170  26.236  1.00  0.00    -0.206 F 
ATOM     46  C   UNL A   1      46.783  35.366  28.915  1.00  0.00     0.060 A 
BRANCH  46  47
ATOM     47  S   UNL A   1      47.135  37.114  29.202  1.00  0.00     0.124 S 
ATOM     48  O   UNL A   1      47.389  37.125  30.640  1.00  0.00    -0.237 OA
ATOM     49  O   UNL A   1      48.299  37.346  28.353  1.00  0.00    -0.237 OA
ATOM     50  O   UNL A   1      45.910  37.782  28.775  1.00  0.00    -0.744 OA
ENDBRANCH  46  47
ENDBRANCH  25  39
BRANCH  26  51
ATOM     51  C   UNL A   1      43.302  23.220  26.853  1.00  0.00     0.058 A 
ATOM     52  C   UNL A   1      43.217  22.698  25.555  1.00  0.00     0.135 A 
ATOM     53  C   UNL A   1      43.033  22.359  27.927  1.00  0.00     0.135 A 
ATOM     54  F   UNL A   1      43.463  23.485  24.497  1.00  0.00    -0.206 F 
ATOM     55  C   UNL A   1      42.884  21.367  25.329  1.00  0.00     0.059 A 
ATOM     56  C   UNL A   1      42.723  21.019  27.728  1.00  0.00     0.059 A 
ATOM     57  F   UNL A   1      43.121  22.810  29.189  1.00  0.00    -0.206 F 
ATOM     58  C   UNL A   1      42.649  20.533  26.423  1.00  0.00     0.060 A 
BRANCH  58  59
ATOM     59  S   UNL A   1      42.307  18.784  26.124  1.00  0.00     0.124 S 
ATOM     60  O   UNL A   1      42.598  18.202  27.430  1.00  0.00    -0.237 OA
ATOM     61  O   UNL A   1      40.901  18.807  25.733  1.00  0.00    -0.237 OA
ATOM     62  O   UNL A   1      43.241  18.440  25.055  1.00  0.00    -0.744 OA
ENDBRANCH  58  59
ENDBRANCH  26  51
BRANCH  38  63
ATOM     63  C   UNL A   1      49.432  26.526  26.531  1.00  0.00     0.058 A 
ATOM     64  C   UNL A   1      50.279  25.962  27.498  1.00  0.00     0.135 A 
ATOM     65  C   UNL A   1      49.905  26.616  25.213  1.00  0.00     0.135 A 
ATOM     66  F   UNL A   1      49.875  25.864  28.775  1.00  0.00    -0.206 F 
ATOM     67  C   UNL A   1      51.560  25.525  27.174  1.00  0.00     0.059 A 
ATOM     68  C   UNL A   1      51.173  26.164  24.862  1.00  0.00     0.059 A 
ATOM     69  F   UNL A   1      49.131  27.140  24.251  1.00  0.00    -0.206 F 
ATOM     70  C   UNL A   1      51.998  25.633  25.853  1.00  0.00     0.060 A 
BRANCH  70  71
ATOM     71  S   UNL A   1      53.652  25.041  25.437  1.00  0.00     0.124 S 
ATOM     72  O   UNL A   1      53.928  25.783  24.211  1.00  0.00    -0.237 OA
ATOM     73  O   UNL A   1      54.432  25.436  26.606  1.00  0.00    -0.237 OA
ATOM     74  O   UNL A   1      53.466  23.603  25.274  1.00  0.00    -0.744 OA
ENDBRANCH  70  71
ENDBRANCH  38  63
ENDBRANCH  12  13
ENDBRANCH   5   7
ENDBRANCH   2   3
ENDBRANCH   1   2
BRANCH   1  75
ATOM     75  C   UNL A   1      32.873  29.536  27.234  1.00  0.00     0.117 C 
BRANCH  75  76
ATOM     76  N   UNL A   1      33.510  28.268  26.929  1.00  0.00    -0.356 N 
ATOM     77  C   UNL A   1      33.201  27.340  25.985  1.00  0.00     0.224 C 
ATOM     78  H   UNL A   1      34.287  28.045  27.492  1.00  0.00     0.163 HD
ATOM     79  O   UNL A   1      33.938  26.357  25.899  1.00  0.00    -0.275 OA
BRANCH  77  80
ATOM     80  C   UNL A   1      32.003  27.573  25.070  1.00  0.00     0.094 C 
ATOM     81  C   UNL A   1      32.263  28.826  24.188  1.00  0.00     0.002 C 
ATOM     82  C   UNL A   1      31.725  26.348  24.159  1.00  0.00     0.094 C 
ATOM     83  C   UNL A   1      33.445  28.569  23.231  1.00  0.00     0.005 C 
ATOM     84  C   UNL A   1      31.001  29.089  23.354  1.00  0.00     0.005 C 
ATOM     85  C   UNL A   1      31.763  26.786  22.664  1.00  0.00     0.002 C 
ATOM     86  C   UNL A   1      33.180  27.322  22.379  1.00  0.00     0.005 C 
ATOM     87  C   UNL A   1      30.776  27.934  22.374  1.00  0.00     0.005 C 
BRANCH  82  88
ATOM     88  C   UNL A   1      30.381  25.683  24.489  1.00  0.00     0.228 C 
ATOM     89  O   UNL A   1      29.377  26.349  24.755  1.00  0.00    -0.274 OA
ATOM     90  N   UNL A   1      30.243  24.330  24.323  1.00  0.00    -0.326 N 
ATOM     91  H   UNL A   1      29.332  24.021  24.116  1.00  0.00     0.169 HD
BRANCH  90  92
ATOM     92  C   UNL A   1      31.216  23.324  24.406  1.00  0.00     0.041 A 
ATOM     93  C   UNL A   1      31.859  22.924  23.237  1.00  0.00     0.026 A 
ATOM     94  C   UNL A   1      31.517  22.679  25.604  1.00  0.00     0.026 A 
ATOM     95  C   UNL A   1      32.888  21.977  23.294  1.00  0.00     0.006 A 
ATOM     96  C   UNL A   1      32.521  21.709  25.658  1.00  0.00     0.006 A 
ATOM     97  C   UNL A   1      33.243  21.372  24.509  1.00  0.00    -0.043 A 
BRANCH  97  98
ATOM     98  C   UNL A   1      34.404  20.407  24.594  1.00  0.00     0.071 C 
BRANCH  98  99
ATOM     99  C   UNL A   1      35.736  21.027  24.939  1.00  0.00    -0.041 A 
ATOM    100  C   UNL A   1      35.833  22.377  25.288  1.00  0.00     0.024 A 
ATOM    101  C   UNL A   1      36.904  20.260  24.947  1.00  0.00     0.024 A 
ATOM    102  C   UNL A   1      37.074  22.894  25.627  1.00  0.00     0.111 A 
ATOM    103  C   UNL A   1      38.098  20.866  25.310  1.00  0.00     0.111 A 
ATOM    104  N   UNL A   1      38.209  22.166  25.656  1.00  0.00    -0.265 NA
ENDBRANCH  98  99
ENDBRANCH  97  98
ENDBRANCH  90  92
ENDBRANCH  82  88
ENDBRANCH  77  80
ENDBRANCH  75  76
ENDBRANCH   1  75
TORSDOF 17
ENDMDL
MODEL 3
REMARK VINA RESULT:     -13.4      1.662      4.767
REMARK SMILES O=C(NCCCNC(=O)[C@H]1[C@H]2CC[C@H](CC2)[C@@H]1C(=O)Nc1ccc(Cc2ccncc2)cc1)c1ccc(-c2c3nc(c(-c4c(F)cc(S(=O)(=O)[O-])cc4F)c4ccc([nH]4)c(-c4c(F)cc(S(=O)(=O)[O-])cc4F)c4nc(c(-c5c(F)cc(S(=O)(=O)[O-])cc5F)c5ccc2[nH]5)C=C4)C=C3)cc1
REMARK SMILES IDX 5 1 4 2 3 3 1 4 2 5 34 7 35 8 99 9 36 10 98 11 37 12 38 13
REMARK SMILES IDX 39 14 92 15 40 16 97 17 91 18 93 19 41 20 96 21 90 22 89 23
REMARK SMILES IDX 42 25 76 26 55 27 75 28 56 29 59 30 74 31 94 32 57 33 58 34
REMARK SMILES IDX 73 36 95 37 60 38 43 39 44 40 53 41 45 42 46 43 52 44 54 45
REMARK SMILES IDX 47 46 48 47 49 48 50 49 51 50 77 51 78 52 87 53 79 54 80 55
REMARK SMILES IDX 86 56 88 57 81 58 82 59 83 60 84 61 85 62 61 63 62 64 71 65
REMARK SMILES IDX 63 66 64 67 70 68 72 69 65 70 66 71 67 72 68 73 69 74 6 75
REMARK SMILES IDX 7 76 8 77 9 79 10 80 11 81 17 82 12 83 16 84 14 85 13 86
REMARK SMILES IDX 15 87 18 88 19 89 20 90 21 92 22 93 33 94 23 95 32 96 24 97
REMARK SMILES IDX 25 98 26 99 27 100 31 101 28 102 30 103 29 104
REMARK H PARENT 3 6 93 24 59 35 7 78 20 91
REMARK Flexibility Score: inf
ROOT
ATOM      1  C   UNL A   1      33.952  28.991  26.985  1.00  0.00     0.042 C 
ENDROOT
BRANCH   1   2
ATOM      2  C   UNL A   1      35.322  29.333  27.555  1.00  0.00     0.118 C 
BRANCH   2   3
ATOM      3  N   UNL A   1      35.259  29.915  28.890  1.00  0.00    -0.352 N 
ATOM      4  O   UNL A   1      35.956  30.476  30.956  1.00  0.00    -0.269 OA
ATOM      5  C   UNL A   1      36.253  30.123  29.817  1.00  0.00     0.251 C 
ATOM      6  H   UNL A   1      34.362  30.205  29.173  1.00  0.00     0.163 HD
BRANCH   5   7
ATOM      7  C   UNL A   1      37.667  29.890  29.455  1.00  0.00     0.039 A 
ATOM      8  C   UNL A   1      38.104  30.069  28.143  1.00  0.00     0.014 A 
ATOM      9  C   UNL A   1      38.570  29.485  30.442  1.00  0.00     0.014 A 
ATOM     10  C   UNL A   1      39.378  29.655  27.778  1.00  0.00     0.010 A 
ATOM     11  C   UNL A   1      39.888  29.178  30.093  1.00  0.00     0.010 A 
ATOM     12  C   UNL A   1      40.292  29.217  28.750  1.00  0.00    -0.014 A 
BRANCH  12  13
ATOM     13  C   UNL A   1      41.670  28.851  28.332  1.00  0.00     0.031 A 
ATOM     14  C   UNL A   1      42.791  29.852  28.378  1.00  0.00     0.074 A 
ATOM     15  C   UNL A   1      41.911  27.581  27.951  1.00  0.00     0.049 A 
ATOM     16  N   UNL A   1      44.055  29.686  28.078  1.00  0.00    -0.248 NA
ATOM     17  C   UNL A   1      42.454  31.218  28.807  1.00  0.00     0.031 C 
ATOM     18  C   UNL A   1      40.900  26.524  27.860  1.00  0.00     0.029 A 
ATOM     19  N   UNL A   1      43.077  26.953  27.600  1.00  0.00    -0.354 N 
ATOM     20  C   UNL A   1      44.656  30.927  28.249  1.00  0.00     0.074 A 
ATOM     21  C   UNL A   1      43.615  31.844  28.663  1.00  0.00     0.031 C 
ATOM     22  C   UNL A   1      41.498  25.367  27.545  1.00  0.00     0.029 A 
ATOM     23  C   UNL A   1      42.921  25.612  27.342  1.00  0.00     0.049 A 
ATOM     24  H   UNL A   1      43.943  27.417  27.537  1.00  0.00     0.167 HD
ATOM     25  C   UNL A   1      45.957  31.268  28.079  1.00  0.00     0.037 A 
ATOM     26  C   UNL A   1      43.819  24.680  26.971  1.00  0.00     0.037 A 
ATOM     27  C   UNL A   1      46.991  30.343  27.690  1.00  0.00     0.049 A 
ATOM     28  C   UNL A   1      45.251  25.082  26.790  1.00  0.00     0.074 A 
ATOM     29  C   UNL A   1      48.345  30.582  27.525  1.00  0.00     0.029 A 
ATOM     30  N   UNL A   1      46.787  29.000  27.405  1.00  0.00    -0.354 N 
ATOM     31  N   UNL A   1      45.803  26.259  26.969  1.00  0.00    -0.248 NA
ATOM     32  C   UNL A   1      46.181  24.037  26.347  1.00  0.00     0.031 C 
ATOM     33  C   UNL A   1      48.952  29.393  27.104  1.00  0.00     0.029 A 
ATOM     34  C   UNL A   1      47.984  28.402  27.047  1.00  0.00     0.049 A 
ATOM     35  H   UNL A   1      45.918  28.539  27.450  1.00  0.00     0.167 HD
ATOM     36  C   UNL A   1      47.149  26.093  26.672  1.00  0.00     0.074 A 
ATOM     37  C   UNL A   1      47.329  24.699  26.316  1.00  0.00     0.031 C 
ATOM     38  C   UNL A   1      48.145  27.014  26.692  1.00  0.00     0.037 A 
BRANCH  25  39
ATOM     39  C   UNL A   1      46.327  32.713  28.284  1.00  0.00     0.058 A 
ATOM     40  C   UNL A   1      46.769  33.199  29.524  1.00  0.00     0.135 A 
ATOM     41  C   UNL A   1      46.244  33.624  27.218  1.00  0.00     0.135 A 
ATOM     42  F   UNL A   1      46.855  32.376  30.581  1.00  0.00    -0.206 F 
ATOM     43  C   UNL A   1      47.077  34.544  29.711  1.00  0.00     0.059 A 
ATOM     44  C   UNL A   1      46.570  34.969  27.376  1.00  0.00     0.059 A 
ATOM     45  F   UNL A   1      45.831  33.214  26.008  1.00  0.00    -0.206 F 
ATOM     46  C   UNL A   1      46.965  35.423  28.633  1.00  0.00     0.060 A 
BRANCH  46  47
ATOM     47  S   UNL A   1      47.334  37.171  28.896  1.00  0.00     0.124 S 
ATOM     48  O   UNL A   1      48.303  37.425  27.835  1.00  0.00    -0.237 OA
ATOM     49  O   UNL A   1      46.028  37.799  28.722  1.00  0.00    -0.237 OA
ATOM     50  O   UNL A   1      47.866  37.206  30.255  1.00  0.00    -0.744 OA
ENDBRANCH  46  47
ENDBRANCH  25  39
BRANCH  26  51
ATOM     51  C   UNL A   1      43.370  23.279  26.765  1.00  0.00     0.058 A 
ATOM     52  C   UNL A   1      43.320  22.723  25.479  1.00  0.00     0.135 A 
ATOM     53  C   UNL A   1      43.054  22.451  27.852  1.00  0.00     0.135 A 
ATOM     54  F   UNL A   1      43.611  23.478  24.409  1.00  0.00    -0.206 F 
ATOM     55  C   UNL A   1      42.975  21.391  25.277  1.00  0.00     0.059 A 
ATOM     56  C   UNL A   1      42.731  21.110  27.679  1.00  0.00     0.059 A 
ATOM     57  F   UNL A   1      43.108  22.934  29.104  1.00  0.00    -0.206 F 
ATOM     58  C   UNL A   1      42.691  20.590  26.385  1.00  0.00     0.060 A 
BRANCH  58  59
ATOM     59  S   UNL A   1      42.334  18.839  26.122  1.00  0.00     0.124 S 
ATOM     60  O   UNL A   1      42.595  18.285  27.445  1.00  0.00    -0.237 OA
ATOM     61  O   UNL A   1      40.935  18.869  25.706  1.00  0.00    -0.237 OA
ATOM     62  O   UNL A   1      43.281  18.458  25.077  1.00  0.00    -0.744 OA
ENDBRANCH  58  59
ENDBRANCH  26  51
BRANCH  38  63
ATOM     63  C   UNL A   1      49.523  26.531  26.341  1.00  0.00     0.058 A 
ATOM     64  C   UNL A   1      50.074  26.744  25.067  1.00  0.00     0.135 A 
ATOM     65  C   UNL A   1      50.312  25.877  27.299  1.00  0.00     0.135 A 
ATOM     66  F   UNL A   1      49.354  27.357  24.114  1.00  0.00    -0.206 F 
ATOM     67  C   UNL A   1      51.353  26.300  24.748  1.00  0.00     0.059 A 
ATOM     68  C   UNL A   1      51.602  25.445  27.009  1.00  0.00     0.059 A 
ATOM     69  F   UNL A   1      49.833  25.657  28.533  1.00  0.00    -0.206 F 
ATOM     70  C   UNL A   1      52.109  25.650  25.726  1.00  0.00     0.060 A 
BRANCH  70  71
ATOM     71  S   UNL A   1      53.776  25.099  25.310  1.00  0.00     0.124 S 
ATOM     72  O   UNL A   1      53.646  23.651  25.434  1.00  0.00    -0.237 OA
ATOM     73  O   UNL A   1      53.947  25.606  23.952  1.00  0.00    -0.237 OA
ATOM     74  O   UNL A   1      54.608  25.744  26.321  1.00  0.00    -0.744 OA
ENDBRANCH  70  71
ENDBRANCH  38  63
ENDBRANCH  12  13
ENDBRANCH   5   7
ENDBRANCH   2   3
ENDBRANCH   1   2
BRANCH   1  75
ATOM     75  C   UNL A   1      33.925  27.724  26.148  1.00  0.00     0.117 C 
BRANCH  75  76
ATOM     76  N   UNL A   1      32.652  27.032  26.235  1.00  0.00    -0.356 N 
ATOM     77  C   UNL A   1      32.318  25.768  25.863  1.00  0.00     0.224 C 
ATOM     78  H   UNL A   1      31.917  27.559  26.624  1.00  0.00     0.163 HD
ATOM     79  O   UNL A   1      31.165  25.401  26.090  1.00  0.00    -0.275 OA
BRANCH  77  80
ATOM     80  C   UNL A   1      33.376  24.869  25.230  1.00  0.00     0.094 C 
ATOM     81  C   UNL A   1      33.994  23.953  26.321  1.00  0.00     0.002 C 
ATOM     82  C   UNL A   1      32.784  23.994  24.093  1.00  0.00     0.094 C 
ATOM     83  C   UNL A   1      32.930  22.981  26.869  1.00  0.00     0.005 C 
ATOM     84  C   UNL A   1      35.120  23.135  25.671  1.00  0.00     0.005 C 
ATOM     85  C   UNL A   1      33.038  22.488  24.404  1.00  0.00     0.002 C 
ATOM     86  C   UNL A   1      32.314  22.165  25.727  1.00  0.00     0.005 C 
ATOM     87  C   UNL A   1      34.534  22.188  24.621  1.00  0.00     0.005 C 
BRANCH  82  88
ATOM     88  C   UNL A   1      33.369  24.364  22.723  1.00  0.00     0.228 C 
ATOM     89  O   UNL A   1      34.240  23.678  22.184  1.00  0.00    -0.274 OA
ATOM     90  N   UNL A   1      32.798  25.381  22.002  1.00  0.00    -0.326 N 
ATOM     91  H   UNL A   1      32.884  25.306  21.025  1.00  0.00     0.169 HD
BRANCH  90  92
ATOM     92  C   UNL A   1      32.108  26.512  22.461  1.00  0.00     0.041 A 
ATOM     93  C   UNL A   1      30.736  26.412  22.678  1.00  0.00     0.026 A 
ATOM     94  C   UNL A   1      32.740  27.741  22.651  1.00  0.00     0.026 A 
ATOM     95  C   UNL A   1      30.031  27.498  23.207  1.00  0.00     0.006 A 
ATOM     96  C   UNL A   1      32.031  28.837  23.147  1.00  0.00     0.006 A 
ATOM     97  C   UNL A   1      30.674  28.718  23.465  1.00  0.00    -0.043 A 
BRANCH  97  98
ATOM     98  C   UNL A   1      29.938  29.872  24.108  1.00  0.00     0.071 C 
BRANCH  98  99
ATOM     99  C   UNL A   1      29.226  30.797  23.151  1.00  0.00    -0.041 A 
ATOM    100  C   UNL A   1      29.034  32.146  23.461  1.00  0.00     0.024 A 
ATOM    101  C   UNL A   1      28.765  30.334  21.916  1.00  0.00     0.024 A 
ATOM    102  C   UNL A   1      28.401  32.963  22.536  1.00  0.00     0.111 A 
ATOM    103  C   UNL A   1      28.152  31.231  21.052  1.00  0.00     0.111 A 
ATOM    104  N   UNL A   1      27.964  32.538  21.334  1.00  0.00    -0.265 NA
ENDBRANCH  98  99
ENDBRANCH  97  98
ENDBRANCH  90  92
ENDBRANCH  82  88
ENDBRANCH  77  80
ENDBRANCH  75  76
ENDBRANCH   1  75
TORSDOF 17
ENDMDL
