MODEL 1
REMARK VINA RESULT:     -10.4      0.000      0.000
REMARK SMILES CC[C@H](C)[C@@H](Nc1ccc(Cl)c(Br)c1)C(=O)NCCCNC(=O)c1ccc(-c2c3nc(c(-c4c(F)cc(S(=O)(=O)[O-])cc4F)c4ccc([nH]4)c(-c4c(F)cc(S(=O)(=O)[O-])cc4F)c4nc(c(-c5c(F)cc(S(=O)(=O)[O-])cc5F)c5ccc2[nH]5)C=C4)C=C3)cc1
REMARK SMILES IDX 19 1 18 2 17 3 15 4 16 5 5 7 3 8 4 9 2 10 1 11 6 12 7 14
REMARK SMILES IDX 8 15 14 16 9 17 12 18 10 19 13 20 11 21 20 22 21 23 22 24
REMARK SMILES IDX 23 26 24 27 25 28 89 29 26 30 88 31 27 32 28 33 29 34 82 35
REMARK SMILES IDX 30 36 87 37 81 38 83 39 31 40 86 41 80 42 79 43 32 45 66 46
REMARK SMILES IDX 45 47 65 48 46 49 49 50 64 51 84 52 47 53 48 54 63 56 85 57
REMARK SMILES IDX 50 58 33 59 34 60 43 61 35 62 36 63 42 64 44 65 37 66 38 67
REMARK SMILES IDX 39 68 40 69 41 70 67 71 68 72 77 73 69 74 70 75 76 76 78 77
REMARK SMILES IDX 71 78 72 79 73 80 74 81 75 82 51 83 52 84 61 85 53 86 54 87
REMARK SMILES IDX 60 88 62 89 55 90 56 91 57 92 58 93 59 94
REMARK H PARENT 17 6 6 13 21 25 83 44 49 55
REMARK Flexibility Score: inf
ROOT
ATOM      1  C   UNL A   1      33.885  27.835  25.893  1.00  0.00     0.042 C 
ENDROOT
BRANCH   1   2
ATOM      2  C   UNL A   1      32.928  28.049  24.738  1.00  0.00     0.117 C 
BRANCH   2   3
ATOM      3  N   UNL A   1      33.450  27.524  23.487  1.00  0.00    -0.354 N 
ATOM      4  C   UNL A   1      33.453  26.245  23.013  1.00  0.00     0.242 C 
ATOM      5  O   UNL A   1      33.838  26.070  21.850  1.00  0.00    -0.273 OA
ATOM      6  H   UNL A   1      33.864  28.192  22.894  1.00  0.00     0.163 HD
BRANCH   4   7
ATOM      7  C   UNL A   1      33.018  25.041  23.892  1.00  0.00     0.171 C 
BRANCH   7   8
ATOM      8  C   UNL A   1      31.518  24.687  23.621  1.00  0.00     0.018 C 
ATOM      9  C   UNL A   1      31.332  23.188  23.336  1.00  0.00     0.010 C 
BRANCH   8  10
ATOM     10  C   UNL A   1      30.592  25.100  24.796  1.00  0.00     0.002 C 
ATOM     11  C   UNL A   1      29.706  26.297  24.459  1.00  0.00     0.004 C 
ENDBRANCH   8  10
ENDBRANCH   7   8
BRANCH   7  12
ATOM     12  N   UNL A   1      33.892  23.847  23.727  1.00  0.00    -0.373 N 
ATOM     13  H   UNL A   1      33.706  23.262  22.956  1.00  0.00     0.161 HD
BRANCH  12  14
ATOM     14  C   UNL A   1      34.940  23.482  24.553  1.00  0.00     0.036 A 
ATOM     15  C   UNL A   1      35.650  24.387  25.346  1.00  0.00     0.027 A 
ATOM     16  C   UNL A   1      35.443  22.176  24.444  1.00  0.00     0.043 A 
ATOM     17  C   UNL A   1      36.868  24.032  25.936  1.00  0.00     0.024 A 
ATOM     18  C   UNL A   1      36.667  21.813  25.022  1.00  0.00     0.038 A 
ATOM     19  C   UNL A   1      37.392  22.752  25.757  1.00  0.00     0.055 A 
ATOM     20  Br  UNL A   1      37.304  20.055  24.686  1.00  0.00    -0.049 Br
ATOM     21  Cl  UNL A   1      38.941  22.415  26.439  1.00  0.00    -0.083 Cl
ENDBRANCH  12  14
ENDBRANCH   7  12
ENDBRANCH   4   7
ENDBRANCH   2   3
ENDBRANCH   1   2
BRANCH   1  22
ATOM     22  C   UNL A   1      33.261  28.162  27.239  1.00  0.00     0.118 C 
BRANCH  22  23
ATOM     23  N   UNL A   1      33.199  29.597  27.500  1.00  0.00    -0.352 N 
ATOM     24  C   UNL A   1      34.179  30.439  27.973  1.00  0.00     0.251 C 
ATOM     25  H   UNL A   1      32.333  30.023  27.310  1.00  0.00     0.163 HD
ATOM     26  O   UNL A   1      33.904  31.589  28.298  1.00  0.00    -0.269 OA
BRANCH  24  27
ATOM     27  C   UNL A   1      35.556  29.927  28.121  1.00  0.00     0.039 A 
ATOM     28  C   UNL A   1      35.976  29.401  29.343  1.00  0.00     0.014 A 
ATOM     29  C   UNL A   1      36.448  30.032  27.052  1.00  0.00     0.014 A 
ATOM     30  C   UNL A   1      37.327  29.175  29.561  1.00  0.00     0.010 A 
ATOM     31  C   UNL A   1      37.792  29.702  27.244  1.00  0.00     0.010 A 
ATOM     32  C   UNL A   1      38.251  29.320  28.514  1.00  0.00    -0.014 A 
BRANCH  32  33
ATOM     33  C   UNL A   1      39.691  29.067  28.770  1.00  0.00     0.031 A 
ATOM     34  C   UNL A   1      40.545  30.108  29.446  1.00  0.00     0.074 A 
ATOM     35  C   UNL A   1      40.213  27.868  28.447  1.00  0.00     0.049 A 
ATOM     36  N   UNL A   1      41.833  30.095  29.674  1.00  0.00    -0.248 NA
ATOM     37  C   UNL A   1      39.868  31.324  29.931  1.00  0.00     0.031 C 
ATOM     38  C   UNL A   1      39.472  26.761  27.832  1.00  0.00     0.029 A 
ATOM     39  N   UNL A   1      41.476  27.364  28.613  1.00  0.00    -0.354 N 
ATOM     40  C   UNL A   1      42.125  31.298  30.307  1.00  0.00     0.074 A 
ATOM     41  C   UNL A   1      40.882  32.030  30.415  1.00  0.00     0.031 C 
ATOM     42  C   UNL A   1      40.277  25.695  27.725  1.00  0.00     0.029 A 
ATOM     43  C   UNL A   1      41.610  26.064  28.186  1.00  0.00     0.049 A 
ATOM     44  H   UNL A   1      42.217  27.883  29.001  1.00  0.00     0.167 HD
ATOM     45  C   UNL A   1      43.321  31.744  30.758  1.00  0.00     0.037 A 
ATOM     46  C   UNL A   1      42.692  25.266  28.143  1.00  0.00     0.037 A 
ATOM     47  C   UNL A   1      44.551  30.999  30.663  1.00  0.00     0.049 A 
ATOM     48  C   UNL A   1      44.013  25.807  28.605  1.00  0.00     0.074 A 
ATOM     49  C   UNL A   1      45.827  31.386  31.037  1.00  0.00     0.029 A 
ATOM     50  N   UNL A   1      44.652  29.701  30.184  1.00  0.00    -0.354 N 
ATOM     51  N   UNL A   1      44.286  26.986  29.110  1.00  0.00    -0.248 NA
ATOM     52  C   UNL A   1      45.173  24.918  28.476  1.00  0.00     0.031 C 
ATOM     53  C   UNL A   1      46.702  30.327  30.770  1.00  0.00     0.029 A 
ATOM     54  C   UNL A   1      45.966  29.269  30.262  1.00  0.00     0.049 A 
ATOM     55  H   UNL A   1      43.901  29.167  29.837  1.00  0.00     0.167 HD
ATOM     56  C   UNL A   1      45.650  26.975  29.374  1.00  0.00     0.074 A 
ATOM     57  C   UNL A   1      46.140  25.667  28.988  1.00  0.00     0.031 C 
ATOM     58  C   UNL A   1      46.427  27.960  29.885  1.00  0.00     0.037 A 
BRANCH  45  59
ATOM     59  C   UNL A   1      43.375  33.104  31.397  1.00  0.00     0.058 A 
ATOM     60  C   UNL A   1      43.332  33.260  32.790  1.00  0.00     0.135 A 
ATOM     61  C   UNL A   1      43.562  34.255  30.613  1.00  0.00     0.135 A 
ATOM     62  F   UNL A   1      43.133  32.195  33.584  1.00  0.00    -0.206 F 
ATOM     63  C   UNL A   1      43.478  34.509  33.387  1.00  0.00     0.059 A 
ATOM     64  C   UNL A   1      43.728  35.512  31.189  1.00  0.00     0.059 A 
ATOM     65  F   UNL A   1      43.604  34.161  29.275  1.00  0.00    -0.206 F 
ATOM     66  C   UNL A   1      43.682  35.629  32.577  1.00  0.00     0.060 A 
BRANCH  66  67
ATOM     67  S   UNL A   1      43.913  37.234  33.371  1.00  0.00     0.124 S 
ATOM     68  O   UNL A   1      42.650  37.391  34.086  1.00  0.00    -0.237 OA
ATOM     69  O   UNL A   1      45.088  37.004  34.205  1.00  0.00    -0.237 OA
ATOM     70  O   UNL A   1      44.114  38.144  32.248  1.00  0.00    -0.744 OA
ENDBRANCH  66  67
ENDBRANCH  45  59
BRANCH  46  71
ATOM     71  C   UNL A   1      42.575  23.879  27.621  1.00  0.00     0.058 A 
ATOM     72  C   UNL A   1      42.409  22.795  28.494  1.00  0.00     0.135 A 
ATOM     73  C   UNL A   1      42.626  23.613  26.244  1.00  0.00     0.135 A 
ATOM     74  F   UNL A   1      42.358  23.001  29.819  1.00  0.00    -0.206 F 
ATOM     75  C   UNL A   1      42.317  21.490  28.022  1.00  0.00     0.059 A 
ATOM     76  C   UNL A   1      42.509  22.321  25.747  1.00  0.00     0.059 A 
ATOM     77  F   UNL A   1      42.766  24.621  25.369  1.00  0.00    -0.206 F 
ATOM     78  C   UNL A   1      42.370  21.263  26.645  1.00  0.00     0.060 A 
BRANCH  78  79
ATOM     79  S   UNL A   1      42.219  19.571  26.035  1.00  0.00     0.124 S 
ATOM     80  O   UNL A   1      43.123  19.592  24.892  1.00  0.00    -0.237 OA
ATOM     81  O   UNL A   1      42.660  18.787  27.185  1.00  0.00    -0.237 OA
ATOM     82  O   UNL A   1      40.799  19.457  25.718  1.00  0.00    -0.744 OA
ENDBRANCH  78  79
ENDBRANCH  46  71
BRANCH  58  83
ATOM     83  C   UNL A   1      47.876  27.637  30.096  1.00  0.00     0.058 A 
ATOM     84  C   UNL A   1      48.856  28.010  29.163  1.00  0.00     0.135 A 
ATOM     85  C   UNL A   1      48.289  26.957  31.252  1.00  0.00     0.135 A 
ATOM     86  F   UNL A   1      48.507  28.656  28.039  1.00  0.00    -0.206 F 
ATOM     87  C   UNL A   1      50.195  27.691  29.355  1.00  0.00     0.059 A 
ATOM     88  C   UNL A   1      49.626  26.646  31.475  1.00  0.00     0.059 A 
ATOM     89  F   UNL A   1      47.389  26.586  32.176  1.00  0.00    -0.206 F 
ATOM     90  C   UNL A   1      50.569  27.004  30.512  1.00  0.00     0.060 A 
BRANCH  90  91
ATOM     91  S   UNL A   1      52.311  26.596  30.753  1.00  0.00     0.124 S 
ATOM     92  O   UNL A   1      52.658  26.016  29.460  1.00  0.00    -0.237 OA
ATOM     93  O   UNL A   1      52.902  27.900  31.042  1.00  0.00    -0.237 OA
ATOM     94  O   UNL A   1      52.288  25.664  31.875  1.00  0.00    -0.744 OA
ENDBRANCH  90  91
ENDBRANCH  58  83
ENDBRANCH  32  33
ENDBRANCH  24  27
ENDBRANCH  22  23
ENDBRANCH   1  22
TORSDOF 17
ENDMDL
MODEL 2
REMARK VINA RESULT:     -10.2      2.756      3.766
REMARK SMILES CC[C@H](C)[C@@H](Nc1ccc(Cl)c(Br)c1)C(=O)NCCCNC(=O)c1ccc(-c2c3nc(c(-c4c(F)cc(S(=O)(=O)[O-])cc4F)c4ccc([nH]4)c(-c4c(F)cc(S(=O)(=O)[O-])cc4F)c4nc(c(-c5c(F)cc(S(=O)(=O)[O-])cc5F)c5ccc2[nH]5)C=C4)C=C3)cc1
REMARK SMILES IDX 19 1 18 2 17 3 15 4 16 5 5 7 3 8 4 9 2 10 1 11 6 12 7 14
REMARK SMILES IDX 8 15 14 16 9 17 12 18 10 19 13 20 11 21 20 22 21 23 22 24
REMARK SMILES IDX 23 26 24 27 25 28 89 29 26 30 88 31 27 32 28 33 29 34 82 35
REMARK SMILES IDX 30 36 87 37 81 38 83 39 31 40 86 41 80 42 79 43 32 45 66 46
REMARK SMILES IDX 45 47 65 48 46 49 49 50 64 51 84 52 47 53 48 54 63 56 85 57
REMARK SMILES IDX 50 58 33 59 34 60 43 61 35 62 36 63 42 64 44 65 37 66 38 67
REMARK SMILES IDX 39 68 40 69 41 70 67 71 68 72 77 73 69 74 70 75 76 76 78 77
REMARK SMILES IDX 71 78 72 79 73 80 74 81 75 82 51 83 52 84 61 85 53 86 54 87
REMARK SMILES IDX 60 88 62 89 55 90 56 91 57 92 58 93 59 94
REMARK H PARENT 17 6 6 13 21 25 83 44 49 55
REMARK Flexibility Score: inf
ROOT
ATOM      1  C   UNL A   1      33.433  28.790  27.370  1.00  0.00     0.042 C 
ENDROOT
BRANCH   1   2
ATOM      2  C   UNL A   1      32.664  29.704  26.438  1.00  0.00     0.117 C 
BRANCH   2   3
ATOM      3  N   UNL A   1      33.291  29.811  25.131  1.00  0.00    -0.354 N 
ATOM      4  C   UNL A   1      33.253  28.951  24.073  1.00  0.00     0.242 C 
ATOM      5  O   UNL A   1      33.761  29.332  23.011  1.00  0.00    -0.273 OA
ATOM      6  H   UNL A   1      33.824  30.627  24.989  1.00  0.00     0.163 HD
BRANCH   4   7
ATOM      7  C   UNL A   1      32.623  27.536  24.187  1.00  0.00     0.171 C 
BRANCH   7   8
ATOM      8  C   UNL A   1      31.085  27.604  23.905  1.00  0.00     0.018 C 
ATOM      9  C   UNL A   1      30.776  27.448  22.407  1.00  0.00     0.010 C 
BRANCH   8  10
ATOM     10  C   UNL A   1      30.291  26.536  24.702  1.00  0.00     0.002 C 
ATOM     11  C   UNL A   1      30.822  26.339  26.120  1.00  0.00     0.004 C 
ENDBRANCH   8  10
ENDBRANCH   7   8
BRANCH   7  12
ATOM     12  N   UNL A   1      33.286  26.527  23.317  1.00  0.00    -0.373 N 
ATOM     13  H   UNL A   1      33.742  26.863  22.511  1.00  0.00     0.161 HD
BRANCH  12  14
ATOM     14  C   UNL A   1      33.323  25.160  23.534  1.00  0.00     0.036 A 
ATOM     15  C   UNL A   1      32.664  24.231  22.725  1.00  0.00     0.027 A 
ATOM     16  C   UNL A   1      33.885  24.697  24.734  1.00  0.00     0.043 A 
ATOM     17  C   UNL A   1      32.490  22.906  23.138  1.00  0.00     0.024 A 
ATOM     18  C   UNL A   1      33.708  23.374  25.162  1.00  0.00     0.038 A 
ATOM     19  C   UNL A   1      32.991  22.479  24.368  1.00  0.00     0.055 A 
ATOM     20  Br  UNL A   1      34.401  22.910  26.869  1.00  0.00    -0.049 Br
ATOM     21  Cl  UNL A   1      32.659  20.856  24.851  1.00  0.00    -0.083 Cl
ENDBRANCH  12  14
ENDBRANCH   7  12
ENDBRANCH   4   7
ENDBRANCH   2   3
ENDBRANCH   1   2
BRANCH   1  22
ATOM     22  C   UNL A   1      34.881  29.216  27.547  1.00  0.00     0.118 C 
BRANCH  22  23
ATOM     23  N   UNL A   1      35.051  30.210  28.603  1.00  0.00    -0.352 N 
ATOM     24  C   UNL A   1      36.169  30.507  29.347  1.00  0.00     0.251 C 
ATOM     25  H   UNL A   1      34.251  30.743  28.812  1.00  0.00     0.163 HD
ATOM     26  O   UNL A   1      36.089  31.256  30.315  1.00  0.00    -0.269 OA
BRANCH  24  27
ATOM     27  C   UNL A   1      37.458  29.883  28.987  1.00  0.00     0.039 A 
ATOM     28  C   UNL A   1      38.225  29.252  29.967  1.00  0.00     0.014 A 
ATOM     29  C   UNL A   1      37.931  29.986  27.677  1.00  0.00     0.014 A 
ATOM     30  C   UNL A   1      39.540  28.910  29.691  1.00  0.00     0.010 A 
ATOM     31  C   UNL A   1      39.221  29.543  27.376  1.00  0.00     0.010 A 
ATOM     32  C   UNL A   1      40.054  29.049  28.392  1.00  0.00    -0.014 A 
BRANCH  32  33
ATOM     33  C   UNL A   1      41.463  28.671  28.119  1.00  0.00     0.031 A 
ATOM     34  C   UNL A   1      42.568  29.688  28.243  1.00  0.00     0.074 A 
ATOM     35  C   UNL A   1      41.751  27.389  27.820  1.00  0.00     0.049 A 
ATOM     36  N   UNL A   1      43.839  29.560  27.964  1.00  0.00    -0.248 NA
ATOM     37  C   UNL A   1      42.201  31.023  28.746  1.00  0.00     0.031 C 
ATOM     38  C   UNL A   1      40.770  26.303  27.719  1.00  0.00     0.029 A 
ATOM     39  N   UNL A   1      42.949  26.773  27.573  1.00  0.00    -0.354 N 
ATOM     40  C   UNL A   1      44.420  30.793  28.235  1.00  0.00     0.074 A 
ATOM     41  C   UNL A   1      43.360  31.667  28.688  1.00  0.00     0.031 C 
ATOM     42  C   UNL A   1      41.411  25.149  27.488  1.00  0.00     0.029 A 
ATOM     43  C   UNL A   1      42.835  25.422  27.342  1.00  0.00     0.049 A 
ATOM     44  H   UNL A   1      43.810  27.251  27.562  1.00  0.00     0.167 HD
ATOM     45  C   UNL A   1      45.720  31.157  28.121  1.00  0.00     0.037 A 
ATOM     46  C   UNL A   1      43.769  24.509  27.021  1.00  0.00     0.037 A 
ATOM     47  C   UNL A   1      46.771  30.272  27.687  1.00  0.00     0.049 A 
ATOM     48  C   UNL A   1      45.193  24.954  26.854  1.00  0.00     0.074 A 
ATOM     49  C   UNL A   1      48.111  30.558  27.481  1.00  0.00     0.029 A 
ATOM     50  N   UNL A   1      46.607  28.921  27.421  1.00  0.00    -0.354 N 
ATOM     51  N   UNL A   1      45.704  26.150  27.020  1.00  0.00    -0.248 NA
ATOM     52  C   UNL A   1      46.160  23.931  26.438  1.00  0.00     0.031 C 
ATOM     53  C   UNL A   1      48.753  29.383  27.077  1.00  0.00     0.029 A 
ATOM     54  C   UNL A   1      47.821  28.358  27.064  1.00  0.00     0.049 A 
ATOM     55  H   UNL A   1      45.753  28.434  27.477  1.00  0.00     0.167 HD
ATOM     56  C   UNL A   1      47.060  26.019  26.744  1.00  0.00     0.074 A 
ATOM     57  C   UNL A   1      47.289  24.627  26.417  1.00  0.00     0.031 C 
ATOM     58  C   UNL A   1      48.027  26.968  26.756  1.00  0.00     0.037 A 
BRANCH  45  59
ATOM     59  C   UNL A   1      46.092  32.572  28.463  1.00  0.00     0.058 A 
ATOM     60  C   UNL A   1      46.029  33.597  27.507  1.00  0.00     0.135 A 
ATOM     61  C   UNL A   1      46.428  32.924  29.781  1.00  0.00     0.135 A 
ATOM     62  F   UNL A   1      45.734  33.311  26.228  1.00  0.00    -0.206 F 
ATOM     63  C   UNL A   1      46.281  34.923  27.845  1.00  0.00     0.059 A 
ATOM     64  C   UNL A   1      46.667  34.247  30.145  1.00  0.00     0.059 A 
ATOM     65  F   UNL A   1      46.508  31.982  30.732  1.00  0.00    -0.206 F 
ATOM     66  C   UNL A   1      46.593  35.240  29.169  1.00  0.00     0.060 A 
BRANCH  66  67
ATOM     67  S   UNL A   1      46.873  36.971  29.597  1.00  0.00     0.124 S 
ATOM     68  O   UNL A   1      46.400  37.011  30.978  1.00  0.00    -0.237 OA
ATOM     69  O   UNL A   1      48.314  37.108  29.418  1.00  0.00    -0.237 OA
ATOM     70  O   UNL A   1      46.052  37.698  28.633  1.00  0.00    -0.744 OA
ENDBRANCH  66  67
ENDBRANCH  45  59
BRANCH  46  71
ATOM     71  C   UNL A   1      43.383  23.089  26.814  1.00  0.00     0.058 A 
ATOM     72  C   UNL A   1      43.280  22.553  25.523  1.00  0.00     0.135 A 
ATOM     73  C   UNL A   1      43.111  22.243  27.901  1.00  0.00     0.135 A 
ATOM     74  F   UNL A   1      43.527  23.326  24.454  1.00  0.00    -0.206 F 
ATOM     75  C   UNL A   1      42.902  21.231  25.313  1.00  0.00     0.059 A 
ATOM     76  C   UNL A   1      42.758  20.912  27.717  1.00  0.00     0.059 A 
ATOM     77  F   UNL A   1      43.214  22.707  29.156  1.00  0.00    -0.206 F 
ATOM     78  C   UNL A   1      42.640  20.419  26.418  1.00  0.00     0.060 A 
BRANCH  78  79
ATOM     79  S   UNL A   1      42.180  18.696  26.142  1.00  0.00     0.124 S 
ATOM     80  O   UNL A   1      40.781  18.827  25.752  1.00  0.00    -0.237 OA
ATOM     81  O   UNL A   1      43.103  18.294  25.085  1.00  0.00    -0.237 OA
ATOM     82  O   UNL A   1      42.420  18.075  27.441  1.00  0.00    -0.744 OA
ENDBRANCH  78  79
ENDBRANCH  46  71
BRANCH  58  83
ATOM     83  C   UNL A   1      49.423  26.515  26.450  1.00  0.00     0.058 A 
ATOM     84  C   UNL A   1      50.256  25.980  27.445  1.00  0.00     0.135 A 
ATOM     85  C   UNL A   1      49.928  26.605  25.144  1.00  0.00     0.135 A 
ATOM     86  F   UNL A   1      49.819  25.881  28.711  1.00  0.00    -0.206 F 
ATOM     87  C   UNL A   1      51.556  25.579  27.160  1.00  0.00     0.059 A 
ATOM     88  C   UNL A   1      51.217  26.190  24.832  1.00  0.00     0.059 A 
ATOM     89  F   UNL A   1      49.164  27.102  24.158  1.00  0.00    -0.206 F 
ATOM     90  C   UNL A   1      52.029  25.693  25.851  1.00  0.00     0.060 A 
BRANCH  90  91
ATOM     91  S   UNL A   1      53.718  25.166  25.490  1.00  0.00     0.124 S 
ATOM     92  O   UNL A   1      53.554  23.721  25.368  1.00  0.00    -0.237 OA
ATOM     93  O   UNL A   1      54.011  25.878  24.250  1.00  0.00    -0.237 OA
ATOM     94  O   UNL A   1      54.470  25.617  26.657  1.00  0.00    -0.744 OA
ENDBRANCH  90  91
ENDBRANCH  58  83
ENDBRANCH  32  33
ENDBRANCH  24  27
ENDBRANCH  22  23
ENDBRANCH   1  22
TORSDOF 17
ENDMDL
MODEL 3
REMARK VINA RESULT:     -10.0      4.930     10.461
REMARK SMILES CC[C@H](C)[C@@H](Nc1ccc(Cl)c(Br)c1)C(=O)NCCCNC(=O)c1ccc(-c2c3nc(c(-c4c(F)cc(S(=O)(=O)[O-])cc4F)c4ccc([nH]4)c(-c4c(F)cc(S(=O)(=O)[O-])cc4F)c4nc(c(-c5c(F)cc(S(=O)(=O)[O-])cc5F)c5ccc2[nH]5)C=C4)C=C3)cc1
REMARK SMILES IDX 19 1 18 2 17 3 15 4 16 5 5 7 3 8 4 9 2 10 1 11 6 12 7 14
REMARK SMILES IDX 8 15 14 16 9 17 12 18 10 19 13 20 11 21 20 22 21 23 22 24
REMARK SMILES IDX 23 26 24 27 25 28 89 29 26 30 88 31 27 32 28 33 29 34 82 35
REMARK SMILES IDX 30 36 87 37 81 38 83 39 31 40 86 41 80 42 79 43 32 45 66 46
REMARK SMILES IDX 45 47 65 48 46 49 49 50 64 51 84 52 47 53 48 54 63 56 85 57
REMARK SMILES IDX 50 58 33 59 34 60 43 61 35 62 36 63 42 64 44 65 37 66 38 67
REMARK SMILES IDX 39 68 40 69 41 70 67 71 68 72 77 73 69 74 70 75 76 76 78 77
REMARK SMILES IDX 71 78 72 79 73 80 74 81 75 82 51 83 52 84 61 85 53 86 54 87
REMARK SMILES IDX 60 88 62 89 55 90 56 91 57 92 58 93 59 94
REMARK H PARENT 17 6 6 13 21 25 83 44 49 55
REMARK Flexibility Score: inf
ROOT
ATOM      1  C   UNL A   1      37.266  23.185  25.390  1.00  0.00     0.042 C 
ENDROOT
BRANCH   1   2
ATOM      2  C   UNL A   1      35.857  23.710  25.202  1.00  0.00     0.117 C 
BRANCH   2   3
ATOM      3  N   UNL A   1      35.420  23.626  23.818  1.00  0.00    -0.354 N 
ATOM      4  C   UNL A   1      34.210  23.255  23.308  1.00  0.00     0.242 C 
ATOM      5  O   UNL A   1      34.039  23.397  22.091  1.00  0.00    -0.273 OA
ATOM      6  H   UNL A   1      36.098  23.873  23.149  1.00  0.00     0.163 HD
BRANCH   4   7
ATOM      7  C   UNL A   1      33.091  22.654  24.200  1.00  0.00     0.171 C 
BRANCH   7   8
ATOM      8  C   UNL A   1      33.459  21.191  24.617  1.00  0.00     0.018 C 
ATOM      9  C   UNL A   1      33.416  21.009  26.143  1.00  0.00     0.010 C 
BRANCH   8  10
ATOM     10  C   UNL A   1      32.535  20.137  23.952  1.00  0.00     0.002 C 
ATOM     11  C   UNL A   1      32.576  18.784  24.658  1.00  0.00     0.004 C 
ENDBRANCH   8  10
ENDBRANCH   7   8
BRANCH   7  12
ATOM     12  N   UNL A   1      32.775  23.490  25.390  1.00  0.00    -0.373 N 
ATOM     13  H   UNL A   1      32.976  23.102  26.273  1.00  0.00     0.161 HD
BRANCH  12  14
ATOM     14  C   UNL A   1      32.227  24.761  25.373  1.00  0.00     0.036 A 
ATOM     15  C   UNL A   1      31.048  25.085  24.697  1.00  0.00     0.027 A 
ATOM     16  C   UNL A   1      32.992  25.817  25.895  1.00  0.00     0.043 A 
ATOM     17  C   UNL A   1      30.688  26.417  24.467  1.00  0.00     0.024 A 
ATOM     18  C   UNL A   1      32.646  27.155  25.661  1.00  0.00     0.038 A 
ATOM     19  C   UNL A   1      31.498  27.456  24.928  1.00  0.00     0.055 A 
ATOM     20  Br  UNL A   1      33.837  28.488  26.303  1.00  0.00    -0.049 Br
ATOM     21  Cl  UNL A   1      31.038  29.070  24.528  1.00  0.00    -0.083 Cl
ENDBRANCH  12  14
ENDBRANCH   7  12
ENDBRANCH   4   7
ENDBRANCH   2   3
ENDBRANCH   1   2
BRANCH   1  22
ATOM     22  C   UNL A   1      38.110  24.078  26.284  1.00  0.00     0.118 C 
BRANCH  22  23
ATOM     23  N   UNL A   1      39.543  23.859  26.109  1.00  0.00    -0.352 N 
ATOM     24  C   UNL A   1      40.601  24.599  26.583  1.00  0.00     0.251 C 
ATOM     25  H   UNL A   1      39.785  23.068  25.576  1.00  0.00     0.163 HD
ATOM     26  O   UNL A   1      41.742  24.368  26.197  1.00  0.00    -0.269 OA
BRANCH  24  27
ATOM     27  C   UNL A   1      40.340  25.698  27.534  1.00  0.00     0.039 A 
ATOM     28  C   UNL A   1      41.036  26.902  27.415  1.00  0.00     0.014 A 
ATOM     29  C   UNL A   1      39.443  25.500  28.586  1.00  0.00     0.014 A 
ATOM     30  C   UNL A   1      40.993  27.821  28.453  1.00  0.00     0.010 A 
ATOM     31  C   UNL A   1      39.322  26.477  29.577  1.00  0.00     0.010 A 
ATOM     32  C   UNL A   1      40.134  27.621  29.545  1.00  0.00    -0.014 A 
BRANCH  32  33
ATOM     33  C   UNL A   1      40.101  28.622  30.641  1.00  0.00     0.031 A 
ATOM     34  C   UNL A   1      41.105  28.565  31.763  1.00  0.00     0.074 A 
ATOM     35  C   UNL A   1      39.199  29.622  30.588  1.00  0.00     0.049 A 
ATOM     36  N   UNL A   1      41.176  29.301  32.842  1.00  0.00    -0.248 NA
ATOM     37  C   UNL A   1      42.171  27.552  31.662  1.00  0.00     0.031 C 
ATOM     38  C   UNL A   1      38.206  29.809  29.525  1.00  0.00     0.029 A 
ATOM     39  N   UNL A   1      38.985  30.683  31.428  1.00  0.00    -0.354 N 
ATOM     40  C   UNL A   1      42.273  28.832  33.556  1.00  0.00     0.074 A 
ATOM     41  C   UNL A   1      42.833  27.736  32.797  1.00  0.00     0.031 C 
ATOM     42  C   UNL A   1      37.530  30.946  29.747  1.00  0.00     0.029 A 
ATOM     43  C   UNL A   1      37.981  31.523  31.007  1.00  0.00     0.049 A 
ATOM     44  H   UNL A   1      39.501  30.830  32.253  1.00  0.00     0.167 HD
ATOM     45  C   UNL A   1      42.766  29.282  34.735  1.00  0.00     0.037 A 
ATOM     46  C   UNL A   1      37.462  32.622  31.584  1.00  0.00     0.037 A 
ATOM     47  C   UNL A   1      42.212  30.388  35.473  1.00  0.00     0.049 A 
ATOM     48  C   UNL A   1      37.998  33.065  32.914  1.00  0.00     0.074 A 
ATOM     49  C   UNL A   1      42.602  30.886  36.706  1.00  0.00     0.029 A 
ATOM     50  N   UNL A   1      41.167  31.187  35.033  1.00  0.00    -0.354 N 
ATOM     51  N   UNL A   1      38.974  32.547  33.621  1.00  0.00    -0.248 NA
ATOM     52  C   UNL A   1      37.353  34.230  33.531  1.00  0.00     0.031 C 
ATOM     53  C   UNL A   1      41.783  31.977  37.017  1.00  0.00     0.029 A 
ATOM     54  C   UNL A   1      40.906  32.180  35.964  1.00  0.00     0.049 A 
ATOM     55  H   UNL A   1      40.682  31.066  34.186  1.00  0.00     0.167 HD
ATOM     56  C   UNL A   1      39.070  33.335  34.761  1.00  0.00     0.074 A 
ATOM     57  C   UNL A   1      38.065  34.371  34.641  1.00  0.00     0.031 C 
ATOM     58  C   UNL A   1      39.911  33.208  35.816  1.00  0.00     0.037 A 
BRANCH  45  59
ATOM     59  C   UNL A   1      43.965  28.585  35.313  1.00  0.00     0.058 A 
ATOM     60  C   UNL A   1      45.270  29.019  35.034  1.00  0.00     0.135 A 
ATOM     61  C   UNL A   1      43.806  27.529  36.227  1.00  0.00     0.135 A 
ATOM     62  F   UNL A   1      45.478  30.008  34.151  1.00  0.00    -0.206 F 
ATOM     63  C   UNL A   1      46.376  28.435  35.644  1.00  0.00     0.059 A 
ATOM     64  C   UNL A   1      44.898  26.942  36.862  1.00  0.00     0.059 A 
ATOM     65  F   UNL A   1      42.580  27.073  36.524  1.00  0.00    -0.206 F 
ATOM     66  C   UNL A   1      46.180  27.401  36.563  1.00  0.00     0.060 A 
BRANCH  66  67
ATOM     67  S   UNL A   1      47.624  26.687  37.376  1.00  0.00     0.124 S 
ATOM     68  O   UNL A   1      48.008  27.761  38.287  1.00  0.00    -0.237 OA
ATOM     69  O   UNL A   1      47.070  25.492  38.005  1.00  0.00    -0.237 OA
ATOM     70  O   UNL A   1      48.549  26.440  36.274  1.00  0.00    -0.744 OA
ENDBRANCH  66  67
ENDBRANCH  45  59
BRANCH  46  71
ATOM     71  C   UNL A   1      36.359  33.362  30.919  1.00  0.00     0.058 A 
ATOM     72  C   UNL A   1      36.606  34.164  29.796  1.00  0.00     0.135 A 
ATOM     73  C   UNL A   1      35.040  33.283  31.393  1.00  0.00     0.135 A 
ATOM     74  F   UNL A   1      37.852  34.273  29.310  1.00  0.00    -0.206 F 
ATOM     75  C   UNL A   1      35.587  34.877  29.175  1.00  0.00     0.059 A 
ATOM     76  C   UNL A   1      34.001  33.965  30.773  1.00  0.00     0.059 A 
ATOM     77  F   UNL A   1      34.752  32.514  32.455  1.00  0.00    -0.206 F 
ATOM     78  C   UNL A   1      34.287  34.773  29.673  1.00  0.00     0.060 A 
BRANCH  78  79
ATOM     79  S   UNL A   1      32.962  35.677  28.845  1.00  0.00     0.124 S 
ATOM     80  O   UNL A   1      33.714  36.688  28.112  1.00  0.00    -0.237 OA
ATOM     81  O   UNL A   1      32.334  34.635  28.037  1.00  0.00    -0.237 OA
ATOM     82  O   UNL A   1      32.151  36.170  29.954  1.00  0.00    -0.744 OA
ENDBRANCH  78  79
ENDBRANCH  46  71
BRANCH  58  83
ATOM     83  C   UNL A   1      39.804  34.244  36.894  1.00  0.00     0.058 A 
ATOM     84  C   UNL A   1      39.017  34.038  38.037  1.00  0.00     0.135 A 
ATOM     85  C   UNL A   1      40.509  35.453  36.787  1.00  0.00     0.135 A 
ATOM     86  F   UNL A   1      38.319  32.899  38.181  1.00  0.00    -0.206 F 
ATOM     87  C   UNL A   1      38.907  35.010  39.025  1.00  0.00     0.059 A 
ATOM     88  C   UNL A   1      40.430  36.431  37.772  1.00  0.00     0.059 A 
ATOM     89  F   UNL A   1      41.281  35.692  35.714  1.00  0.00    -0.206 F 
ATOM     90  C   UNL A   1      39.614  36.206  38.880  1.00  0.00     0.060 A 
BRANCH  90  91
ATOM     91  S   UNL A   1      39.467  37.462  40.168  1.00  0.00     0.124 S 
ATOM     92  O   UNL A   1      40.815  38.022  40.185  1.00  0.00    -0.237 OA
ATOM     93  O   UNL A   1      38.424  38.335  39.639  1.00  0.00    -0.237 OA
ATOM     94  O   UNL A   1      39.092  36.692  41.350  1.00  0.00    -0.744 OA
ENDBRANCH  90  91
ENDBRANCH  58  83
ENDBRANCH  32  33
ENDBRANCH  24  27
ENDBRANCH  22  23
ENDBRANCH   1  22
TORSDOF 17
ENDMDL
