MODEL 1
REMARK VINA RESULT:     -12.1      0.000      0.000
REMARK SMILES COc1ccc(OC)c(/C=C2\S/C(=[NH+]\c3ccc(C(=O)NCCCNC(=O)c4ccc(-c5c6nc(c(-c7c(F)cc(S(=O)(=O)[O-])cc7F)c7ccc([nH]7)c(-c7c(F)cc(S(=O)(=O)[O-])cc7F)c7nc(c(-c8c(F)cc(S(=O)(=O)[O-])cc8F)c8ccc5[nH]8)C=C7)C=C6)cc4)cc3)N(C)C2=O)c1
REMARK SMILES IDX 23 1 22 2 21 3 19 4 20 5 18 7 15 8 16 9 95 10 17 11 94 12
REMARK SMILES IDX 14 13 10 14 11 15 12 16 98 17 13 18 96 19 99 20 97 21 9 23
REMARK SMILES IDX 3 24 4 25 100 26 5 27 6 28 2 29 1 30 7 31 8 32 24 33 25 34
REMARK SMILES IDX 26 35 27 37 28 38 29 39 93 40 30 41 92 42 31 43 32 44 33 45
REMARK SMILES IDX 86 46 34 47 91 48 85 49 87 50 35 51 90 52 84 53 83 54 36 56
REMARK SMILES IDX 70 57 49 58 69 59 50 60 53 61 68 62 88 63 51 64 52 65 67 67
REMARK SMILES IDX 89 68 54 69 37 70 38 71 47 72 39 73 40 74 46 75 48 76 41 77
REMARK SMILES IDX 42 78 43 79 44 80 45 81 71 82 72 83 81 84 73 85 74 86 80 87
REMARK SMILES IDX 82 88 75 89 76 90 77 91 78 92 79 93 55 94 56 95 65 96 57 97
REMARK SMILES IDX 58 98 64 99 66 100 59 101 60 102 61 103 62 104 63 105
REMARK H PARENT 21 6 14 22 25 36 87 55 53 66
REMARK Flexibility Score: inf
ROOT
ATOM      1  C   UNL A   1      34.851  30.049  27.094  1.00  0.00     0.042 C 
ENDROOT
BRANCH   1   2
ATOM      2  C   UNL A   1      33.519  30.785  27.234  1.00  0.00     0.118 C 
BRANCH   2   3
ATOM      3  N   UNL A   1      32.482  29.926  27.775  1.00  0.00    -0.352 N 
ATOM      4  C   UNL A   1      31.773  28.885  27.231  1.00  0.00     0.251 C 
ATOM      5  O   UNL A   1      31.053  28.231  27.987  1.00  0.00    -0.269 OA
ATOM      6  H   UNL A   1      32.241  30.130  28.708  1.00  0.00     0.163 HD
BRANCH   4   7
ATOM      7  C   UNL A   1      31.861  28.484  25.799  1.00  0.00     0.040 A 
ATOM      8  C   UNL A   1      31.931  27.560  23.121  1.00  0.00     0.125 A 
ATOM      9  C   UNL A   1      31.494  26.725  24.157  1.00  0.00     0.052 A 
ATOM     10  C   UNL A   1      32.268  28.880  23.429  1.00  0.00     0.052 A 
ATOM     11  C   UNL A   1      31.460  27.179  25.480  1.00  0.00     0.018 A 
ATOM     12  C   UNL A   1      32.234  29.340  24.758  1.00  0.00     0.018 A 
BRANCH   8  13
ATOM     13  N   UNL A   1      32.074  27.009  21.827  1.00  0.00    -0.234 N 
ATOM     14  C   UNL A   1      33.513  22.713  23.236  1.00  0.00     0.036 C 
ATOM     15  C   UNL A   1      33.638  23.795  22.453  1.00  0.00     0.110 C 
ATOM     16  S   UNL A   1      34.012  25.399  22.867  1.00  0.00     0.007 SA
ATOM     17  C   UNL A   1      33.216  23.814  21.009  1.00  0.00     0.348 C 
ATOM     18  C   UNL A   1      32.860  25.988  21.708  1.00  0.00     0.324 C 
ATOM     19  N   UNL A   1      32.843  25.106  20.664  1.00  0.00    -0.189 N 
ATOM     20  O   UNL A   1      33.128  22.812  20.310  1.00  0.00    -0.240 OA
ATOM     21  C   UNL A   1      32.264  25.423  19.381  1.00  0.00     0.301 C 
ATOM     22  H   UNL A   1      31.597  27.385  21.052  1.00  0.00     0.313 HD
BRANCH  14  23
ATOM     23  C   UNL A   1      33.630  22.453  24.708  1.00  0.00     0.022 A 
ATOM     24  C   UNL A   1      32.458  22.756  26.854  1.00  0.00     0.119 A 
ATOM     25  C   UNL A   1      33.587  22.373  27.559  1.00  0.00     0.050 A 
ATOM     26  C   UNL A   1      32.476  22.796  25.454  1.00  0.00     0.058 A 
ATOM     27  C   UNL A   1      34.728  22.002  26.862  1.00  0.00     0.051 A 
ATOM     28  C   UNL A   1      34.753  22.036  25.456  1.00  0.00     0.126 A 
BRANCH  24  29
ATOM     29  O   UNL A   1      31.403  23.217  27.593  1.00  0.00    -0.497 OA
ATOM     30  C   UNL A   1      30.217  23.367  26.820  1.00  0.00     0.278 C 
ENDBRANCH  24  29
BRANCH  28  31
ATOM     31  O   UNL A   1      35.976  21.794  24.892  1.00  0.00    -0.496 OA
ATOM     32  C   UNL A   1      36.801  22.964  24.896  1.00  0.00     0.278 C 
ENDBRANCH  28  31
ENDBRANCH  14  23
ENDBRANCH   8  13
ENDBRANCH   4   7
ENDBRANCH   2   3
ENDBRANCH   1   2
BRANCH   1  33
ATOM     33  C   UNL A   1      35.296  29.307  28.357  1.00  0.00     0.118 C 
BRANCH  33  34
ATOM     34  N   UNL A   1      35.456  30.198  29.498  1.00  0.00    -0.352 N 
ATOM     35  C   UNL A   1      36.572  30.532  30.224  1.00  0.00     0.251 C 
ATOM     36  H   UNL A   1      34.624  30.632  29.798  1.00  0.00     0.163 HD
ATOM     37  O   UNL A   1      36.426  31.147  31.279  1.00  0.00    -0.269 OA
BRANCH  35  38
ATOM     38  C   UNL A   1      37.936  30.162  29.774  1.00  0.00     0.039 A 
ATOM     39  C   UNL A   1      38.917  29.923  30.743  1.00  0.00     0.014 A 
ATOM     40  C   UNL A   1      38.283  30.117  28.421  1.00  0.00     0.014 A 
ATOM     41  C   UNL A   1      40.221  29.592  30.359  1.00  0.00     0.010 A 
ATOM     42  C   UNL A   1      39.568  29.723  28.037  1.00  0.00     0.010 A 
ATOM     43  C   UNL A   1      40.553  29.462  29.001  1.00  0.00    -0.014 A 
BRANCH  43  44
ATOM     44  C   UNL A   1      41.922  29.049  28.587  1.00  0.00     0.031 A 
ATOM     45  C   UNL A   1      43.042  30.055  28.520  1.00  0.00     0.074 A 
ATOM     46  C   UNL A   1      42.149  27.769  28.227  1.00  0.00     0.049 A 
ATOM     47  N   UNL A   1      44.289  29.880  28.161  1.00  0.00    -0.248 NA
ATOM     48  C   UNL A   1      42.713  31.442  28.883  1.00  0.00     0.031 C 
ATOM     49  C   UNL A   1      41.137  26.709  28.200  1.00  0.00     0.029 A 
ATOM     50  N   UNL A   1      43.297  27.141  27.814  1.00  0.00    -0.354 N 
ATOM     51  C   UNL A   1      44.889  31.131  28.243  1.00  0.00     0.074 A 
ATOM     52  C   UNL A   1      43.857  32.066  28.638  1.00  0.00     0.031 C 
ATOM     53  C   UNL A   1      41.715  25.560  27.815  1.00  0.00     0.029 A 
ATOM     54  C   UNL A   1      43.127  25.805  27.539  1.00  0.00     0.049 A 
ATOM     55  H   UNL A   1      44.161  27.604  27.722  1.00  0.00     0.167 HD
ATOM     56  C   UNL A   1      46.185  31.468  28.031  1.00  0.00     0.037 A 
ATOM     57  C   UNL A   1      44.007  24.877  27.110  1.00  0.00     0.037 A 
ATOM     58  C   UNL A   1      47.214  30.531  27.659  1.00  0.00     0.049 A 
ATOM     59  C   UNL A   1      45.442  25.272  26.893  1.00  0.00     0.074 A 
ATOM     60  C   UNL A   1      48.566  30.763  27.476  1.00  0.00     0.029 A 
ATOM     61  N   UNL A   1      47.006  29.181  27.413  1.00  0.00    -0.354 N 
ATOM     62  N   UNL A   1      46.005  26.447  27.040  1.00  0.00    -0.248 NA
ATOM     63  C   UNL A   1      46.366  24.212  26.464  1.00  0.00     0.031 C 
ATOM     64  C   UNL A   1      49.168  29.564  27.078  1.00  0.00     0.029 A 
ATOM     65  C   UNL A   1      48.200  28.573  27.063  1.00  0.00     0.049 A 
ATOM     66  H   UNL A   1      46.137  28.723  27.477  1.00  0.00     0.167 HD
ATOM     67  C   UNL A   1      47.352  26.263  26.750  1.00  0.00     0.074 A 
ATOM     68  C   UNL A   1      47.522  24.861  26.428  1.00  0.00     0.031 C 
ATOM     69  C   UNL A   1      48.357  27.173  26.752  1.00  0.00     0.037 A 
BRANCH  56  70
ATOM     70  C   UNL A   1      46.567  32.915  28.200  1.00  0.00     0.058 A 
ATOM     71  C   UNL A   1      47.076  33.405  29.415  1.00  0.00     0.135 A 
ATOM     72  C   UNL A   1      46.458  33.816  27.128  1.00  0.00     0.135 A 
ATOM     73  F   UNL A   1      47.191  32.592  30.477  1.00  0.00    -0.206 F 
ATOM     74  C   UNL A   1      47.428  34.743  29.571  1.00  0.00     0.059 A 
ATOM     75  C   UNL A   1      46.832  35.151  27.253  1.00  0.00     0.059 A 
ATOM     76  F   UNL A   1      45.983  33.402  25.943  1.00  0.00    -0.206 F 
ATOM     77  C   UNL A   1      47.301  35.609  28.484  1.00  0.00     0.060 A 
BRANCH  77  78
ATOM     78  S   UNL A   1      47.759  37.341  28.703  1.00  0.00     0.124 S 
ATOM     79  O   UNL A   1      48.817  37.490  27.709  1.00  0.00    -0.237 OA
ATOM     80  O   UNL A   1      46.510  38.036  28.407  1.00  0.00    -0.237 OA
ATOM     81  O   UNL A   1      48.193  37.404  30.096  1.00  0.00    -0.744 OA
ENDBRANCH  77  78
ENDBRANCH  56  70
BRANCH  57  82
ATOM     82  C   UNL A   1      43.558  23.477  26.893  1.00  0.00     0.058 A 
ATOM     83  C   UNL A   1      43.310  22.621  27.977  1.00  0.00     0.135 A 
ATOM     84  C   UNL A   1      43.341  22.973  25.601  1.00  0.00     0.135 A 
ATOM     85  F   UNL A   1      43.509  23.055  29.231  1.00  0.00    -0.206 F 
ATOM     86  C   UNL A   1      42.878  21.313  27.790  1.00  0.00     0.059 A 
ATOM     87  C   UNL A   1      42.884  21.676  25.389  1.00  0.00     0.059 A 
ATOM     88  F   UNL A   1      43.545  23.756  24.531  1.00  0.00    -0.206 F 
ATOM     89  C   UNL A   1      42.664  20.850  26.491  1.00  0.00     0.060 A 
BRANCH  89  90
ATOM     90  S   UNL A   1      42.043  19.170  26.261  1.00  0.00     0.124 S 
ATOM     91  O   UNL A   1      42.226  18.604  27.592  1.00  0.00    -0.237 OA
ATOM     92  O   UNL A   1      40.662  19.405  25.851  1.00  0.00    -0.237 OA
ATOM     93  O   UNL A   1      42.913  18.631  25.220  1.00  0.00    -0.744 OA
ENDBRANCH  89  90
ENDBRANCH  57  82
BRANCH  69  94
ATOM     94  C   UNL A   1      49.742  26.677  26.435  1.00  0.00     0.058 A 
ATOM     95  C   UNL A   1      50.540  26.044  27.400  1.00  0.00     0.135 A 
ATOM     96  C   UNL A   1      50.254  26.792  25.133  1.00  0.00     0.135 A 
ATOM     97  F   UNL A   1      50.100  25.914  28.662  1.00  0.00    -0.206 F 
ATOM     98  C   UNL A   1      51.810  25.565  27.092  1.00  0.00     0.059 A 
ATOM     99  C   UNL A   1      51.510  26.297  24.795  1.00  0.00     0.059 A 
ATOM    100  F   UNL A   1      49.527  27.379  24.169  1.00  0.00    -0.206 F 
ATOM    101  C   UNL A   1      52.286  25.695  25.786  1.00  0.00     0.060 A 
BRANCH 101 102
ATOM    102  S   UNL A   1      53.922  25.042  25.390  1.00  0.00     0.124 S 
ATOM    103  O   UNL A   1      54.168  25.641  24.083  1.00  0.00    -0.237 OA
ATOM    104  O   UNL A   1      54.738  25.555  26.486  1.00  0.00    -0.237 OA
ATOM    105  O   UNL A   1      53.720  23.596  25.390  1.00  0.00    -0.744 OA
ENDBRANCH 101 102
ENDBRANCH  69  94
ENDBRANCH  43  44
ENDBRANCH  35  38
ENDBRANCH  33  34
ENDBRANCH   1  33
TORSDOF 17
ENDMDL
MODEL 2
REMARK VINA RESULT:     -11.3      1.801      3.160
REMARK SMILES COc1ccc(OC)c(/C=C2\S/C(=[NH+]\c3ccc(C(=O)NCCCNC(=O)c4ccc(-c5c6nc(c(-c7c(F)cc(S(=O)(=O)[O-])cc7F)c7ccc([nH]7)c(-c7c(F)cc(S(=O)(=O)[O-])cc7F)c7nc(c(-c8c(F)cc(S(=O)(=O)[O-])cc8F)c8ccc5[nH]8)C=C7)C=C6)cc4)cc3)N(C)C2=O)c1
REMARK SMILES IDX 23 1 22 2 21 3 19 4 20 5 18 7 15 8 16 9 95 10 17 11 94 12
REMARK SMILES IDX 14 13 10 14 11 15 12 16 98 17 13 18 96 19 99 20 97 21 9 23
REMARK SMILES IDX 3 24 4 25 100 26 5 27 6 28 2 29 1 30 7 31 8 32 24 33 25 34
REMARK SMILES IDX 26 35 27 37 28 38 29 39 93 40 30 41 92 42 31 43 32 44 33 45
REMARK SMILES IDX 86 46 34 47 91 48 85 49 87 50 35 51 90 52 84 53 83 54 36 56
REMARK SMILES IDX 70 57 49 58 69 59 50 60 53 61 68 62 88 63 51 64 52 65 67 67
REMARK SMILES IDX 89 68 54 69 37 70 38 71 47 72 39 73 40 74 46 75 48 76 41 77
REMARK SMILES IDX 42 78 43 79 44 80 45 81 71 82 72 83 81 84 73 85 74 86 80 87
REMARK SMILES IDX 82 88 75 89 76 90 77 91 78 92 79 93 55 94 56 95 65 96 57 97
REMARK SMILES IDX 58 98 64 99 66 100 59 101 60 102 61 103 62 104 63 105
REMARK H PARENT 21 6 14 22 25 36 87 55 53 66
REMARK Flexibility Score: inf
ROOT
ATOM      1  C   UNL A   1      36.785  33.469  29.046  1.00  0.00     0.042 C 
ENDROOT
BRANCH   1   2
ATOM      2  C   UNL A   1      35.441  32.758  28.894  1.00  0.00     0.118 C 
BRANCH   2   3
ATOM      3  N   UNL A   1      35.606  31.334  28.667  1.00  0.00    -0.352 N 
ATOM      4  C   UNL A   1      34.903  30.436  27.904  1.00  0.00     0.251 C 
ATOM      5  O   UNL A   1      35.373  29.304  27.780  1.00  0.00    -0.269 OA
ATOM      6  H   UNL A   1      36.367  30.937  29.152  1.00  0.00     0.163 HD
BRANCH   4   7
ATOM      7  C   UNL A   1      33.636  30.769  27.194  1.00  0.00     0.040 A 
ATOM      8  C   UNL A   1      31.215  31.216  25.791  1.00  0.00     0.125 A 
ATOM      9  C   UNL A   1      31.902  30.002  25.668  1.00  0.00     0.052 A 
ATOM     10  C   UNL A   1      31.717  32.177  26.673  1.00  0.00     0.052 A 
ATOM     11  C   UNL A   1      33.098  29.779  26.360  1.00  0.00     0.018 A 
ATOM     12  C   UNL A   1      32.918  31.956  27.371  1.00  0.00     0.018 A 
BRANCH   8  13
ATOM     13  N   UNL A   1      30.088  31.438  24.967  1.00  0.00    -0.234 N 
ATOM     14  C   UNL A   1      29.597  26.947  23.517  1.00  0.00     0.036 C 
ATOM     15  C   UNL A   1      29.656  28.264  23.263  1.00  0.00     0.110 C 
ATOM     16  S   UNL A   1      30.950  29.349  23.444  1.00  0.00     0.007 SA
ATOM     17  C   UNL A   1      28.437  29.097  22.975  1.00  0.00     0.348 C 
ATOM     18  C   UNL A   1      29.867  30.574  24.030  1.00  0.00     0.324 C 
ATOM     19  N   UNL A   1      28.669  30.399  23.395  1.00  0.00    -0.189 N 
ATOM     20  O   UNL A   1      27.389  28.642  22.534  1.00  0.00    -0.240 OA
ATOM     21  C   UNL A   1      27.640  31.410  23.374  1.00  0.00     0.301 C 
ATOM     22  H   UNL A   1      29.498  32.215  25.101  1.00  0.00     0.313 HD
BRANCH  14  23
ATOM     23  C   UNL A   1      30.565  25.926  24.037  1.00  0.00     0.022 A 
ATOM     24  C   UNL A   1      30.990  24.411  25.932  1.00  0.00     0.119 A 
ATOM     25  C   UNL A   1      32.269  24.145  25.471  1.00  0.00     0.050 A 
ATOM     26  C   UNL A   1      30.150  25.285  25.229  1.00  0.00     0.058 A 
ATOM     27  C   UNL A   1      32.700  24.733  24.291  1.00  0.00     0.051 A 
ATOM     28  C   UNL A   1      31.862  25.609  23.577  1.00  0.00     0.126 A 
BRANCH  24  29
ATOM     29  O   UNL A   1      30.661  23.894  27.155  1.00  0.00    -0.497 OA
ATOM     30  C   UNL A   1      29.499  23.073  27.108  1.00  0.00     0.278 C 
ENDBRANCH  24  29
BRANCH  28  31
ATOM     31  O   UNL A   1      32.452  26.238  22.515  1.00  0.00    -0.496 OA
ATOM     32  C   UNL A   1      32.947  25.300  21.553  1.00  0.00     0.278 C 
ENDBRANCH  28  31
ENDBRANCH  14  23
ENDBRANCH   8  13
ENDBRANCH   4   7
ENDBRANCH   2   3
ENDBRANCH   1   2
BRANCH   1  33
ATOM     33  C   UNL A   1      37.235  33.665  30.495  1.00  0.00     0.118 C 
BRANCH  33  34
ATOM     34  N   UNL A   1      36.735  32.620  31.378  1.00  0.00    -0.352 N 
ATOM     35  C   UNL A   1      37.171  31.334  31.581  1.00  0.00     0.251 C 
ATOM     36  H   UNL A   1      35.955  32.880  31.921  1.00  0.00     0.163 HD
ATOM     37  O   UNL A   1      36.461  30.566  32.228  1.00  0.00    -0.269 OA
BRANCH  35  38
ATOM     38  C   UNL A   1      38.462  30.851  31.032  1.00  0.00     0.039 A 
ATOM     39  C   UNL A   1      38.537  30.553  29.667  1.00  0.00     0.014 A 
ATOM     40  C   UNL A   1      39.573  30.621  31.847  1.00  0.00     0.014 A 
ATOM     41  C   UNL A   1      39.730  30.075  29.115  1.00  0.00     0.010 A 
ATOM     42  C   UNL A   1      40.784  30.206  31.285  1.00  0.00     0.010 A 
ATOM     43  C   UNL A   1      40.874  29.922  29.914  1.00  0.00    -0.014 A 
BRANCH  43  44
ATOM     44  C   UNL A   1      42.165  29.474  29.321  1.00  0.00     0.031 A 
ATOM     45  C   UNL A   1      43.315  30.435  29.167  1.00  0.00     0.074 A 
ATOM     46  C   UNL A   1      42.288  28.205  28.881  1.00  0.00     0.049 A 
ATOM     47  N   UNL A   1      44.502  30.227  28.655  1.00  0.00    -0.248 NA
ATOM     48  C   UNL A   1      43.096  31.814  29.629  1.00  0.00     0.031 C 
ATOM     49  C   UNL A   1      41.232  27.191  28.926  1.00  0.00     0.029 A 
ATOM     50  N   UNL A   1      43.350  27.552  28.306  1.00  0.00    -0.354 N 
ATOM     51  C   UNL A   1      45.165  31.447  28.721  1.00  0.00     0.074 A 
ATOM     52  C   UNL A   1      44.231  32.402  29.278  1.00  0.00     0.031 C 
ATOM     53  C   UNL A   1      41.707  26.039  28.425  1.00  0.00     0.029 A 
ATOM     54  C   UNL A   1      43.087  26.239  27.993  1.00  0.00     0.049 A 
ATOM     55  H   UNL A   1      44.218  27.983  28.133  1.00  0.00     0.167 HD
ATOM     56  C   UNL A   1      46.442  31.741  28.372  1.00  0.00     0.037 A 
ATOM     57  C   UNL A   1      43.866  25.299  27.422  1.00  0.00     0.037 A 
ATOM     58  C   UNL A   1      47.376  30.781  27.839  1.00  0.00     0.049 A 
ATOM     59  C   UNL A   1      45.283  25.645  27.054  1.00  0.00     0.074 A 
ATOM     60  C   UNL A   1      48.706  30.967  27.506  1.00  0.00     0.029 A 
ATOM     61  N   UNL A   1      47.078  29.455  27.558  1.00  0.00    -0.354 N 
ATOM     62  N   UNL A   1      45.913  26.787  27.185  1.00  0.00    -0.248 NA
ATOM     63  C   UNL A   1      46.099  24.571  26.471  1.00  0.00     0.031 C 
ATOM     64  C   UNL A   1      49.201  29.766  26.986  1.00  0.00     0.029 A 
ATOM     65  C   UNL A   1      48.193  28.817  27.042  1.00  0.00     0.049 A 
ATOM     66  H   UNL A   1      46.201  29.031  27.705  1.00  0.00     0.167 HD
ATOM     67  C   UNL A   1      47.207  26.562  26.729  1.00  0.00     0.074 A 
ATOM     68  C   UNL A   1      47.273  25.173  26.327  1.00  0.00     0.031 C 
ATOM     69  C   UNL A   1      48.247  27.430  26.653  1.00  0.00     0.037 A 
BRANCH  56  70
ATOM     70  C   UNL A   1      46.909  33.160  28.559  1.00  0.00     0.058 A 
ATOM     71  C   UNL A   1      47.495  33.591  29.762  1.00  0.00     0.135 A 
ATOM     72  C   UNL A   1      46.802  34.094  27.515  1.00  0.00     0.135 A 
ATOM     73  F   UNL A   1      47.611  32.745  30.798  1.00  0.00    -0.206 F 
ATOM     74  C   UNL A   1      47.925  34.903  29.934  1.00  0.00     0.059 A 
ATOM     75  C   UNL A   1      47.253  35.404  27.656  1.00  0.00     0.059 A 
ATOM     76  F   UNL A   1      46.255  33.737  26.343  1.00  0.00    -0.206 F 
ATOM     77  C   UNL A   1      47.797  35.803  28.875  1.00  0.00     0.060 A 
BRANCH  77  78
ATOM     78  S   UNL A   1      48.357  37.502  29.116  1.00  0.00     0.124 S 
ATOM     79  O   UNL A   1      48.547  37.544  30.563  1.00  0.00    -0.237 OA
ATOM     80  O   UNL A   1      49.578  37.547  28.317  1.00  0.00    -0.237 OA
ATOM     81  O   UNL A   1      47.247  38.302  28.606  1.00  0.00    -0.744 OA
ENDBRANCH  77  78
ENDBRANCH  56  70
BRANCH  57  82
ATOM     82  C   UNL A   1      43.329  23.931  27.197  1.00  0.00     0.058 A 
ATOM     83  C   UNL A   1      42.767  23.570  25.963  1.00  0.00     0.135 A 
ATOM     84  C   UNL A   1      43.391  22.949  28.198  1.00  0.00     0.135 A 
ATOM     85  F   UNL A   1      42.681  24.475  24.976  1.00  0.00    -0.206 F 
ATOM     86  C   UNL A   1      42.273  22.291  25.733  1.00  0.00     0.059 A 
ATOM     87  C   UNL A   1      42.926  21.656  27.983  1.00  0.00     0.059 A 
ATOM     88  F   UNL A   1      43.936  23.238  29.390  1.00  0.00    -0.206 F 
ATOM     89  C   UNL A   1      42.360  21.338  26.749  1.00  0.00     0.060 A 
BRANCH  89  90
ATOM     90  S   UNL A   1      41.771  19.663  26.420  1.00  0.00     0.124 S 
ATOM     91  O   UNL A   1      42.159  18.970  27.643  1.00  0.00    -0.237 OA
ATOM     92  O   UNL A   1      40.339  19.873  26.230  1.00  0.00    -0.237 OA
ATOM     93  O   UNL A   1      42.504  19.281  25.216  1.00  0.00    -0.744 OA
ENDBRANCH  89  90
ENDBRANCH  57  82
BRANCH  69  94
ATOM     94  C   UNL A   1      49.560  26.893  26.151  1.00  0.00     0.058 A 
ATOM     95  C   UNL A   1      49.960  27.045  24.815  1.00  0.00     0.135 A 
ATOM     96  C   UNL A   1      50.451  26.262  27.034  1.00  0.00     0.135 A 
ATOM     97  F   UNL A   1      49.143  27.634  23.927  1.00  0.00    -0.206 F 
ATOM     98  C   UNL A   1      51.187  26.567  24.364  1.00  0.00     0.059 A 
ATOM     99  C   UNL A   1      51.695  25.801  26.613  1.00  0.00     0.059 A 
ATOM    100  F   UNL A   1      50.123  26.101  28.326  1.00  0.00    -0.206 F 
ATOM    101  C   UNL A   1      52.048  25.947  25.272  1.00  0.00     0.060 A 
BRANCH 101 102
ATOM    102  S   UNL A   1      53.651  25.360  24.683  1.00  0.00     0.124 S 
ATOM    103  O   UNL A   1      53.692  25.918  23.337  1.00  0.00    -0.237 OA
ATOM    104  O   UNL A   1      54.575  25.953  25.645  1.00  0.00    -0.237 OA
ATOM    105  O   UNL A   1      53.528  23.907  24.757  1.00  0.00    -0.744 OA
ENDBRANCH 101 102
ENDBRANCH  69  94
ENDBRANCH  43  44
ENDBRANCH  35  38
ENDBRANCH  33  34
ENDBRANCH   1  33
TORSDOF 17
ENDMDL
MODEL 3
REMARK VINA RESULT:     -11.3      6.461     14.539
REMARK SMILES COc1ccc(OC)c(/C=C2\S/C(=[NH+]\c3ccc(C(=O)NCCCNC(=O)c4ccc(-c5c6nc(c(-c7c(F)cc(S(=O)(=O)[O-])cc7F)c7ccc([nH]7)c(-c7c(F)cc(S(=O)(=O)[O-])cc7F)c7nc(c(-c8c(F)cc(S(=O)(=O)[O-])cc8F)c8ccc5[nH]8)C=C7)C=C6)cc4)cc3)N(C)C2=O)c1
REMARK SMILES IDX 23 1 22 2 21 3 19 4 20 5 18 7 15 8 16 9 95 10 17 11 94 12
REMARK SMILES IDX 14 13 10 14 11 15 12 16 98 17 13 18 96 19 99 20 97 21 9 23
REMARK SMILES IDX 3 24 4 25 100 26 5 27 6 28 2 29 1 30 7 31 8 32 24 33 25 34
REMARK SMILES IDX 26 35 27 37 28 38 29 39 93 40 30 41 92 42 31 43 32 44 33 45
REMARK SMILES IDX 86 46 34 47 91 48 85 49 87 50 35 51 90 52 84 53 83 54 36 56
REMARK SMILES IDX 70 57 49 58 69 59 50 60 53 61 68 62 88 63 51 64 52 65 67 67
REMARK SMILES IDX 89 68 54 69 37 70 38 71 47 72 39 73 40 74 46 75 48 76 41 77
REMARK SMILES IDX 42 78 43 79 44 80 45 81 71 82 72 83 81 84 73 85 74 86 80 87
REMARK SMILES IDX 82 88 75 89 76 90 77 91 78 92 79 93 55 94 56 95 65 96 57 97
REMARK SMILES IDX 58 98 64 99 66 100 59 101 60 102 61 103 62 104 63 105
REMARK H PARENT 21 6 14 22 25 36 87 55 53 66
REMARK Flexibility Score: inf
ROOT
ATOM      1  C   UNL A   1      44.658  38.370  27.927  1.00  0.00     0.042 C 
ENDROOT
BRANCH   1   2
ATOM      2  C   UNL A   1      44.651  39.877  27.673  1.00  0.00     0.118 C 
BRANCH   2   3
ATOM      3  N   UNL A   1      43.405  40.317  27.070  1.00  0.00    -0.352 N 
ATOM      4  C   UNL A   1      43.139  41.111  25.983  1.00  0.00     0.251 C 
ATOM      5  O   UNL A   1      41.968  41.188  25.609  1.00  0.00    -0.269 OA
ATOM      6  H   UNL A   1      42.600  39.983  27.529  1.00  0.00     0.163 HD
BRANCH   4   7
ATOM      7  C   UNL A   1      44.187  41.842  25.218  1.00  0.00     0.040 A 
ATOM      8  C   UNL A   1      46.274  43.062  23.740  1.00  0.00     0.125 A 
ATOM      9  C   UNL A   1      46.389  41.740  24.185  1.00  0.00     0.052 A 
ATOM     10  C   UNL A   1      45.080  43.745  23.984  1.00  0.00     0.052 A 
ATOM     11  C   UNL A   1      45.360  41.135  24.916  1.00  0.00     0.018 A 
ATOM     12  C   UNL A   1      44.042  43.140  24.717  1.00  0.00     0.018 A 
BRANCH   8  13
ATOM     13  N   UNL A   1      47.396  43.666  23.126  1.00  0.00    -0.234 N 
ATOM     14  C   UNL A   1      45.239  44.766  19.046  1.00  0.00     0.036 C 
ATOM     15  C   UNL A   1      46.277  44.252  19.725  1.00  0.00     0.110 C 
ATOM     16  S   UNL A   1      46.344  42.888  20.735  1.00  0.00     0.007 SA
ATOM     17  C   UNL A   1      47.583  44.977  19.897  1.00  0.00     0.348 C 
ATOM     18  C   UNL A   1      47.394  43.730  21.833  1.00  0.00     0.324 C 
ATOM     19  N   UNL A   1      48.167  44.579  21.092  1.00  0.00    -0.189 N 
ATOM     20  O   UNL A   1      47.985  45.848  19.137  1.00  0.00    -0.240 OA
ATOM     21  C   UNL A   1      49.367  45.194  21.605  1.00  0.00     0.301 C 
ATOM     22  H   UNL A   1      48.145  44.021  23.658  1.00  0.00     0.313 HD
BRANCH  14  23
ATOM     23  C   UNL A   1      43.793  44.405  18.890  1.00  0.00     0.022 A 
ATOM     24  C   UNL A   1      41.840  44.711  17.420  1.00  0.00     0.119 A 
ATOM     25  C   UNL A   1      41.000  44.153  18.370  1.00  0.00     0.050 A 
ATOM     26  C   UNL A   1      43.212  44.835  17.672  1.00  0.00     0.058 A 
ATOM     27  C   UNL A   1      41.537  43.694  19.564  1.00  0.00     0.051 A 
ATOM     28  C   UNL A   1      42.915  43.812  19.824  1.00  0.00     0.126 A 
BRANCH  24  29
ATOM     29  O   UNL A   1      41.241  45.247  16.313  1.00  0.00    -0.497 OA
ATOM     30  C   UNL A   1      41.542  46.628  16.143  1.00  0.00     0.278 C 
ENDBRANCH  24  29
BRANCH  28  31
ATOM     31  O   UNL A   1      43.296  43.462  21.090  1.00  0.00    -0.496 OA
ATOM     32  C   UNL A   1      42.724  42.211  21.489  1.00  0.00     0.278 C 
ENDBRANCH  28  31
ENDBRANCH  14  23
ENDBRANCH   8  13
ENDBRANCH   4   7
ENDBRANCH   2   3
ENDBRANCH   1   2
BRANCH   1  33
ATOM     33  C   UNL A   1      45.430  37.945  29.178  1.00  0.00     0.118 C 
BRANCH  33  34
ATOM     34  N   UNL A   1      46.872  37.956  28.970  1.00  0.00    -0.352 N 
ATOM     35  C   UNL A   1      47.763  36.922  28.816  1.00  0.00     0.251 C 
ATOM     36  H   UNL A   1      47.275  38.855  28.934  1.00  0.00     0.163 HD
ATOM     37  O   UNL A   1      48.967  37.171  28.862  1.00  0.00    -0.269 OA
BRANCH  35  38
ATOM     38  C   UNL A   1      47.310  35.525  28.610  1.00  0.00     0.039 A 
ATOM     39  C   UNL A   1      47.401  34.629  29.681  1.00  0.00     0.014 A 
ATOM     40  C   UNL A   1      46.866  35.067  27.367  1.00  0.00     0.014 A 
ATOM     41  C   UNL A   1      47.004  33.297  29.520  1.00  0.00     0.010 A 
ATOM     42  C   UNL A   1      46.408  33.754  27.224  1.00  0.00     0.010 A 
ATOM     43  C   UNL A   1      46.478  32.852  28.296  1.00  0.00    -0.014 A 
BRANCH  43  44
ATOM     44  C   UNL A   1      45.995  31.453  28.137  1.00  0.00     0.031 A 
ATOM     45  C   UNL A   1      44.576  31.084  28.488  1.00  0.00     0.074 A 
ATOM     46  C   UNL A   1      46.849  30.500  27.713  1.00  0.00     0.049 A 
ATOM     47  N   UNL A   1      43.989  29.916  28.434  1.00  0.00    -0.248 NA
ATOM     48  C   UNL A   1      43.712  32.165  28.987  1.00  0.00     0.031 C 
ATOM     49  C   UNL A   1      48.261  30.718  27.388  1.00  0.00     0.029 A 
ATOM     50  N   UNL A   1      46.660  29.160  27.485  1.00  0.00    -0.354 N 
ATOM     51  C   UNL A   1      42.695  30.116  28.900  1.00  0.00     0.074 A 
ATOM     52  C   UNL A   1      42.598  31.509  29.280  1.00  0.00     0.031 C 
ATOM     53  C   UNL A   1      48.802  29.559  26.980  1.00  0.00     0.029 A 
ATOM     54  C   UNL A   1      47.789  28.510  27.044  1.00  0.00     0.049 A 
ATOM     55  H   UNL A   1      45.798  28.706  27.625  1.00  0.00     0.167 HD
ATOM     56  C   UNL A   1      41.674  29.229  28.984  1.00  0.00     0.037 A 
ATOM     57  C   UNL A   1      47.990  27.215  26.727  1.00  0.00     0.037 A 
ATOM     58  C   UNL A   1      41.769  27.847  28.583  1.00  0.00     0.049 A 
ATOM     59  C   UNL A   1      46.839  26.251  26.815  1.00  0.00     0.074 A 
ATOM     60  C   UNL A   1      40.777  26.882  28.577  1.00  0.00     0.029 A 
ATOM     61  N   UNL A   1      42.923  27.233  28.120  1.00  0.00    -0.354 N 
ATOM     62  N   UNL A   1      45.604  26.474  27.197  1.00  0.00    -0.248 NA
ATOM     63  C   UNL A   1      47.105  24.860  26.420  1.00  0.00     0.031 C 
ATOM     64  C   UNL A   1      41.341  25.675  28.149  1.00  0.00     0.029 A 
ATOM     65  C   UNL A   1      42.673  25.899  27.841  1.00  0.00     0.049 A 
ATOM     66  H   UNL A   1      43.794  27.679  28.006  1.00  0.00     0.167 HD
ATOM     67  C   UNL A   1      44.938  25.261  27.059  1.00  0.00     0.074 A 
ATOM     68  C   UNL A   1      45.905  24.309  26.551  1.00  0.00     0.031 C 
ATOM     69  C   UNL A   1      43.642  24.964  27.328  1.00  0.00     0.037 A 
BRANCH  56  70
ATOM     70  C   UNL A   1      40.360  29.724  29.526  1.00  0.00     0.058 A 
ATOM     71  C   UNL A   1      39.241  29.906  28.695  1.00  0.00     0.135 A 
ATOM     72  C   UNL A   1      40.203  29.987  30.897  1.00  0.00     0.135 A 
ATOM     73  F   UNL A   1      39.337  29.683  27.374  1.00  0.00    -0.206 F 
ATOM     74  C   UNL A   1      38.027  30.365  29.197  1.00  0.00     0.059 A 
ATOM     75  C   UNL A   1      38.989  30.418  31.425  1.00  0.00     0.059 A 
ATOM     76  F   UNL A   1      41.235  29.825  31.739  1.00  0.00    -0.206 F 
ATOM     77  C   UNL A   1      37.911  30.621  30.564  1.00  0.00     0.060 A 
BRANCH  77  78
ATOM     78  S   UNL A   1      36.331  31.218  31.198  1.00  0.00     0.124 S 
ATOM     79  O   UNL A   1      35.903  30.091  32.022  1.00  0.00    -0.237 OA
ATOM     80  O   UNL A   1      36.720  32.422  31.926  1.00  0.00    -0.237 OA
ATOM     81  O   UNL A   1      35.543  31.447  29.990  1.00  0.00    -0.744 OA
ENDBRANCH  77  78
ENDBRANCH  56  70
BRANCH  57  82
ATOM     82  C   UNL A   1      49.329  26.767  26.262  1.00  0.00     0.058 A 
ATOM     83  C   UNL A   1      49.706  26.893  24.917  1.00  0.00     0.135 A 
ATOM     84  C   UNL A   1      50.269  26.229  27.156  1.00  0.00     0.135 A 
ATOM     85  F   UNL A   1      48.841  27.396  24.023  1.00  0.00    -0.206 F 
ATOM     86  C   UNL A   1      50.960  26.490  24.470  1.00  0.00     0.059 A 
ATOM     87  C   UNL A   1      51.537  25.842  26.737  1.00  0.00     0.059 A 
ATOM     88  F   UNL A   1      49.964  26.104  28.457  1.00  0.00    -0.206 F 
ATOM     89  C   UNL A   1      51.871  25.968  25.389  1.00  0.00     0.060 A 
BRANCH  89  90
ATOM     90  S   UNL A   1      53.517  25.505  24.810  1.00  0.00     0.124 S 
ATOM     91  O   UNL A   1      53.396  25.725  23.374  1.00  0.00    -0.237 OA
ATOM     92  O   UNL A   1      54.372  26.443  25.531  1.00  0.00    -0.237 OA
ATOM     93  O   UNL A   1      53.640  24.112  25.228  1.00  0.00    -0.744 OA
ENDBRANCH  89  90
ENDBRANCH  57  82
BRANCH  69  94
ATOM     94  C   UNL A   1      43.180  23.561  27.041  1.00  0.00     0.058 A 
ATOM     95  C   UNL A   1      42.952  23.110  25.732  1.00  0.00     0.135 A 
ATOM     96  C   UNL A   1      43.011  22.643  28.090  1.00  0.00     0.135 A 
ATOM     97  F   UNL A   1      43.093  23.950  24.693  1.00  0.00    -0.206 F 
ATOM     98  C   UNL A   1      42.549  21.804  25.473  1.00  0.00     0.059 A 
ATOM     99  C   UNL A   1      42.635  21.324  27.853  1.00  0.00     0.059 A 
ATOM    100  F   UNL A   1      43.227  23.020  29.360  1.00  0.00    -0.206 F 
ATOM    101  C   UNL A   1      42.394  20.917  26.541  1.00  0.00     0.060 A 
BRANCH 101 102
ATOM    102  S   UNL A   1      41.900  19.216  26.191  1.00  0.00     0.124 S 
ATOM    103  O   UNL A   1      42.314  18.534  27.412  1.00  0.00    -0.237 OA
ATOM    104  O   UNL A   1      40.459  19.343  25.993  1.00  0.00    -0.237 OA
ATOM    105  O   UNL A   1      42.664  18.881  24.993  1.00  0.00    -0.744 OA
ENDBRANCH 101 102
ENDBRANCH  69  94
ENDBRANCH  43  44
ENDBRANCH  35  38
ENDBRANCH  33  34
ENDBRANCH   1  33
TORSDOF 17
ENDMDL
