MODEL 1
REMARK VINA RESULT:     -12.2      0.000      0.000
REMARK SMILES Cc1nn(C)c(=O)c(C(=O)N[C@H]2C=C[C@H](C(=O)NCCCNC(=O)c3ccc(-c4c5nc(c(-c6c(F)cc(S(=O)(=O)[O-])cc6F)c6ccc([nH]6)c(-c6c(F)cc(S(=O)(=O)[O-])cc6F)c6nc(c(-c7c(F)cc(S(=O)(=O)[O-])cc7F)c7ccc4[nH]7)C=C6)C=C5)cc3)C2)c1C
REMARK SMILES IDX 20 1 19 2 18 3 16 4 17 5 15 7 12 8 13 9 91 10 14 11 11 12
REMARK SMILES IDX 9 13 10 14 8 16 1 17 2 18 3 19 92 20 4 21 93 22 5 23 6 24
REMARK SMILES IDX 7 25 21 26 22 27 23 28 24 30 25 31 26 32 90 33 27 34 89 35
REMARK SMILES IDX 28 36 29 37 30 38 83 39 31 40 88 41 82 42 84 43 32 44 87 45
REMARK SMILES IDX 81 46 80 47 33 49 67 50 46 51 66 52 47 53 50 54 65 55 85 56
REMARK SMILES IDX 48 57 49 58 64 60 86 61 51 62 34 63 35 64 44 65 36 66 37 67
REMARK SMILES IDX 43 68 45 69 38 70 39 71 40 72 41 73 42 74 68 75 69 76 78 77
REMARK SMILES IDX 70 78 71 79 77 80 79 81 72 82 73 83 74 84 75 85 76 86 52 87
REMARK SMILES IDX 53 88 62 89 54 90 55 91 61 92 63 93 56 94 57 95 58 96 59 97
REMARK SMILES IDX 60 98
REMARK H PARENT 18 6 11 15 22 29 84 48 50 59
REMARK Flexibility Score: inf
ROOT
ATOM      1  C   UNL A   1      32.170  27.787  27.618  1.00  0.00     0.042 C 
ENDROOT
BRANCH   1   2
ATOM      2  C   UNL A   1      31.445  27.338  26.356  1.00  0.00     0.117 C 
BRANCH   2   3
ATOM      3  N   UNL A   1      31.583  28.309  25.288  1.00  0.00    -0.356 N 
ATOM      4  C   UNL A   1      31.789  28.114  23.955  1.00  0.00     0.227 C 
ATOM      5  O   UNL A   1      31.959  29.110  23.249  1.00  0.00    -0.274 OA
ATOM      6  H   UNL A   1      31.519  29.251  25.568  1.00  0.00     0.163 HD
BRANCH   4   7
ATOM      7  C   UNL A   1      31.672  26.697  23.390  1.00  0.00     0.103 C 
ATOM      8  C   UNL A   1      33.065  25.121  22.107  1.00  0.00     0.106 C 
ATOM      9  C   UNL A   1      32.103  25.854  21.234  1.00  0.00    -0.006 C 
ATOM     10  C   UNL A   1      32.945  25.837  23.454  1.00  0.00     0.047 C 
ATOM     11  C   UNL A   1      31.351  26.714  21.925  1.00  0.00    -0.016 C 
BRANCH   8  12
ATOM     12  N   UNL A   1      32.793  23.697  21.980  1.00  0.00    -0.346 N 
ATOM     13  C   UNL A   1      32.958  22.552  22.692  1.00  0.00     0.257 C 
ATOM     14  O   UNL A   1      32.373  21.544  22.292  1.00  0.00    -0.269 OA
ATOM     15  H   UNL A   1      32.359  23.505  21.117  1.00  0.00     0.164 HD
BRANCH  13  16
ATOM     16  C   UNL A   1      33.788  22.471  23.912  1.00  0.00     0.111 A 
ATOM     17  C   UNL A   1      33.745  22.140  27.603  1.00  0.00     0.069 C 
ATOM     18  C   UNL A   1      34.254  21.940  26.194  1.00  0.00     0.062 A 
ATOM     19  N   UNL A   1      35.538  21.878  26.056  1.00  0.00    -0.175 NA
ATOM     20  C   UNL A   1      33.302  21.940  25.049  1.00  0.00    -0.010 A 
ATOM     21  N   UNL A   1      36.019  21.966  24.779  1.00  0.00    -0.232 N 
ATOM     22  C   UNL A   1      31.980  21.258  25.210  1.00  0.00     0.047 C 
ATOM     23  C   UNL A   1      37.416  21.622  24.596  1.00  0.00     0.178 C 
ATOM     24  C   UNL A   1      35.276  22.525  23.740  1.00  0.00     0.279 A 
ATOM     25  O   UNL A   1      35.780  22.955  22.705  1.00  0.00    -0.267 OA
ENDBRANCH  13  16
ENDBRANCH   8  12
ENDBRANCH   4   7
ENDBRANCH   2   3
ENDBRANCH   1   2
BRANCH   1  26
ATOM     26  C   UNL A   1      33.478  28.520  27.346  1.00  0.00     0.118 C 
BRANCH  26  27
ATOM     27  N   UNL A   1      33.395  29.945  27.627  1.00  0.00    -0.352 N 
ATOM     28  C   UNL A   1      34.357  30.777  28.146  1.00  0.00     0.251 C 
ATOM     29  H   UNL A   1      32.532  30.372  27.415  1.00  0.00     0.163 HD
ATOM     30  O   UNL A   1      34.068  31.928  28.460  1.00  0.00    -0.269 OA
BRANCH  28  31
ATOM     31  C   UNL A   1      35.726  30.262  28.350  1.00  0.00     0.039 A 
ATOM     32  C   UNL A   1      36.637  30.324  27.293  1.00  0.00     0.014 A 
ATOM     33  C   UNL A   1      36.115  29.750  29.591  1.00  0.00     0.014 A 
ATOM     34  C   UNL A   1      37.959  29.930  27.502  1.00  0.00     0.010 A 
ATOM     35  C   UNL A   1      37.449  29.430  29.818  1.00  0.00     0.010 A 
ATOM     36  C   UNL A   1      38.382  29.512  28.774  1.00  0.00    -0.014 A 
BRANCH  36  37
ATOM     37  C   UNL A   1      39.791  29.126  29.028  1.00  0.00     0.031 A 
ATOM     38  C   UNL A   1      40.730  30.111  29.667  1.00  0.00     0.074 A 
ATOM     39  C   UNL A   1      40.234  27.912  28.649  1.00  0.00     0.049 A 
ATOM     40  N   UNL A   1      42.010  29.995  29.911  1.00  0.00    -0.248 NA
ATOM     41  C   UNL A   1      40.158  31.410  30.060  1.00  0.00     0.031 C 
ATOM     42  C   UNL A   1      39.423  26.879  28.000  1.00  0.00     0.029 A 
ATOM     43  N   UNL A   1      41.474  27.337  28.761  1.00  0.00    -0.354 N 
ATOM     44  C   UNL A   1      42.394  31.201  30.483  1.00  0.00     0.074 A 
ATOM     45  C   UNL A   1      41.230  32.060  30.487  1.00  0.00     0.031 C 
ATOM     46  C   UNL A   1      40.176  25.783  27.812  1.00  0.00     0.029 A 
ATOM     47  C   UNL A   1      41.529  26.046  28.291  1.00  0.00     0.049 A 
ATOM     48  H   UNL A   1      42.253  27.806  29.142  1.00  0.00     0.167 HD
ATOM     49  C   UNL A   1      43.600  31.552  30.990  1.00  0.00     0.037 A 
ATOM     50  C   UNL A   1      42.554  25.174  28.259  1.00  0.00     0.037 A 
ATOM     51  C   UNL A   1      44.750  30.690  31.001  1.00  0.00     0.049 A 
ATOM     52  C   UNL A   1      43.894  25.596  28.796  1.00  0.00     0.074 A 
ATOM     53  C   UNL A   1      46.015  30.944  31.499  1.00  0.00     0.029 A 
ATOM     54  N   UNL A   1      44.771  29.398  30.495  1.00  0.00    -0.354 N 
ATOM     55  N   UNL A   1      44.240  26.739  29.340  1.00  0.00    -0.248 NA
ATOM     56  C   UNL A   1      44.983  24.613  28.711  1.00  0.00     0.031 C 
ATOM     57  C   UNL A   1      46.809  29.814  31.272  1.00  0.00     0.029 A 
ATOM     58  C   UNL A   1      46.028  28.843  30.663  1.00  0.00     0.049 A 
ATOM     59  H   UNL A   1      44.004  28.941  30.077  1.00  0.00     0.167 HD
ATOM     60  C   UNL A   1      45.581  26.607  29.680  1.00  0.00     0.074 A 
ATOM     61  C   UNL A   1      45.982  25.270  29.289  1.00  0.00     0.031 C 
ATOM     62  C   UNL A   1      46.406  27.510  30.264  1.00  0.00     0.037 A 
BRANCH  49  63
ATOM     63  C   UNL A   1      43.716  32.926  31.588  1.00  0.00     0.058 A 
ATOM     64  C   UNL A   1      43.449  33.152  32.949  1.00  0.00     0.135 A 
ATOM     65  C   UNL A   1      44.086  34.027  30.800  1.00  0.00     0.135 A 
ATOM     66  F   UNL A   1      43.071  32.136  33.741  1.00  0.00    -0.206 F 
ATOM     67  C   UNL A   1      43.506  34.428  33.498  1.00  0.00     0.059 A 
ATOM     68  C   UNL A   1      44.175  35.309  31.337  1.00  0.00     0.059 A 
ATOM     69  F   UNL A   1      44.350  33.866  29.494  1.00  0.00    -0.206 F 
ATOM     70  C   UNL A   1      43.863  35.502  32.682  1.00  0.00     0.060 A 
BRANCH  70  71
ATOM     71  S   UNL A   1      43.907  37.154  33.406  1.00  0.00     0.124 S 
ATOM     72  O   UNL A   1      42.722  37.130  34.257  1.00  0.00    -0.237 OA
ATOM     73  O   UNL A   1      45.188  37.157  34.105  1.00  0.00    -0.237 OA
ATOM     74  O   UNL A   1      43.828  38.036  32.245  1.00  0.00    -0.744 OA
ENDBRANCH  70  71
ENDBRANCH  49  63
BRANCH  50  75
ATOM     75  C   UNL A   1      42.334  23.796  27.747  1.00  0.00     0.058 A 
ATOM     76  C   UNL A   1      42.251  23.557  26.368  1.00  0.00     0.135 A 
ATOM     77  C   UNL A   1      42.247  22.694  28.610  1.00  0.00     0.135 A 
ATOM     78  F   UNL A   1      42.324  24.582  25.505  1.00  0.00    -0.206 F 
ATOM     79  C   UNL A   1      42.091  22.274  25.860  1.00  0.00     0.059 A 
ATOM     80  C   UNL A   1      42.104  21.398  28.125  1.00  0.00     0.059 A 
ATOM     81  F   UNL A   1      42.334  22.870  29.938  1.00  0.00    -0.206 F 
ATOM     82  C   UNL A   1      42.025  21.198  26.746  1.00  0.00     0.060 A 
BRANCH  82  83
ATOM     83  S   UNL A   1      41.890  19.530  26.068  1.00  0.00     0.124 S 
ATOM     84  O   UNL A   1      42.356  18.719  27.187  1.00  0.00    -0.237 OA
ATOM     85  O   UNL A   1      40.466  19.439  25.762  1.00  0.00    -0.237 OA
ATOM     86  O   UNL A   1      42.773  19.568  24.906  1.00  0.00    -0.744 OA
ENDBRANCH  82  83
ENDBRANCH  50  75
BRANCH  62  87
ATOM     87  C   UNL A   1      47.821  27.083  30.529  1.00  0.00     0.058 A 
ATOM     88  C   UNL A   1      48.855  27.381  29.630  1.00  0.00     0.135 A 
ATOM     89  C   UNL A   1      48.156  26.430  31.727  1.00  0.00     0.135 A 
ATOM     90  F   UNL A   1      48.584  27.997  28.468  1.00  0.00    -0.206 F 
ATOM     91  C   UNL A   1      50.174  27.039  29.904  1.00  0.00     0.059 A 
ATOM     92  C   UNL A   1      49.472  26.097  32.031  1.00  0.00     0.059 A 
ATOM     93  F   UNL A   1      47.202  26.131  32.623  1.00  0.00    -0.206 F 
ATOM     94  C   UNL A   1      50.474  26.401  31.110  1.00  0.00     0.060 A 
BRANCH  94  95
ATOM     95  S   UNL A   1      52.197  26.007  31.475  1.00  0.00     0.124 S 
ATOM     96  O   UNL A   1      52.814  26.142  30.160  1.00  0.00    -0.237 OA
ATOM     97  O   UNL A   1      52.552  27.035  32.450  1.00  0.00    -0.237 OA
ATOM     98  O   UNL A   1      52.131  24.648  32.002  1.00  0.00    -0.744 OA
ENDBRANCH  94  95
ENDBRANCH  62  87
ENDBRANCH  36  37
ENDBRANCH  28  31
ENDBRANCH  26  27
ENDBRANCH   1  26
TORSDOF 15
ENDMDL
MODEL 2
REMARK VINA RESULT:     -12.1      4.466      9.570
REMARK SMILES Cc1nn(C)c(=O)c(C(=O)N[C@H]2C=C[C@H](C(=O)NCCCNC(=O)c3ccc(-c4c5nc(c(-c6c(F)cc(S(=O)(=O)[O-])cc6F)c6ccc([nH]6)c(-c6c(F)cc(S(=O)(=O)[O-])cc6F)c6nc(c(-c7c(F)cc(S(=O)(=O)[O-])cc7F)c7ccc4[nH]7)C=C6)C=C5)cc3)C2)c1C
REMARK SMILES IDX 20 1 19 2 18 3 16 4 17 5 15 7 12 8 13 9 91 10 14 11 11 12
REMARK SMILES IDX 9 13 10 14 8 16 1 17 2 18 3 19 92 20 4 21 93 22 5 23 6 24
REMARK SMILES IDX 7 25 21 26 22 27 23 28 24 30 25 31 26 32 90 33 27 34 89 35
REMARK SMILES IDX 28 36 29 37 30 38 83 39 31 40 88 41 82 42 84 43 32 44 87 45
REMARK SMILES IDX 81 46 80 47 33 49 67 50 46 51 66 52 47 53 50 54 65 55 85 56
REMARK SMILES IDX 48 57 49 58 64 60 86 61 51 62 34 63 35 64 44 65 36 66 37 67
REMARK SMILES IDX 43 68 45 69 38 70 39 71 40 72 41 73 42 74 68 75 69 76 78 77
REMARK SMILES IDX 70 78 71 79 77 80 79 81 72 82 73 83 74 84 75 85 76 86 52 87
REMARK SMILES IDX 53 88 62 89 54 90 55 91 61 92 63 93 56 94 57 95 58 96 59 97
REMARK SMILES IDX 60 98
REMARK H PARENT 18 6 11 15 22 29 84 48 50 59
REMARK Flexibility Score: inf
ROOT
ATOM      1  C   UNL A   1      31.828  32.110  26.736  1.00  0.00     0.042 C 
ENDROOT
BRANCH   1   2
ATOM      2  C   UNL A   1      32.169  30.689  26.304  1.00  0.00     0.117 C 
BRANCH   2   3
ATOM      3  N   UNL A   1      31.718  29.714  27.278  1.00  0.00    -0.356 N 
ATOM      4  C   UNL A   1      31.645  28.357  27.181  1.00  0.00     0.227 C 
ATOM      5  O   UNL A   1      31.143  27.741  28.122  1.00  0.00    -0.274 OA
ATOM      6  H   UNL A   1      31.421  30.089  28.138  1.00  0.00     0.163 HD
BRANCH   4   7
ATOM      7  C   UNL A   1      32.295  27.667  25.981  1.00  0.00     0.103 C 
ATOM      8  C   UNL A   1      33.100  25.416  25.381  1.00  0.00     0.106 C 
ATOM      9  C   UNL A   1      34.210  26.303  25.834  1.00  0.00    -0.006 C 
ATOM     10  C   UNL A   1      31.840  26.225  25.701  1.00  0.00     0.047 C 
ATOM     11  C   UNL A   1      33.777  27.522  26.167  1.00  0.00    -0.016 C 
BRANCH   8  12
ATOM     12  N   UNL A   1      33.396  24.982  24.024  1.00  0.00    -0.346 N 
ATOM     13  C   UNL A   1      33.729  23.846  23.359  1.00  0.00     0.257 C 
ATOM     14  O   UNL A   1      33.684  23.873  22.128  1.00  0.00    -0.269 OA
ATOM     15  H   UNL A   1      33.337  25.740  23.399  1.00  0.00     0.164 HD
BRANCH  13  16
ATOM     16  C   UNL A   1      34.128  22.597  24.041  1.00  0.00     0.111 A 
ATOM     17  C   UNL A   1      32.971  19.293  25.260  1.00  0.00     0.069 C 
ATOM     18  C   UNL A   1      33.930  20.299  24.662  1.00  0.00     0.062 A 
ATOM     19  N   UNL A   1      35.181  20.128  24.941  1.00  0.00    -0.175 NA
ATOM     20  C   UNL A   1      33.407  21.469  23.905  1.00  0.00    -0.010 A 
ATOM     21  N   UNL A   1      36.020  21.164  24.636  1.00  0.00    -0.232 N 
ATOM     22  C   UNL A   1      32.244  21.272  22.984  1.00  0.00     0.047 C 
ATOM     23  C   UNL A   1      37.440  20.873  24.687  1.00  0.00     0.178 C 
ATOM     24  C   UNL A   1      35.561  22.469  24.466  1.00  0.00     0.279 A 
ATOM     25  O   UNL A   1      36.284  23.457  24.563  1.00  0.00    -0.267 OA
ENDBRANCH  13  16
ENDBRANCH   8  12
ENDBRANCH   4   7
ENDBRANCH   2   3
ENDBRANCH   1   2
BRANCH   1  26
ATOM     26  C   UNL A   1      32.963  32.818  27.465  1.00  0.00     0.118 C 
BRANCH  26  27
ATOM     27  N   UNL A   1      32.658  34.208  27.768  1.00  0.00    -0.352 N 
ATOM     28  C   UNL A   1      33.183  35.008  28.753  1.00  0.00     0.251 C 
ATOM     29  H   UNL A   1      31.984  34.633  27.189  1.00  0.00     0.163 HD
ATOM     30  O   UNL A   1      32.702  36.117  28.964  1.00  0.00    -0.269 OA
BRANCH  28  31
ATOM     31  C   UNL A   1      34.307  34.508  29.571  1.00  0.00     0.039 A 
ATOM     32  C   UNL A   1      34.033  33.906  30.801  1.00  0.00     0.014 A 
ATOM     33  C   UNL A   1      35.622  34.606  29.108  1.00  0.00     0.014 A 
ATOM     34  C   UNL A   1      35.075  33.344  31.538  1.00  0.00     0.010 A 
ATOM     35  C   UNL A   1      36.648  33.979  29.806  1.00  0.00     0.010 A 
ATOM     36  C   UNL A   1      36.385  33.347  31.030  1.00  0.00    -0.014 A 
BRANCH  36  37
ATOM     37  C   UNL A   1      37.502  32.720  31.779  1.00  0.00     0.031 A 
ATOM     38  C   UNL A   1      38.200  31.519  31.206  1.00  0.00     0.074 A 
ATOM     39  C   UNL A   1      37.858  33.205  32.984  1.00  0.00     0.049 A 
ATOM     40  N   UNL A   1      39.149  30.786  31.730  1.00  0.00    -0.248 NA
ATOM     41  C   UNL A   1      37.755  31.065  29.878  1.00  0.00     0.031 C 
ATOM     42  C   UNL A   1      37.239  34.351  33.653  1.00  0.00     0.029 A 
ATOM     43  N   UNL A   1      38.832  32.797  33.859  1.00  0.00    -0.354 N 
ATOM     44  C   UNL A   1      39.412  29.789  30.800  1.00  0.00     0.074 A 
ATOM     45  C   UNL A   1      38.477  29.968  29.710  1.00  0.00     0.031 C 
ATOM     46  C   UNL A   1      37.878  34.582  34.811  1.00  0.00     0.029 A 
ATOM     47  C   UNL A   1      38.924  33.579  34.986  1.00  0.00     0.049 A 
ATOM     48  H   UNL A   1      39.411  32.017  33.695  1.00  0.00     0.167 HD
ATOM     49  C   UNL A   1      40.367  28.830  30.833  1.00  0.00     0.037 A 
ATOM     50  C   UNL A   1      39.763  33.499  36.036  1.00  0.00     0.037 A 
ATOM     51  C   UNL A   1      41.306  28.667  31.909  1.00  0.00     0.049 A 
ATOM     52  C   UNL A   1      40.795  32.404  36.069  1.00  0.00     0.074 A 
ATOM     53  C   UNL A   1      42.320  27.733  32.036  1.00  0.00     0.029 A 
ATOM     54  N   UNL A   1      41.352  29.464  33.043  1.00  0.00    -0.354 N 
ATOM     55  N   UNL A   1      41.034  31.472  35.178  1.00  0.00    -0.248 NA
ATOM     56  C   UNL A   1      41.666  32.348  37.251  1.00  0.00     0.031 C 
ATOM     57  C   UNL A   1      42.963  27.952  33.259  1.00  0.00     0.029 A 
ATOM     58  C   UNL A   1      42.372  29.043  33.879  1.00  0.00     0.049 A 
ATOM     59  H   UNL A   1      40.748  30.221  33.227  1.00  0.00     0.167 HD
ATOM     60  C   UNL A   1      42.095  30.729  35.681  1.00  0.00     0.074 A 
ATOM     61  C   UNL A   1      42.458  31.326  36.951  1.00  0.00     0.031 C 
ATOM     62  C   UNL A   1      42.714  29.651  35.140  1.00  0.00     0.037 A 
BRANCH  49  63
ATOM     63  C   UNL A   1      40.442  27.900  29.655  1.00  0.00     0.058 A 
ATOM     64  C   UNL A   1      39.561  26.813  29.527  1.00  0.00     0.135 A 
ATOM     65  C   UNL A   1      41.403  28.086  28.649  1.00  0.00     0.135 A 
ATOM     66  F   UNL A   1      38.636  26.578  30.472  1.00  0.00    -0.206 F 
ATOM     67  C   UNL A   1      39.656  25.920  28.465  1.00  0.00     0.059 A 
ATOM     68  C   UNL A   1      41.499  27.220  27.563  1.00  0.00     0.059 A 
ATOM     69  F   UNL A   1      42.271  29.108  28.723  1.00  0.00    -0.206 F 
ATOM     70  C   UNL A   1      40.634  26.128  27.491  1.00  0.00     0.060 A 
BRANCH  70  71
ATOM     71  S   UNL A   1      40.760  24.946  26.134  1.00  0.00     0.124 S 
ATOM     72  O   UNL A   1      39.405  24.405  26.094  1.00  0.00    -0.237 OA
ATOM     73  O   UNL A   1      41.136  25.797  25.010  1.00  0.00    -0.237 OA
ATOM     74  O   UNL A   1      41.793  24.018  26.586  1.00  0.00    -0.744 OA
ENDBRANCH  70  71
ENDBRANCH  49  63
BRANCH  50  75
ATOM     75  C   UNL A   1      39.695  34.518  37.114  1.00  0.00     0.058 A 
ATOM     76  C   UNL A   1      40.345  35.753  36.965  1.00  0.00     0.135 A 
ATOM     77  C   UNL A   1      38.953  34.305  38.285  1.00  0.00     0.135 A 
ATOM     78  F   UNL A   1      41.071  35.998  35.864  1.00  0.00    -0.206 F 
ATOM     79  C   UNL A   1      40.260  36.742  37.938  1.00  0.00     0.059 A 
ATOM     80  C   UNL A   1      38.839  35.287  39.265  1.00  0.00     0.059 A 
ATOM     81  F   UNL A   1      38.303  33.145  38.468  1.00  0.00    -0.206 F 
ATOM     82  C   UNL A   1      39.499  36.502  39.083  1.00  0.00     0.060 A 
BRANCH  82  83
ATOM     83  S   UNL A   1      39.340  37.824  40.303  1.00  0.00     0.124 S 
ATOM     84  O   UNL A   1      40.676  38.407  40.282  1.00  0.00    -0.237 OA
ATOM     85  O   UNL A   1      38.277  38.642  39.728  1.00  0.00    -0.237 OA
ATOM     86  O   UNL A   1      38.981  37.111  41.526  1.00  0.00    -0.744 OA
ENDBRANCH  82  83
ENDBRANCH  50  75
BRANCH  62  87
ATOM     87  C   UNL A   1      43.856  29.052  35.910  1.00  0.00     0.058 A 
ATOM     88  C   UNL A   1      43.673  27.938  36.741  1.00  0.00     0.135 A 
ATOM     89  C   UNL A   1      45.159  29.556  35.759  1.00  0.00     0.135 A 
ATOM     90  F   UNL A   1      42.445  27.426  36.924  1.00  0.00    -0.206 F 
ATOM     91  C   UNL A   1      44.741  27.347  37.407  1.00  0.00     0.059 A 
ATOM     92  C   UNL A   1      46.245  28.967  36.399  1.00  0.00     0.059 A 
ATOM     93  F   UNL A   1      45.386  30.616  34.967  1.00  0.00    -0.206 F 
ATOM     94  C   UNL A   1      46.025  27.866  37.225  1.00  0.00     0.060 A 
BRANCH  94  95
ATOM     95  S   UNL A   1      47.409  27.058  38.056  1.00  0.00     0.124 S 
ATOM     96  O   UNL A   1      46.811  26.690  39.334  1.00  0.00    -0.237 OA
ATOM     97  O   UNL A   1      47.709  25.949  37.155  1.00  0.00    -0.237 OA
ATOM     98  O   UNL A   1      48.427  28.102  38.115  1.00  0.00    -0.744 OA
ENDBRANCH  94  95
ENDBRANCH  62  87
ENDBRANCH  36  37
ENDBRANCH  28  31
ENDBRANCH  26  27
ENDBRANCH   1  26
TORSDOF 15
ENDMDL
MODEL 3
REMARK VINA RESULT:     -12.1      4.606     10.386
REMARK SMILES Cc1nn(C)c(=O)c(C(=O)N[C@H]2C=C[C@H](C(=O)NCCCNC(=O)c3ccc(-c4c5nc(c(-c6c(F)cc(S(=O)(=O)[O-])cc6F)c6ccc([nH]6)c(-c6c(F)cc(S(=O)(=O)[O-])cc6F)c6nc(c(-c7c(F)cc(S(=O)(=O)[O-])cc7F)c7ccc4[nH]7)C=C6)C=C5)cc3)C2)c1C
REMARK SMILES IDX 20 1 19 2 18 3 16 4 17 5 15 7 12 8 13 9 91 10 14 11 11 12
REMARK SMILES IDX 9 13 10 14 8 16 1 17 2 18 3 19 92 20 4 21 93 22 5 23 6 24
REMARK SMILES IDX 7 25 21 26 22 27 23 28 24 30 25 31 26 32 90 33 27 34 89 35
REMARK SMILES IDX 28 36 29 37 30 38 83 39 31 40 88 41 82 42 84 43 32 44 87 45
REMARK SMILES IDX 81 46 80 47 33 49 67 50 46 51 66 52 47 53 50 54 65 55 85 56
REMARK SMILES IDX 48 57 49 58 64 60 86 61 51 62 34 63 35 64 44 65 36 66 37 67
REMARK SMILES IDX 43 68 45 69 38 70 39 71 40 72 41 73 42 74 68 75 69 76 78 77
REMARK SMILES IDX 70 78 71 79 77 80 79 81 72 82 73 83 74 84 75 85 76 86 52 87
REMARK SMILES IDX 53 88 62 89 54 90 55 91 61 92 63 93 56 94 57 95 58 96 59 97
REMARK SMILES IDX 60 98
REMARK H PARENT 18 6 11 15 22 29 84 48 50 59
REMARK Flexibility Score: inf
ROOT
ATOM      1  C   UNL A   1      37.966  22.883  26.198  1.00  0.00     0.042 C 
ENDROOT
BRANCH   1   2
ATOM      2  C   UNL A   1      36.753  22.980  25.281  1.00  0.00     0.117 C 
BRANCH   2   3
ATOM      3  N   UNL A   1      36.199  21.672  24.991  1.00  0.00    -0.356 N 
ATOM      4  C   UNL A   1      34.906  21.244  25.041  1.00  0.00     0.227 C 
ATOM      5  O   UNL A   1      34.688  20.050  24.830  1.00  0.00    -0.274 OA
ATOM      6  H   UNL A   1      36.855  20.991  24.717  1.00  0.00     0.163 HD
BRANCH   4   7
ATOM      7  C   UNL A   1      33.794  22.277  25.230  1.00  0.00     0.103 C 
ATOM      8  C   UNL A   1      32.069  22.821  26.903  1.00  0.00     0.106 C 
ATOM      9  C   UNL A   1      31.518  22.015  25.776  1.00  0.00    -0.006 C 
ATOM     10  C   UNL A   1      33.580  22.787  26.665  1.00  0.00     0.047 C 
ATOM     11  C   UNL A   1      32.451  21.712  24.870  1.00  0.00    -0.016 C 
BRANCH   8  12
ATOM     12  N   UNL A   1      31.339  24.079  26.955  1.00  0.00    -0.346 N 
ATOM     13  C   UNL A   1      31.188  25.210  26.219  1.00  0.00     0.257 C 
ATOM     14  O   UNL A   1      30.273  25.975  26.532  1.00  0.00    -0.269 OA
ATOM     15  H   UNL A   1      30.789  24.124  27.771  1.00  0.00     0.164 HD
BRANCH  13  16
ATOM     16  C   UNL A   1      32.055  25.550  25.071  1.00  0.00     0.111 A 
ATOM     17  C   UNL A   1      32.960  24.688  21.582  1.00  0.00     0.069 C 
ATOM     18  C   UNL A   1      32.709  25.584  22.774  1.00  0.00     0.062 A 
ATOM     19  N   UNL A   1      33.458  26.634  22.865  1.00  0.00    -0.175 NA
ATOM     20  C   UNL A   1      31.730  25.178  23.820  1.00  0.00    -0.010 A 
ATOM     21  N   UNL A   1      33.429  27.302  24.057  1.00  0.00    -0.232 N 
ATOM     22  C   UNL A   1      30.449  24.530  23.397  1.00  0.00     0.047 C 
ATOM     23  C   UNL A   1      34.041  28.617  24.070  1.00  0.00     0.178 C 
ATOM     24  C   UNL A   1      33.006  26.698  25.240  1.00  0.00     0.279 A 
ATOM     25  O   UNL A   1      33.305  27.115  26.356  1.00  0.00    -0.267 OA
ENDBRANCH  13  16
ENDBRANCH   8  12
ENDBRANCH   4   7
ENDBRANCH   2   3
ENDBRANCH   1   2
BRANCH   1  26
ATOM     26  C   UNL A   1      38.726  24.195  26.350  1.00  0.00     0.118 C 
BRANCH  26  27
ATOM     27  N   UNL A   1      40.149  24.057  26.078  1.00  0.00    -0.352 N 
ATOM     28  C   UNL A   1      41.190  24.827  26.535  1.00  0.00     0.251 C 
ATOM     29  H   UNL A   1      40.399  23.310  25.486  1.00  0.00     0.163 HD
ATOM     30  O   UNL A   1      42.320  24.662  26.084  1.00  0.00    -0.269 OA
BRANCH  28  31
ATOM     31  C   UNL A   1      40.929  25.872  27.546  1.00  0.00     0.039 A 
ATOM     32  C   UNL A   1      39.908  25.672  28.477  1.00  0.00     0.014 A 
ATOM     33  C   UNL A   1      41.713  27.029  27.591  1.00  0.00     0.014 A 
ATOM     34  C   UNL A   1      39.715  26.606  29.495  1.00  0.00     0.010 A 
ATOM     35  C   UNL A   1      41.568  27.919  28.649  1.00  0.00     0.010 A 
ATOM     36  C   UNL A   1      40.565  27.718  29.608  1.00  0.00    -0.014 A 
BRANCH  36  37
ATOM     37  C   UNL A   1      40.402  28.703  30.706  1.00  0.00     0.031 A 
ATOM     38  C   UNL A   1      41.290  28.622  31.916  1.00  0.00     0.074 A 
ATOM     39  C   UNL A   1      39.435  29.637  30.632  1.00  0.00     0.049 A 
ATOM     40  N   UNL A   1      41.266  29.341  33.009  1.00  0.00    -0.248 NA
ATOM     41  C   UNL A   1      42.329  27.578  31.906  1.00  0.00     0.031 C 
ATOM     42  C   UNL A   1      38.497  29.799  29.519  1.00  0.00     0.029 A 
ATOM     43  N   UNL A   1      39.084  30.631  31.509  1.00  0.00    -0.354 N 
ATOM     44  C   UNL A   1      42.279  28.837  33.813  1.00  0.00     0.074 A 
ATOM     45  C   UNL A   1      42.855  27.709  33.114  1.00  0.00     0.031 C 
ATOM     46  C   UNL A   1      37.707  30.858  29.761  1.00  0.00     0.029 A 
ATOM     47  C   UNL A   1      38.056  31.426  31.060  1.00  0.00     0.049 A 
ATOM     48  H   UNL A   1      39.526  30.763  32.380  1.00  0.00     0.167 HD
ATOM     49  C   UNL A   1      42.714  29.291  35.012  1.00  0.00     0.037 A 
ATOM     50  C   UNL A   1      37.469  32.496  31.629  1.00  0.00     0.037 A 
ATOM     51  C   UNL A   1      42.152  30.424  35.696  1.00  0.00     0.049 A 
ATOM     52  C   UNL A   1      37.945  32.964  32.976  1.00  0.00     0.074 A 
ATOM     53  C   UNL A   1      42.525  30.973  36.909  1.00  0.00     0.029 A 
ATOM     54  N   UNL A   1      41.097  31.189  35.218  1.00  0.00    -0.354 N 
ATOM     55  N   UNL A   1      38.910  32.479  33.722  1.00  0.00    -0.248 NA
ATOM     56  C   UNL A   1      37.251  34.119  33.562  1.00  0.00     0.031 C 
ATOM     57  C   UNL A   1      41.680  32.055  37.177  1.00  0.00     0.029 A 
ATOM     58  C   UNL A   1      40.802  32.202  36.114  1.00  0.00     0.049 A 
ATOM     59  H   UNL A   1      40.627  31.035  34.366  1.00  0.00     0.167 HD
ATOM     60  C   UNL A   1      38.952  33.281  34.857  1.00  0.00     0.074 A 
ATOM     61  C   UNL A   1      37.922  34.288  34.695  1.00  0.00     0.031 C 
ATOM     62  C   UNL A   1      39.770  33.193  35.933  1.00  0.00     0.037 A 
BRANCH  49  63
ATOM     63  C   UNL A   1      43.868  28.562  35.641  1.00  0.00     0.058 A 
ATOM     64  C   UNL A   1      45.198  28.908  35.342  1.00  0.00     0.135 A 
ATOM     65  C   UNL A   1      43.652  27.507  36.540  1.00  0.00     0.135 A 
ATOM     66  F   UNL A   1      45.459  29.897  34.472  1.00  0.00    -0.206 F 
ATOM     67  C   UNL A   1      46.270  28.206  35.882  1.00  0.00     0.059 A 
ATOM     68  C   UNL A   1      44.711  26.808  37.113  1.00  0.00     0.059 A 
ATOM     69  F   UNL A   1      42.402  27.135  36.858  1.00  0.00    -0.206 F 
ATOM     70  C   UNL A   1      46.016  27.152  36.761  1.00  0.00     0.060 A 
BRANCH  70  71
ATOM     71  S   UNL A   1      47.419  26.237  37.432  1.00  0.00     0.124 S 
ATOM     72  O   UNL A   1      46.758  25.058  37.985  1.00  0.00    -0.237 OA
ATOM     73  O   UNL A   1      48.238  26.005  36.246  1.00  0.00    -0.237 OA
ATOM     74  O   UNL A   1      47.987  27.156  38.413  1.00  0.00    -0.744 OA
ENDBRANCH  70  71
ENDBRANCH  49  63
BRANCH  50  75
ATOM     75  C   UNL A   1      36.403  33.228  30.897  1.00  0.00     0.058 A 
ATOM     76  C   UNL A   1      35.062  33.105  31.288  1.00  0.00     0.135 A 
ATOM     77  C   UNL A   1      36.699  34.092  29.832  1.00  0.00     0.135 A 
ATOM     78  F   UNL A   1      34.731  32.285  32.297  1.00  0.00    -0.206 F 
ATOM     79  C   UNL A   1      34.050  33.813  30.650  1.00  0.00     0.059 A 
ATOM     80  C   UNL A   1      35.705  34.825  29.191  1.00  0.00     0.059 A 
ATOM     81  F   UNL A   1      37.969  34.254  29.430  1.00  0.00    -0.206 F 
ATOM     82  C   UNL A   1      34.382  34.676  29.606  1.00  0.00     0.060 A 
BRANCH  82  83
ATOM     83  S   UNL A   1      33.065  35.644  28.837  1.00  0.00     0.124 S 
ATOM     84  O   UNL A   1      32.363  36.165  30.004  1.00  0.00    -0.237 OA
ATOM     85  O   UNL A   1      33.821  36.621  28.058  1.00  0.00    -0.237 OA
ATOM     86  O   UNL A   1      32.336  34.654  28.051  1.00  0.00    -0.744 OA
ENDBRANCH  82  83
ENDBRANCH  50  75
BRANCH  62  87
ATOM     87  C   UNL A   1      39.597  34.217  37.018  1.00  0.00     0.058 A 
ATOM     88  C   UNL A   1      38.839  33.945  38.166  1.00  0.00     0.135 A 
ATOM     89  C   UNL A   1      40.254  35.456  36.940  1.00  0.00     0.135 A 
ATOM     90  F   UNL A   1      38.185  32.778  38.283  1.00  0.00    -0.206 F 
ATOM     91  C   UNL A   1      38.728  34.871  39.197  1.00  0.00     0.059 A 
ATOM     92  C   UNL A   1      40.174  36.388  37.969  1.00  0.00     0.059 A 
ATOM     93  F   UNL A   1      40.999  35.759  35.865  1.00  0.00    -0.206 F 
ATOM     94  C   UNL A   1      39.404  36.089  39.092  1.00  0.00     0.060 A 
BRANCH  94  95
ATOM     95  S   UNL A   1      39.292  37.261  40.460  1.00  0.00     0.124 S 
ATOM     96  O   UNL A   1      40.649  37.792  40.504  1.00  0.00    -0.237 OA
ATOM     97  O   UNL A   1      38.264  38.187  39.994  1.00  0.00    -0.237 OA
ATOM     98  O   UNL A   1      38.906  36.425  41.593  1.00  0.00    -0.744 OA
ENDBRANCH  94  95
ENDBRANCH  62  87
ENDBRANCH  36  37
ENDBRANCH  28  31
ENDBRANCH  26  27
ENDBRANCH   1  26
TORSDOF 15
ENDMDL
