MODEL 1
REMARK VINA RESULT:     -11.2      0.000      0.000
REMARK SMILES C[C@H](C(=O)NCCCNC(=O)c1ccc(-c2c3nc(c(-c4c(F)cc(S(=O)(=O)[O-])cc4F)c4ccc([nH]4)c(-c4c(F)cc(S(=O)(=O)[O-])cc4F)c4nc(c(-c5c(F)cc(S(=O)(=O)[O-])cc5F)c5ccc2[nH]5)C=C4)C=C3)cc1)c1ccc2c3cc(Cl)ccc3n(C(=O)c3cocn3)c2c1
REMARK SMILES IDX 7 1 6 2 5 3 3 4 4 5 2 7 1 8 78 9 79 10 98 11 80 12 97 13
REMARK SMILES IDX 81 14 89 15 82 16 88 17 83 18 87 19 84 20 86 21 85 22 90 23
REMARK SMILES IDX 91 24 92 25 93 26 96 27 94 28 95 29 8 30 9 31 10 32 11 34
REMARK SMILES IDX 12 35 13 36 77 37 14 38 76 39 15 40 16 41 17 42 70 43 18 44
REMARK SMILES IDX 75 45 69 46 71 47 19 48 74 49 68 50 67 51 20 53 54 54 33 55
REMARK SMILES IDX 53 56 34 57 37 58 52 59 72 60 35 61 36 62 51 64 73 65 38 66
REMARK SMILES IDX 21 67 22 68 31 69 23 70 24 71 30 72 32 73 25 74 26 75 27 76
REMARK SMILES IDX 28 77 29 78 55 79 56 80 65 81 57 82 58 83 64 84 66 85 59 86
REMARK SMILES IDX 60 87 61 88 62 89 63 90 39 91 40 92 49 93 41 94 42 95 48 96
REMARK SMILES IDX 50 97 43 98 44 99 45 100 46 101 47 102
REMARK H PARENT 5 6 9 33 71 52 37 63
REMARK Flexibility Score: inf
ROOT
ATOM      1  C   UNL A   1      33.825  34.230  28.210  1.00  0.00     0.042 C 
ENDROOT
BRANCH   1   2
ATOM      2  C   UNL A   1      33.981  35.328  29.260  1.00  0.00     0.117 C 
BRANCH   2   3
ATOM      3  N   UNL A   1      32.938  35.275  30.272  1.00  0.00    -0.356 N 
ATOM      4  C   UNL A   1      32.990  35.435  31.627  1.00  0.00     0.227 C 
ATOM      5  O   UNL A   1      31.929  35.315  32.247  1.00  0.00    -0.274 OA
ATOM      6  H   UNL A   1      32.037  35.094  29.918  1.00  0.00     0.163 HD
BRANCH   4   7
ATOM      7  C   UNL A   1      34.316  35.746  32.340  1.00  0.00     0.105 C 
ATOM      8  C   UNL A   1      34.021  36.536  33.622  1.00  0.00     0.023 C 
BRANCH   7   9
ATOM      9  C   UNL A   1      35.110  34.467  32.578  1.00  0.00    -0.034 A 
ATOM     10  C   UNL A   1      34.632  33.197  32.254  1.00  0.00     0.005 A 
ATOM     11  C   UNL A   1      36.413  34.582  33.086  1.00  0.00     0.032 A 
ATOM     12  C   UNL A   1      35.453  32.065  32.357  1.00  0.00     0.011 A 
ATOM     13  C   UNL A   1      37.246  33.449  33.174  1.00  0.00     0.058 A 
ATOM     14  C   UNL A   1      36.793  32.199  32.777  1.00  0.00     0.008 A 
ATOM     15  N   UNL A   1      38.587  33.335  33.571  1.00  0.00    -0.274 N 
ATOM     16  C   UNL A   1      37.878  31.292  32.916  1.00  0.00     0.009 A 
ATOM     17  C   UNL A   1      38.966  31.992  33.457  1.00  0.00     0.057 A 
ATOM     18  C   UNL A   1      37.998  29.911  32.649  1.00  0.00     0.031 A 
ATOM     19  C   UNL A   1      40.134  31.304  33.844  1.00  0.00     0.029 A 
ATOM     20  C   UNL A   1      39.171  29.244  32.992  1.00  0.00     0.041 A 
ATOM     21  C   UNL A   1      40.217  29.925  33.599  1.00  0.00     0.023 A 
ATOM     22  Cl  UNL A   1      39.296  27.554  32.694  1.00  0.00    -0.084 Cl
BRANCH  15  23
ATOM     23  C   UNL A   1      39.346  34.446  34.028  1.00  0.00     0.284 C 
ATOM     24  O   UNL A   1      40.070  34.965  33.183  1.00  0.00    -0.266 OA
BRANCH  23  25
ATOM     25  C   UNL A   1      39.400  34.932  35.404  1.00  0.00     0.167 A 
ATOM     26  C   UNL A   1      39.216  34.275  36.599  1.00  0.00     0.231 A 
ATOM     27  N   UNL A   1      39.817  36.231  35.678  1.00  0.00    -0.211 NA
ATOM     28  O   UNL A   1      39.471  35.149  37.613  1.00  0.00    -0.451 OA
ATOM     29  C   UNL A   1      39.824  36.300  36.985  1.00  0.00     0.308 A 
ENDBRANCH  23  25
ENDBRANCH  15  23
ENDBRANCH   7   9
ENDBRANCH   4   7
ENDBRANCH   2   3
ENDBRANCH   1   2
BRANCH   1  30
ATOM     30  C   UNL A   1      34.560  32.935  28.542  1.00  0.00     0.118 C 
BRANCH  30  31
ATOM     31  N   UNL A   1      33.841  31.751  28.098  1.00  0.00    -0.352 N 
ATOM     32  C   UNL A   1      34.292  30.483  27.821  1.00  0.00     0.251 C 
ATOM     33  H   UNL A   1      32.871  31.878  27.976  1.00  0.00     0.163 HD
ATOM     34  O   UNL A   1      33.533  29.689  27.267  1.00  0.00    -0.269 OA
BRANCH  32  35
ATOM     35  C   UNL A   1      35.672  30.064  28.163  1.00  0.00     0.039 A 
ATOM     36  C   UNL A   1      36.652  30.102  27.166  1.00  0.00     0.014 A 
ATOM     37  C   UNL A   1      36.003  29.589  29.434  1.00  0.00     0.014 A 
ATOM     38  C   UNL A   1      37.967  29.722  27.459  1.00  0.00     0.010 A 
ATOM     39  C   UNL A   1      37.329  29.296  29.749  1.00  0.00     0.010 A 
ATOM     40  C   UNL A   1      38.328  29.352  28.764  1.00  0.00    -0.014 A 
BRANCH  40  41
ATOM     41  C   UNL A   1      39.737  29.026  29.124  1.00  0.00     0.031 A 
ATOM     42  C   UNL A   1      40.643  30.087  29.689  1.00  0.00     0.074 A 
ATOM     43  C   UNL A   1      40.230  27.797  28.871  1.00  0.00     0.049 A 
ATOM     44  N   UNL A   1      41.920  30.017  29.966  1.00  0.00    -0.248 NA
ATOM     45  C   UNL A   1      40.040  31.400  29.961  1.00  0.00     0.031 C 
ATOM     46  C   UNL A   1      39.466  26.688  28.304  1.00  0.00     0.029 A 
ATOM     47  N   UNL A   1      41.494  27.279  29.024  1.00  0.00    -0.354 N 
ATOM     48  C   UNL A   1      42.272  31.274  30.445  1.00  0.00     0.074 A 
ATOM     49  C   UNL A   1      41.092  32.105  30.354  1.00  0.00     0.031 C 
ATOM     50  C   UNL A   1      40.272  25.629  28.141  1.00  0.00     0.029 A 
ATOM     51  C   UNL A   1      41.621  25.992  28.554  1.00  0.00     0.049 A 
ATOM     52  H   UNL A   1      42.236  27.780  29.431  1.00  0.00     0.167 HD
ATOM     53  C   UNL A   1      43.463  31.686  30.944  1.00  0.00     0.037 A 
ATOM     54  C   UNL A   1      42.702  25.194  28.443  1.00  0.00     0.037 A 
ATOM     55  C   UNL A   1      44.631  30.849  31.041  1.00  0.00     0.049 A 
ATOM     56  C   UNL A   1      44.026  25.686  28.954  1.00  0.00     0.074 A 
ATOM     57  C   UNL A   1      45.864  31.155  31.589  1.00  0.00     0.029 A 
ATOM     58  N   UNL A   1      44.717  29.547  30.569  1.00  0.00    -0.354 N 
ATOM     59  N   UNL A   1      44.321  26.852  29.476  1.00  0.00    -0.248 NA
ATOM     60  C   UNL A   1      45.157  24.752  28.886  1.00  0.00     0.031 C 
ATOM     61  C   UNL A   1      46.713  30.061  31.396  1.00  0.00     0.029 A 
ATOM     62  C   UNL A   1      45.991  29.047  30.784  1.00  0.00     0.049 A 
ATOM     63  H   UNL A   1      43.981  29.051  30.144  1.00  0.00     0.167 HD
ATOM     64  C   UNL A   1      45.661  26.780  29.835  1.00  0.00     0.074 A 
ATOM     65  C   UNL A   1      46.118  25.453  29.473  1.00  0.00     0.031 C 
ATOM     66  C   UNL A   1      46.438  27.723  30.423  1.00  0.00     0.037 A 
BRANCH  53  67
ATOM     67  C   UNL A   1      43.557  33.109  31.427  1.00  0.00     0.058 A 
ATOM     68  C   UNL A   1      43.848  34.169  30.550  1.00  0.00     0.135 A 
ATOM     69  C   UNL A   1      43.334  33.423  32.777  1.00  0.00     0.135 A 
ATOM     70  F   UNL A   1      44.083  33.927  29.250  1.00  0.00    -0.206 F 
ATOM     71  C   UNL A   1      43.953  35.480  31.002  1.00  0.00     0.059 A 
ATOM     72  C   UNL A   1      43.401  34.732  33.245  1.00  0.00     0.059 A 
ATOM     73  F   UNL A   1      43.050  32.451  33.659  1.00  0.00    -0.206 F 
ATOM     74  C   UNL A   1      43.730  35.751  32.352  1.00  0.00     0.060 A 
BRANCH  74  75
ATOM     75  S   UNL A   1      43.882  37.457  32.922  1.00  0.00     0.124 S 
ATOM     76  O   UNL A   1      43.674  38.198  31.682  1.00  0.00    -0.237 OA
ATOM     77  O   UNL A   1      42.807  37.553  33.905  1.00  0.00    -0.237 OA
ATOM     78  O   UNL A   1      45.234  37.515  33.467  1.00  0.00    -0.744 OA
ENDBRANCH  74  75
ENDBRANCH  53  67
BRANCH  54  79
ATOM     79  C   UNL A   1      42.565  23.844  27.830  1.00  0.00     0.058 A 
ATOM     80  C   UNL A   1      42.568  23.676  26.439  1.00  0.00     0.135 A 
ATOM     81  C   UNL A   1      42.456  22.693  28.628  1.00  0.00     0.135 A 
ATOM     82  F   UNL A   1      42.666  24.744  25.633  1.00  0.00    -0.206 F 
ATOM     83  C   UNL A   1      42.451  22.416  25.856  1.00  0.00     0.059 A 
ATOM     84  C   UNL A   1      42.366  21.422  28.070  1.00  0.00     0.059 A 
ATOM     85  F   UNL A   1      42.470  22.796  29.967  1.00  0.00    -0.206 F 
ATOM     86  C   UNL A   1      42.356  21.295  26.682  1.00  0.00     0.060 A 
BRANCH  86  87
ATOM     87  S   UNL A   1      42.259  19.662  25.917  1.00  0.00     0.124 S 
ATOM     88  O   UNL A   1      40.873  19.628  25.469  1.00  0.00    -0.237 OA
ATOM     89  O   UNL A   1      43.269  19.760  24.869  1.00  0.00    -0.237 OA
ATOM     90  O   UNL A   1      42.591  18.759  27.015  1.00  0.00    -0.744 OA
ENDBRANCH  86  87
ENDBRANCH  54  79
BRANCH  66  91
ATOM     91  C   UNL A   1      47.856  27.349  30.752  1.00  0.00     0.058 A 
ATOM     92  C   UNL A   1      48.919  27.633  29.882  1.00  0.00     0.135 A 
ATOM     93  C   UNL A   1      48.160  26.748  31.985  1.00  0.00     0.135 A 
ATOM     94  F   UNL A   1      48.684  28.195  28.687  1.00  0.00    -0.206 F 
ATOM     95  C   UNL A   1      50.234  27.318  30.214  1.00  0.00     0.059 A 
ATOM     96  C   UNL A   1      49.470  26.453  32.352  1.00  0.00     0.059 A 
ATOM     97  F   UNL A   1      47.181  26.460  32.857  1.00  0.00    -0.206 F 
ATOM     98  C   UNL A   1      50.499  26.734  31.455  1.00  0.00     0.060 A 
BRANCH  98  99
ATOM     99  S   UNL A   1      52.213  26.374  31.892  1.00  0.00     0.124 S 
ATOM    100  O   UNL A   1      52.864  26.419  30.587  1.00  0.00    -0.237 OA
ATOM    101  O   UNL A   1      52.537  27.470  32.800  1.00  0.00    -0.237 OA
ATOM    102  O   UNL A   1      52.137  25.055  32.512  1.00  0.00    -0.744 OA
ENDBRANCH  98  99
ENDBRANCH  66  91
ENDBRANCH  40  41
ENDBRANCH  32  35
ENDBRANCH  30  31
ENDBRANCH   1  30
TORSDOF 16
ENDMDL
MODEL 2
REMARK VINA RESULT:     -10.8      4.126      7.722
REMARK SMILES C[C@H](C(=O)NCCCNC(=O)c1ccc(-c2c3nc(c(-c4c(F)cc(S(=O)(=O)[O-])cc4F)c4ccc([nH]4)c(-c4c(F)cc(S(=O)(=O)[O-])cc4F)c4nc(c(-c5c(F)cc(S(=O)(=O)[O-])cc5F)c5ccc2[nH]5)C=C4)C=C3)cc1)c1ccc2c3cc(Cl)ccc3n(C(=O)c3cocn3)c2c1
REMARK SMILES IDX 7 1 6 2 5 3 3 4 4 5 2 7 1 8 78 9 79 10 98 11 80 12 97 13
REMARK SMILES IDX 81 14 89 15 82 16 88 17 83 18 87 19 84 20 86 21 85 22 90 23
REMARK SMILES IDX 91 24 92 25 93 26 96 27 94 28 95 29 8 30 9 31 10 32 11 34
REMARK SMILES IDX 12 35 13 36 77 37 14 38 76 39 15 40 16 41 17 42 70 43 18 44
REMARK SMILES IDX 75 45 69 46 71 47 19 48 74 49 68 50 67 51 20 53 54 54 33 55
REMARK SMILES IDX 53 56 34 57 37 58 52 59 72 60 35 61 36 62 51 64 73 65 38 66
REMARK SMILES IDX 21 67 22 68 31 69 23 70 24 71 30 72 32 73 25 74 26 75 27 76
REMARK SMILES IDX 28 77 29 78 55 79 56 80 65 81 57 82 58 83 64 84 66 85 59 86
REMARK SMILES IDX 60 87 61 88 62 89 63 90 39 91 40 92 49 93 41 94 42 95 48 96
REMARK SMILES IDX 50 97 43 98 44 99 45 100 46 101 47 102
REMARK H PARENT 5 6 9 33 71 52 37 63
REMARK Flexibility Score: inf
ROOT
ATOM      1  C   UNL A   1      34.040  27.960  25.798  1.00  0.00     0.042 C 
ENDROOT
BRANCH   1   2
ATOM      2  C   UNL A   1      33.056  28.499  24.762  1.00  0.00     0.117 C 
BRANCH   2   3
ATOM      3  N   UNL A   1      32.706  27.501  23.764  1.00  0.00    -0.356 N 
ATOM      4  C   UNL A   1      32.102  26.281  23.883  1.00  0.00     0.227 C 
ATOM      5  O   UNL A   1      31.946  25.629  22.846  1.00  0.00    -0.274 OA
ATOM      6  H   UNL A   1      32.945  27.747  22.841  1.00  0.00     0.163 HD
BRANCH   4   7
ATOM      7  C   UNL A   1      31.644  25.751  25.251  1.00  0.00     0.105 C 
ATOM      8  C   UNL A   1      30.170  26.121  25.463  1.00  0.00     0.023 C 
BRANCH   7   9
ATOM      9  C   UNL A   1      31.924  24.257  25.369  1.00  0.00    -0.034 A 
ATOM     10  C   UNL A   1      30.949  23.320  25.715  1.00  0.00     0.005 A 
ATOM     11  C   UNL A   1      33.210  23.797  25.049  1.00  0.00     0.032 A 
ATOM     12  C   UNL A   1      31.218  21.945  25.672  1.00  0.00     0.011 A 
ATOM     13  C   UNL A   1      33.477  22.416  24.987  1.00  0.00     0.058 A 
ATOM     14  C   UNL A   1      32.484  21.485  25.255  1.00  0.00     0.008 A 
ATOM     15  N   UNL A   1      34.646  21.731  24.619  1.00  0.00    -0.274 N 
ATOM     16  C   UNL A   1      33.041  20.196  25.037  1.00  0.00     0.009 A 
ATOM     17  C   UNL A   1      34.392  20.356  24.696  1.00  0.00     0.057 A 
ATOM     18  C   UNL A   1      32.495  18.898  25.140  1.00  0.00     0.031 A 
ATOM     19  C   UNL A   1      35.234  19.232  24.572  1.00  0.00     0.029 A 
ATOM     20  C   UNL A   1      33.322  17.790  24.972  1.00  0.00     0.041 A 
ATOM     21  C   UNL A   1      34.675  17.953  24.711  1.00  0.00     0.023 A 
ATOM     22  Cl  UNL A   1      32.655  16.212  25.133  1.00  0.00    -0.084 Cl
BRANCH  15  23
ATOM     23  C   UNL A   1      35.849  22.403  24.274  1.00  0.00     0.284 C 
ATOM     24  O   UNL A   1      35.923  22.770  23.104  1.00  0.00    -0.266 OA
BRANCH  23  25
ATOM     25  C   UNL A   1      37.000  22.593  25.151  1.00  0.00     0.167 A 
ATOM     26  C   UNL A   1      38.084  21.782  25.404  1.00  0.00     0.231 A 
ATOM     27  N   UNL A   1      37.204  23.809  25.797  1.00  0.00    -0.211 NA
ATOM     28  O   UNL A   1      38.939  22.453  26.226  1.00  0.00    -0.451 OA
ATOM     29  C   UNL A   1      38.346  23.658  26.419  1.00  0.00     0.308 A 
ENDBRANCH  23  25
ENDBRANCH  15  23
ENDBRANCH   7   9
ENDBRANCH   4   7
ENDBRANCH   2   3
ENDBRANCH   1   2
BRANCH   1  30
ATOM     30  C   UNL A   1      33.653  28.252  27.244  1.00  0.00     0.118 C 
BRANCH  30  31
ATOM     31  N   UNL A   1      33.570  29.677  27.526  1.00  0.00    -0.352 N 
ATOM     32  C   UNL A   1      34.473  30.524  28.122  1.00  0.00     0.251 C 
ATOM     33  H   UNL A   1      32.728  30.105  27.244  1.00  0.00     0.163 HD
ATOM     34  O   UNL A   1      34.108  31.655  28.437  1.00  0.00    -0.269 OA
BRANCH  32  35
ATOM     35  C   UNL A   1      35.863  30.094  28.403  1.00  0.00     0.039 A 
ATOM     36  C   UNL A   1      36.794  30.104  27.359  1.00  0.00     0.014 A 
ATOM     37  C   UNL A   1      36.250  29.635  29.665  1.00  0.00     0.014 A 
ATOM     38  C   UNL A   1      38.117  29.713  27.595  1.00  0.00     0.010 A 
ATOM     39  C   UNL A   1      37.587  29.332  29.920  1.00  0.00     0.010 A 
ATOM     40  C   UNL A   1      38.538  29.360  28.887  1.00  0.00    -0.014 A 
BRANCH  40  41
ATOM     41  C   UNL A   1      39.958  29.023  29.183  1.00  0.00     0.031 A 
ATOM     42  C   UNL A   1      40.899  30.078  29.701  1.00  0.00     0.074 A 
ATOM     43  C   UNL A   1      40.429  27.789  28.913  1.00  0.00     0.049 A 
ATOM     44  N   UNL A   1      42.186  29.998  29.920  1.00  0.00    -0.248 NA
ATOM     45  C   UNL A   1      40.321  31.398  29.994  1.00  0.00     0.031 C 
ATOM     46  C   UNL A   1      39.630  26.684  28.388  1.00  0.00     0.029 A 
ATOM     47  N   UNL A   1      41.693  27.260  29.011  1.00  0.00    -0.354 N 
ATOM     48  C   UNL A   1      42.571  31.254  30.376  1.00  0.00     0.074 A 
ATOM     49  C   UNL A   1      41.396  32.095  30.336  1.00  0.00     0.031 C 
ATOM     50  C   UNL A   1      40.418  25.617  28.192  1.00  0.00     0.029 A 
ATOM     51  C   UNL A   1      41.788  25.970  28.542  1.00  0.00     0.049 A 
ATOM     52  H   UNL A   1      42.458  27.757  29.381  1.00  0.00     0.167 HD
ATOM     53  C   UNL A   1      43.787  31.658  30.818  1.00  0.00     0.037 A 
ATOM     54  C   UNL A   1      42.855  25.162  28.385  1.00  0.00     0.037 A 
ATOM     55  C   UNL A   1      44.951  30.810  30.866  1.00  0.00     0.049 A 
ATOM     56  C   UNL A   1      44.205  25.645  28.832  1.00  0.00     0.074 A 
ATOM     57  C   UNL A   1      46.210  31.108  31.355  1.00  0.00     0.029 A 
ATOM     58  N   UNL A   1      45.004  29.505  30.396  1.00  0.00    -0.354 N 
ATOM     59  N   UNL A   1      44.534  26.810  29.335  1.00  0.00    -0.248 NA
ATOM     60  C   UNL A   1      45.324  24.700  28.717  1.00  0.00     0.031 C 
ATOM     61  C   UNL A   1      47.040  30.005  31.128  1.00  0.00     0.029 A 
ATOM     62  C   UNL A   1      46.282  28.996  30.555  1.00  0.00     0.049 A 
ATOM     63  H   UNL A   1      44.244  29.014  30.008  1.00  0.00     0.167 HD
ATOM     64  C   UNL A   1      45.889  26.727  29.633  1.00  0.00     0.074 A 
ATOM     65  C   UNL A   1      46.317  25.394  29.256  1.00  0.00     0.031 C 
ATOM     66  C   UNL A   1      46.700  27.666  30.180  1.00  0.00     0.037 A 
BRANCH  53  67
ATOM     67  C   UNL A   1      43.916  33.082  31.289  1.00  0.00     0.058 A 
ATOM     68  C   UNL A   1      43.661  33.445  32.623  1.00  0.00     0.135 A 
ATOM     69  C   UNL A   1      44.320  34.094  30.404  1.00  0.00     0.135 A 
ATOM     70  F   UNL A   1      43.260  32.522  33.511  1.00  0.00    -0.206 F 
ATOM     71  C   UNL A   1      43.763  34.765  33.050  1.00  0.00     0.059 A 
ATOM     72  C   UNL A   1      44.461  35.415  30.817  1.00  0.00     0.059 A 
ATOM     73  F   UNL A   1      44.579  33.804  29.118  1.00  0.00    -0.206 F 
ATOM     74  C   UNL A   1      44.161  35.743  32.139  1.00  0.00     0.060 A 
BRANCH  74  75
ATOM     75  S   UNL A   1      44.278  37.452  32.709  1.00  0.00     0.124 S 
ATOM     76  O   UNL A   1      43.940  38.187  31.493  1.00  0.00    -0.237 OA
ATOM     77  O   UNL A   1      43.280  37.494  33.773  1.00  0.00    -0.237 OA
ATOM     78  O   UNL A   1      45.664  37.571  33.148  1.00  0.00    -0.744 OA
ENDBRANCH  74  75
ENDBRANCH  53  67
BRANCH  54  79
ATOM     79  C   UNL A   1      42.679  23.811  27.786  1.00  0.00     0.058 A 
ATOM     80  C   UNL A   1      42.702  23.625  26.397  1.00  0.00     0.135 A 
ATOM     81  C   UNL A   1      42.510  22.675  28.594  1.00  0.00     0.135 A 
ATOM     82  F   UNL A   1      42.857  24.678  25.581  1.00  0.00    -0.206 F 
ATOM     83  C   UNL A   1      42.549  22.363  25.827  1.00  0.00     0.059 A 
ATOM     84  C   UNL A   1      42.382  21.401  28.050  1.00  0.00     0.059 A 
ATOM     85  F   UNL A   1      42.502  22.794  29.932  1.00  0.00    -0.206 F 
ATOM     86  C   UNL A   1      42.394  21.257  26.664  1.00  0.00     0.060 A 
BRANCH  86  87
ATOM     87  S   UNL A   1      42.250  19.620  25.916  1.00  0.00     0.124 S 
ATOM     88  O   UNL A   1      43.219  19.705  24.831  1.00  0.00    -0.237 OA
ATOM     89  O   UNL A   1      42.608  18.747  27.028  1.00  0.00    -0.237 OA
ATOM     90  O   UNL A   1      40.849  19.561  25.509  1.00  0.00    -0.744 OA
ENDBRANCH  86  87
ENDBRANCH  54  79
BRANCH  66  91
ATOM     91  C   UNL A   1      48.128  27.280  30.445  1.00  0.00     0.058 A 
ATOM     92  C   UNL A   1      49.154  27.557  29.529  1.00  0.00     0.135 A 
ATOM     93  C   UNL A   1      48.483  26.676  31.663  1.00  0.00     0.135 A 
ATOM     94  F   UNL A   1      48.870  28.122  28.345  1.00  0.00    -0.206 F 
ATOM     95  C   UNL A   1      50.480  27.232  29.802  1.00  0.00     0.059 A 
ATOM     96  C   UNL A   1      49.805  26.371  31.971  1.00  0.00     0.059 A 
ATOM     97  F   UNL A   1      47.541  26.395  32.578  1.00  0.00    -0.206 F 
ATOM     98  C   UNL A   1      50.795  26.644  31.029  1.00  0.00     0.060 A 
BRANCH  98  99
ATOM     99  S   UNL A   1      52.524  26.271  31.390  1.00  0.00     0.124 S 
ATOM    100  O   UNL A   1      52.909  27.422  32.201  1.00  0.00    -0.237 OA
ATOM    101  O   UNL A   1      52.425  25.000  32.100  1.00  0.00    -0.237 OA
ATOM    102  O   UNL A   1      53.141  26.199  30.069  1.00  0.00    -0.744 OA
ENDBRANCH  98  99
ENDBRANCH  66  91
ENDBRANCH  40  41
ENDBRANCH  32  35
ENDBRANCH  30  31
ENDBRANCH   1  30
TORSDOF 16
ENDMDL
MODEL 3
REMARK VINA RESULT:     -10.5      4.528      8.163
REMARK SMILES C[C@H](C(=O)NCCCNC(=O)c1ccc(-c2c3nc(c(-c4c(F)cc(S(=O)(=O)[O-])cc4F)c4ccc([nH]4)c(-c4c(F)cc(S(=O)(=O)[O-])cc4F)c4nc(c(-c5c(F)cc(S(=O)(=O)[O-])cc5F)c5ccc2[nH]5)C=C4)C=C3)cc1)c1ccc2c3cc(Cl)ccc3n(C(=O)c3cocn3)c2c1
REMARK SMILES IDX 7 1 6 2 5 3 3 4 4 5 2 7 1 8 78 9 79 10 98 11 80 12 97 13
REMARK SMILES IDX 81 14 89 15 82 16 88 17 83 18 87 19 84 20 86 21 85 22 90 23
REMARK SMILES IDX 91 24 92 25 93 26 96 27 94 28 95 29 8 30 9 31 10 32 11 34
REMARK SMILES IDX 12 35 13 36 77 37 14 38 76 39 15 40 16 41 17 42 70 43 18 44
REMARK SMILES IDX 75 45 69 46 71 47 19 48 74 49 68 50 67 51 20 53 54 54 33 55
REMARK SMILES IDX 53 56 34 57 37 58 52 59 72 60 35 61 36 62 51 64 73 65 38 66
REMARK SMILES IDX 21 67 22 68 31 69 23 70 24 71 30 72 32 73 25 74 26 75 27 76
REMARK SMILES IDX 28 77 29 78 55 79 56 80 65 81 57 82 58 83 64 84 66 85 59 86
REMARK SMILES IDX 60 87 61 88 62 89 63 90 39 91 40 92 49 93 41 94 42 95 48 96
REMARK SMILES IDX 50 97 43 98 44 99 45 100 46 101 47 102
REMARK H PARENT 5 6 9 33 71 52 37 63
REMARK Flexibility Score: inf
ROOT
ATOM      1  C   UNL A   1      33.773  28.415  24.405  1.00  0.00     0.042 C 
ENDROOT
BRANCH   1   2
ATOM      2  C   UNL A   1      32.290  28.523  24.054  1.00  0.00     0.117 C 
BRANCH   2   3
ATOM      3  N   UNL A   1      31.814  27.367  23.312  1.00  0.00    -0.356 N 
ATOM      4  C   UNL A   1      31.513  26.099  23.718  1.00  0.00     0.227 C 
ATOM      5  O   UNL A   1      31.141  25.305  22.849  1.00  0.00    -0.274 OA
ATOM      6  H   UNL A   1      31.686  27.527  22.349  1.00  0.00     0.163 HD
BRANCH   4   7
ATOM      7  C   UNL A   1      31.636  25.686  25.194  1.00  0.00     0.105 C 
ATOM      8  C   UNL A   1      30.360  26.098  25.938  1.00  0.00     0.023 C 
BRANCH   7   9
ATOM      9  C   UNL A   1      31.961  24.201  25.311  1.00  0.00    -0.034 A 
ATOM     10  C   UNL A   1      31.019  23.236  25.671  1.00  0.00     0.005 A 
ATOM     11  C   UNL A   1      33.256  23.778  24.974  1.00  0.00     0.032 A 
ATOM     12  C   UNL A   1      31.326  21.869  25.625  1.00  0.00     0.011 A 
ATOM     13  C   UNL A   1      33.562  22.404  24.910  1.00  0.00     0.058 A 
ATOM     14  C   UNL A   1      32.600  21.445  25.193  1.00  0.00     0.008 A 
ATOM     15  N   UNL A   1      34.745  21.753  24.528  1.00  0.00    -0.274 N 
ATOM     16  C   UNL A   1      33.191  20.173  24.970  1.00  0.00     0.009 A 
ATOM     17  C   UNL A   1      34.533  20.371  24.611  1.00  0.00     0.057 A 
ATOM     18  C   UNL A   1      32.685  18.860  25.081  1.00  0.00     0.031 A 
ATOM     19  C   UNL A   1      35.405  19.272  24.476  1.00  0.00     0.029 A 
ATOM     20  C   UNL A   1      33.541  17.776  24.904  1.00  0.00     0.041 A 
ATOM     21  C   UNL A   1      34.885  17.978  24.625  1.00  0.00     0.023 A 
ATOM     22  Cl  UNL A   1      32.922  16.179  25.076  1.00  0.00    -0.084 Cl
BRANCH  15  23
ATOM     23  C   UNL A   1      35.924  22.459  24.166  1.00  0.00     0.284 C 
ATOM     24  O   UNL A   1      35.950  22.870  23.009  1.00  0.00    -0.266 OA
BRANCH  23  25
ATOM     25  C   UNL A   1      37.102  22.638  25.009  1.00  0.00     0.167 A 
ATOM     26  C   UNL A   1      37.478  23.683  25.823  1.00  0.00     0.231 A 
ATOM     27  N   UNL A   1      38.005  21.595  25.192  1.00  0.00    -0.211 NA
ATOM     28  O   UNL A   1      38.618  23.327  26.479  1.00  0.00    -0.451 OA
ATOM     29  C   UNL A   1      38.874  22.066  26.051  1.00  0.00     0.308 A 
ENDBRANCH  23  25
ENDBRANCH  15  23
ENDBRANCH   7   9
ENDBRANCH   4   7
ENDBRANCH   2   3
ENDBRANCH   1   2
BRANCH   1  30
ATOM     30  C   UNL A   1      34.082  28.591  25.888  1.00  0.00     0.118 C 
BRANCH  30  31
ATOM     31  N   UNL A   1      33.793  29.934  26.367  1.00  0.00    -0.352 N 
ATOM     32  C   UNL A   1      34.382  30.672  27.366  1.00  0.00     0.251 C 
ATOM     33  H   UNL A   1      33.056  30.390  25.898  1.00  0.00     0.163 HD
ATOM     34  O   UNL A   1      33.842  31.715  27.730  1.00  0.00    -0.269 OA
BRANCH  32  35
ATOM     35  C   UNL A   1      35.637  30.228  28.015  1.00  0.00     0.039 A 
ATOM     36  C   UNL A   1      36.843  30.381  27.323  1.00  0.00     0.014 A 
ATOM     37  C   UNL A   1      35.639  29.619  29.273  1.00  0.00     0.014 A 
ATOM     38  C   UNL A   1      38.046  29.979  27.913  1.00  0.00     0.010 A 
ATOM     39  C   UNL A   1      36.845  29.303  29.896  1.00  0.00     0.010 A 
ATOM     40  C   UNL A   1      38.065  29.472  29.222  1.00  0.00    -0.014 A 
BRANCH  40  41
ATOM     41  C   UNL A   1      39.340  29.118  29.906  1.00  0.00     0.031 A 
ATOM     42  C   UNL A   1      39.867  29.974  31.026  1.00  0.00     0.074 A 
ATOM     43  C   UNL A   1      40.071  28.070  29.472  1.00  0.00     0.049 A 
ATOM     44  N   UNL A   1      41.002  29.882  31.670  1.00  0.00    -0.248 NA
ATOM     45  C   UNL A   1      39.015  31.089  31.467  1.00  0.00     0.031 C 
ATOM     46  C   UNL A   1      39.686  27.176  28.382  1.00  0.00     0.029 A 
ATOM     47  N   UNL A   1      41.299  27.597  29.866  1.00  0.00    -0.354 N 
ATOM     48  C   UNL A   1      41.000  30.924  32.591  1.00  0.00     0.074 A 
ATOM     49  C   UNL A   1      39.784  31.675  32.374  1.00  0.00     0.031 C 
ATOM     50  C   UNL A   1      40.659  26.275  28.181  1.00  0.00     0.029 A 
ATOM     51  C   UNL A   1      41.756  26.549  29.101  1.00  0.00     0.049 A 
ATOM     52  H   UNL A   1      41.803  27.971  30.624  1.00  0.00     0.167 HD
ATOM     53  C   UNL A   1      41.914  31.207  33.551  1.00  0.00     0.037 A 
ATOM     54  C   UNL A   1      42.932  25.890  29.114  1.00  0.00     0.037 A 
ATOM     55  C   UNL A   1      43.118  30.446  33.768  1.00  0.00     0.049 A 
ATOM     56  C   UNL A   1      43.956  26.252  30.152  1.00  0.00     0.074 A 
ATOM     57  C   UNL A   1      44.075  30.615  34.753  1.00  0.00     0.029 A 
ATOM     58  N   UNL A   1      43.539  29.382  32.982  1.00  0.00    -0.354 N 
ATOM     59  N   UNL A   1      43.901  27.190  31.066  1.00  0.00    -0.248 NA
ATOM     60  C   UNL A   1      45.188  25.453  30.180  1.00  0.00     0.031 C 
ATOM     61  C   UNL A   1      45.102  29.694  34.529  1.00  0.00     0.029 A 
ATOM     62  C   UNL A   1      44.756  28.906  33.441  1.00  0.00     0.049 A 
ATOM     63  H   UNL A   1      43.045  29.019  32.213  1.00  0.00     0.167 HD
ATOM     64  C   UNL A   1      45.073  27.071  31.803  1.00  0.00     0.074 A 
ATOM     65  C   UNL A   1      45.816  25.966  31.229  1.00  0.00     0.031 C 
ATOM     66  C   UNL A   1      45.488  27.803  32.866  1.00  0.00     0.037 A 
BRANCH  53  67
ATOM     67  C   UNL A   1      41.642  32.390  34.441  1.00  0.00     0.058 A 
ATOM     68  C   UNL A   1      40.852  32.279  35.598  1.00  0.00     0.135 A 
ATOM     69  C   UNL A   1      42.194  33.647  34.147  1.00  0.00     0.135 A 
ATOM     70  F   UNL A   1      40.288  31.104  35.921  1.00  0.00    -0.206 F 
ATOM     71  C   UNL A   1      40.587  33.378  36.408  1.00  0.00     0.059 A 
ATOM     72  C   UNL A   1      41.970  34.753  34.962  1.00  0.00     0.059 A 
ATOM     73  F   UNL A   1      42.959  33.812  33.056  1.00  0.00    -0.206 F 
ATOM     74  C   UNL A   1      41.149  34.612  36.080  1.00  0.00     0.060 A 
BRANCH  74  75
ATOM     75  S   UNL A   1      40.786  36.030  37.136  1.00  0.00     0.124 S 
ATOM     76  O   UNL A   1      42.077  36.710  37.164  1.00  0.00    -0.237 OA
ATOM     77  O   UNL A   1      39.728  36.708  36.393  1.00  0.00    -0.237 OA
ATOM     78  O   UNL A   1      40.372  35.419  38.395  1.00  0.00    -0.744 OA
ENDBRANCH  74  75
ENDBRANCH  53  67
BRANCH  54  79
ATOM     79  C   UNL A   1      43.190  24.817  28.116  1.00  0.00     0.058 A 
ATOM     80  C   UNL A   1      43.772  25.106  26.874  1.00  0.00     0.135 A 
ATOM     81  C   UNL A   1      42.885  23.475  28.398  1.00  0.00     0.135 A 
ATOM     82  F   UNL A   1      44.079  26.373  26.555  1.00  0.00    -0.206 F 
ATOM     83  C   UNL A   1      44.028  24.108  25.938  1.00  0.00     0.059 A 
ATOM     84  C   UNL A   1      43.156  22.457  27.490  1.00  0.00     0.059 A 
ATOM     85  F   UNL A   1      42.347  23.140  29.581  1.00  0.00    -0.206 F 
ATOM     86  C   UNL A   1      43.720  22.785  26.258  1.00  0.00     0.060 A 
BRANCH  86  87
ATOM     87  S   UNL A   1      44.106  21.491  25.058  1.00  0.00     0.124 S 
ATOM     88  O   UNL A   1      43.065  20.510  25.338  1.00  0.00    -0.237 OA
ATOM     89  O   UNL A   1      43.987  22.208  23.793  1.00  0.00    -0.237 OA
ATOM     90  O   UNL A   1      45.463  21.094  25.420  1.00  0.00    -0.744 OA
ENDBRANCH  86  87
ENDBRANCH  54  79
BRANCH  66  91
ATOM     91  C   UNL A   1      46.789  27.414  33.512  1.00  0.00     0.058 A 
ATOM     92  C   UNL A   1      46.850  26.466  34.544  1.00  0.00     0.135 A 
ATOM     93  C   UNL A   1      47.999  27.957  33.048  1.00  0.00     0.135 A 
ATOM     94  F   UNL A   1      45.724  25.924  35.033  1.00  0.00    -0.206 F 
ATOM     95  C   UNL A   1      48.064  26.083  35.108  1.00  0.00     0.059 A 
ATOM     96  C   UNL A   1      49.226  27.566  33.575  1.00  0.00     0.059 A 
ATOM     97  F   UNL A   1      47.998  28.863  32.058  1.00  0.00    -0.206 F 
ATOM     98  C   UNL A   1      49.247  26.634  34.612  1.00  0.00     0.060 A 
BRANCH  98  99
ATOM     99  S   UNL A   1      50.816  26.093  35.319  1.00  0.00     0.124 S 
ATOM    100  O   UNL A   1      50.403  25.653  36.648  1.00  0.00    -0.237 OA
ATOM    101  O   UNL A   1      51.223  25.036  34.400  1.00  0.00    -0.237 OA
ATOM    102  O   UNL A   1      51.640  27.298  35.285  1.00  0.00    -0.744 OA
ENDBRANCH  98  99
ENDBRANCH  66  91
ENDBRANCH  40  41
ENDBRANCH  32  35
ENDBRANCH  30  31
ENDBRANCH   1  30
TORSDOF 16
ENDMDL
