MODEL 1
REMARK VINA RESULT:     -10.9      0.000      0.000
REMARK SMILES CN(CCc1cccs1)C(=O)N[C@@H]1COC[C@H]1C(=O)NCCCNC(=O)c1ccc(-c2c3nc(c(-c4c(F)cc(S(=O)(=O)[O-])cc4F)c4ccc([nH]4)c(-c4c(F)cc(S(=O)(=O)[O-])cc4F)c4nc(c(-c5c(F)cc(S(=O)(=O)[O-])cc5F)c5ccc2[nH]5)C=C4)C=C3)cc1
REMARK SMILES IDX 21 1 20 2 18 3 19 4 17 6 13 7 14 8 15 9 16 10 12 11 10 12
REMARK SMILES IDX 11 13 2 15 1 16 3 17 4 18 5 19 6 20 9 21 7 22 8 23 22 24
REMARK SMILES IDX 23 25 24 26 25 27 26 29 27 30 28 31 92 32 29 33 91 34 30 35
REMARK SMILES IDX 31 36 32 37 85 38 33 39 90 40 84 41 86 42 34 43 89 44 83 45
REMARK SMILES IDX 82 46 35 48 69 49 48 50 68 51 49 52 52 53 67 54 87 55 50 56
REMARK SMILES IDX 51 57 66 59 88 60 53 61 36 62 37 63 46 64 38 65 39 66 45 67
REMARK SMILES IDX 47 68 40 69 41 70 42 71 43 72 44 73 70 74 71 75 80 76 72 77
REMARK SMILES IDX 73 78 79 79 81 80 74 81 75 82 76 83 77 84 78 85 54 86 55 87
REMARK SMILES IDX 64 88 56 89 57 90 63 91 65 92 58 93 59 94 60 95 61 96 62 97
REMARK H PARENT 20 5 12 14 24 28 86 47 52 58
REMARK Flexibility Score: inf
ROOT
ATOM      1  C   UNL A   1      33.642  26.726  25.354  1.00  0.00     0.117 C 
ENDROOT
BRANCH   1   2
ATOM      2  N   UNL A   1      32.806  26.656  24.167  1.00  0.00    -0.356 N 
ATOM      3  C   UNL A   1      32.409  25.603  23.402  1.00  0.00     0.227 C 
ATOM      4  O   UNL A   1      31.669  25.852  22.447  1.00  0.00    -0.275 OA
ATOM      5  H   UNL A   1      32.467  27.527  23.861  1.00  0.00     0.163 HD
BRANCH   3   6
ATOM      6  C   UNL A   1      32.792  24.168  23.719  1.00  0.00     0.129 C 
ATOM      7  C   UNL A   1      31.612  23.261  23.989  1.00  0.00     0.124 C 
ATOM      8  C   UNL A   1      31.724  22.128  22.975  1.00  0.00     0.186 C 
ATOM      9  O   UNL A   1      32.840  22.381  22.112  1.00  0.00    -0.378 OA
ATOM     10  C   UNL A   1      33.534  23.551  22.550  1.00  0.00     0.176 C 
BRANCH   7  11
ATOM     11  N   UNL A   1      31.310  23.006  25.397  1.00  0.00    -0.332 N 
ATOM     12  C   UNL A   1      32.039  22.925  26.525  1.00  0.00     0.317 C 
ATOM     13  O   UNL A   1      31.552  23.451  27.528  1.00  0.00    -0.249 OA
ATOM     14  H   UNL A   1      30.350  22.858  25.556  1.00  0.00     0.165 HD
BRANCH  12  15
ATOM     15  N   UNL A   1      33.228  22.258  26.567  1.00  0.00    -0.328 N 
ATOM     16  C   UNL A   1      34.353  22.931  27.194  1.00  0.00     0.148 C 
BRANCH  15  17
ATOM     17  C   UNL A   1      33.399  20.840  26.284  1.00  0.00     0.126 C 
BRANCH  17  18
ATOM     18  C   UNL A   1      34.133  20.438  24.977  1.00  0.00     0.068 C 
BRANCH  18  19
ATOM     19  C   UNL A   1      34.014  19.016  24.481  1.00  0.00     0.006 A 
ATOM     20  C   UNL A   1      34.977  18.022  24.511  1.00  0.00     0.015 A 
ATOM     21  S   UNL A   1      32.618  18.457  23.643  1.00  0.00    -0.149 S 
ATOM     22  C   UNL A   1      34.489  16.766  24.044  1.00  0.00     0.012 A 
ATOM     23  C   UNL A   1      33.184  16.845  23.620  1.00  0.00     0.065 A 
ENDBRANCH  18  19
ENDBRANCH  17  18
ENDBRANCH  15  17
ENDBRANCH  12  15
ENDBRANCH   7  11
ENDBRANCH   3   6
ENDBRANCH   1   2
BRANCH   1  24
ATOM     24  C   UNL A   1      33.937  28.166  25.760  1.00  0.00     0.042 C 
BRANCH  24  25
ATOM     25  C   UNL A   1      33.728  28.399  27.245  1.00  0.00     0.118 C 
BRANCH  25  26
ATOM     26  N   UNL A   1      33.607  29.820  27.550  1.00  0.00    -0.352 N 
ATOM     27  C   UNL A   1      34.496  30.625  28.210  1.00  0.00     0.251 C 
ATOM     28  H   UNL A   1      32.781  30.257  27.240  1.00  0.00     0.163 HD
ATOM     29  O   UNL A   1      34.148  31.723  28.635  1.00  0.00    -0.269 OA
BRANCH  27  30
ATOM     30  C   UNL A   1      35.871  30.137  28.394  1.00  0.00     0.039 A 
ATOM     31  C   UNL A   1      36.774  30.185  27.332  1.00  0.00     0.014 A 
ATOM     32  C   UNL A   1      36.264  29.675  29.654  1.00  0.00     0.014 A 
ATOM     33  C   UNL A   1      38.100  29.814  27.552  1.00  0.00     0.010 A 
ATOM     34  C   UNL A   1      37.598  29.405  29.894  1.00  0.00     0.010 A 
ATOM     35  C   UNL A   1      38.524  29.451  28.841  1.00  0.00    -0.014 A 
BRANCH  35  36
ATOM     36  C   UNL A   1      39.919  29.052  29.132  1.00  0.00     0.031 A 
ATOM     37  C   UNL A   1      40.866  30.088  29.671  1.00  0.00     0.074 A 
ATOM     38  C   UNL A   1      40.350  27.816  28.816  1.00  0.00     0.049 A 
ATOM     39  N   UNL A   1      42.164  30.030  29.808  1.00  0.00    -0.248 NA
ATOM     40  C   UNL A   1      40.278  31.382  30.064  1.00  0.00     0.031 C 
ATOM     41  C   UNL A   1      39.521  26.742  28.264  1.00  0.00     0.029 A 
ATOM     42  N   UNL A   1      41.601  27.263  28.893  1.00  0.00    -0.354 N 
ATOM     43  C   UNL A   1      42.546  31.281  30.280  1.00  0.00     0.074 A 
ATOM     44  C   UNL A   1      41.356  32.098  30.341  1.00  0.00     0.031 C 
ATOM     45  C   UNL A   1      40.286  25.655  28.066  1.00  0.00     0.029 A 
ATOM     46  C   UNL A   1      41.664  25.971  28.425  1.00  0.00     0.049 A 
ATOM     47  H   UNL A   1      42.383  27.745  29.250  1.00  0.00     0.167 HD
ATOM     48  C   UNL A   1      43.777  31.699  30.654  1.00  0.00     0.037 A 
ATOM     49  C   UNL A   1      42.721  25.147  28.285  1.00  0.00     0.037 A 
ATOM     50  C   UNL A   1      44.944  30.862  30.616  1.00  0.00     0.049 A 
ATOM     51  C   UNL A   1      44.085  25.644  28.688  1.00  0.00     0.074 A 
ATOM     52  C   UNL A   1      46.236  31.170  31.004  1.00  0.00     0.029 A 
ATOM     53  N   UNL A   1      44.960  29.548  30.172  1.00  0.00    -0.354 N 
ATOM     54  N   UNL A   1      44.428  26.819  29.161  1.00  0.00    -0.248 NA
ATOM     55  C   UNL A   1      45.206  24.705  28.542  1.00  0.00     0.031 C 
ATOM     56  C   UNL A   1      47.040  30.055  30.756  1.00  0.00     0.029 A 
ATOM     57  C   UNL A   1      46.239  29.033  30.270  1.00  0.00     0.049 A 
ATOM     58  H   UNL A   1      44.175  29.055  29.838  1.00  0.00     0.167 HD
ATOM     59  C   UNL A   1      45.794  26.742  29.417  1.00  0.00     0.074 A 
ATOM     60  C   UNL A   1      46.214  25.409  29.039  1.00  0.00     0.031 C 
ATOM     61  C   UNL A   1      46.622  27.686  29.927  1.00  0.00     0.037 A 
BRANCH  48  62
ATOM     62  C   UNL A   1      43.916  33.113  31.146  1.00  0.00     0.058 A 
ATOM     63  C   UNL A   1      44.225  34.170  30.274  1.00  0.00     0.135 A 
ATOM     64  C   UNL A   1      43.703  33.425  32.498  1.00  0.00     0.135 A 
ATOM     65  F   UNL A   1      44.460  33.928  28.974  1.00  0.00    -0.206 F 
ATOM     66  C   UNL A   1      44.346  35.478  30.729  1.00  0.00     0.059 A 
ATOM     67  C   UNL A   1      43.785  34.731  32.970  1.00  0.00     0.059 A 
ATOM     68  F   UNL A   1      43.409  32.454  33.378  1.00  0.00    -0.206 F 
ATOM     69  C   UNL A   1      44.120  35.750  32.079  1.00  0.00     0.060 A 
BRANCH  69  70
ATOM     70  S   UNL A   1      44.261  37.456  32.645  1.00  0.00     0.124 S 
ATOM     71  O   UNL A   1      43.936  38.195  31.428  1.00  0.00    -0.237 OA
ATOM     72  O   UNL A   1      43.261  37.516  33.707  1.00  0.00    -0.237 OA
ATOM     73  O   UNL A   1      45.648  37.556  33.088  1.00  0.00    -0.744 OA
ENDBRANCH  69  70
ENDBRANCH  48  62
BRANCH  49  74
ATOM     74  C   UNL A   1      42.534  23.767  27.761  1.00  0.00     0.058 A 
ATOM     75  C   UNL A   1      42.433  23.532  26.382  1.00  0.00     0.135 A 
ATOM     76  C   UNL A   1      42.445  22.661  28.620  1.00  0.00     0.135 A 
ATOM     77  F   UNL A   1      42.512  24.557  25.520  1.00  0.00    -0.206 F 
ATOM     78  C   UNL A   1      42.220  22.255  25.872  1.00  0.00     0.059 A 
ATOM     79  C   UNL A   1      42.261  21.370  28.132  1.00  0.00     0.059 A 
ATOM     80  F   UNL A   1      42.557  22.825  29.947  1.00  0.00    -0.206 F 
ATOM     81  C   UNL A   1      42.134  21.180  26.757  1.00  0.00     0.060 A 
BRANCH  81  82
ATOM     82  S   UNL A   1      41.875  19.525  26.082  1.00  0.00     0.124 S 
ATOM     83  O   UNL A   1      42.713  19.561  24.889  1.00  0.00    -0.237 OA
ATOM     84  O   UNL A   1      42.347  18.674  27.170  1.00  0.00    -0.237 OA
ATOM     85  O   UNL A   1      40.436  19.482  25.843  1.00  0.00    -0.744 OA
ENDBRANCH  81  82
ENDBRANCH  49  74
BRANCH  61  86
ATOM     86  C   UNL A   1      48.050  27.299  30.190  1.00  0.00     0.058 A 
ATOM     87  C   UNL A   1      49.054  27.458  29.224  1.00  0.00     0.135 A 
ATOM     88  C   UNL A   1      48.429  26.858  31.469  1.00  0.00     0.135 A 
ATOM     89  F   UNL A   1      48.744  27.868  27.985  1.00  0.00    -0.206 F 
ATOM     90  C   UNL A   1      50.388  27.189  29.518  1.00  0.00     0.059 A 
ATOM     91  C   UNL A   1      49.757  26.612  31.793  1.00  0.00     0.059 A 
ATOM     92  F   UNL A   1      47.505  26.699  32.430  1.00  0.00    -0.206 F 
ATOM     93  C   UNL A   1      50.731  26.777  30.808  1.00  0.00     0.060 A 
BRANCH  93  94
ATOM     94  S   UNL A   1      52.473  26.507  31.196  1.00  0.00     0.124 S 
ATOM     95  O   UNL A   1      53.096  26.694  29.889  1.00  0.00    -0.237 OA
ATOM     96  O   UNL A   1      52.738  27.552  32.180  1.00  0.00    -0.237 OA
ATOM     97  O   UNL A   1      52.499  25.143  31.715  1.00  0.00    -0.744 OA
ENDBRANCH  93  94
ENDBRANCH  61  86
ENDBRANCH  35  36
ENDBRANCH  27  30
ENDBRANCH  25  26
ENDBRANCH  24  25
ENDBRANCH   1  24
TORSDOF 18
ENDMDL
MODEL 2
REMARK VINA RESULT:     -10.8      2.518      3.341
REMARK SMILES CN(CCc1cccs1)C(=O)N[C@@H]1COC[C@H]1C(=O)NCCCNC(=O)c1ccc(-c2c3nc(c(-c4c(F)cc(S(=O)(=O)[O-])cc4F)c4ccc([nH]4)c(-c4c(F)cc(S(=O)(=O)[O-])cc4F)c4nc(c(-c5c(F)cc(S(=O)(=O)[O-])cc5F)c5ccc2[nH]5)C=C4)C=C3)cc1
REMARK SMILES IDX 21 1 20 2 18 3 19 4 17 6 13 7 14 8 15 9 16 10 12 11 10 12
REMARK SMILES IDX 11 13 2 15 1 16 3 17 4 18 5 19 6 20 9 21 7 22 8 23 22 24
REMARK SMILES IDX 23 25 24 26 25 27 26 29 27 30 28 31 92 32 29 33 91 34 30 35
REMARK SMILES IDX 31 36 32 37 85 38 33 39 90 40 84 41 86 42 34 43 89 44 83 45
REMARK SMILES IDX 82 46 35 48 69 49 48 50 68 51 49 52 52 53 67 54 87 55 50 56
REMARK SMILES IDX 51 57 66 59 88 60 53 61 36 62 37 63 46 64 38 65 39 66 45 67
REMARK SMILES IDX 47 68 40 69 41 70 42 71 43 72 44 73 70 74 71 75 80 76 72 77
REMARK SMILES IDX 73 78 79 79 81 80 74 81 75 82 76 83 77 84 78 85 54 86 55 87
REMARK SMILES IDX 64 88 56 89 57 90 63 91 65 92 58 93 59 94 60 95 61 96 62 97
REMARK H PARENT 20 5 12 14 24 28 86 47 52 58
REMARK Flexibility Score: inf
ROOT
ATOM      1  C   UNL A   1      32.806  28.904  27.154  1.00  0.00     0.117 C 
ENDROOT
BRANCH   1   2
ATOM      2  N   UNL A   1      31.867  28.839  26.046  1.00  0.00    -0.356 N 
ATOM      3  C   UNL A   1      31.682  27.908  25.071  1.00  0.00     0.227 C 
ATOM      4  O   UNL A   1      30.776  28.117  24.261  1.00  0.00    -0.275 OA
ATOM      5  H   UNL A   1      31.256  29.607  25.991  1.00  0.00     0.163 HD
BRANCH   3   6
ATOM      6  C   UNL A   1      32.496  26.628  24.994  1.00  0.00     0.129 C 
ATOM      7  C   UNL A   1      31.714  25.429  24.505  1.00  0.00     0.124 C 
ATOM      8  C   UNL A   1      32.461  24.926  23.275  1.00  0.00     0.186 C 
ATOM      9  O   UNL A   1      33.559  25.805  23.002  1.00  0.00    -0.378 OA
ATOM     10  C   UNL A   1      33.651  26.797  24.027  1.00  0.00     0.176 C 
BRANCH   7  11
ATOM     11  N   UNL A   1      31.231  24.515  25.539  1.00  0.00    -0.332 N 
ATOM     12  C   UNL A   1      31.814  23.655  26.394  1.00  0.00     0.317 C 
ATOM     13  O   UNL A   1      31.359  23.633  27.540  1.00  0.00    -0.249 OA
ATOM     14  H   UNL A   1      30.251  24.533  25.630  1.00  0.00     0.165 HD
BRANCH  12  15
ATOM     15  N   UNL A   1      32.820  22.822  26.002  1.00  0.00    -0.328 N 
ATOM     16  C   UNL A   1      34.186  23.268  26.227  1.00  0.00     0.148 C 
BRANCH  15  17
ATOM     17  C   UNL A   1      32.650  21.426  25.629  1.00  0.00     0.126 C 
BRANCH  17  18
ATOM     18  C   UNL A   1      33.923  20.570  25.391  1.00  0.00     0.068 C 
BRANCH  18  19
ATOM     19  C   UNL A   1      33.808  19.300  24.581  1.00  0.00     0.006 A 
ATOM     20  C   UNL A   1      34.728  18.271  24.479  1.00  0.00     0.015 A 
ATOM     21  S   UNL A   1      32.490  19.018  23.511  1.00  0.00    -0.149 S 
ATOM     22  C   UNL A   1      34.250  17.177  23.700  1.00  0.00     0.012 A 
ATOM     23  C   UNL A   1      33.000  17.421  23.182  1.00  0.00     0.065 A 
ENDBRANCH  18  19
ENDBRANCH  17  18
ENDBRANCH  15  17
ENDBRANCH  12  15
ENDBRANCH   7  11
ENDBRANCH   3   6
ENDBRANCH   1   2
BRANCH   1  24
ATOM     24  C   UNL A   1      34.127  29.548  26.746  1.00  0.00     0.042 C 
BRANCH  24  25
ATOM     25  C   UNL A   1      35.251  29.215  27.710  1.00  0.00     0.118 C 
BRANCH  25  26
ATOM     26  N   UNL A   1      35.292  30.154  28.825  1.00  0.00    -0.352 N 
ATOM     27  C   UNL A   1      36.312  30.377  29.711  1.00  0.00     0.251 C 
ATOM     28  H   UNL A   1      34.483  30.698  28.958  1.00  0.00     0.163 HD
ATOM     29  O   UNL A   1      36.110  30.988  30.756  1.00  0.00    -0.269 OA
BRANCH  27  30
ATOM     30  C   UNL A   1      37.648  29.862  29.374  1.00  0.00     0.039 A 
ATOM     31  C   UNL A   1      38.108  29.930  28.059  1.00  0.00     0.014 A 
ATOM     32  C   UNL A   1      38.457  29.355  30.395  1.00  0.00     0.014 A 
ATOM     33  C   UNL A   1      39.415  29.533  27.777  1.00  0.00     0.010 A 
ATOM     34  C   UNL A   1      39.781  29.059  30.130  1.00  0.00     0.010 A 
ATOM     35  C   UNL A   1      40.266  29.123  28.815  1.00  0.00    -0.014 A 
BRANCH  35  36
ATOM     36  C   UNL A   1      41.662  28.695  28.574  1.00  0.00     0.031 A 
ATOM     37  C   UNL A   1      42.743  29.739  28.563  1.00  0.00     0.074 A 
ATOM     38  C   UNL A   1      41.932  27.413  28.262  1.00  0.00     0.049 A 
ATOM     39  N   UNL A   1      43.988  29.637  28.180  1.00  0.00    -0.248 NA
ATOM     40  C   UNL A   1      42.359  31.094  29.002  1.00  0.00     0.031 C 
ATOM     41  C   UNL A   1      40.953  26.324  28.216  1.00  0.00     0.029 A 
ATOM     42  N   UNL A   1      43.110  26.814  27.900  1.00  0.00    -0.354 N 
ATOM     43  C   UNL A   1      44.525  30.913  28.308  1.00  0.00     0.074 A 
ATOM     44  C   UNL A   1      43.457  31.785  28.740  1.00  0.00     0.031 C 
ATOM     45  C   UNL A   1      41.576  25.188  27.862  1.00  0.00     0.029 A 
ATOM     46  C   UNL A   1      42.982  25.477  27.603  1.00  0.00     0.049 A 
ATOM     47  H   UNL A   1      43.968  27.297  27.857  1.00  0.00     0.167 HD
ATOM     48  C   UNL A   1      45.801  31.312  28.109  1.00  0.00     0.037 A 
ATOM     49  C   UNL A   1      43.897  24.595  27.154  1.00  0.00     0.037 A 
ATOM     50  C   UNL A   1      46.858  30.423  27.711  1.00  0.00     0.049 A 
ATOM     51  C   UNL A   1      45.307  25.070  26.919  1.00  0.00     0.074 A 
ATOM     52  C   UNL A   1      48.196  30.712  27.514  1.00  0.00     0.029 A 
ATOM     53  N   UNL A   1      46.696  29.069  27.457  1.00  0.00    -0.354 N 
ATOM     54  N   UNL A   1      45.809  26.273  27.073  1.00  0.00    -0.248 NA
ATOM     55  C   UNL A   1      46.277  24.070  26.452  1.00  0.00     0.031 C 
ATOM     56  C   UNL A   1      48.835  29.540  27.100  1.00  0.00     0.029 A 
ATOM     57  C   UNL A   1      47.908  28.509  27.099  1.00  0.00     0.049 A 
ATOM     58  H   UNL A   1      45.844  28.579  27.523  1.00  0.00     0.167 HD
ATOM     59  C   UNL A   1      47.163  26.161  26.772  1.00  0.00     0.074 A 
ATOM     60  C   UNL A   1      47.399  24.777  26.420  1.00  0.00     0.031 C 
ATOM     61  C   UNL A   1      48.124  27.116  26.795  1.00  0.00     0.037 A 
BRANCH  48  62
ATOM     62  C   UNL A   1      46.123  32.764  28.334  1.00  0.00     0.058 A 
ATOM     63  C   UNL A   1      46.530  33.242  29.590  1.00  0.00     0.135 A 
ATOM     64  C   UNL A   1      46.060  33.683  27.275  1.00  0.00     0.135 A 
ATOM     65  F   UNL A   1      46.588  32.412  30.644  1.00  0.00    -0.206 F 
ATOM     66  C   UNL A   1      46.835  34.583  29.795  1.00  0.00     0.059 A 
ATOM     67  C   UNL A   1      46.393  35.023  27.448  1.00  0.00     0.059 A 
ATOM     68  F   UNL A   1      45.672  33.283  26.053  1.00  0.00    -0.206 F 
ATOM     69  C   UNL A   1      46.768  35.466  28.716  1.00  0.00     0.060 A 
BRANCH  69  70
ATOM     70  S   UNL A   1      47.188  37.197  28.997  1.00  0.00     0.124 S 
ATOM     71  O   UNL A   1      48.076  37.468  27.869  1.00  0.00    -0.237 OA
ATOM     72  O   UNL A   1      45.882  37.847  28.944  1.00  0.00    -0.237 OA
ATOM     73  O   UNL A   1      47.827  37.185  30.309  1.00  0.00    -0.744 OA
ENDBRANCH  69  70
ENDBRANCH  48  62
BRANCH  49  74
ATOM     74  C   UNL A   1      43.517  23.177  26.915  1.00  0.00     0.058 A 
ATOM     75  C   UNL A   1      43.428  22.668  25.612  1.00  0.00     0.135 A 
ATOM     76  C   UNL A   1      43.231  22.304  27.977  1.00  0.00     0.135 A 
ATOM     77  F   UNL A   1      43.691  23.462  24.563  1.00  0.00    -0.206 F 
ATOM     78  C   UNL A   1      43.038  21.355  25.364  1.00  0.00     0.059 A 
ATOM     79  C   UNL A   1      42.868  20.979  27.757  1.00  0.00     0.059 A 
ATOM     80  F   UNL A   1      43.323  22.732  29.246  1.00  0.00    -0.206 F 
ATOM     81  C   UNL A   1      42.758  20.518  26.445  1.00  0.00     0.060 A 
BRANCH  81  82
ATOM     82  S   UNL A   1      42.271  18.812  26.112  1.00  0.00     0.124 S 
ATOM     83  O   UNL A   1      40.885  18.979  25.691  1.00  0.00    -0.237 OA
ATOM     84  O   UNL A   1      43.215  18.422  25.069  1.00  0.00    -0.237 OA
ATOM     85  O   UNL A   1      42.465  18.151  27.400  1.00  0.00    -0.744 OA
ENDBRANCH  81  82
ENDBRANCH  49  74
BRANCH  61  86
ATOM     86  C   UNL A   1      49.539  26.695  26.512  1.00  0.00     0.058 A 
ATOM     87  C   UNL A   1      50.378  26.184  27.512  1.00  0.00     0.135 A 
ATOM     88  C   UNL A   1      50.020  26.712  25.192  1.00  0.00     0.135 A 
ATOM     89  F   UNL A   1      49.968  26.153  28.790  1.00  0.00    -0.206 F 
ATOM     90  C   UNL A   1      51.650  25.705  27.213  1.00  0.00     0.059 A 
ATOM     91  C   UNL A   1      51.275  26.212  24.866  1.00  0.00     0.059 A 
ATOM     92  F   UNL A   1      49.251  27.183  24.198  1.00  0.00    -0.206 F 
ATOM     93  C   UNL A   1      52.085  25.713  25.885  1.00  0.00     0.060 A 
BRANCH  93  94
ATOM     94  S   UNL A   1      53.706  25.018  25.502  1.00  0.00     0.124 S 
ATOM     95  O   UNL A   1      54.444  25.301  26.729  1.00  0.00    -0.237 OA
ATOM     96  O   UNL A   1      53.392  23.614  25.260  1.00  0.00    -0.237 OA
ATOM     97  O   UNL A   1      54.130  25.771  24.327  1.00  0.00    -0.744 OA
ENDBRANCH  93  94
ENDBRANCH  61  86
ENDBRANCH  35  36
ENDBRANCH  27  30
ENDBRANCH  25  26
ENDBRANCH  24  25
ENDBRANCH   1  24
TORSDOF 18
ENDMDL
MODEL 3
REMARK VINA RESULT:     -10.7      3.974      7.156
REMARK SMILES CN(CCc1cccs1)C(=O)N[C@@H]1COC[C@H]1C(=O)NCCCNC(=O)c1ccc(-c2c3nc(c(-c4c(F)cc(S(=O)(=O)[O-])cc4F)c4ccc([nH]4)c(-c4c(F)cc(S(=O)(=O)[O-])cc4F)c4nc(c(-c5c(F)cc(S(=O)(=O)[O-])cc5F)c5ccc2[nH]5)C=C4)C=C3)cc1
REMARK SMILES IDX 21 1 20 2 18 3 19 4 17 6 13 7 14 8 15 9 16 10 12 11 10 12
REMARK SMILES IDX 11 13 2 15 1 16 3 17 4 18 5 19 6 20 9 21 7 22 8 23 22 24
REMARK SMILES IDX 23 25 24 26 25 27 26 29 27 30 28 31 92 32 29 33 91 34 30 35
REMARK SMILES IDX 31 36 32 37 85 38 33 39 90 40 84 41 86 42 34 43 89 44 83 45
REMARK SMILES IDX 82 46 35 48 69 49 48 50 68 51 49 52 52 53 67 54 87 55 50 56
REMARK SMILES IDX 51 57 66 59 88 60 53 61 36 62 37 63 46 64 38 65 39 66 45 67
REMARK SMILES IDX 47 68 40 69 41 70 42 71 43 72 44 73 70 74 71 75 80 76 72 77
REMARK SMILES IDX 73 78 79 79 81 80 74 81 75 82 76 83 77 84 78 85 54 86 55 87
REMARK SMILES IDX 64 88 56 89 57 90 63 91 65 92 58 93 59 94 60 95 61 96 62 97
REMARK H PARENT 20 5 12 14 24 28 86 47 52 58
REMARK Flexibility Score: inf
ROOT
ATOM      1  C   UNL A   1      34.259  34.877  29.280  1.00  0.00     0.117 C 
ENDROOT
BRANCH   1   2
ATOM      2  N   UNL A   1      33.685  35.486  30.470  1.00  0.00    -0.356 N 
ATOM      3  C   UNL A   1      33.898  35.259  31.794  1.00  0.00     0.227 C 
ATOM      4  O   UNL A   1      33.268  35.958  32.591  1.00  0.00    -0.275 OA
ATOM      5  H   UNL A   1      33.024  36.189  30.282  1.00  0.00     0.163 HD
BRANCH   3   6
ATOM      6  C   UNL A   1      34.905  34.241  32.300  1.00  0.00     0.129 C 
ATOM      7  C   UNL A   1      36.099  34.851  32.999  1.00  0.00     0.124 C 
ATOM      8  C   UNL A   1      36.115  34.238  34.395  1.00  0.00     0.186 C 
ATOM      9  O   UNL A   1      34.972  33.388  34.547  1.00  0.00    -0.378 OA
ATOM     10  C   UNL A   1      34.256  33.317  33.312  1.00  0.00     0.176 C 
BRANCH   7  11
ATOM     11  N   UNL A   1      37.317  34.972  32.198  1.00  0.00    -0.332 N 
ATOM     12  C   UNL A   1      38.368  34.171  31.941  1.00  0.00     0.317 C 
ATOM     13  O   UNL A   1      38.773  34.160  30.777  1.00  0.00    -0.249 OA
ATOM     14  H   UNL A   1      37.383  35.841  31.741  1.00  0.00     0.165 HD
BRANCH  12  15
ATOM     15  N   UNL A   1      38.979  33.450  32.924  1.00  0.00    -0.328 N 
ATOM     16  C   UNL A   1      40.151  34.034  33.554  1.00  0.00     0.148 C 
BRANCH  15  17
ATOM     17  C   UNL A   1      38.410  32.279  33.576  1.00  0.00     0.126 C 
BRANCH  17  18
ATOM     18  C   UNL A   1      38.551  30.905  32.868  1.00  0.00     0.068 C 
BRANCH  18  19
ATOM     19  C   UNL A   1      39.797  30.085  33.105  1.00  0.00     0.006 A 
ATOM     20  C   UNL A   1      41.061  30.539  33.443  1.00  0.00     0.015 A 
ATOM     21  S   UNL A   1      39.834  28.386  32.838  1.00  0.00    -0.149 S 
ATOM     22  C   UNL A   1      41.982  29.478  33.685  1.00  0.00     0.012 A 
ATOM     23  C   UNL A   1      41.413  28.244  33.473  1.00  0.00     0.065 A 
ENDBRANCH  18  19
ENDBRANCH  17  18
ENDBRANCH  15  17
ENDBRANCH  12  15
ENDBRANCH   7  11
ENDBRANCH   3   6
ENDBRANCH   1   2
BRANCH   1  24
ATOM     24  C   UNL A   1      34.477  33.378  29.455  1.00  0.00     0.042 C 
BRANCH  24  25
ATOM     25  C   UNL A   1      34.751  32.679  28.136  1.00  0.00     0.118 C 
BRANCH  25  26
ATOM     26  N   UNL A   1      33.985  31.444  28.018  1.00  0.00    -0.352 N 
ATOM     27  C   UNL A   1      34.453  30.161  27.912  1.00  0.00     0.251 C 
ATOM     28  H   UNL A   1      33.006  31.545  28.015  1.00  0.00     0.163 HD
ATOM     29  O   UNL A   1      33.711  29.255  27.545  1.00  0.00    -0.269 OA
BRANCH  27  30
ATOM     30  C   UNL A   1      35.861  29.906  28.250  1.00  0.00     0.039 A 
ATOM     31  C   UNL A   1      36.203  29.487  29.535  1.00  0.00     0.014 A 
ATOM     32  C   UNL A   1      36.833  30.044  27.254  1.00  0.00     0.014 A 
ATOM     33  C   UNL A   1      37.529  29.150  29.808  1.00  0.00     0.010 A 
ATOM     34  C   UNL A   1      38.124  29.614  27.499  1.00  0.00     0.010 A 
ATOM     35  C   UNL A   1      38.488  29.185  28.784  1.00  0.00    -0.014 A 
BRANCH  35  36
ATOM     36  C   UNL A   1      39.908  28.835  29.016  1.00  0.00     0.031 A 
ATOM     37  C   UNL A   1      40.840  29.905  29.513  1.00  0.00     0.074 A 
ATOM     38  C   UNL A   1      40.368  27.614  28.683  1.00  0.00     0.049 A 
ATOM     39  N   UNL A   1      42.144  29.893  29.595  1.00  0.00    -0.248 NA
ATOM     40  C   UNL A   1      40.225  31.178  29.930  1.00  0.00     0.031 C 
ATOM     41  C   UNL A   1      39.554  26.511  28.167  1.00  0.00     0.029 A 
ATOM     42  N   UNL A   1      41.639  27.105  28.707  1.00  0.00    -0.354 N 
ATOM     43  C   UNL A   1      42.502  31.157  30.049  1.00  0.00     0.074 A 
ATOM     44  C   UNL A   1      41.287  31.932  30.160  1.00  0.00     0.031 C 
ATOM     45  C   UNL A   1      40.347  25.451  27.937  1.00  0.00     0.029 A 
ATOM     46  C   UNL A   1      41.727  25.815  28.237  1.00  0.00     0.049 A 
ATOM     47  H   UNL A   1      42.418  27.615  29.030  1.00  0.00     0.167 HD
ATOM     48  C   UNL A   1      43.732  31.618  30.370  1.00  0.00     0.037 A 
ATOM     49  C   UNL A   1      42.805  25.028  28.053  1.00  0.00     0.037 A 
ATOM     50  C   UNL A   1      44.925  30.822  30.283  1.00  0.00     0.049 A 
ATOM     51  C   UNL A   1      44.167  25.573  28.397  1.00  0.00     0.074 A 
ATOM     52  C   UNL A   1      46.220  31.176  30.616  1.00  0.00     0.029 A 
ATOM     53  N   UNL A   1      44.967  29.508  29.840  1.00  0.00    -0.354 N 
ATOM     54  N   UNL A   1      44.489  26.760  28.854  1.00  0.00    -0.248 NA
ATOM     55  C   UNL A   1      45.313  24.673  28.204  1.00  0.00     0.031 C 
ATOM     56  C   UNL A   1      47.052  30.088  30.333  1.00  0.00     0.029 A 
ATOM     57  C   UNL A   1      46.267  29.038  29.883  1.00  0.00     0.049 A 
ATOM     58  H   UNL A   1      44.187  28.988  29.539  1.00  0.00     0.167 HD
ATOM     59  C   UNL A   1      45.866  26.731  29.052  1.00  0.00     0.074 A 
ATOM     60  C   UNL A   1      46.316  25.413  28.657  1.00  0.00     0.031 C 
ATOM     61  C   UNL A   1      46.682  27.704  29.525  1.00  0.00     0.037 A 
BRANCH  48  62
ATOM     62  C   UNL A   1      43.842  33.037  30.855  1.00  0.00     0.058 A 
ATOM     63  C   UNL A   1      43.780  34.125  29.969  1.00  0.00     0.135 A 
ATOM     64  C   UNL A   1      43.977  33.317  32.224  1.00  0.00     0.135 A 
ATOM     65  F   UNL A   1      43.674  33.916  28.647  1.00  0.00    -0.206 F 
ATOM     66  C   UNL A   1      43.875  35.437  30.419  1.00  0.00     0.059 A 
ATOM     67  C   UNL A   1      44.040  34.623  32.701  1.00  0.00     0.059 A 
ATOM     68  F   UNL A   1      44.047  32.317  33.116  1.00  0.00    -0.206 F 
ATOM     69  C   UNL A   1      44.000  35.677  31.788  1.00  0.00     0.060 A 
BRANCH  69  70
ATOM     70  S   UNL A   1      44.100  37.386  32.354  1.00  0.00     0.124 S 
ATOM     71  O   UNL A   1      43.070  37.411  33.388  1.00  0.00    -0.237 OA
ATOM     72  O   UNL A   1      45.477  37.477  32.831  1.00  0.00    -0.237 OA
ATOM     73  O   UNL A   1      43.802  38.162  31.154  1.00  0.00    -0.744 OA
ENDBRANCH  69  70
ENDBRANCH  48  62
BRANCH  49  74
ATOM     74  C   UNL A   1      42.644  23.642  27.538  1.00  0.00     0.058 A 
ATOM     75  C   UNL A   1      42.448  22.568  28.419  1.00  0.00     0.135 A 
ATOM     76  C   UNL A   1      42.688  23.358  26.164  1.00  0.00     0.135 A 
ATOM     77  F   UNL A   1      42.399  22.787  29.742  1.00  0.00    -0.206 F 
ATOM     78  C   UNL A   1      42.333  21.259  27.962  1.00  0.00     0.059 A 
ATOM     79  C   UNL A   1      42.546  22.061  25.680  1.00  0.00     0.059 A 
ATOM     80  F   UNL A   1      42.850  24.350  25.275  1.00  0.00    -0.206 F 
ATOM     81  C   UNL A   1      42.385  21.016  26.589  1.00  0.00     0.060 A 
BRANCH  81  82
ATOM     82  S   UNL A   1      42.216  19.315  26.006  1.00  0.00     0.124 S 
ATOM     83  O   UNL A   1      43.101  19.313  24.847  1.00  0.00    -0.237 OA
ATOM     84  O   UNL A   1      42.672  18.549  27.161  1.00  0.00    -0.237 OA
ATOM     85  O   UNL A   1      40.790  19.202  25.712  1.00  0.00    -0.744 OA
ENDBRANCH  81  82
ENDBRANCH  49  74
BRANCH  61  86
ATOM     86  C   UNL A   1      48.133  27.368  29.727  1.00  0.00     0.058 A 
ATOM     87  C   UNL A   1      49.068  27.451  28.686  1.00  0.00     0.135 A 
ATOM     88  C   UNL A   1      48.603  27.058  31.014  1.00  0.00     0.135 A 
ATOM     89  F   UNL A   1      48.668  27.736  27.437  1.00  0.00    -0.206 F 
ATOM     90  C   UNL A   1      50.424  27.233  28.913  1.00  0.00     0.059 A 
ATOM     91  C   UNL A   1      49.955  26.865  31.270  1.00  0.00     0.059 A 
ATOM     92  F   UNL A   1      47.748  26.976  32.045  1.00  0.00    -0.206 F 
ATOM     93  C   UNL A   1      50.859  26.952  30.211  1.00  0.00     0.060 A 
BRANCH  93  94
ATOM     94  S   UNL A   1      52.628  26.749  30.505  1.00  0.00     0.124 S 
ATOM     95  O   UNL A   1      53.167  26.887  29.156  1.00  0.00    -0.237 OA
ATOM     96  O   UNL A   1      52.919  27.848  31.420  1.00  0.00    -0.237 OA
ATOM     97  O   UNL A   1      52.725  25.414  31.086  1.00  0.00    -0.744 OA
ENDBRANCH  93  94
ENDBRANCH  61  86
ENDBRANCH  35  36
ENDBRANCH  27  30
ENDBRANCH  25  26
ENDBRANCH  24  25
ENDBRANCH   1  24
TORSDOF 18
ENDMDL
