MODEL 1
REMARK VINA RESULT:     -14.0      0.000      0.000
REMARK SMILES Cc1c(/C=C/C(=O)NCCCNC(=O)c2ccc(-c3c4nc(c(-c5c(F)cc(S(=O)(=O)[O-])cc5F)c5ccc([nH]5)c(-c5c(F)cc(S(=O)(=O)[O-])cc5F)c5nc(c(-c6c(F)cc(S(=O)(=O)[O-])cc6F)c6ccc3[nH]6)C=C5)C=C4)cc2)cccc1C(=O)N1C[C@@H](C)[C@@H](C)C1
REMARK SMILES IDX 10 1 9 2 8 3 6 4 7 5 5 7 4 8 3 9 1 10 2 11 84 12 81 13 83 14
REMARK SMILES IDX 82 15 85 16 86 17 87 18 88 19 93 20 89 21 91 22 90 23 92 24
REMARK SMILES IDX 11 25 12 26 13 27 14 29 15 30 16 31 80 32 17 33 79 34 18 35
REMARK SMILES IDX 19 36 20 37 73 38 21 39 78 40 72 41 74 42 22 43 77 44 71 45
REMARK SMILES IDX 70 46 23 48 57 49 36 50 56 51 37 52 40 53 55 54 75 55 38 56
REMARK SMILES IDX 39 57 54 59 76 60 41 61 24 62 25 63 34 64 26 65 27 66 33 67
REMARK SMILES IDX 35 68 28 69 29 70 30 71 31 72 32 73 58 74 59 75 68 76 60 77
REMARK SMILES IDX 61 78 67 79 69 80 62 81 63 82 64 83 65 84 66 85 42 86 43 87
REMARK SMILES IDX 52 88 44 89 45 90 51 91 53 92 46 93 47 94 48 95 49 96 50 97
REMARK H PARENT 8 6 12 28 74 47 40 58
REMARK Flexibility Score: inf
ROOT
ATOM      1  C   UNL A   1      33.078  29.620  26.684  1.00  0.00     0.042 C 
ENDROOT
BRANCH   1   2
ATOM      2  C   UNL A   1      33.010  29.664  25.161  1.00  0.00     0.118 C 
BRANCH   2   3
ATOM      3  N   UNL A   1      31.710  30.108  24.673  1.00  0.00    -0.352 N 
ATOM      4  C   UNL A   1      30.734  29.369  24.063  1.00  0.00     0.244 C 
ATOM      5  O   UNL A   1      29.629  29.834  23.809  1.00  0.00    -0.270 OA
ATOM      6  H   UNL A   1      31.507  31.063  24.799  1.00  0.00     0.163 HD
BRANCH   4   7
ATOM      7  C   UNL A   1      31.035  27.953  23.764  1.00  0.00     0.072 C 
ATOM      8  C   UNL A   1      30.940  27.040  24.740  1.00  0.00     0.014 C 
BRANCH   8   9
ATOM      9  C   UNL A   1      31.117  25.593  24.531  1.00  0.00    -0.022 A 
ATOM     10  C   UNL A   1      32.780  25.495  26.443  1.00  0.00     0.046 C 
ATOM     11  C   UNL A   1      32.001  24.828  25.339  1.00  0.00    -0.031 A 
ATOM     12  C   UNL A   1      32.131  23.442  25.086  1.00  0.00     0.043 A 
ATOM     13  C   UNL A   1      30.452  24.983  23.456  1.00  0.00     0.008 A 
ATOM     14  C   UNL A   1      31.446  22.858  24.008  1.00  0.00     0.014 A 
ATOM     15  C   UNL A   1      30.614  23.624  23.196  1.00  0.00     0.001 A 
BRANCH  12  16
ATOM     16  C   UNL A   1      33.196  22.611  25.710  1.00  0.00     0.254 C 
ATOM     17  O   UNL A   1      32.837  21.817  26.582  1.00  0.00    -0.269 OA
BRANCH  16  18
ATOM     18  N   UNL A   1      34.505  22.666  25.268  1.00  0.00    -0.338 N 
ATOM     19  C   UNL A   1      35.486  23.364  26.074  1.00  0.00     0.123 C 
ATOM     20  C   UNL A   1      35.082  22.176  24.023  1.00  0.00     0.123 C 
ATOM     21  C   UNL A   1      36.700  23.551  25.176  1.00  0.00     0.010 C 
ATOM     22  C   UNL A   1      36.601  22.386  24.167  1.00  0.00     0.010 C 
ATOM     23  C   UNL A   1      37.986  23.652  25.986  1.00  0.00     0.010 C 
ATOM     24  C   UNL A   1      37.317  21.103  24.588  1.00  0.00     0.010 C 
ENDBRANCH  16  18
ENDBRANCH  12  16
ENDBRANCH   8   9
ENDBRANCH   4   7
ENDBRANCH   2   3
ENDBRANCH   1   2
BRANCH   1  25
ATOM     25  C   UNL A   1      34.495  29.515  27.224  1.00  0.00     0.118 C 
BRANCH  25  26
ATOM     26  N   UNL A   1      35.090  30.810  27.544  1.00  0.00    -0.352 N 
ATOM     27  C   UNL A   1      36.331  31.078  28.107  1.00  0.00     0.251 C 
ATOM     28  H   UNL A   1      34.538  31.597  27.331  1.00  0.00     0.163 HD
ATOM     29  O   UNL A   1      36.649  32.211  28.393  1.00  0.00    -0.269 OA
BRANCH  27  30
ATOM     30  C   UNL A   1      37.259  29.937  28.302  1.00  0.00     0.039 A 
ATOM     31  C   UNL A   1      37.235  29.241  29.515  1.00  0.00     0.014 A 
ATOM     32  C   UNL A   1      38.263  29.704  27.370  1.00  0.00     0.014 A 
ATOM     33  C   UNL A   1      38.327  28.445  29.873  1.00  0.00     0.010 A 
ATOM     34  C   UNL A   1      39.383  29.008  27.769  1.00  0.00     0.010 A 
ATOM     35  C   UNL A   1      39.437  28.398  29.034  1.00  0.00    -0.014 A 
BRANCH  35  36
ATOM     36  C   UNL A   1      40.735  27.806  29.359  1.00  0.00     0.031 A 
ATOM     37  C   UNL A   1      41.065  26.438  28.878  1.00  0.00     0.074 A 
ATOM     38  C   UNL A   1      41.719  28.574  29.874  1.00  0.00     0.049 A 
ATOM     39  N   UNL A   1      42.173  25.817  29.103  1.00  0.00    -0.248 NA
ATOM     40  C   UNL A   1      40.109  25.630  28.130  1.00  0.00     0.031 C 
ATOM     41  C   UNL A   1      43.157  28.363  29.728  1.00  0.00     0.029 A 
ATOM     42  N   UNL A   1      41.620  29.602  30.804  1.00  0.00    -0.354 N 
ATOM     43  C   UNL A   1      42.193  24.665  28.348  1.00  0.00     0.074 A 
ATOM     44  C   UNL A   1      40.855  24.568  27.815  1.00  0.00     0.031 C 
ATOM     45  C   UNL A   1      43.804  29.066  30.667  1.00  0.00     0.029 A 
ATOM     46  C   UNL A   1      42.805  29.605  31.569  1.00  0.00     0.049 A 
ATOM     47  H   UNL A   1      40.860  30.218  30.910  1.00  0.00     0.167 HD
ATOM     48  C   UNL A   1      43.373  23.991  28.200  1.00  0.00     0.037 A 
ATOM     49  C   UNL A   1      42.776  29.365  32.916  1.00  0.00     0.037 A 
ATOM     50  C   UNL A   1      44.389  24.516  29.118  1.00  0.00     0.049 A 
ATOM     51  C   UNL A   1      43.498  28.109  33.366  1.00  0.00     0.074 A 
ATOM     52  C   UNL A   1      45.469  25.377  29.009  1.00  0.00     0.029 A 
ATOM     53  N   UNL A   1      44.204  24.310  30.472  1.00  0.00    -0.354 N 
ATOM     54  N   UNL A   1      44.128  27.291  32.572  1.00  0.00    -0.248 NA
ATOM     55  C   UNL A   1      43.482  27.632  34.753  1.00  0.00     0.031 C 
ATOM     56  C   UNL A   1      45.900  25.715  30.327  1.00  0.00     0.029 A 
ATOM     57  C   UNL A   1      45.086  25.054  31.229  1.00  0.00     0.049 A 
ATOM     58  H   UNL A   1      43.525  23.706  30.851  1.00  0.00     0.167 HD
ATOM     59  C   UNL A   1      44.463  26.160  33.269  1.00  0.00     0.074 A 
ATOM     60  C   UNL A   1      44.090  26.439  34.641  1.00  0.00     0.031 C 
ATOM     61  C   UNL A   1      44.945  25.035  32.674  1.00  0.00     0.037 A 
BRANCH  48  62
ATOM     62  C   UNL A   1      43.700  22.950  27.137  1.00  0.00     0.058 A 
ATOM     63  C   UNL A   1      42.947  21.753  27.061  1.00  0.00     0.135 A 
ATOM     64  C   UNL A   1      44.767  23.009  26.218  1.00  0.00     0.135 A 
ATOM     65  F   UNL A   1      41.856  21.561  27.815  1.00  0.00    -0.206 F 
ATOM     66  C   UNL A   1      43.279  20.686  26.219  1.00  0.00     0.059 A 
ATOM     67  C   UNL A   1      45.134  21.948  25.386  1.00  0.00     0.059 A 
ATOM     68  F   UNL A   1      45.501  24.106  26.038  1.00  0.00    -0.206 F 
ATOM     69  C   UNL A   1      44.397  20.780  25.406  1.00  0.00     0.060 A 
BRANCH  69  70
ATOM     70  S   UNL A   1      44.874  19.377  24.384  1.00  0.00     0.124 S 
ATOM     71  O   UNL A   1      46.323  19.356  24.558  1.00  0.00    -0.237 OA
ATOM     72  O   UNL A   1      44.141  18.280  25.005  1.00  0.00    -0.237 OA
ATOM     73  O   UNL A   1      44.416  19.756  23.050  1.00  0.00    -0.744 OA
ENDBRANCH  69  70
ENDBRANCH  48  62
BRANCH  49  74
ATOM     74  C   UNL A   1      41.548  29.907  33.557  1.00  0.00     0.058 A 
ATOM     75  C   UNL A   1      41.473  31.301  33.734  1.00  0.00     0.135 A 
ATOM     76  C   UNL A   1      40.348  29.181  33.517  1.00  0.00     0.135 A 
ATOM     77  F   UNL A   1      42.599  32.033  33.799  1.00  0.00    -0.206 F 
ATOM     78  C   UNL A   1      40.261  31.971  33.661  1.00  0.00     0.059 A 
ATOM     79  C   UNL A   1      39.120  29.833  33.457  1.00  0.00     0.059 A 
ATOM     80  F   UNL A   1      40.368  27.848  33.364  1.00  0.00    -0.206 F 
ATOM     81  C   UNL A   1      39.101  31.229  33.442  1.00  0.00     0.060 A 
BRANCH  81  82
ATOM     82  S   UNL A   1      37.632  32.124  32.886  1.00  0.00     0.124 S 
ATOM     83  O   UNL A   1      36.621  31.074  32.875  1.00  0.00    -0.237 OA
ATOM     84  O   UNL A   1      37.493  33.129  33.937  1.00  0.00    -0.237 OA
ATOM     85  O   UNL A   1      38.027  32.638  31.579  1.00  0.00    -0.744 OA
ENDBRANCH  81  82
ENDBRANCH  49  74
BRANCH  61  86
ATOM     86  C   UNL A   1      45.280  23.797  33.444  1.00  0.00     0.058 A 
ATOM     87  C   UNL A   1      44.309  22.827  33.730  1.00  0.00     0.135 A 
ATOM     88  C   UNL A   1      46.549  23.620  34.030  1.00  0.00     0.135 A 
ATOM     89  F   UNL A   1      43.074  22.927  33.213  1.00  0.00    -0.206 F 
ATOM     90  C   UNL A   1      44.578  21.740  34.561  1.00  0.00     0.059 A 
ATOM     91  C   UNL A   1      46.830  22.565  34.893  1.00  0.00     0.059 A 
ATOM     92  F   UNL A   1      47.557  24.464  33.760  1.00  0.00    -0.206 F 
ATOM     93  C   UNL A   1      45.839  21.623  35.146  1.00  0.00     0.060 A 
BRANCH  93  94
ATOM     94  S   UNL A   1      46.174  20.256  36.276  1.00  0.00     0.124 S 
ATOM     95  O   UNL A   1      47.612  20.051  36.118  1.00  0.00    -0.237 OA
ATOM     96  O   UNL A   1      45.755  20.826  37.552  1.00  0.00    -0.237 OA
ATOM     97  O   UNL A   1      45.334  19.181  35.758  1.00  0.00    -0.744 OA
ENDBRANCH  93  94
ENDBRANCH  61  86
ENDBRANCH  35  36
ENDBRANCH  27  30
ENDBRANCH  25  26
ENDBRANCH   1  25
TORSDOF 16
ENDMDL
MODEL 2
REMARK VINA RESULT:     -14.0      4.603     11.274
REMARK SMILES Cc1c(/C=C/C(=O)NCCCNC(=O)c2ccc(-c3c4nc(c(-c5c(F)cc(S(=O)(=O)[O-])cc5F)c5ccc([nH]5)c(-c5c(F)cc(S(=O)(=O)[O-])cc5F)c5nc(c(-c6c(F)cc(S(=O)(=O)[O-])cc6F)c6ccc3[nH]6)C=C5)C=C4)cc2)cccc1C(=O)N1C[C@@H](C)[C@@H](C)C1
REMARK SMILES IDX 10 1 9 2 8 3 6 4 7 5 5 7 4 8 3 9 1 10 2 11 84 12 81 13 83 14
REMARK SMILES IDX 82 15 85 16 86 17 87 18 88 19 93 20 89 21 91 22 90 23 92 24
REMARK SMILES IDX 11 25 12 26 13 27 14 29 15 30 16 31 80 32 17 33 79 34 18 35
REMARK SMILES IDX 19 36 20 37 73 38 21 39 78 40 72 41 74 42 22 43 77 44 71 45
REMARK SMILES IDX 70 46 23 48 57 49 36 50 56 51 37 52 40 53 55 54 75 55 38 56
REMARK SMILES IDX 39 57 54 59 76 60 41 61 24 62 25 63 34 64 26 65 27 66 33 67
REMARK SMILES IDX 35 68 28 69 29 70 30 71 31 72 32 73 58 74 59 75 68 76 60 77
REMARK SMILES IDX 61 78 67 79 69 80 62 81 63 82 64 83 65 84 66 85 42 86 43 87
REMARK SMILES IDX 52 88 44 89 45 90 51 91 53 92 46 93 47 94 48 95 49 96 50 97
REMARK H PARENT 8 6 12 28 74 47 40 58
REMARK Flexibility Score: inf
ROOT
ATOM      1  C   UNL A   1      36.638  22.463  25.899  1.00  0.00     0.042 C 
ENDROOT
BRANCH   1   2
ATOM      2  C   UNL A   1      36.488  21.405  24.810  1.00  0.00     0.118 C 
BRANCH   2   3
ATOM      3  N   UNL A   1      35.581  20.331  25.196  1.00  0.00    -0.352 N 
ATOM      4  C   UNL A   1      34.252  20.196  24.904  1.00  0.00     0.244 C 
ATOM      5  O   UNL A   1      33.625  19.180  25.183  1.00  0.00    -0.270 OA
ATOM      6  H   UNL A   1      35.977  19.609  25.736  1.00  0.00     0.163 HD
BRANCH   4   7
ATOM      7  C   UNL A   1      33.594  21.304  24.182  1.00  0.00     0.072 C 
ATOM      8  C   UNL A   1      33.035  22.304  24.877  1.00  0.00     0.014 C 
BRANCH   8   9
ATOM      9  C   UNL A   1      32.445  23.504  24.261  1.00  0.00    -0.022 A 
ATOM     10  C   UNL A   1      34.579  24.804  24.692  1.00  0.00     0.046 C 
ATOM     11  C   UNL A   1      33.172  24.722  24.162  1.00  0.00    -0.031 A 
ATOM     12  C   UNL A   1      32.548  25.842  23.563  1.00  0.00     0.043 A 
ATOM     13  C   UNL A   1      31.109  23.454  23.836  1.00  0.00     0.008 A 
ATOM     14  C   UNL A   1      31.212  25.759  23.140  1.00  0.00     0.014 A 
ATOM     15  C   UNL A   1      30.496  24.573  23.278  1.00  0.00     0.001 A 
BRANCH  12  16
ATOM     16  C   UNL A   1      33.129  27.210  23.628  1.00  0.00     0.254 C 
ATOM     17  O   UNL A   1      33.691  27.621  22.611  1.00  0.00    -0.269 OA
BRANCH  16  18
ATOM     18  N   UNL A   1      32.964  28.010  24.744  1.00  0.00    -0.338 N 
ATOM     19  C   UNL A   1      32.286  29.282  24.599  1.00  0.00     0.123 C 
ATOM     20  C   UNL A   1      33.448  27.811  26.105  1.00  0.00     0.123 C 
ATOM     21  C   UNL A   1      32.576  30.054  25.878  1.00  0.00     0.010 C 
ATOM     22  C   UNL A   1      32.822  28.950  26.931  1.00  0.00     0.010 C 
ATOM     23  C   UNL A   1      31.477  31.064  26.184  1.00  0.00     0.010 C 
ATOM     24  C   UNL A   1      31.576  28.489  27.687  1.00  0.00     0.010 C 
ENDBRANCH  16  18
ENDBRANCH  12  16
ENDBRANCH   8   9
ENDBRANCH   4   7
ENDBRANCH   2   3
ENDBRANCH   1   2
BRANCH   1  25
ATOM     25  C   UNL A   1      37.870  23.337  25.730  1.00  0.00     0.118 C 
BRANCH  25  26
ATOM     26  N   UNL A   1      39.040  22.832  26.441  1.00  0.00    -0.352 N 
ATOM     27  C   UNL A   1      39.990  23.543  27.162  1.00  0.00     0.251 C 
ATOM     28  H   UNL A   1      39.173  21.856  26.406  1.00  0.00     0.163 HD
ATOM     29  O   UNL A   1      40.960  22.986  27.627  1.00  0.00    -0.269 OA
BRANCH  27  30
ATOM     30  C   UNL A   1      39.751  24.992  27.373  1.00  0.00     0.039 A 
ATOM     31  C   UNL A   1      40.327  25.912  26.491  1.00  0.00     0.014 A 
ATOM     32  C   UNL A   1      39.132  25.420  28.541  1.00  0.00     0.014 A 
ATOM     33  C   UNL A   1      40.448  27.251  26.876  1.00  0.00     0.010 A 
ATOM     34  C   UNL A   1      39.347  26.714  28.964  1.00  0.00     0.010 A 
ATOM     35  C   UNL A   1      40.033  27.631  28.150  1.00  0.00    -0.014 A 
BRANCH  35  36
ATOM     36  C   UNL A   1      40.291  28.923  28.787  1.00  0.00     0.031 A 
ATOM     37  C   UNL A   1      39.234  29.969  28.793  1.00  0.00     0.074 A 
ATOM     38  C   UNL A   1      41.375  29.083  29.576  1.00  0.00     0.049 A 
ATOM     39  N   UNL A   1      39.349  31.140  29.322  1.00  0.00    -0.248 NA
ATOM     40  C   UNL A   1      37.950  29.774  28.130  1.00  0.00     0.031 C 
ATOM     41  C   UNL A   1      41.507  30.007  30.699  1.00  0.00     0.029 A 
ATOM     42  N   UNL A   1      42.657  28.576  29.401  1.00  0.00    -0.354 N 
ATOM     43  C   UNL A   1      38.116  31.755  29.302  1.00  0.00     0.074 A 
ATOM     44  C   UNL A   1      37.301  30.886  28.488  1.00  0.00     0.031 C 
ATOM     45  C   UNL A   1      42.806  30.170  30.986  1.00  0.00     0.029 A 
ATOM     46  C   UNL A   1      43.565  29.509  29.943  1.00  0.00     0.049 A 
ATOM     47  H   UNL A   1      42.890  27.720  28.975  1.00  0.00     0.167 HD
ATOM     48  C   UNL A   1      37.925  32.878  30.057  1.00  0.00     0.037 A 
ATOM     49  C   UNL A   1      44.491  30.134  29.152  1.00  0.00     0.037 A 
ATOM     50  C   UNL A   1      39.201  33.376  30.578  1.00  0.00     0.049 A 
ATOM     51  C   UNL A   1      44.334  31.638  29.035  1.00  0.00     0.074 A 
ATOM     52  C   UNL A   1      39.867  33.308  31.791  1.00  0.00     0.029 A 
ATOM     53  N   UNL A   1      40.112  33.890  29.674  1.00  0.00    -0.354 N 
ATOM     54  N   UNL A   1      43.411  32.336  29.634  1.00  0.00    -0.248 NA
ATOM     55  C   UNL A   1      45.163  32.461  28.149  1.00  0.00     0.031 C 
ATOM     56  C   UNL A   1      41.208  33.751  31.585  1.00  0.00     0.029 A 
ATOM     57  C   UNL A   1      41.348  34.093  30.252  1.00  0.00     0.049 A 
ATOM     58  H   UNL A   1      39.904  34.087  28.732  1.00  0.00     0.167 HD
ATOM     59  C   UNL A   1      43.420  33.611  29.134  1.00  0.00     0.074 A 
ATOM     60  C   UNL A   1      44.566  33.661  28.249  1.00  0.00     0.031 C 
ATOM     61  C   UNL A   1      42.446  34.523  29.404  1.00  0.00     0.037 A 
BRANCH  48  62
ATOM     62  C   UNL A   1      36.588  33.479  30.472  1.00  0.00     0.058 A 
ATOM     63  C   UNL A   1      35.703  33.988  29.491  1.00  0.00     0.135 A 
ATOM     64  C   UNL A   1      36.135  33.662  31.795  1.00  0.00     0.135 A 
ATOM     65  F   UNL A   1      35.945  33.838  28.181  1.00  0.00    -0.206 F 
ATOM     66  C   UNL A   1      34.532  34.690  29.799  1.00  0.00     0.059 A 
ATOM     67  C   UNL A   1      34.985  34.380  32.129  1.00  0.00     0.059 A 
ATOM     68  F   UNL A   1      36.755  33.128  32.846  1.00  0.00    -0.206 F 
ATOM     69  C   UNL A   1      34.197  34.910  31.126  1.00  0.00     0.060 A 
BRANCH  69  70
ATOM     70  S   UNL A   1      32.737  35.885  31.524  1.00  0.00     0.124 S 
ATOM     71  O   UNL A   1      33.320  37.039  32.201  1.00  0.00    -0.237 OA
ATOM     72  O   UNL A   1      32.166  36.139  30.207  1.00  0.00    -0.237 OA
ATOM     73  O   UNL A   1      31.956  34.994  32.380  1.00  0.00    -0.744 OA
ENDBRANCH  69  70
ENDBRANCH  48  62
BRANCH  49  74
ATOM     74  C   UNL A   1      44.988  29.251  28.063  1.00  0.00     0.058 A 
ATOM     75  C   UNL A   1      45.973  28.304  28.398  1.00  0.00     0.135 A 
ATOM     76  C   UNL A   1      44.196  29.007  26.931  1.00  0.00     0.135 A 
ATOM     77  F   UNL A   1      46.769  28.508  29.462  1.00  0.00    -0.206 F 
ATOM     78  C   UNL A   1      46.030  27.070  27.766  1.00  0.00     0.059 A 
ATOM     79  C   UNL A   1      44.246  27.781  26.274  1.00  0.00     0.059 A 
ATOM     80  F   UNL A   1      43.252  29.887  26.563  1.00  0.00    -0.206 F 
ATOM     81  C   UNL A   1      45.106  26.794  26.759  1.00  0.00     0.060 A 
BRANCH  81  82
ATOM     82  S   UNL A   1      44.882  25.064  26.286  1.00  0.00     0.124 S 
ATOM     83  O   UNL A   1      46.018  24.420  26.933  1.00  0.00    -0.237 OA
ATOM     84  O   UNL A   1      43.573  24.775  26.867  1.00  0.00    -0.237 OA
ATOM     85  O   UNL A   1      44.923  25.106  24.828  1.00  0.00    -0.744 OA
ENDBRANCH  81  82
ENDBRANCH  49  74
BRANCH  61  86
ATOM     86  C   UNL A   1      42.454  35.904  28.829  1.00  0.00     0.058 A 
ATOM     87  C   UNL A   1      41.912  36.173  27.564  1.00  0.00     0.135 A 
ATOM     88  C   UNL A   1      43.126  36.962  29.472  1.00  0.00     0.135 A 
ATOM     89  F   UNL A   1      41.260  35.216  26.885  1.00  0.00    -0.206 F 
ATOM     90  C   UNL A   1      42.035  37.425  26.963  1.00  0.00     0.059 A 
ATOM     91  C   UNL A   1      43.296  38.208  28.876  1.00  0.00     0.059 A 
ATOM     92  F   UNL A   1      43.620  36.813  30.711  1.00  0.00    -0.206 F 
ATOM     93  C   UNL A   1      42.738  38.433  27.623  1.00  0.00     0.060 A 
BRANCH  93  94
ATOM     94  S   UNL A   1      42.961  40.035  26.822  1.00  0.00     0.124 S 
ATOM     95  O   UNL A   1      44.119  39.809  25.961  1.00  0.00    -0.237 OA
ATOM     96  O   UNL A   1      41.685  40.194  26.133  1.00  0.00    -0.237 OA
ATOM     97  O   UNL A   1      43.190  40.940  27.944  1.00  0.00    -0.744 OA
ENDBRANCH  93  94
ENDBRANCH  61  86
ENDBRANCH  35  36
ENDBRANCH  27  30
ENDBRANCH  25  26
ENDBRANCH   1  25
TORSDOF 16
ENDMDL
MODEL 3
REMARK VINA RESULT:     -13.9      1.597      2.494
REMARK SMILES Cc1c(/C=C/C(=O)NCCCNC(=O)c2ccc(-c3c4nc(c(-c5c(F)cc(S(=O)(=O)[O-])cc5F)c5ccc([nH]5)c(-c5c(F)cc(S(=O)(=O)[O-])cc5F)c5nc(c(-c6c(F)cc(S(=O)(=O)[O-])cc6F)c6ccc3[nH]6)C=C5)C=C4)cc2)cccc1C(=O)N1C[C@@H](C)[C@@H](C)C1
REMARK SMILES IDX 10 1 9 2 8 3 6 4 7 5 5 7 4 8 3 9 1 10 2 11 84 12 81 13 83 14
REMARK SMILES IDX 82 15 85 16 86 17 87 18 88 19 93 20 89 21 91 22 90 23 92 24
REMARK SMILES IDX 11 25 12 26 13 27 14 29 15 30 16 31 80 32 17 33 79 34 18 35
REMARK SMILES IDX 19 36 20 37 73 38 21 39 78 40 72 41 74 42 22 43 77 44 71 45
REMARK SMILES IDX 70 46 23 48 57 49 36 50 56 51 37 52 40 53 55 54 75 55 38 56
REMARK SMILES IDX 39 57 54 59 76 60 41 61 24 62 25 63 34 64 26 65 27 66 33 67
REMARK SMILES IDX 35 68 28 69 29 70 30 71 31 72 32 73 58 74 59 75 68 76 60 77
REMARK SMILES IDX 61 78 67 79 69 80 62 81 63 82 64 83 65 84 66 85 42 86 43 87
REMARK SMILES IDX 52 88 44 89 45 90 51 91 53 92 46 93 47 94 48 95 49 96 50 97
REMARK H PARENT 8 6 12 28 74 47 40 58
REMARK Flexibility Score: inf
ROOT
ATOM      1  C   UNL A   1      32.872  29.717  26.085  1.00  0.00     0.042 C 
ENDROOT
BRANCH   1   2
ATOM      2  C   UNL A   1      32.353  28.387  25.549  1.00  0.00     0.118 C 
BRANCH   2   3
ATOM      3  N   UNL A   1      32.565  28.242  24.114  1.00  0.00    -0.352 N 
ATOM      4  C   UNL A   1      32.782  27.097  23.398  1.00  0.00     0.244 C 
ATOM      5  O   UNL A   1      32.823  27.094  22.174  1.00  0.00    -0.270 OA
ATOM      6  H   UNL A   1      32.549  29.077  23.591  1.00  0.00     0.163 HD
BRANCH   4   7
ATOM      7  C   UNL A   1      32.913  25.834  24.153  1.00  0.00     0.072 C 
ATOM      8  C   UNL A   1      34.132  25.324  24.379  1.00  0.00     0.014 C 
BRANCH   8   9
ATOM      9  C   UNL A   1      34.383  24.130  25.203  1.00  0.00    -0.022 A 
ATOM     10  C   UNL A   1      35.612  23.029  23.278  1.00  0.00     0.046 C 
ATOM     11  C   UNL A   1      35.094  23.011  24.692  1.00  0.00    -0.031 A 
ATOM     12  C   UNL A   1      35.299  21.890  25.531  1.00  0.00     0.043 A 
ATOM     13  C   UNL A   1      33.836  24.077  26.494  1.00  0.00     0.008 A 
ATOM     14  C   UNL A   1      34.747  21.870  26.822  1.00  0.00     0.014 A 
ATOM     15  C   UNL A   1      34.017  22.955  27.300  1.00  0.00     0.001 A 
BRANCH  12  16
ATOM     16  C   UNL A   1      35.814  20.591  25.021  1.00  0.00     0.254 C 
ATOM     17  O   UNL A   1      37.038  20.473  24.945  1.00  0.00    -0.269 OA
BRANCH  16  18
ATOM     18  N   UNL A   1      34.961  19.541  24.734  1.00  0.00    -0.338 N 
ATOM     19  C   UNL A   1      35.501  18.199  24.673  1.00  0.00     0.123 C 
ATOM     20  C   UNL A   1      33.544  19.567  24.393  1.00  0.00     0.123 C 
ATOM     21  C   UNL A   1      34.427  17.351  24.006  1.00  0.00     0.010 C 
ATOM     22  C   UNL A   1      33.111  18.090  24.337  1.00  0.00     0.010 C 
ATOM     23  C   UNL A   1      34.521  15.891  24.432  1.00  0.00     0.010 C 
ATOM     24  C   UNL A   1      32.427  17.646  25.628  1.00  0.00     0.010 C 
ENDBRANCH  16  18
ENDBRANCH  12  16
ENDBRANCH   8   9
ENDBRANCH   4   7
ENDBRANCH   2   3
ENDBRANCH   1   2
BRANCH   1  25
ATOM     25  C   UNL A   1      34.213  29.604  26.791  1.00  0.00     0.118 C 
BRANCH  25  26
ATOM     26  N   UNL A   1      34.737  30.889  27.247  1.00  0.00    -0.352 N 
ATOM     27  C   UNL A   1      35.902  31.147  27.956  1.00  0.00     0.251 C 
ATOM     28  H   UNL A   1      34.191  31.676  27.021  1.00  0.00     0.163 HD
ATOM     29  O   UNL A   1      36.158  32.267  28.340  1.00  0.00    -0.269 OA
BRANCH  27  30
ATOM     30  C   UNL A   1      36.832  30.015  28.187  1.00  0.00     0.039 A 
ATOM     31  C   UNL A   1      36.810  29.356  29.420  1.00  0.00     0.014 A 
ATOM     32  C   UNL A   1      37.837  29.756  27.262  1.00  0.00     0.014 A 
ATOM     33  C   UNL A   1      37.905  28.574  29.802  1.00  0.00     0.010 A 
ATOM     34  C   UNL A   1      38.959  29.075  27.681  1.00  0.00     0.010 A 
ATOM     35  C   UNL A   1      39.015  28.504  28.964  1.00  0.00    -0.014 A 
BRANCH  35  36
ATOM     36  C   UNL A   1      40.314  27.925  29.306  1.00  0.00     0.031 A 
ATOM     37  C   UNL A   1      40.640  26.537  28.882  1.00  0.00     0.074 A 
ATOM     38  C   UNL A   1      41.302  28.713  29.783  1.00  0.00     0.049 A 
ATOM     39  N   UNL A   1      41.750  25.926  29.127  1.00  0.00    -0.248 NA
ATOM     40  C   UNL A   1      39.680  25.700  28.174  1.00  0.00     0.031 C 
ATOM     41  C   UNL A   1      42.738  28.495  29.637  1.00  0.00     0.029 A 
ATOM     42  N   UNL A   1      41.209  29.780  30.669  1.00  0.00    -0.354 N 
ATOM     43  C   UNL A   1      41.764  24.742  28.421  1.00  0.00     0.074 A 
ATOM     44  C   UNL A   1      40.423  24.624  27.901  1.00  0.00     0.031 C 
ATOM     45  C   UNL A   1      43.392  29.236  30.542  1.00  0.00     0.029 A 
ATOM     46  C   UNL A   1      42.398  29.814  31.426  1.00  0.00     0.049 A 
ATOM     47  H   UNL A   1      40.449  30.400  30.753  1.00  0.00     0.167 HD
ATOM     48  C   UNL A   1      42.943  24.062  28.295  1.00  0.00     0.037 A 
ATOM     49  C   UNL A   1      42.376  29.631  32.782  1.00  0.00     0.037 A 
ATOM     50  C   UNL A   1      43.964  24.625  29.184  1.00  0.00     0.049 A 
ATOM     51  C   UNL A   1      43.100  28.395  33.281  1.00  0.00     0.074 A 
ATOM     52  C   UNL A   1      45.044  25.479  29.032  1.00  0.00     0.029 A 
ATOM     53  N   UNL A   1      43.787  24.476  30.547  1.00  0.00    -0.354 N 
ATOM     54  N   UNL A   1      43.726  27.543  32.519  1.00  0.00    -0.248 NA
ATOM     55  C   UNL A   1      43.092  27.978  34.686  1.00  0.00     0.031 C 
ATOM     56  C   UNL A   1      45.483  25.872  30.332  1.00  0.00     0.029 A 
ATOM     57  C   UNL A   1      44.674  25.251  31.266  1.00  0.00     0.049 A 
ATOM     58  H   UNL A   1      43.110  23.889  30.955  1.00  0.00     0.167 HD
ATOM     59  C   UNL A   1      44.064  26.443  33.261  1.00  0.00     0.074 A 
ATOM     60  C   UNL A   1      43.698  26.780  34.622  1.00  0.00     0.031 C 
ATOM     61  C   UNL A   1      44.541  25.293  32.711  1.00  0.00     0.037 A 
BRANCH  48  62
ATOM     62  C   UNL A   1      43.263  22.976  27.276  1.00  0.00     0.058 A 
ATOM     63  C   UNL A   1      42.551  21.753  27.295  1.00  0.00     0.135 A 
ATOM     64  C   UNL A   1      44.288  23.022  26.309  1.00  0.00     0.135 A 
ATOM     65  F   UNL A   1      41.500  21.565  28.105  1.00  0.00    -0.206 F 
ATOM     66  C   UNL A   1      42.886  20.653  26.497  1.00  0.00     0.059 A 
ATOM     67  C   UNL A   1      44.658  21.931  25.519  1.00  0.00     0.059 A 
ATOM     68  F   UNL A   1      44.974  24.131  26.040  1.00  0.00    -0.206 F 
ATOM     69  C   UNL A   1      43.965  20.741  25.632  1.00  0.00     0.060 A 
BRANCH  69  70
ATOM     70  S   UNL A   1      44.450  19.301  24.667  1.00  0.00     0.124 S 
ATOM     71  O   UNL A   1      44.418  19.826  23.305  1.00  0.00    -0.237 OA
ATOM     72  O   UNL A   1      45.772  19.000  25.203  1.00  0.00    -0.237 OA
ATOM     73  O   UNL A   1      43.414  18.319  24.975  1.00  0.00    -0.744 OA
ENDBRANCH  69  70
ENDBRANCH  48  62
BRANCH  49  74
ATOM     74  C   UNL A   1      41.152  30.201  33.407  1.00  0.00     0.058 A 
ATOM     75  C   UNL A   1      41.090  31.600  33.546  1.00  0.00     0.135 A 
ATOM     76  C   UNL A   1      39.947  29.485  33.385  1.00  0.00     0.135 A 
ATOM     77  F   UNL A   1      42.222  32.323  33.594  1.00  0.00    -0.206 F 
ATOM     78  C   UNL A   1      39.884  32.279  33.454  1.00  0.00     0.059 A 
ATOM     79  C   UNL A   1      38.724  30.147  33.305  1.00  0.00     0.059 A 
ATOM     80  F   UNL A   1      39.954  28.149  33.267  1.00  0.00    -0.206 F 
ATOM     81  C   UNL A   1      38.717  31.541  33.253  1.00  0.00     0.060 A 
BRANCH  81  82
ATOM     82  S   UNL A   1      37.258  32.434  32.671  1.00  0.00     0.124 S 
ATOM     83  O   UNL A   1      36.959  33.302  33.803  1.00  0.00    -0.237 OA
ATOM     84  O   UNL A   1      37.784  33.100  31.482  1.00  0.00    -0.237 OA
ATOM     85  O   UNL A   1      36.292  31.370  32.415  1.00  0.00    -0.744 OA
ENDBRANCH  81  82
ENDBRANCH  49  74
BRANCH  61  86
ATOM     86  C   UNL A   1      44.880  24.089  33.532  1.00  0.00     0.058 A 
ATOM     87  C   UNL A   1      46.209  23.755  33.828  1.00  0.00     0.135 A 
ATOM     88  C   UNL A   1      43.889  23.168  33.925  1.00  0.00     0.135 A 
ATOM     89  F   UNL A   1      47.211  24.579  33.482  1.00  0.00    -0.206 F 
ATOM     90  C   UNL A   1      46.541  22.565  34.474  1.00  0.00     0.059 A 
ATOM     91  C   UNL A   1      44.199  21.957  34.536  1.00  0.00     0.059 A 
ATOM     92  F   UNL A   1      42.587  23.435  33.740  1.00  0.00    -0.206 F 
ATOM     93  C   UNL A   1      45.529  21.667  34.815  1.00  0.00     0.060 A 
BRANCH  93  94
ATOM     94  S   UNL A   1      45.957  20.095  35.591  1.00  0.00     0.124 S 
ATOM     95  O   UNL A   1      47.308  19.846  35.096  1.00  0.00    -0.237 OA
ATOM     96  O   UNL A   1      45.857  20.434  37.007  1.00  0.00    -0.237 OA
ATOM     97  O   UNL A   1      44.934  19.184  35.086  1.00  0.00    -0.744 OA
ENDBRANCH  93  94
ENDBRANCH  61  86
ENDBRANCH  35  36
ENDBRANCH  27  30
ENDBRANCH  25  26
ENDBRANCH   1  25
TORSDOF 16
ENDMDL
