MODEL 1
REMARK VINA RESULT:     -12.0      0.000      0.000
REMARK SMILES Cc1ccccc1C(=O)Nc1ccc(N2CCC(n3c(C)nc4cccnc43)CC2)c(C(=O)NCCCNC(=O)c2ccc(-c3c4nc(c(-c5c(F)cc(S(=O)(=O)[O-])cc5F)c5ccc([nH]5)c(-c5c(F)cc(S(=O)(=O)[O-])cc5F)c5nc(c(-c6c(F)cc(S(=O)(=O)[O-])cc6F)c6ccc3[nH]6)C=C5)C=C4)cc2)c1
REMARK SMILES IDX 36 1 35 2 34 3 32 4 33 5 31 7 11 8 12 9 107 10 13 11 14 12
REMARK SMILES IDX 10 13 8 14 9 15 7 17 1 18 2 19 3 20 4 21 6 22 5 23 15 24
REMARK SMILES IDX 16 25 30 26 17 27 29 28 18 29 19 30 20 31 28 32 21 33 22 34
REMARK SMILES IDX 23 35 27 36 24 37 26 38 25 39 37 40 38 41 39 42 40 44 41 45
REMARK SMILES IDX 42 46 106 47 43 48 105 49 44 50 45 51 46 52 99 53 47 54
REMARK SMILES IDX 104 55 98 56 100 57 48 58 103 59 97 60 96 61 49 63 83 64
REMARK SMILES IDX 62 65 82 66 63 67 66 68 81 69 101 70 64 71 65 72 80 74
REMARK SMILES IDX 102 75 67 76 50 77 51 78 60 79 52 80 53 81 59 82 61 83 54 84
REMARK SMILES IDX 55 85 56 86 57 87 58 88 84 89 85 90 94 91 86 92 87 93 93 94
REMARK SMILES IDX 95 95 88 96 89 97 90 98 91 99 92 100 68 101 69 102 78 103
REMARK SMILES IDX 70 104 71 105 77 106 79 107 72 108 73 109 74 110 75 111
REMARK SMILES IDX 76 112
REMARK H PARENT 34 6 10 16 38 43 100 62 66 73
REMARK Flexibility Score: inf
ROOT
ATOM      1  C   UNL A   1      44.180  28.961  28.785  1.00  0.00     0.042 C 
ENDROOT
BRANCH   1   2
ATOM      2  C   UNL A   1      44.191  29.927  27.626  1.00  0.00     0.118 C 
BRANCH   2   3
ATOM      3  N   UNL A   1      43.394  29.487  26.498  1.00  0.00    -0.352 N 
ATOM      4  C   UNL A   1      42.134  29.033  26.246  1.00  0.00     0.253 C 
ATOM      5  O   UNL A   1      41.883  28.950  25.034  1.00  0.00    -0.269 OA
ATOM      6  H   UNL A   1      43.920  29.526  25.666  1.00  0.00     0.163 HD
BRANCH   4   7
ATOM      7  C   UNL A   1      41.058  28.597  27.204  1.00  0.00     0.065 A 
ATOM      8  C   UNL A   1      39.789  29.492  29.120  1.00  0.00     0.042 A 
ATOM      9  C   UNL A   1      39.151  28.282  29.290  1.00  0.00     0.028 A 
ATOM     10  C   UNL A   1      40.595  29.685  27.998  1.00  0.00     0.042 A 
ATOM     11  C   UNL A   1      39.515  27.214  28.473  1.00  0.00     0.029 A 
ATOM     12  C   UNL A   1      40.567  27.311  27.521  1.00  0.00     0.050 A 
BRANCH   8  13
ATOM     13  N   UNL A   1      39.795  30.500  30.094  1.00  0.00    -0.322 N 
ATOM     14  C   UNL A   1      38.908  31.541  30.288  1.00  0.00     0.255 C 
ATOM     15  O   UNL A   1      39.163  32.387  31.149  1.00  0.00    -0.269 OA
ATOM     16  H   UNL A   1      40.541  30.459  30.734  1.00  0.00     0.170 HD
BRANCH  14  17
ATOM     17  C   UNL A   1      37.614  31.670  29.547  1.00  0.00     0.043 A 
ATOM     18  C   UNL A   1      36.403  29.688  30.665  1.00  0.00     0.045 C 
ATOM     19  C   UNL A   1      36.497  30.821  29.686  1.00  0.00    -0.038 A 
ATOM     20  C   UNL A   1      35.362  31.047  28.880  1.00  0.00     0.004 A 
ATOM     21  C   UNL A   1      35.277  32.164  28.053  1.00  0.00     0.000 A 
ATOM     22  C   UNL A   1      37.493  32.817  28.741  1.00  0.00     0.014 A 
ATOM     23  C   UNL A   1      36.330  33.069  28.011  1.00  0.00     0.001 A 
ENDBRANCH  14  17
ENDBRANCH   8  13
BRANCH  12  24
ATOM     24  N   UNL A   1      41.170  26.094  27.204  1.00  0.00    -0.371 N 
ATOM     25  C   UNL A   1      41.050  25.578  25.846  1.00  0.00     0.118 C 
ATOM     26  C   UNL A   1      41.924  25.441  28.270  1.00  0.00     0.118 C 
ATOM     27  C   UNL A   1      41.292  24.084  25.746  1.00  0.00     0.047 C 
ATOM     28  C   UNL A   1      42.235  23.981  28.018  1.00  0.00     0.047 C 
ATOM     29  C   UNL A   1      42.508  23.610  26.563  1.00  0.00     0.094 C 
BRANCH  29  30
ATOM     30  N   UNL A   1      42.765  22.182  26.320  1.00  0.00    -0.310 N 
ATOM     31  C   UNL A   1      42.010  21.047  26.583  1.00  0.00     0.108 A 
ATOM     32  C   UNL A   1      43.936  21.738  25.740  1.00  0.00     0.160 A 
ATOM     33  C   UNL A   1      40.789  20.961  27.423  1.00  0.00     0.088 C 
ATOM     34  N   UNL A   1      42.548  19.975  26.022  1.00  0.00    -0.232 NA
ATOM     35  C   UNL A   1      43.772  20.374  25.573  1.00  0.00     0.108 A 
ATOM     36  N   UNL A   1      45.006  22.478  25.388  1.00  0.00    -0.237 NA
ATOM     37  C   UNL A   1      44.821  19.645  25.004  1.00  0.00     0.034 A 
ATOM     38  C   UNL A   1      46.021  21.722  24.903  1.00  0.00     0.113 A 
ATOM     39  C   UNL A   1      45.982  20.349  24.684  1.00  0.00     0.022 A 
ENDBRANCH  29  30
ENDBRANCH  12  24
ENDBRANCH   4   7
ENDBRANCH   2   3
ENDBRANCH   1   2
BRANCH   1  40
ATOM     40  C   UNL A   1      45.598  28.606  29.207  1.00  0.00     0.118 C 
BRANCH  40  41
ATOM     41  N   UNL A   1      46.573  28.299  28.160  1.00  0.00    -0.352 N 
ATOM     42  C   UNL A   1      47.316  27.118  28.065  1.00  0.00     0.251 C 
ATOM     43  H   UNL A   1      46.718  28.981  27.465  1.00  0.00     0.163 HD
ATOM     44  O   UNL A   1      48.215  26.943  27.267  1.00  0.00    -0.269 OA
BRANCH  42  45
ATOM     45  C   UNL A   1      46.958  26.045  29.016  1.00  0.00     0.039 A 
ATOM     46  C   UNL A   1      45.685  25.478  28.901  1.00  0.00     0.014 A 
ATOM     47  C   UNL A   1      47.672  26.009  30.206  1.00  0.00     0.014 A 
ATOM     48  C   UNL A   1      45.013  25.099  30.058  1.00  0.00     0.010 A 
ATOM     49  C   UNL A   1      46.954  25.760  31.357  1.00  0.00     0.010 A 
ATOM     50  C   UNL A   1      45.603  25.369  31.289  1.00  0.00    -0.014 A 
BRANCH  50  51
ATOM     51  C   UNL A   1      44.862  25.438  32.548  1.00  0.00     0.031 A 
ATOM     52  C   UNL A   1      44.355  26.749  33.026  1.00  0.00     0.074 A 
ATOM     53  C   UNL A   1      44.494  24.303  33.194  1.00  0.00     0.049 A 
ATOM     54  N   UNL A   1      43.812  26.935  34.180  1.00  0.00    -0.248 NA
ATOM     55  C   UNL A   1      44.475  27.993  32.258  1.00  0.00     0.031 C 
ATOM     56  C   UNL A   1      43.409  24.156  34.166  1.00  0.00     0.029 A 
ATOM     57  N   UNL A   1      45.166  23.077  33.253  1.00  0.00    -0.354 N 
ATOM     58  C   UNL A   1      43.228  28.175  34.167  1.00  0.00     0.074 A 
ATOM     59  C   UNL A   1      43.767  28.840  33.011  1.00  0.00     0.031 C 
ATOM     60  C   UNL A   1      43.612  23.048  34.892  1.00  0.00     0.029 A 
ATOM     61  C   UNL A   1      44.909  22.516  34.524  1.00  0.00     0.049 A 
ATOM     62  H   UNL A   1      45.716  22.678  32.541  1.00  0.00     0.167 HD
ATOM     63  C   UNL A   1      42.239  28.441  35.060  1.00  0.00     0.037 A 
ATOM     64  C   UNL A   1      45.920  22.279  35.414  1.00  0.00     0.037 A 
ATOM     65  C   UNL A   1      42.274  27.492  36.171  1.00  0.00     0.049 A 
ATOM     66  C   UNL A   1      45.860  23.112  36.675  1.00  0.00     0.074 A 
ATOM     67  C   UNL A   1      41.466  26.450  36.585  1.00  0.00     0.029 A 
ATOM     68  N   UNL A   1      43.450  27.394  36.914  1.00  0.00    -0.354 N 
ATOM     69  N   UNL A   1      44.990  24.062  36.888  1.00  0.00    -0.248 NA
ATOM     70  C   UNL A   1      46.798  22.971  37.788  1.00  0.00     0.031 C 
ATOM     71  C   UNL A   1      42.231  25.640  37.475  1.00  0.00     0.029 A 
ATOM     72  C   UNL A   1      43.476  26.225  37.646  1.00  0.00     0.049 A 
ATOM     73  H   UNL A   1      44.166  28.069  36.915  1.00  0.00     0.167 HD
ATOM     74  C   UNL A   1      45.303  24.727  38.045  1.00  0.00     0.074 A 
ATOM     75  C   UNL A   1      46.401  23.963  38.605  1.00  0.00     0.031 C 
ATOM     76  C   UNL A   1      44.666  25.878  38.418  1.00  0.00     0.037 A 
BRANCH  63  77
ATOM     77  C   UNL A   1      41.143  29.458  34.831  1.00  0.00     0.058 A 
ATOM     78  C   UNL A   1      40.972  30.538  35.720  1.00  0.00     0.135 A 
ATOM     79  C   UNL A   1      40.138  29.341  33.841  1.00  0.00     0.135 A 
ATOM     80  F   UNL A   1      41.830  30.741  36.730  1.00  0.00    -0.206 F 
ATOM     81  C   UNL A   1      39.895  31.431  35.631  1.00  0.00     0.059 A 
ATOM     82  C   UNL A   1      39.088  30.249  33.699  1.00  0.00     0.059 A 
ATOM     83  F   UNL A   1      40.078  28.297  33.005  1.00  0.00    -0.206 F 
ATOM     84  C   UNL A   1      38.958  31.279  34.614  1.00  0.00     0.060 A 
BRANCH  84  85
ATOM     85  S   UNL A   1      37.553  32.404  34.509  1.00  0.00     0.124 S 
ATOM     86  O   UNL A   1      37.037  32.366  35.873  1.00  0.00    -0.237 OA
ATOM     87  O   UNL A   1      38.179  33.655  34.097  1.00  0.00    -0.237 OA
ATOM     88  O   UNL A   1      36.696  31.781  33.502  1.00  0.00    -0.744 OA
ENDBRANCH  84  85
ENDBRANCH  63  77
BRANCH  64  89
ATOM     89  C   UNL A   1      47.145  21.744  34.760  1.00  0.00     0.058 A 
ATOM     90  C   UNL A   1      48.241  22.622  34.672  1.00  0.00     0.135 A 
ATOM     91  C   UNL A   1      47.408  20.367  34.732  1.00  0.00     0.135 A 
ATOM     92  F   UNL A   1      48.039  23.950  34.659  1.00  0.00    -0.206 F 
ATOM     93  C   UNL A   1      49.547  22.164  34.777  1.00  0.00     0.059 A 
ATOM     94  C   UNL A   1      48.715  19.884  34.832  1.00  0.00     0.059 A 
ATOM     95  F   UNL A   1      46.399  19.486  34.798  1.00  0.00    -0.206 F 
ATOM     96  C   UNL A   1      49.764  20.800  34.947  1.00  0.00     0.060 A 
BRANCH  96  97
ATOM     97  S   UNL A   1      51.388  20.290  35.565  1.00  0.00     0.124 S 
ATOM     98  O   UNL A   1      51.392  20.865  36.906  1.00  0.00    -0.237 OA
ATOM     99  O   UNL A   1      51.272  18.832  35.503  1.00  0.00    -0.237 OA
ATOM    100  O   UNL A   1      52.309  20.892  34.609  1.00  0.00    -0.744 OA
ENDBRANCH  96  97
ENDBRANCH  64  89
BRANCH  76 101
ATOM    101  C   UNL A   1      45.090  26.779  39.558  1.00  0.00     0.058 A 
ATOM    102  C   UNL A   1      44.644  26.645  40.885  1.00  0.00     0.135 A 
ATOM    103  C   UNL A   1      46.098  27.751  39.351  1.00  0.00     0.135 A 
ATOM    104  F   UNL A   1      43.780  25.683  41.237  1.00  0.00    -0.206 F 
ATOM    105  C   UNL A   1      45.103  27.468  41.918  1.00  0.00     0.059 A 
ATOM    106  C   UNL A   1      46.612  28.543  40.377  1.00  0.00     0.059 A 
ATOM    107  F   UNL A   1      46.626  27.956  38.134  1.00  0.00    -0.206 F 
ATOM    108  C   UNL A   1      46.086  28.417  41.654  1.00  0.00     0.060 A 
BRANCH 108 109
ATOM    109  S   UNL A   1      46.721  29.456  42.983  1.00  0.00     0.124 S 
ATOM    110  O   UNL A   1      47.865  28.674  43.442  1.00  0.00    -0.237 OA
ATOM    111  O   UNL A   1      47.046  30.704  42.300  1.00  0.00    -0.237 OA
ATOM    112  O   UNL A   1      45.595  29.533  43.908  1.00  0.00    -0.744 OA
ENDBRANCH 108 109
ENDBRANCH  76 101
ENDBRANCH  50  51
ENDBRANCH  42  45
ENDBRANCH  40  41
ENDBRANCH   1  40
TORSDOF 17
ENDMDL
MODEL 2
REMARK VINA RESULT:     -11.5      4.237     10.220
REMARK SMILES Cc1ccccc1C(=O)Nc1ccc(N2CCC(n3c(C)nc4cccnc43)CC2)c(C(=O)NCCCNC(=O)c2ccc(-c3c4nc(c(-c5c(F)cc(S(=O)(=O)[O-])cc5F)c5ccc([nH]5)c(-c5c(F)cc(S(=O)(=O)[O-])cc5F)c5nc(c(-c6c(F)cc(S(=O)(=O)[O-])cc6F)c6ccc3[nH]6)C=C5)C=C4)cc2)c1
REMARK SMILES IDX 36 1 35 2 34 3 32 4 33 5 31 7 11 8 12 9 107 10 13 11 14 12
REMARK SMILES IDX 10 13 8 14 9 15 7 17 1 18 2 19 3 20 4 21 6 22 5 23 15 24
REMARK SMILES IDX 16 25 30 26 17 27 29 28 18 29 19 30 20 31 28 32 21 33 22 34
REMARK SMILES IDX 23 35 27 36 24 37 26 38 25 39 37 40 38 41 39 42 40 44 41 45
REMARK SMILES IDX 42 46 106 47 43 48 105 49 44 50 45 51 46 52 99 53 47 54
REMARK SMILES IDX 104 55 98 56 100 57 48 58 103 59 97 60 96 61 49 63 83 64
REMARK SMILES IDX 62 65 82 66 63 67 66 68 81 69 101 70 64 71 65 72 80 74
REMARK SMILES IDX 102 75 67 76 50 77 51 78 60 79 52 80 53 81 59 82 61 83 54 84
REMARK SMILES IDX 55 85 56 86 57 87 58 88 84 89 85 90 94 91 86 92 87 93 93 94
REMARK SMILES IDX 95 95 88 96 89 97 90 98 91 99 92 100 68 101 69 102 78 103
REMARK SMILES IDX 70 104 71 105 77 106 79 107 72 108 73 109 74 110 75 111
REMARK SMILES IDX 76 112
REMARK H PARENT 34 6 10 16 38 43 100 62 66 73
REMARK Flexibility Score: inf
ROOT
ATOM      1  C   UNL A   1      43.583  23.187  29.037  1.00  0.00     0.042 C 
ENDROOT
BRANCH   1   2
ATOM      2  C   UNL A   1      43.762  23.183  30.536  1.00  0.00     0.118 C 
BRANCH   2   3
ATOM      3  N   UNL A   1      44.516  24.316  31.032  1.00  0.00    -0.352 N 
ATOM      4  C   UNL A   1      44.857  24.878  32.226  1.00  0.00     0.253 C 
ATOM      5  O   UNL A   1      45.695  25.786  32.111  1.00  0.00    -0.269 OA
ATOM      6  H   UNL A   1      44.893  24.836  30.285  1.00  0.00     0.163 HD
BRANCH   4   7
ATOM      7  C   UNL A   1      44.345  24.584  33.610  1.00  0.00     0.065 A 
ATOM      8  C   UNL A   1      42.910  25.619  35.328  1.00  0.00     0.042 A 
ATOM      9  C   UNL A   1      43.176  24.586  36.203  1.00  0.00     0.028 A 
ATOM     10  C   UNL A   1      43.353  25.525  34.009  1.00  0.00     0.042 A 
ATOM     11  C   UNL A   1      44.077  23.597  35.814  1.00  0.00     0.029 A 
ATOM     12  C   UNL A   1      44.781  23.655  34.580  1.00  0.00     0.050 A 
BRANCH   8  13
ATOM     13  N   UNL A   1      42.345  26.837  35.729  1.00  0.00    -0.322 N 
ATOM     14  C   UNL A   1      42.947  28.067  35.915  1.00  0.00     0.255 C 
ATOM     15  O   UNL A   1      42.278  28.993  36.380  1.00  0.00    -0.269 OA
ATOM     16  H   UNL A   1      41.377  26.813  35.905  1.00  0.00     0.170 HD
BRANCH  14  17
ATOM     17  C   UNL A   1      44.362  28.360  35.523  1.00  0.00     0.043 A 
ATOM     18  C   UNL A   1      45.491  27.325  37.597  1.00  0.00     0.045 C 
ATOM     19  C   UNL A   1      45.507  28.060  36.289  1.00  0.00    -0.038 A 
ATOM     20  C   UNL A   1      46.774  28.442  35.802  1.00  0.00     0.004 A 
ATOM     21  C   UNL A   1      46.922  28.985  34.528  1.00  0.00     0.000 A 
ATOM     22  C   UNL A   1      44.534  28.867  34.222  1.00  0.00     0.014 A 
ATOM     23  C   UNL A   1      45.804  29.165  33.724  1.00  0.00     0.001 A 
ENDBRANCH  14  17
ENDBRANCH   8  13
BRANCH  12  24
ATOM     24  N   UNL A   1      45.991  22.960  34.576  1.00  0.00    -0.371 N 
ATOM     25  C   UNL A   1      45.973  21.510  34.437  1.00  0.00     0.118 C 
ATOM     26  C   UNL A   1      47.206  23.764  34.672  1.00  0.00     0.118 C 
ATOM     27  C   UNL A   1      47.241  20.842  34.932  1.00  0.00     0.047 C 
ATOM     28  C   UNL A   1      48.450  22.984  35.041  1.00  0.00     0.047 C 
ATOM     29  C   UNL A   1      48.524  21.566  34.483  1.00  0.00     0.094 C 
BRANCH  29  30
ATOM     30  N   UNL A   1      49.714  20.798  34.884  1.00  0.00    -0.310 N 
ATOM     31  C   UNL A   1      49.984  20.027  36.006  1.00  0.00     0.108 A 
ATOM     32  C   UNL A   1      50.852  20.754  34.104  1.00  0.00     0.160 A 
ATOM     33  C   UNL A   1      49.187  19.958  37.256  1.00  0.00     0.088 C 
ATOM     34  N   UNL A   1      51.119  19.359  35.865  1.00  0.00    -0.232 NA
ATOM     35  C   UNL A   1      51.699  19.861  34.738  1.00  0.00     0.108 A 
ATOM     36  N   UNL A   1      51.083  21.420  32.956  1.00  0.00    -0.237 NA
ATOM     37  C   UNL A   1      52.952  19.619  34.167  1.00  0.00     0.034 A 
ATOM     38  C   UNL A   1      52.332  21.206  32.476  1.00  0.00     0.113 A 
ATOM     39  C   UNL A   1      53.274  20.335  33.014  1.00  0.00     0.022 A 
ENDBRANCH  29  30
ENDBRANCH  12  24
ENDBRANCH   4   7
ENDBRANCH   2   3
ENDBRANCH   1   2
BRANCH   1  40
ATOM     40  C   UNL A   1      42.167  23.599  28.662  1.00  0.00     0.118 C 
BRANCH  40  41
ATOM     41  N   UNL A   1      41.422  22.744  27.738  1.00  0.00    -0.352 N 
ATOM     42  C   UNL A   1      40.344  23.152  26.945  1.00  0.00     0.251 C 
ATOM     43  H   UNL A   1      41.702  21.803  27.668  1.00  0.00     0.163 HD
ATOM     44  O   UNL A   1      39.657  22.395  26.290  1.00  0.00    -0.269 OA
BRANCH  42  45
ATOM     45  C   UNL A   1      40.053  24.601  26.938  1.00  0.00     0.039 A 
ATOM     46  C   UNL A   1      40.839  25.415  26.115  1.00  0.00     0.014 A 
ATOM     47  C   UNL A   1      39.391  25.105  28.049  1.00  0.00     0.014 A 
ATOM     48  C   UNL A   1      41.174  26.690  26.556  1.00  0.00     0.010 A 
ATOM     49  C   UNL A   1      39.834  26.314  28.545  1.00  0.00     0.010 A 
ATOM     50  C   UNL A   1      40.777  27.079  27.833  1.00  0.00    -0.014 A 
BRANCH  50  51
ATOM     51  C   UNL A   1      41.405  28.166  28.582  1.00  0.00     0.031 A 
ATOM     52  C   UNL A   1      40.613  29.378  28.913  1.00  0.00     0.074 A 
ATOM     53  C   UNL A   1      42.643  28.011  29.115  1.00  0.00     0.049 A 
ATOM     54  N   UNL A   1      41.110  30.439  29.448  1.00  0.00    -0.248 NA
ATOM     55  C   UNL A   1      39.185  29.520  28.610  1.00  0.00     0.031 C 
ATOM     56  C   UNL A   1      43.223  28.763  30.228  1.00  0.00     0.029 A 
ATOM     57  N   UNL A   1      43.718  27.264  28.618  1.00  0.00    -0.354 N 
ATOM     58  C   UNL A   1      40.063  31.225  29.857  1.00  0.00     0.074 A 
ATOM     59  C   UNL A   1      38.900  30.680  29.210  1.00  0.00     0.031 C 
ATOM     60  C   UNL A   1      44.558  28.648  30.192  1.00  0.00     0.029 A 
ATOM     61  C   UNL A   1      44.904  27.944  28.973  1.00  0.00     0.049 A 
ATOM     62  H   UNL A   1      43.659  26.421  28.114  1.00  0.00     0.167 HD
ATOM     63  C   UNL A   1      40.284  32.160  30.818  1.00  0.00     0.037 A 
ATOM     64  C   UNL A   1      45.755  28.433  28.022  1.00  0.00     0.037 A 
ATOM     65  C   UNL A   1      41.710  32.457  30.934  1.00  0.00     0.049 A 
ATOM     66  C   UNL A   1      45.871  29.941  27.992  1.00  0.00     0.074 A 
ATOM     67  C   UNL A   1      42.681  32.206  31.885  1.00  0.00     0.029 A 
ATOM     68  N   UNL A   1      42.382  32.904  29.797  1.00  0.00    -0.354 N 
ATOM     69  N   UNL A   1      45.154  30.747  28.727  1.00  0.00    -0.248 NA
ATOM     70  C   UNL A   1      46.776  30.670  27.103  1.00  0.00     0.031 C 
ATOM     71  C   UNL A   1      43.951  32.363  31.255  1.00  0.00     0.029 A 
ATOM     72  C   UNL A   1      43.748  32.768  29.945  1.00  0.00     0.049 A 
ATOM     73  H   UNL A   1      41.942  33.267  28.996  1.00  0.00     0.167 HD
ATOM     74  C   UNL A   1      45.382  32.045  28.349  1.00  0.00     0.074 A 
ATOM     75  C   UNL A   1      46.453  31.947  27.377  1.00  0.00     0.031 C 
ATOM     76  C   UNL A   1      44.635  33.085  28.829  1.00  0.00     0.037 A 
BRANCH  63  77
ATOM     77  C   UNL A   1      39.217  32.674  31.759  1.00  0.00     0.058 A 
ATOM     78  C   UNL A   1      38.873  31.947  32.916  1.00  0.00     0.135 A 
ATOM     79  C   UNL A   1      38.396  33.797  31.499  1.00  0.00     0.135 A 
ATOM     80  F   UNL A   1      39.544  30.837  33.257  1.00  0.00    -0.206 F 
ATOM     81  C   UNL A   1      37.804  32.307  33.749  1.00  0.00     0.059 A 
ATOM     82  C   UNL A   1      37.362  34.206  32.343  1.00  0.00     0.059 A 
ATOM     83  F   UNL A   1      38.502  34.514  30.373  1.00  0.00    -0.206 F 
ATOM     84  C   UNL A   1      37.056  33.441  33.455  1.00  0.00     0.060 A 
BRANCH  84  85
ATOM     85  S   UNL A   1      35.660  33.896  34.502  1.00  0.00     0.124 S 
ATOM     86  O   UNL A   1      34.633  32.962  34.055  1.00  0.00    -0.237 OA
ATOM     87  O   UNL A   1      36.187  33.673  35.844  1.00  0.00    -0.237 OA
ATOM     88  O   UNL A   1      35.421  35.297  34.157  1.00  0.00    -0.744 OA
ENDBRANCH  84  85
ENDBRANCH  63  77
BRANCH  64  89
ATOM     89  C   UNL A   1      45.920  27.506  26.869  1.00  0.00     0.058 A 
ATOM     90  C   UNL A   1      46.817  26.438  27.050  1.00  0.00     0.135 A 
ATOM     91  C   UNL A   1      44.905  27.353  25.914  1.00  0.00     0.135 A 
ATOM     92  F   UNL A   1      47.828  26.549  27.928  1.00  0.00    -0.206 F 
ATOM     93  C   UNL A   1      46.590  25.195  26.475  1.00  0.00     0.059 A 
ATOM     94  C   UNL A   1      44.662  26.112  25.320  1.00  0.00     0.059 A 
ATOM     95  F   UNL A   1      44.031  28.346  25.691  1.00  0.00    -0.206 F 
ATOM     96  C   UNL A   1      45.457  25.023  25.684  1.00  0.00     0.060 A 
BRANCH  96  97
ATOM     97  S   UNL A   1      44.922  23.323  25.363  1.00  0.00     0.124 S 
ATOM     98  O   UNL A   1      45.655  22.581  26.382  1.00  0.00    -0.237 OA
ATOM     99  O   UNL A   1      43.478  23.434  25.579  1.00  0.00    -0.237 OA
ATOM    100  O   UNL A   1      45.340  23.100  23.985  1.00  0.00    -0.744 OA
ENDBRANCH  96  97
ENDBRANCH  64  89
BRANCH  76 101
ATOM    101  C   UNL A   1      44.680  34.506  28.308  1.00  0.00     0.058 A 
ATOM    102  C   UNL A   1      44.028  34.946  27.142  1.00  0.00     0.135 A 
ATOM    103  C   UNL A   1      45.295  35.521  29.080  1.00  0.00     0.135 A 
ATOM    104  F   UNL A   1      43.306  34.105  26.387  1.00  0.00    -0.206 F 
ATOM    105  C   UNL A   1      44.052  36.281  26.727  1.00  0.00     0.059 A 
ATOM    106  C   UNL A   1      45.282  36.866  28.715  1.00  0.00     0.059 A 
ATOM    107  F   UNL A   1      45.926  35.233  30.228  1.00  0.00    -0.206 F 
ATOM    108  C   UNL A   1      44.685  37.234  27.518  1.00  0.00     0.060 A 
BRANCH 108 109
ATOM    109  S   UNL A   1      44.687  38.966  27.019  1.00  0.00     0.124 S 
ATOM    110  O   UNL A   1      45.830  39.006  26.112  1.00  0.00    -0.237 OA
ATOM    111  O   UNL A   1      43.379  39.130  26.392  1.00  0.00    -0.237 OA
ATOM    112  O   UNL A   1      44.858  39.674  28.285  1.00  0.00    -0.744 OA
ENDBRANCH 108 109
ENDBRANCH  76 101
ENDBRANCH  50  51
ENDBRANCH  42  45
ENDBRANCH  40  41
ENDBRANCH   1  40
TORSDOF 17
ENDMDL
MODEL 3
REMARK VINA RESULT:     -11.2      1.406      6.131
REMARK SMILES Cc1ccccc1C(=O)Nc1ccc(N2CCC(n3c(C)nc4cccnc43)CC2)c(C(=O)NCCCNC(=O)c2ccc(-c3c4nc(c(-c5c(F)cc(S(=O)(=O)[O-])cc5F)c5ccc([nH]5)c(-c5c(F)cc(S(=O)(=O)[O-])cc5F)c5nc(c(-c6c(F)cc(S(=O)(=O)[O-])cc6F)c6ccc3[nH]6)C=C5)C=C4)cc2)c1
REMARK SMILES IDX 36 1 35 2 34 3 32 4 33 5 31 7 11 8 12 9 107 10 13 11 14 12
REMARK SMILES IDX 10 13 8 14 9 15 7 17 1 18 2 19 3 20 4 21 6 22 5 23 15 24
REMARK SMILES IDX 16 25 30 26 17 27 29 28 18 29 19 30 20 31 28 32 21 33 22 34
REMARK SMILES IDX 23 35 27 36 24 37 26 38 25 39 37 40 38 41 39 42 40 44 41 45
REMARK SMILES IDX 42 46 106 47 43 48 105 49 44 50 45 51 46 52 99 53 47 54
REMARK SMILES IDX 104 55 98 56 100 57 48 58 103 59 97 60 96 61 49 63 83 64
REMARK SMILES IDX 62 65 82 66 63 67 66 68 81 69 101 70 64 71 65 72 80 74
REMARK SMILES IDX 102 75 67 76 50 77 51 78 60 79 52 80 53 81 59 82 61 83 54 84
REMARK SMILES IDX 55 85 56 86 57 87 58 88 84 89 85 90 94 91 86 92 87 93 93 94
REMARK SMILES IDX 95 95 88 96 89 97 90 98 91 99 92 100 68 101 69 102 78 103
REMARK SMILES IDX 70 104 71 105 77 106 79 107 72 108 73 109 74 110 75 111
REMARK SMILES IDX 76 112
REMARK H PARENT 34 6 10 16 38 43 100 62 66 73
REMARK Flexibility Score: inf
ROOT
ATOM      1  C   UNL A   1      44.294  29.496  28.721  1.00  0.00     0.042 C 
ENDROOT
BRANCH   1   2
ATOM      2  C   UNL A   1      44.464  30.170  27.381  1.00  0.00     0.118 C 
BRANCH   2   3
ATOM      3  N   UNL A   1      43.505  29.733  26.386  1.00  0.00    -0.352 N 
ATOM      4  C   UNL A   1      42.504  28.817  26.260  1.00  0.00     0.253 C 
ATOM      5  O   UNL A   1      41.845  28.963  25.218  1.00  0.00    -0.269 OA
ATOM      6  H   UNL A   1      43.608  30.249  25.555  1.00  0.00     0.163 HD
BRANCH   4   7
ATOM      7  C   UNL A   1      42.127  27.670  27.159  1.00  0.00     0.065 A 
ATOM      8  C   UNL A   1      41.931  25.214  27.068  1.00  0.00     0.042 A 
ATOM      9  C   UNL A   1      41.449  25.183  28.360  1.00  0.00     0.028 A 
ATOM     10  C   UNL A   1      42.413  26.415  26.550  1.00  0.00     0.042 A 
ATOM     11  C   UNL A   1      41.237  26.391  29.023  1.00  0.00     0.029 A 
ATOM     12  C   UNL A   1      41.434  27.649  28.389  1.00  0.00     0.050 A 
BRANCH   8  13
ATOM     13  N   UNL A   1      41.825  24.131  26.185  1.00  0.00    -0.322 N 
ATOM     14  C   UNL A   1      42.819  23.428  25.532  1.00  0.00     0.255 C 
ATOM     15  O   UNL A   1      42.497  22.570  24.706  1.00  0.00    -0.269 OA
ATOM     16  H   UNL A   1      40.907  23.828  26.002  1.00  0.00     0.170 HD
BRANCH  14  17
ATOM     17  C   UNL A   1      44.278  23.606  25.817  1.00  0.00     0.043 A 
ATOM     18  C   UNL A   1      44.274  22.573  28.180  1.00  0.00     0.045 C 
ATOM     19  C   UNL A   1      44.932  23.257  27.017  1.00  0.00    -0.038 A 
ATOM     20  C   UNL A   1      46.308  23.531  27.149  1.00  0.00     0.004 A 
ATOM     21  C   UNL A   1      47.053  24.015  26.077  1.00  0.00     0.000 A 
ATOM     22  C   UNL A   1      45.053  24.052  24.731  1.00  0.00     0.014 A 
ATOM     23  C   UNL A   1      46.431  24.242  24.856  1.00  0.00     0.001 A 
ENDBRANCH  14  17
ENDBRANCH   8  13
BRANCH  12  24
ATOM     24  N   UNL A   1      40.684  28.691  28.935  1.00  0.00    -0.371 N 
ATOM     25  C   UNL A   1      39.448  29.092  28.278  1.00  0.00     0.118 C 
ATOM     26  C   UNL A   1      41.189  29.281  30.171  1.00  0.00     0.118 C 
ATOM     27  C   UNL A   1      39.000  30.495  28.642  1.00  0.00     0.047 C 
ATOM     28  C   UNL A   1      40.583  30.623  30.522  1.00  0.00     0.047 C 
ATOM     29  C   UNL A   1      39.114  30.797  30.147  1.00  0.00     0.094 C 
BRANCH  29  30
ATOM     30  N   UNL A   1      38.545  32.119  30.450  1.00  0.00    -0.310 N 
ATOM     31  C   UNL A   1      39.127  33.374  30.567  1.00  0.00     0.108 A 
ATOM     32  C   UNL A   1      37.199  32.296  30.697  1.00  0.00     0.160 A 
ATOM     33  C   UNL A   1      40.577  33.683  30.642  1.00  0.00     0.088 C 
ATOM     34  N   UNL A   1      38.207  34.321  30.664  1.00  0.00    -0.232 NA
ATOM     35  C   UNL A   1      37.024  33.664  30.828  1.00  0.00     0.108 A 
ATOM     36  N   UNL A   1      36.249  31.344  30.774  1.00  0.00    -0.237 NA
ATOM     37  C   UNL A   1      35.738  34.144  31.095  1.00  0.00     0.034 A 
ATOM     38  C   UNL A   1      35.035  31.849  31.098  1.00  0.00     0.113 A 
ATOM     39  C   UNL A   1      34.727  33.197  31.253  1.00  0.00     0.022 A 
ENDBRANCH  29  30
ENDBRANCH  12  24
ENDBRANCH   4   7
ENDBRANCH   2   3
ENDBRANCH   1   2
BRANCH   1  40
ATOM     40  C   UNL A   1      45.636  29.037  29.270  1.00  0.00     0.118 C 
BRANCH  40  41
ATOM     41  N   UNL A   1      46.694  28.702  28.316  1.00  0.00    -0.352 N 
ATOM     42  C   UNL A   1      47.330  27.460  28.213  1.00  0.00     0.251 C 
ATOM     43  H   UNL A   1      46.982  29.409  27.695  1.00  0.00     0.163 HD
ATOM     44  O   UNL A   1      48.295  27.247  27.508  1.00  0.00    -0.269 OA
BRANCH  42  45
ATOM     45  C   UNL A   1      46.764  26.369  29.035  1.00  0.00     0.039 A 
ATOM     46  C   UNL A   1      45.394  26.114  28.916  1.00  0.00     0.014 A 
ATOM     47  C   UNL A   1      47.480  26.014  30.170  1.00  0.00     0.014 A 
ATOM     48  C   UNL A   1      44.683  25.733  30.049  1.00  0.00     0.010 A 
ATOM     49  C   UNL A   1      46.753  25.770  31.316  1.00  0.00     0.010 A 
ATOM     50  C   UNL A   1      45.348  25.695  31.271  1.00  0.00    -0.014 A 
BRANCH  50  51
ATOM     51  C   UNL A   1      44.670  25.749  32.566  1.00  0.00     0.031 A 
ATOM     52  C   UNL A   1      44.214  27.058  33.098  1.00  0.00     0.074 A 
ATOM     53  C   UNL A   1      44.312  24.607  33.205  1.00  0.00     0.049 A 
ATOM     54  N   UNL A   1      43.732  27.226  34.281  1.00  0.00    -0.248 NA
ATOM     55  C   UNL A   1      44.320  28.316  32.353  1.00  0.00     0.031 C 
ATOM     56  C   UNL A   1      43.275  24.457  34.225  1.00  0.00     0.029 A 
ATOM     57  N   UNL A   1      44.963  23.367  33.203  1.00  0.00    -0.354 N 
ATOM     58  C   UNL A   1      43.171  28.477  34.324  1.00  0.00     0.074 A 
ATOM     59  C   UNL A   1      43.666  29.159  33.158  1.00  0.00     0.031 C 
ATOM     60  C   UNL A   1      43.491  23.329  34.916  1.00  0.00     0.029 A 
ATOM     61  C   UNL A   1      44.759  22.782  34.473  1.00  0.00     0.049 A 
ATOM     62  H   UNL A   1      45.469  22.975  32.456  1.00  0.00     0.167 HD
ATOM     63  C   UNL A   1      42.233  28.740  35.271  1.00  0.00     0.037 A 
ATOM     64  C   UNL A   1      45.807  22.506  35.305  1.00  0.00     0.037 A 
ATOM     65  C   UNL A   1      42.305  27.766  36.358  1.00  0.00     0.049 A 
ATOM     66  C   UNL A   1      45.825  23.310  36.587  1.00  0.00     0.074 A 
ATOM     67  C   UNL A   1      41.498  26.729  36.789  1.00  0.00     0.029 A 
ATOM     68  N   UNL A   1      43.514  27.630  37.039  1.00  0.00    -0.354 N 
ATOM     69  N   UNL A   1      44.986  24.271  36.863  1.00  0.00    -0.248 NA
ATOM     70  C   UNL A   1      46.814  23.126  37.648  1.00  0.00     0.031 C 
ATOM     71  C   UNL A   1      42.290  25.885  37.622  1.00  0.00     0.029 A 
ATOM     72  C   UNL A   1      43.553  26.443  37.743  1.00  0.00     0.049 A 
ATOM     73  H   UNL A   1      44.242  28.291  37.020  1.00  0.00     0.167 HD
ATOM     74  C   UNL A   1      45.368  24.903  38.017  1.00  0.00     0.074 A 
ATOM     75  C   UNL A   1      46.477  24.106  38.505  1.00  0.00     0.031 C 
ATOM     76  C   UNL A   1      44.773  26.057  38.447  1.00  0.00     0.037 A 
BRANCH  63  77
ATOM     77  C   UNL A   1      41.148  29.783  35.119  1.00  0.00     0.058 A 
ATOM     78  C   UNL A   1      41.047  30.850  36.035  1.00  0.00     0.135 A 
ATOM     79  C   UNL A   1      40.088  29.703  34.184  1.00  0.00     0.135 A 
ATOM     80  F   UNL A   1      41.963  31.018  36.999  1.00  0.00    -0.206 F 
ATOM     81  C   UNL A   1      39.985  31.765  36.019  1.00  0.00     0.059 A 
ATOM     82  C   UNL A   1      39.051  30.633  34.116  1.00  0.00     0.059 A 
ATOM     83  F   UNL A   1      39.961  28.675  33.336  1.00  0.00    -0.206 F 
ATOM     84  C   UNL A   1      38.992  31.649  35.053  1.00  0.00     0.060 A 
BRANCH  84  85
ATOM     85  S   UNL A   1      37.605  32.803  35.044  1.00  0.00     0.124 S 
ATOM     86  O   UNL A   1      37.225  32.825  36.452  1.00  0.00    -0.237 OA
ATOM     87  O   UNL A   1      38.214  34.023  34.527  1.00  0.00    -0.237 OA
ATOM     88  O   UNL A   1      36.641  32.165  34.149  1.00  0.00    -0.744 OA
ENDBRANCH  84  85
ENDBRANCH  63  77
BRANCH  64  89
ATOM     89  C   UNL A   1      46.988  21.964  34.580  1.00  0.00     0.058 A 
ATOM     90  C   UNL A   1      48.076  22.840  34.413  1.00  0.00     0.135 A 
ATOM     91  C   UNL A   1      47.248  20.587  34.549  1.00  0.00     0.135 A 
ATOM     92  F   UNL A   1      47.873  24.168  34.399  1.00  0.00    -0.206 F 
ATOM     93  C   UNL A   1      49.385  22.383  34.438  1.00  0.00     0.059 A 
ATOM     94  C   UNL A   1      48.559  20.104  34.569  1.00  0.00     0.059 A 
ATOM     95  F   UNL A   1      46.246  19.706  34.688  1.00  0.00    -0.206 F 
ATOM     96  C   UNL A   1      49.613  21.020  34.608  1.00  0.00     0.060 A 
BRANCH  96  97
ATOM     97  S   UNL A   1      51.274  20.516  35.126  1.00  0.00     0.124 S 
ATOM     98  O   UNL A   1      52.117  21.267  34.204  1.00  0.00    -0.237 OA
ATOM     99  O   UNL A   1      51.290  20.978  36.516  1.00  0.00    -0.237 OA
ATOM    100  O   UNL A   1      51.253  19.070  34.941  1.00  0.00    -0.744 OA
ENDBRANCH  96  97
ENDBRANCH  64  89
BRANCH  76 101
ATOM    101  C   UNL A   1      45.270  26.924  39.584  1.00  0.00     0.058 A 
ATOM    102  C   UNL A   1      44.813  26.833  40.911  1.00  0.00     0.135 A 
ATOM    103  C   UNL A   1      46.356  27.807  39.375  1.00  0.00     0.135 A 
ATOM    104  F   UNL A   1      43.871  25.947  41.265  1.00  0.00    -0.206 F 
ATOM    105  C   UNL A   1      45.339  27.618  41.942  1.00  0.00     0.059 A 
ATOM    106  C   UNL A   1      46.934  28.556  40.398  1.00  0.00     0.059 A 
ATOM    107  F   UNL A   1      46.900  27.962  38.158  1.00  0.00    -0.206 F 
ATOM    108  C   UNL A   1      46.397  28.481  41.675  1.00  0.00     0.060 A 
BRANCH 108 109
ATOM    109  S   UNL A   1      47.116  29.467  43.002  1.00  0.00     0.124 S 
ATOM    110  O   UNL A   1      47.384  28.447  44.011  1.00  0.00    -0.237 OA
ATOM    111  O   UNL A   1      48.296  30.055  42.373  1.00  0.00    -0.237 OA
ATOM    112  O   UNL A   1      46.052  30.413  43.323  1.00  0.00    -0.744 OA
ENDBRANCH 108 109
ENDBRANCH  76 101
ENDBRANCH  50  51
ENDBRANCH  42  45
ENDBRANCH  40  41
ENDBRANCH   1  40
TORSDOF 17
ENDMDL
