MODEL 1
REMARK VINA RESULT:     -12.9      0.000      0.000
REMARK SMILES O=C(NCCCNC(=O)c1ccc(-c2c3nc(c(-c4c(F)cc(S(=O)(=O)[O-])cc4F)c4ccc([nH]4)c(-c4c(F)cc(S(=O)(=O)[O-])cc4F)c4nc(c(-c5c(F)cc(S(=O)(=O)[O-])cc5F)c5ccc2[nH]5)C=C4)C=C3)cc1)c1ccc(C[C@H]2CCN(C(=O)Cc3cccc(O)c3)C2)cc1
REMARK SMILES IDX 1 1 2 2 3 3 76 5 77 6 97 7 78 8 96 9 79 10 80 11 81 12 82 13
REMARK SMILES IDX 95 14 83 15 84 16 85 17 86 18 87 19 88 20 89 21 94 22 90 23
REMARK SMILES IDX 92 24 91 25 93 26 4 28 5 29 6 30 7 31 8 32 9 34 10 35 11 36
REMARK SMILES IDX 75 37 12 38 74 39 13 40 14 41 15 42 68 43 16 44 73 45 67 46
REMARK SMILES IDX 69 47 17 48 72 49 66 50 65 51 18 53 52 54 31 55 51 56 32 57
REMARK SMILES IDX 35 58 50 59 70 60 33 61 34 62 49 64 71 65 36 66 19 67 20 68
REMARK SMILES IDX 29 69 21 70 22 71 28 72 30 73 23 74 24 75 25 76 26 77 27 78
REMARK SMILES IDX 53 79 54 80 63 81 55 82 56 83 62 84 64 85 57 86 58 87 59 88
REMARK SMILES IDX 60 89 61 90 37 91 38 92 47 93 39 94 40 95 46 96 48 97 41 98
REMARK SMILES IDX 42 99 43 100 44 101 45 102
REMARK H PARENT 3 4 93 27 7 33 69 52 35 63
REMARK Flexibility Score: inf
ROOT
ATOM      1  O   UNL A   1      30.834  28.239  28.204  1.00  0.00    -0.269 OA
ATOM      2  C   UNL A   1      31.787  28.181  27.428  1.00  0.00     0.251 C 
ATOM      3  N   UNL A   1      32.915  28.929  27.647  1.00  0.00    -0.352 N 
ATOM      4  H   UNL A   1      32.963  29.379  28.521  1.00  0.00     0.163 HD
ENDROOT
BRANCH   2   5
ATOM      5  C   UNL A   1      31.722  27.294  26.254  1.00  0.00     0.039 A 
ATOM      6  C   UNL A   1      31.790  25.911  26.424  1.00  0.00     0.014 A 
ATOM      7  C   UNL A   1      31.567  27.844  24.981  1.00  0.00     0.014 A 
ATOM      8  C   UNL A   1      31.781  25.080  25.307  1.00  0.00     0.004 A 
ATOM      9  C   UNL A   1      31.575  27.007  23.861  1.00  0.00     0.004 A 
ATOM     10  C   UNL A   1      31.709  25.619  24.013  1.00  0.00    -0.048 A 
BRANCH  10  11
ATOM     11  C   UNL A   1      31.753  24.706  22.810  1.00  0.00     0.041 C 
BRANCH  11  12
ATOM     12  C   UNL A   1      33.045  23.884  22.668  1.00  0.00     0.015 C 
ATOM     13  C   UNL A   1      34.308  24.579  23.201  1.00  0.00     0.027 C 
ATOM     14  C   UNL A   1      32.974  22.591  23.500  1.00  0.00     0.123 C 
ATOM     15  C   UNL A   1      35.208  23.435  23.618  1.00  0.00     0.120 C 
ATOM     16  N   UNL A   1      34.270  22.465  24.146  1.00  0.00    -0.342 N 
BRANCH  16  17
ATOM     17  C   UNL A   1      34.492  21.521  25.125  1.00  0.00     0.227 C 
ATOM     18  O   UNL A   1      35.552  21.484  25.756  1.00  0.00    -0.275 OA
BRANCH  17  19
ATOM     19  C   UNL A   1      33.418  20.469  25.365  1.00  0.00     0.135 C 
BRANCH  19  20
ATOM     20  C   UNL A   1      33.508  19.237  24.495  1.00  0.00    -0.035 A 
ATOM     21  C   UNL A   1      34.515  18.280  24.687  1.00  0.00     0.004 A 
ATOM     22  C   UNL A   1      32.588  19.055  23.449  1.00  0.00     0.050 A 
ATOM     23  C   UNL A   1      34.570  17.138  23.886  1.00  0.00     0.004 A 
ATOM     24  C   UNL A   1      32.659  17.915  22.652  1.00  0.00     0.115 A 
ATOM     25  C   UNL A   1      33.637  16.953  22.869  1.00  0.00     0.046 A 
BRANCH  24  26
ATOM     26  O   UNL A   1      31.774  17.702  21.637  1.00  0.00    -0.508 OA
ATOM     27  H   UNL A   1      30.957  17.279  21.808  1.00  0.00     0.293 HD
ENDBRANCH  24  26
ENDBRANCH  19  20
ENDBRANCH  17  19
ENDBRANCH  16  17
ENDBRANCH  11  12
ENDBRANCH  10  11
ENDBRANCH   2   5
BRANCH   3  28
ATOM     28  C   UNL A   1      34.053  29.150  26.766  1.00  0.00     0.118 C 
BRANCH  28  29
ATOM     29  C   UNL A   1      35.355  29.348  27.533  1.00  0.00     0.042 C 
BRANCH  29  30
ATOM     30  C   UNL A   1      35.504  30.718  28.186  1.00  0.00     0.118 C 
BRANCH  30  31
ATOM     31  N   UNL A   1      35.530  30.654  29.638  1.00  0.00    -0.352 N 
ATOM     32  C   UNL A   1      36.510  30.224  30.497  1.00  0.00     0.251 C 
ATOM     33  H   UNL A   1      34.708  30.972  30.079  1.00  0.00     0.163 HD
ATOM     34  O   UNL A   1      36.242  30.112  31.692  1.00  0.00    -0.269 OA
BRANCH  32  35
ATOM     35  C   UNL A   1      37.867  29.880  30.010  1.00  0.00     0.039 A 
ATOM     36  C   UNL A   1      38.784  29.341  30.918  1.00  0.00     0.014 A 
ATOM     37  C   UNL A   1      38.262  30.122  28.693  1.00  0.00     0.014 A 
ATOM     38  C   UNL A   1      40.074  29.005  30.493  1.00  0.00     0.010 A 
ATOM     39  C   UNL A   1      39.516  29.705  28.249  1.00  0.00     0.010 A 
ATOM     40  C   UNL A   1      40.443  29.157  29.147  1.00  0.00    -0.014 A 
BRANCH  40  41
ATOM     41  C   UNL A   1      41.799  28.771  28.677  1.00  0.00     0.031 A 
ATOM     42  C   UNL A   1      42.894  29.802  28.578  1.00  0.00     0.074 A 
ATOM     43  C   UNL A   1      42.036  27.501  28.294  1.00  0.00     0.049 A 
ATOM     44  N   UNL A   1      44.129  29.660  28.169  1.00  0.00    -0.248 NA
ATOM     45  C   UNL A   1      42.549  31.181  28.963  1.00  0.00     0.031 C 
ATOM     46  C   UNL A   1      41.045  26.423  28.281  1.00  0.00     0.029 A 
ATOM     47  N   UNL A   1      43.183  26.900  27.836  1.00  0.00    -0.354 N 
ATOM     48  C   UNL A   1      44.699  30.926  28.228  1.00  0.00     0.074 A 
ATOM     49  C   UNL A   1      43.660  31.835  28.660  1.00  0.00     0.031 C 
ATOM     50  C   UNL A   1      41.632  25.289  27.862  1.00  0.00     0.029 A 
ATOM     51  C   UNL A   1      43.030  25.565  27.549  1.00  0.00     0.049 A 
ATOM     52  H   UNL A   1      44.034  27.382  27.723  1.00  0.00     0.167 HD
ATOM     53  C   UNL A   1      45.977  31.297  27.971  1.00  0.00     0.037 A 
ATOM     54  C   UNL A   1      43.916  24.661  27.086  1.00  0.00     0.037 A 
ATOM     55  C   UNL A   1      47.016  30.383  27.574  1.00  0.00     0.049 A 
ATOM     56  C   UNL A   1      45.338  25.087  26.841  1.00  0.00     0.074 A 
ATOM     57  C   UNL A   1      48.358  30.646  27.359  1.00  0.00     0.029 A 
ATOM     58  N   UNL A   1      46.832  29.029  27.330  1.00  0.00    -0.354 N 
ATOM     59  N   UNL A   1      45.878  26.275  26.977  1.00  0.00    -0.248 NA
ATOM     60  C   UNL A   1      46.276  24.047  26.397  1.00  0.00     0.031 C 
ATOM     61  C   UNL A   1      48.976  29.461  26.945  1.00  0.00     0.029 A 
ATOM     62  C   UNL A   1      48.030  28.448  26.950  1.00  0.00     0.049 A 
ATOM     63  H   UNL A   1      45.974  28.553  27.415  1.00  0.00     0.167 HD
ATOM     64  C   UNL A   1      47.223  26.120  26.660  1.00  0.00     0.074 A 
ATOM     65  C   UNL A   1      47.417  24.721  26.339  1.00  0.00     0.031 C 
ATOM     66  C   UNL A   1      48.208  27.053  26.636  1.00  0.00     0.037 A 
BRANCH  53  67
ATOM     67  C   UNL A   1      46.323  32.755  28.118  1.00  0.00     0.058 A 
ATOM     68  C   UNL A   1      46.814  33.281  29.325  1.00  0.00     0.135 A 
ATOM     69  C   UNL A   1      46.187  33.634  27.032  1.00  0.00     0.135 A 
ATOM     70  F   UNL A   1      46.952  32.489  30.401  1.00  0.00    -0.206 F 
ATOM     71  C   UNL A   1      47.122  34.631  29.460  1.00  0.00     0.059 A 
ATOM     72  C   UNL A   1      46.517  34.982  27.135  1.00  0.00     0.059 A 
ATOM     73  F   UNL A   1      45.725  33.186  25.854  1.00  0.00    -0.206 F 
ATOM     74  C   UNL A   1      46.968  35.474  28.359  1.00  0.00     0.060 A 
BRANCH  74  75
ATOM     75  S   UNL A   1      47.369  37.223  28.551  1.00  0.00     0.124 S 
ATOM     76  O   UNL A   1      47.358  37.367  30.004  1.00  0.00    -0.237 OA
ATOM     77  O   UNL A   1      48.680  37.316  27.916  1.00  0.00    -0.237 OA
ATOM     78  O   UNL A   1      46.286  37.901  27.846  1.00  0.00    -0.744 OA
ENDBRANCH  74  75
ENDBRANCH  53  67
BRANCH  54  79
ATOM     79  C   UNL A   1      43.487  23.255  26.857  1.00  0.00     0.058 A 
ATOM     80  C   UNL A   1      43.323  22.752  25.559  1.00  0.00     0.135 A 
ATOM     81  C   UNL A   1      43.258  22.382  27.932  1.00  0.00     0.135 A 
ATOM     82  F   UNL A   1      43.526  23.550  24.500  1.00  0.00    -0.206 F 
ATOM     83  C   UNL A   1      42.935  21.436  25.331  1.00  0.00     0.059 A 
ATOM     84  C   UNL A   1      42.892  21.055  27.730  1.00  0.00     0.059 A 
ATOM     85  F   UNL A   1      43.418  22.810  29.194  1.00  0.00    -0.206 F 
ATOM     86  C   UNL A   1      42.724  20.593  26.424  1.00  0.00     0.060 A 
BRANCH  86  87
ATOM     87  S   UNL A   1      42.280  18.870  26.117  1.00  0.00     0.124 S 
ATOM     88  O   UNL A   1      43.194  18.519  25.036  1.00  0.00    -0.237 OA
ATOM     89  O   UNL A   1      42.550  18.248  27.410  1.00  0.00    -0.237 OA
ATOM     90  O   UNL A   1      40.869  18.949  25.752  1.00  0.00    -0.744 OA
ENDBRANCH  86  87
ENDBRANCH  54  79
BRANCH  66  91
ATOM     91  C   UNL A   1      49.593  26.582  26.285  1.00  0.00     0.058 A 
ATOM     92  C   UNL A   1      50.145  26.790  25.010  1.00  0.00     0.135 A 
ATOM     93  C   UNL A   1      50.392  25.944  27.248  1.00  0.00     0.135 A 
ATOM     94  F   UNL A   1      49.423  27.392  24.051  1.00  0.00    -0.206 F 
ATOM     95  C   UNL A   1      51.425  26.350  24.692  1.00  0.00     0.059 A 
ATOM     96  C   UNL A   1      51.686  25.522  26.960  1.00  0.00     0.059 A 
ATOM     97  F   UNL A   1      49.918  25.732  28.485  1.00  0.00    -0.206 F 
ATOM     98  C   UNL A   1      52.188  25.715  25.674  1.00  0.00     0.060 A 
BRANCH  98  99
ATOM     99  S   UNL A   1      53.853  25.158  25.254  1.00  0.00     0.124 S 
ATOM    100  O   UNL A   1      53.740  23.717  25.453  1.00  0.00    -0.237 OA
ATOM    101  O   UNL A   1      53.991  25.598  23.869  1.00  0.00    -0.237 OA
ATOM    102  O   UNL A   1      54.698  25.861  26.215  1.00  0.00    -0.744 OA
ENDBRANCH  98  99
ENDBRANCH  66  91
ENDBRANCH  40  41
ENDBRANCH  32  35
ENDBRANCH  30  31
ENDBRANCH  29  30
ENDBRANCH  28  29
ENDBRANCH   3  28
TORSDOF 19
ENDMDL
MODEL 2
REMARK VINA RESULT:     -12.8      6.222      8.353
REMARK SMILES O=C(NCCCNC(=O)c1ccc(-c2c3nc(c(-c4c(F)cc(S(=O)(=O)[O-])cc4F)c4ccc([nH]4)c(-c4c(F)cc(S(=O)(=O)[O-])cc4F)c4nc(c(-c5c(F)cc(S(=O)(=O)[O-])cc5F)c5ccc2[nH]5)C=C4)C=C3)cc1)c1ccc(C[C@H]2CCN(C(=O)Cc3cccc(O)c3)C2)cc1
REMARK SMILES IDX 1 1 2 2 3 3 76 5 77 6 97 7 78 8 96 9 79 10 80 11 81 12 82 13
REMARK SMILES IDX 95 14 83 15 84 16 85 17 86 18 87 19 88 20 89 21 94 22 90 23
REMARK SMILES IDX 92 24 91 25 93 26 4 28 5 29 6 30 7 31 8 32 9 34 10 35 11 36
REMARK SMILES IDX 75 37 12 38 74 39 13 40 14 41 15 42 68 43 16 44 73 45 67 46
REMARK SMILES IDX 69 47 17 48 72 49 66 50 65 51 18 53 52 54 31 55 51 56 32 57
REMARK SMILES IDX 35 58 50 59 70 60 33 61 34 62 49 64 71 65 36 66 19 67 20 68
REMARK SMILES IDX 29 69 21 70 22 71 28 72 30 73 23 74 24 75 25 76 26 77 27 78
REMARK SMILES IDX 53 79 54 80 63 81 55 82 56 83 62 84 64 85 57 86 58 87 59 88
REMARK SMILES IDX 60 89 61 90 37 91 38 92 47 93 39 94 40 95 46 96 48 97 41 98
REMARK SMILES IDX 42 99 43 100 44 101 45 102
REMARK H PARENT 3 4 93 27 7 33 69 52 35 63
REMARK Flexibility Score: inf
ROOT
ATOM      1  O   UNL A   1      30.013  29.866  23.175  1.00  0.00    -0.269 OA
ATOM      2  C   UNL A   1      30.661  29.863  24.220  1.00  0.00     0.251 C 
ATOM      3  N   UNL A   1      30.602  30.925  25.084  1.00  0.00    -0.352 N 
ATOM      4  H   UNL A   1      29.909  31.596  24.886  1.00  0.00     0.163 HD
ENDROOT
BRANCH   2   5
ATOM      5  C   UNL A   1      31.504  28.702  24.554  1.00  0.00     0.039 A 
ATOM      6  C   UNL A   1      31.047  27.750  25.465  1.00  0.00     0.014 A 
ATOM      7  C   UNL A   1      32.747  28.551  23.936  1.00  0.00     0.014 A 
ATOM      8  C   UNL A   1      31.870  26.684  25.816  1.00  0.00     0.004 A 
ATOM      9  C   UNL A   1      33.577  27.487  24.304  1.00  0.00     0.004 A 
ATOM     10  C   UNL A   1      33.156  26.560  25.268  1.00  0.00    -0.048 A 
BRANCH  10  11
ATOM     11  C   UNL A   1      34.056  25.425  25.699  1.00  0.00     0.041 C 
BRANCH  11  12
ATOM     12  C   UNL A   1      34.413  24.424  24.587  1.00  0.00     0.015 C 
ATOM     13  C   UNL A   1      35.460  23.372  24.984  1.00  0.00     0.027 C 
ATOM     14  C   UNL A   1      33.191  23.576  24.191  1.00  0.00     0.123 C 
ATOM     15  C   UNL A   1      35.129  22.178  24.114  1.00  0.00     0.120 C 
ATOM     16  N   UNL A   1      33.682  22.214  24.057  1.00  0.00    -0.342 N 
BRANCH  16  17
ATOM     17  C   UNL A   1      32.816  21.155  23.901  1.00  0.00     0.227 C 
ATOM     18  O   UNL A   1      32.181  20.989  22.857  1.00  0.00    -0.275 OA
BRANCH  17  19
ATOM     19  C   UNL A   1      32.603  20.220  25.085  1.00  0.00     0.135 C 
BRANCH  19  20
ATOM     20  C   UNL A   1      33.165  18.827  24.923  1.00  0.00    -0.035 A 
ATOM     21  C   UNL A   1      34.494  18.617  24.528  1.00  0.00     0.004 A 
ATOM     22  C   UNL A   1      32.335  17.713  25.136  1.00  0.00     0.050 A 
ATOM     23  C   UNL A   1      35.001  17.322  24.403  1.00  0.00     0.004 A 
ATOM     24  C   UNL A   1      32.851  16.426  25.000  1.00  0.00     0.115 A 
ATOM     25  C   UNL A   1      34.178  16.225  24.644  1.00  0.00     0.046 A 
BRANCH  24  26
ATOM     26  O   UNL A   1      32.076  15.325  25.212  1.00  0.00    -0.508 OA
ATOM     27  H   UNL A   1      31.533  14.995  24.525  1.00  0.00     0.293 HD
ENDBRANCH  24  26
ENDBRANCH  19  20
ENDBRANCH  17  19
ENDBRANCH  16  17
ENDBRANCH  11  12
ENDBRANCH  10  11
ENDBRANCH   2   5
BRANCH   3  28
ATOM     28  C   UNL A   1      31.424  31.201  26.255  1.00  0.00     0.118 C 
BRANCH  28  29
ATOM     29  C   UNL A   1      31.584  32.693  26.517  1.00  0.00     0.042 C 
BRANCH  29  30
ATOM     30  C   UNL A   1      32.785  33.060  27.381  1.00  0.00     0.118 C 
BRANCH  30  31
ATOM     31  N   UNL A   1      32.754  34.441  27.837  1.00  0.00    -0.352 N 
ATOM     32  C   UNL A   1      33.453  35.068  28.839  1.00  0.00     0.251 C 
ATOM     33  H   UNL A   1      32.129  35.023  27.346  1.00  0.00     0.163 HD
ATOM     34  O   UNL A   1      33.139  36.217  29.148  1.00  0.00    -0.269 OA
BRANCH  32  35
ATOM     35  C   UNL A   1      34.555  34.385  29.556  1.00  0.00     0.039 A 
ATOM     36  C   UNL A   1      35.855  34.514  29.057  1.00  0.00     0.014 A 
ATOM     37  C   UNL A   1      34.323  33.585  30.676  1.00  0.00     0.014 A 
ATOM     38  C   UNL A   1      36.919  33.882  29.707  1.00  0.00     0.010 A 
ATOM     39  C   UNL A   1      35.393  33.029  31.375  1.00  0.00     0.010 A 
ATOM     40  C   UNL A   1      36.703  33.156  30.889  1.00  0.00    -0.014 A 
BRANCH  40  41
ATOM     41  C   UNL A   1      37.831  32.509  31.609  1.00  0.00     0.031 A 
ATOM     42  C   UNL A   1      38.284  33.035  32.947  1.00  0.00     0.074 A 
ATOM     43  C   UNL A   1      38.479  31.474  31.040  1.00  0.00     0.049 A 
ATOM     44  N   UNL A   1      39.261  32.619  33.711  1.00  0.00    -0.248 NA
ATOM     45  C   UNL A   1      37.563  34.202  33.483  1.00  0.00     0.031 C 
ATOM     46  C   UNL A   1      38.181  30.910  29.722  1.00  0.00     0.029 A 
ATOM     47  N   UNL A   1      39.530  30.714  31.494  1.00  0.00    -0.354 N 
ATOM     48  C   UNL A   1      39.284  33.479  34.803  1.00  0.00     0.074 A 
ATOM     49  C   UNL A   1      38.259  34.474  34.576  1.00  0.00     0.031 C 
ATOM     50  C   UNL A   1      39.009  29.880  29.484  1.00  0.00     0.029 A 
ATOM     51  C   UNL A   1      39.917  29.728  30.617  1.00  0.00     0.049 A 
ATOM     52  H   UNL A   1      39.964  30.862  32.364  1.00  0.00     0.167 HD
ATOM     53  C   UNL A   1      40.069  33.430  35.908  1.00  0.00     0.037 A 
ATOM     54  C   UNL A   1      40.892  28.803  30.714  1.00  0.00     0.037 A 
ATOM     55  C   UNL A   1      41.064  32.417  36.144  1.00  0.00     0.049 A 
ATOM     56  C   UNL A   1      41.727  28.746  31.963  1.00  0.00     0.074 A 
ATOM     57  C   UNL A   1      41.861  32.239  37.262  1.00  0.00     0.029 A 
ATOM     58  N   UNL A   1      41.401  31.412  35.250  1.00  0.00    -0.354 N 
ATOM     59  N   UNL A   1      41.683  29.521  33.021  1.00  0.00    -0.248 NA
ATOM     60  C   UNL A   1      42.734  27.679  32.041  1.00  0.00     0.031 C 
ATOM     61  C   UNL A   1      42.709  31.151  37.026  1.00  0.00     0.029 A 
ATOM     62  C   UNL A   1      42.406  30.621  35.782  1.00  0.00     0.049 A 
ATOM     63  H   UNL A   1      40.987  31.281  34.366  1.00  0.00     0.167 HD
ATOM     64  C   UNL A   1      42.637  29.021  33.900  1.00  0.00     0.074 A 
ATOM     65  C   UNL A   1      43.232  27.867  33.256  1.00  0.00     0.031 C 
ATOM     66  C   UNL A   1      42.988  29.474  35.129  1.00  0.00     0.037 A 
BRANCH  53  67
ATOM     67  C   UNL A   1      39.877  34.502  36.947  1.00  0.00     0.058 A 
ATOM     68  C   UNL A   1      38.928  34.375  37.976  1.00  0.00     0.135 A 
ATOM     69  C   UNL A   1      40.667  35.663  36.930  1.00  0.00     0.135 A 
ATOM     70  F   UNL A   1      38.135  33.293  38.033  1.00  0.00    -0.206 F 
ATOM     71  C   UNL A   1      38.747  35.373  38.927  1.00  0.00     0.059 A 
ATOM     72  C   UNL A   1      40.523  36.661  37.889  1.00  0.00     0.059 A 
ATOM     73  F   UNL A   1      41.590  35.838  35.971  1.00  0.00    -0.206 F 
ATOM     74  C   UNL A   1      39.548  36.514  38.874  1.00  0.00     0.060 A 
BRANCH  74  75
ATOM     75  S   UNL A   1      39.297  37.802  40.114  1.00  0.00     0.124 S 
ATOM     76  O   UNL A   1      38.120  38.486  39.589  1.00  0.00    -0.237 OA
ATOM     77  O   UNL A   1      39.087  37.026  41.332  1.00  0.00    -0.237 OA
ATOM     78  O   UNL A   1      40.539  38.565  40.068  1.00  0.00    -0.744 OA
ENDBRANCH  74  75
ENDBRANCH  53  67
BRANCH  54  79
ATOM     79  C   UNL A   1      41.105  27.835  29.605  1.00  0.00     0.058 A 
ATOM     80  C   UNL A   1      42.229  27.926  28.771  1.00  0.00     0.135 A 
ATOM     81  C   UNL A   1      40.202  26.785  29.373  1.00  0.00     0.135 A 
ATOM     82  F   UNL A   1      43.117  28.916  28.951  1.00  0.00    -0.206 F 
ATOM     83  C   UNL A   1      42.447  27.021  27.739  1.00  0.00     0.059 A 
ATOM     84  C   UNL A   1      40.411  25.853  28.362  1.00  0.00     0.059 A 
ATOM     85  F   UNL A   1      39.120  26.643  30.154  1.00  0.00    -0.206 F 
ATOM     86  C   UNL A   1      41.532  25.983  27.544  1.00  0.00     0.060 A 
BRANCH  86  87
ATOM     87  S   UNL A   1      41.856  24.777  26.240  1.00  0.00     0.124 S 
ATOM     88  O   UNL A   1      40.754  23.839  26.428  1.00  0.00    -0.237 OA
ATOM     89  O   UNL A   1      41.795  25.601  25.037  1.00  0.00    -0.237 OA
ATOM     90  O   UNL A   1      43.182  24.269  26.576  1.00  0.00    -0.744 OA
ENDBRANCH  86  87
ENDBRANCH  54  79
BRANCH  66  91
ATOM     91  C   UNL A   1      44.041  28.701  35.875  1.00  0.00     0.058 A 
ATOM     92  C   UNL A   1      43.713  27.621  36.710  1.00  0.00     0.135 A 
ATOM     93  C   UNL A   1      45.399  29.026  35.727  1.00  0.00     0.135 A 
ATOM     94  F   UNL A   1      42.429  27.270  36.890  1.00  0.00    -0.206 F 
ATOM     95  C   UNL A   1      44.692  26.911  37.398  1.00  0.00     0.059 A 
ATOM     96  C   UNL A   1      46.396  28.312  36.383  1.00  0.00     0.059 A 
ATOM     97  F   UNL A   1      45.768  30.042  34.931  1.00  0.00    -0.206 F 
ATOM     98  C   UNL A   1      46.032  27.267  37.229  1.00  0.00     0.060 A 
BRANCH  98  99
ATOM     99  S   UNL A   1      47.295  26.332  38.119  1.00  0.00     0.124 S 
ATOM    100  O   UNL A   1      46.761  26.336  39.477  1.00  0.00    -0.237 OA
ATOM    101  O   UNL A   1      47.274  25.044  37.433  1.00  0.00    -0.237 OA
ATOM    102  O   UNL A   1      48.506  27.123  37.918  1.00  0.00    -0.744 OA
ENDBRANCH  98  99
ENDBRANCH  66  91
ENDBRANCH  40  41
ENDBRANCH  32  35
ENDBRANCH  30  31
ENDBRANCH  29  30
ENDBRANCH  28  29
ENDBRANCH   3  28
TORSDOF 19
ENDMDL
MODEL 3
REMARK VINA RESULT:     -12.7      6.492     12.319
REMARK SMILES O=C(NCCCNC(=O)c1ccc(-c2c3nc(c(-c4c(F)cc(S(=O)(=O)[O-])cc4F)c4ccc([nH]4)c(-c4c(F)cc(S(=O)(=O)[O-])cc4F)c4nc(c(-c5c(F)cc(S(=O)(=O)[O-])cc5F)c5ccc2[nH]5)C=C4)C=C3)cc1)c1ccc(C[C@H]2CCN(C(=O)Cc3cccc(O)c3)C2)cc1
REMARK SMILES IDX 1 1 2 2 3 3 76 5 77 6 97 7 78 8 96 9 79 10 80 11 81 12 82 13
REMARK SMILES IDX 95 14 83 15 84 16 85 17 86 18 87 19 88 20 89 21 94 22 90 23
REMARK SMILES IDX 92 24 91 25 93 26 4 28 5 29 6 30 7 31 8 32 9 34 10 35 11 36
REMARK SMILES IDX 75 37 12 38 74 39 13 40 14 41 15 42 68 43 16 44 73 45 67 46
REMARK SMILES IDX 69 47 17 48 72 49 66 50 65 51 18 53 52 54 31 55 51 56 32 57
REMARK SMILES IDX 35 58 50 59 70 60 33 61 34 62 49 64 71 65 36 66 19 67 20 68
REMARK SMILES IDX 29 69 21 70 22 71 28 72 30 73 23 74 24 75 25 76 26 77 27 78
REMARK SMILES IDX 53 79 54 80 63 81 55 82 56 83 62 84 64 85 57 86 58 87 59 88
REMARK SMILES IDX 60 89 61 90 37 91 38 92 47 93 39 94 40 95 46 96 48 97 41 98
REMARK SMILES IDX 42 99 43 100 44 101 45 102
REMARK H PARENT 3 4 93 27 7 33 69 52 35 63
REMARK Flexibility Score: inf
ROOT
ATOM      1  O   UNL A   1      37.597  20.060  24.671  1.00  0.00    -0.269 OA
ATOM      2  C   UNL A   1      37.838  21.089  25.300  1.00  0.00     0.251 C 
ATOM      3  N   UNL A   1      39.102  21.347  25.764  1.00  0.00    -0.352 N 
ATOM      4  H   UNL A   1      39.807  20.744  25.435  1.00  0.00     0.163 HD
ENDROOT
BRANCH   2   5
ATOM      5  C   UNL A   1      36.761  22.062  25.552  1.00  0.00     0.039 A 
ATOM      6  C   UNL A   1      35.621  21.670  26.253  1.00  0.00     0.014 A 
ATOM      7  C   UNL A   1      36.900  23.377  25.106  1.00  0.00     0.014 A 
ATOM      8  C   UNL A   1      34.584  22.579  26.443  1.00  0.00     0.004 A 
ATOM      9  C   UNL A   1      35.849  24.282  25.284  1.00  0.00     0.004 A 
ATOM     10  C   UNL A   1      34.670  23.883  25.930  1.00  0.00    -0.048 A 
BRANCH  10  11
ATOM     11  C   UNL A   1      33.514  24.841  26.100  1.00  0.00     0.041 C 
BRANCH  11  12
ATOM     12  C   UNL A   1      32.440  24.758  25.003  1.00  0.00     0.015 C 
ATOM     13  C   UNL A   1      31.011  25.061  25.481  1.00  0.00     0.027 C 
ATOM     14  C   UNL A   1      32.679  25.815  23.911  1.00  0.00     0.123 C 
ATOM     15  C   UNL A   1      30.321  25.613  24.252  1.00  0.00     0.120 C 
ATOM     16  N   UNL A   1      31.372  26.377  23.611  1.00  0.00    -0.342 N 
BRANCH  16  17
ATOM     17  C   UNL A   1      31.240  27.492  22.813  1.00  0.00     0.227 C 
ATOM     18  O   UNL A   1      30.621  27.453  21.747  1.00  0.00    -0.275 OA
BRANCH  17  19
ATOM     19  C   UNL A   1      31.941  28.773  23.247  1.00  0.00     0.135 C 
BRANCH  19  20
ATOM     20  C   UNL A   1      32.319  28.845  24.708  1.00  0.00    -0.035 A 
ATOM     21  C   UNL A   1      31.353  28.730  25.719  1.00  0.00     0.004 A 
ATOM     22  C   UNL A   1      33.658  29.066  25.070  1.00  0.00     0.050 A 
ATOM     23  C   UNL A   1      31.724  28.779  27.063  1.00  0.00     0.004 A 
ATOM     24  C   UNL A   1      34.015  29.121  26.416  1.00  0.00     0.115 A 
ATOM     25  C   UNL A   1      33.059  28.970  27.412  1.00  0.00     0.046 A 
BRANCH  24  26
ATOM     26  O   UNL A   1      35.306  29.321  26.801  1.00  0.00    -0.508 OA
ATOM     27  H   UNL A   1      35.857  28.588  26.993  1.00  0.00     0.293 HD
ENDBRANCH  24  26
ENDBRANCH  19  20
ENDBRANCH  17  19
ENDBRANCH  16  17
ENDBRANCH  11  12
ENDBRANCH  10  11
ENDBRANCH   2   5
BRANCH   3  28
ATOM     28  C   UNL A   1      39.547  22.390  26.679  1.00  0.00     0.118 C 
BRANCH  28  29
ATOM     29  C   UNL A   1      40.692  21.931  27.573  1.00  0.00     0.042 C 
BRANCH  29  30
ATOM     30  C   UNL A   1      41.877  22.889  27.629  1.00  0.00     0.118 C 
BRANCH  30  31
ATOM     31  N   UNL A   1      41.991  23.720  26.441  1.00  0.00    -0.352 N 
ATOM     32  C   UNL A   1      41.790  25.067  26.269  1.00  0.00     0.251 C 
ATOM     33  H   UNL A   1      42.256  23.237  25.624  1.00  0.00     0.163 HD
ATOM     34  O   UNL A   1      41.790  25.523  25.126  1.00  0.00    -0.269 OA
BRANCH  32  35
ATOM     35  C   UNL A   1      41.560  25.966  27.423  1.00  0.00     0.039 A 
ATOM     36  C   UNL A   1      42.508  26.958  27.696  1.00  0.00     0.014 A 
ATOM     37  C   UNL A   1      40.455  25.819  28.265  1.00  0.00     0.014 A 
ATOM     38  C   UNL A   1      42.323  27.824  28.778  1.00  0.00     0.010 A 
ATOM     39  C   UNL A   1      40.226  26.738  29.288  1.00  0.00     0.010 A 
ATOM     40  C   UNL A   1      41.166  27.741  29.569  1.00  0.00    -0.014 A 
BRANCH  40  41
ATOM     41  C   UNL A   1      40.941  28.678  30.700  1.00  0.00     0.031 A 
ATOM     42  C   UNL A   1      41.770  28.572  31.954  1.00  0.00     0.074 A 
ATOM     43  C   UNL A   1      39.961  29.599  30.619  1.00  0.00     0.049 A 
ATOM     44  N   UNL A   1      41.705  29.282  33.051  1.00  0.00    -0.248 NA
ATOM     45  C   UNL A   1      42.788  27.508  31.992  1.00  0.00     0.031 C 
ATOM     46  C   UNL A   1      39.046  29.763  29.487  1.00  0.00     0.029 A 
ATOM     47  N   UNL A   1      39.562  30.567  31.508  1.00  0.00    -0.354 N 
ATOM     48  C   UNL A   1      42.653  28.743  33.912  1.00  0.00     0.074 A 
ATOM     49  C   UNL A   1      43.243  27.611  33.232  1.00  0.00     0.031 C 
ATOM     50  C   UNL A   1      38.212  30.786  29.739  1.00  0.00     0.029 A 
ATOM     51  C   UNL A   1      38.511  31.330  31.059  1.00  0.00     0.049 A 
ATOM     52  H   UNL A   1      39.990  30.700  32.385  1.00  0.00     0.167 HD
ATOM     53  C   UNL A   1      43.020  29.166  35.147  1.00  0.00     0.037 A 
ATOM     54  C   UNL A   1      37.860  32.355  31.644  1.00  0.00     0.037 A 
ATOM     55  C   UNL A   1      42.453  30.313  35.806  1.00  0.00     0.049 A 
ATOM     56  C   UNL A   1      38.306  32.830  32.999  1.00  0.00     0.074 A 
ATOM     57  C   UNL A   1      42.804  30.866  37.025  1.00  0.00     0.029 A 
ATOM     58  N   UNL A   1      41.416  31.085  35.303  1.00  0.00    -0.354 N 
ATOM     59  N   UNL A   1      39.258  32.355  33.767  1.00  0.00    -0.248 NA
ATOM     60  C   UNL A   1      37.602  33.990  33.562  1.00  0.00     0.031 C 
ATOM     61  C   UNL A   1      41.952  31.947  37.278  1.00  0.00     0.029 A 
ATOM     62  C   UNL A   1      41.102  32.098  36.194  1.00  0.00     0.049 A 
ATOM     63  H   UNL A   1      40.968  30.934  34.438  1.00  0.00     0.167 HD
ATOM     64  C   UNL A   1      39.285  33.173  34.891  1.00  0.00     0.074 A 
ATOM     65  C   UNL A   1      38.263  34.181  34.696  1.00  0.00     0.031 C 
ATOM     66  C   UNL A   1      40.083  33.096  35.985  1.00  0.00     0.037 A 
BRANCH  53  67
ATOM     67  C   UNL A   1      44.088  28.384  35.863  1.00  0.00     0.058 A 
ATOM     68  C   UNL A   1      45.454  28.659  35.681  1.00  0.00     0.135 A 
ATOM     69  C   UNL A   1      43.744  27.362  36.763  1.00  0.00     0.135 A 
ATOM     70  F   UNL A   1      45.842  29.616  34.822  1.00  0.00    -0.206 F 
ATOM     71  C   UNL A   1      46.439  27.927  36.336  1.00  0.00     0.059 A 
ATOM     72  C   UNL A   1      44.712  26.637  37.452  1.00  0.00     0.059 A 
ATOM     73  F   UNL A   1      42.455  27.057  36.978  1.00  0.00    -0.206 F 
ATOM     74  C   UNL A   1      46.057  26.916  37.218  1.00  0.00     0.060 A 
BRANCH  74  75
ATOM     75  S   UNL A   1      47.347  25.972  38.058  1.00  0.00     0.124 S 
ATOM     76  O   UNL A   1      48.547  26.702  37.661  1.00  0.00    -0.237 OA
ATOM     77  O   UNL A   1      46.965  26.100  39.460  1.00  0.00    -0.237 OA
ATOM     78  O   UNL A   1      47.212  24.633  37.494  1.00  0.00    -0.744 OA
ENDBRANCH  74  75
ENDBRANCH  53  67
BRANCH  54  79
ATOM     79  C   UNL A   1      36.738  33.021  30.930  1.00  0.00     0.058 A 
ATOM     80  C   UNL A   1      35.408  32.814  31.321  1.00  0.00     0.135 A 
ATOM     81  C   UNL A   1      36.976  33.897  29.859  1.00  0.00     0.135 A 
ATOM     82  F   UNL A   1      35.130  31.981  32.336  1.00  0.00    -0.206 F 
ATOM     83  C   UNL A   1      34.350  33.440  30.671  1.00  0.00     0.059 A 
ATOM     84  C   UNL A   1      35.937  34.554  29.208  1.00  0.00     0.059 A 
ATOM     85  F   UNL A   1      38.233  34.143  29.457  1.00  0.00    -0.206 F 
ATOM     86  C   UNL A   1      34.625  34.312  29.616  1.00  0.00     0.060 A 
BRANCH  86  87
ATOM     87  S   UNL A   1      33.250  35.168  28.817  1.00  0.00     0.124 S 
ATOM     88  O   UNL A   1      32.683  34.106  27.993  1.00  0.00    -0.237 OA
ATOM     89  O   UNL A   1      32.445  35.589  29.960  1.00  0.00    -0.237 OA
ATOM     90  O   UNL A   1      33.906  36.250  28.090  1.00  0.00    -0.744 OA
ENDBRANCH  86  87
ENDBRANCH  54  79
BRANCH  66  91
ATOM     91  C   UNL A   1      39.908  34.153  37.042  1.00  0.00     0.058 A 
ATOM     92  C   UNL A   1      40.475  35.431  36.912  1.00  0.00     0.135 A 
ATOM     93  C   UNL A   1      39.135  33.893  38.186  1.00  0.00     0.135 A 
ATOM     94  F   UNL A   1      41.226  35.731  35.839  1.00  0.00    -0.206 F 
ATOM     95  C   UNL A   1      40.310  36.402  37.894  1.00  0.00     0.059 A 
ATOM     96  C   UNL A   1      38.934  34.858  39.166  1.00  0.00     0.059 A 
ATOM     97  F   UNL A   1      38.560  32.692  38.354  1.00  0.00    -0.206 F 
ATOM     98  C   UNL A   1      39.540  36.105  39.019  1.00  0.00     0.060 A 
BRANCH  98  99
ATOM     99  S   UNL A   1      39.324  37.377  40.283  1.00  0.00     0.124 S 
ATOM    100  O   UNL A   1      38.556  38.384  39.557  1.00  0.00    -0.237 OA
ATOM    101  O   UNL A   1      38.602  36.661  41.329  1.00  0.00    -0.237 OA
ATOM    102  O   UNL A   1      40.693  37.755  40.621  1.00  0.00    -0.744 OA
ENDBRANCH  98  99
ENDBRANCH  66  91
ENDBRANCH  40  41
ENDBRANCH  32  35
ENDBRANCH  30  31
ENDBRANCH  29  30
ENDBRANCH  28  29
ENDBRANCH   3  28
TORSDOF 19
ENDMDL
