MODEL 1
REMARK VINA RESULT:     -11.4      0.000      0.000
REMARK SMILES COc1cc([C@H]2CC(c3ccc(S(C)(=O)=O)cc3)=NN2c2ccc(C(=O)NCCCNC(=O)c3ccc(-c4c5nc(c(-c6c(F)cc(S(=O)(=O)[O-])cc6F)c6ccc([nH]6)c(-c6c(F)cc(S(=O)(=O)[O-])cc6F)c6nc(c(-c7c(F)cc(S(=O)(=O)[O-])cc7F)c7ccc4[nH]7)C=C6)C=C5)cc3)cc2)cc(OC)c1OC
REMARK SMILES IDX 29 1 28 2 27 3 25 4 26 5 24 7 21 8 22 9 101 10 23 11 100 12
REMARK SMILES IDX 20 13 6 14 7 15 8 16 19 17 5 18 3 19 4 20 106 21 103 22
REMARK SMILES IDX 102 23 2 24 1 25 107 26 108 27 104 28 105 29 9 30 10 31
REMARK SMILES IDX 18 32 11 33 17 34 12 35 13 36 14 37 15 38 16 39 30 40 31 41
REMARK SMILES IDX 32 42 33 44 34 45 35 46 99 47 36 48 98 49 37 50 38 51 39 52
REMARK SMILES IDX 92 53 40 54 97 55 91 56 93 57 41 58 96 59 90 60 89 61 42 63
REMARK SMILES IDX 76 64 55 65 75 66 56 67 59 68 74 69 94 70 57 71 58 72 73 74
REMARK SMILES IDX 95 75 60 76 43 77 44 78 53 79 45 80 46 81 52 82 54 83 47 84
REMARK SMILES IDX 48 85 49 86 50 87 51 88 77 89 78 90 87 91 79 92 80 93 86 94
REMARK SMILES IDX 88 95 81 96 82 97 83 98 84 99 85 100 61 101 62 102 71 103
REMARK SMILES IDX 63 104 64 105 70 106 72 107 65 108 66 109 67 110 68 111
REMARK SMILES IDX 69 112
REMARK H PARENT 27 6 31 43 93 62 59 73
REMARK Flexibility Score: inf
ROOT
ATOM      1  C   UNL A   1      32.376  33.430  27.686  1.00  0.00     0.042 C 
ENDROOT
BRANCH   1   2
ATOM      2  C   UNL A   1      32.870  32.110  27.095  1.00  0.00     0.118 C 
BRANCH   2   3
ATOM      3  N   UNL A   1      33.935  31.547  27.901  1.00  0.00    -0.352 N 
ATOM      4  C   UNL A   1      34.357  30.259  28.104  1.00  0.00     0.251 C 
ATOM      5  O   UNL A   1      35.343  30.090  28.823  1.00  0.00    -0.269 OA
ATOM      6  H   UNL A   1      34.455  32.219  28.399  1.00  0.00     0.163 HD
BRANCH   4   7
ATOM      7  C   UNL A   1      33.726  29.083  27.447  1.00  0.00     0.039 A 
ATOM      8  C   UNL A   1      32.634  26.914  26.003  1.00  0.00     0.060 A 
ATOM      9  C   UNL A   1      33.925  27.378  25.731  1.00  0.00     0.029 A 
ATOM     10  C   UNL A   1      31.927  27.498  27.055  1.00  0.00     0.029 A 
ATOM     11  C   UNL A   1      34.459  28.462  26.427  1.00  0.00     0.016 A 
ATOM     12  C   UNL A   1      32.484  28.548  27.795  1.00  0.00     0.016 A 
BRANCH   8  13
ATOM     13  N   UNL A   1      32.110  25.885  25.241  1.00  0.00    -0.257 N 
ATOM     14  C   UNL A   1      30.700  25.751  24.866  1.00  0.00     0.144 C 
ATOM     15  C   UNL A   1      30.710  24.408  24.107  1.00  0.00     0.091 C 
ATOM     16  C   UNL A   1      32.032  23.869  24.586  1.00  0.00     0.071 C 
ATOM     17  N   UNL A   1      32.804  24.722  25.180  1.00  0.00    -0.176 NA
BRANCH  14  18
ATOM     18  C   UNL A   1      30.231  26.963  24.071  1.00  0.00    -0.015 A 
ATOM     19  C   UNL A   1      30.693  28.773  22.486  1.00  0.00     0.164 A 
ATOM     20  C   UNL A   1      31.139  27.744  23.341  1.00  0.00     0.056 A 
ATOM     21  C   UNL A   1      29.321  29.040  22.319  1.00  0.00     0.203 A 
ATOM     22  C   UNL A   1      28.408  28.257  23.055  1.00  0.00     0.164 A 
ATOM     23  C   UNL A   1      28.869  27.249  23.923  1.00  0.00     0.056 A 
BRANCH  19  24
ATOM     24  O   UNL A   1      31.647  29.402  21.723  1.00  0.00    -0.493 OA
ATOM     25  C   UNL A   1      32.970  29.118  22.177  1.00  0.00     0.278 C 
ENDBRANCH  19  24
BRANCH  21  26
ATOM     26  O   UNL A   1      28.771  29.992  21.506  1.00  0.00    -0.490 OA
ATOM     27  C   UNL A   1      28.759  31.360  21.871  1.00  0.00     0.278 C 
ENDBRANCH  21  26
BRANCH  22  28
ATOM     28  O   UNL A   1      27.035  28.346  23.059  1.00  0.00    -0.493 OA
ATOM     29  C   UNL A   1      26.314  27.514  23.959  1.00  0.00     0.278 C 
ENDBRANCH  22  28
ENDBRANCH  14  18
BRANCH  16  30
ATOM     30  C   UNL A   1      32.441  22.471  24.402  1.00  0.00    -0.002 A 
ATOM     31  C   UNL A   1      32.067  21.824  23.216  1.00  0.00     0.011 A 
ATOM     32  C   UNL A   1      33.086  21.772  25.423  1.00  0.00     0.011 A 
ATOM     33  C   UNL A   1      32.344  20.469  23.043  1.00  0.00     0.021 A 
ATOM     34  C   UNL A   1      33.340  20.406  25.262  1.00  0.00     0.021 A 
ATOM     35  C   UNL A   1      32.959  19.761  24.078  1.00  0.00     0.067 A 
BRANCH  35  36
ATOM     36  S   UNL A   1      33.252  18.015  23.884  1.00  0.00     0.175 S 
ATOM     37  C   UNL A   1      32.307  17.257  25.182  1.00  0.00     0.163 C 
ATOM     38  O   UNL A   1      32.669  17.633  22.608  1.00  0.00    -0.224 OA
ATOM     39  O   UNL A   1      34.651  17.771  24.166  1.00  0.00    -0.224 OA
ENDBRANCH  35  36
ENDBRANCH  16  30
ENDBRANCH   8  13
ENDBRANCH   4   7
ENDBRANCH   2   3
ENDBRANCH   1   2
BRANCH   1  40
ATOM     40  C   UNL A   1      33.441  34.157  28.505  1.00  0.00     0.118 C 
BRANCH  40  41
ATOM     41  N   UNL A   1      32.848  35.022  29.516  1.00  0.00    -0.352 N 
ATOM     42  C   UNL A   1      33.112  35.119  30.857  1.00  0.00     0.251 C 
ATOM     43  H   UNL A   1      32.150  35.631  29.184  1.00  0.00     0.163 HD
ATOM     44  O   UNL A   1      32.333  35.737  31.580  1.00  0.00    -0.269 OA
BRANCH  42  45
ATOM     45  C   UNL A   1      34.314  34.483  31.440  1.00  0.00     0.039 A 
ATOM     46  C   UNL A   1      34.147  33.540  32.460  1.00  0.00     0.014 A 
ATOM     47  C   UNL A   1      35.599  34.839  31.022  1.00  0.00     0.014 A 
ATOM     48  C   UNL A   1      35.264  32.914  33.018  1.00  0.00     0.010 A 
ATOM     49  C   UNL A   1      36.710  34.170  31.536  1.00  0.00     0.010 A 
ATOM     50  C   UNL A   1      36.553  33.199  32.537  1.00  0.00    -0.014 A 
BRANCH  50  51
ATOM     51  C   UNL A   1      37.740  32.467  33.047  1.00  0.00     0.031 A 
ATOM     52  C   UNL A   1      38.387  32.871  34.344  1.00  0.00     0.074 A 
ATOM     53  C   UNL A   1      38.275  31.480  32.302  1.00  0.00     0.049 A 
ATOM     54  N   UNL A   1      39.469  32.398  34.907  1.00  0.00    -0.248 NA
ATOM     55  C   UNL A   1      37.749  33.964  35.095  1.00  0.00     0.031 C 
ATOM     56  C   UNL A   1      37.764  31.031  31.003  1.00  0.00     0.029 A 
ATOM     57  N   UNL A   1      39.372  30.685  32.517  1.00  0.00    -0.354 N 
ATOM     58  C   UNL A   1      39.650  33.140  36.069  1.00  0.00     0.074 A 
ATOM     59  C   UNL A   1      38.588  34.122  36.109  1.00  0.00     0.031 C 
ATOM     60  C   UNL A   1      38.539  30.036  30.545  1.00  0.00     0.029 A 
ATOM     61  C   UNL A   1      39.621  29.800  31.495  1.00  0.00     0.049 A 
ATOM     62  H   UNL A   1      39.929  30.744  33.327  1.00  0.00     0.167 HD
ATOM     63  C   UNL A   1      40.602  33.001  37.021  1.00  0.00     0.037 A 
ATOM     64  C   UNL A   1      40.617  28.906  31.333  1.00  0.00     0.037 A 
ATOM     65  C   UNL A   1      41.642  32.005  36.984  1.00  0.00     0.049 A 
ATOM     66  C   UNL A   1      41.663  28.773  32.405  1.00  0.00     0.074 A 
ATOM     67  C   UNL A   1      42.614  31.740  37.935  1.00  0.00     0.029 A 
ATOM     68  N   UNL A   1      41.850  31.111  35.943  1.00  0.00    -0.354 N 
ATOM     69  N   UNL A   1      41.778  29.437  33.531  1.00  0.00    -0.248 NA
ATOM     70  C   UNL A   1      42.713  27.768  32.189  1.00  0.00     0.031 C 
ATOM     71  C   UNL A   1      43.435  30.716  37.449  1.00  0.00     0.029 A 
ATOM     72  C   UNL A   1      42.947  30.311  36.217  1.00  0.00     0.049 A 
ATOM     73  H   UNL A   1      41.299  31.055  35.130  1.00  0.00     0.167 HD
ATOM     74  C   UNL A   1      42.899  28.918  34.165  1.00  0.00     0.074 A 
ATOM     75  C   UNL A   1      43.418  27.873  33.306  1.00  0.00     0.031 C 
ATOM     76  C   UNL A   1      43.451  29.275  35.351  1.00  0.00     0.037 A 
BRANCH  63  77
ATOM     77  C   UNL A   1      40.567  33.945  38.193  1.00  0.00     0.058 A 
ATOM     78  C   UNL A   1      41.291  35.147  38.190  1.00  0.00     0.135 A 
ATOM     79  C   UNL A   1      39.756  33.671  39.306  1.00  0.00     0.135 A 
ATOM     80  F   UNL A   1      42.091  35.452  37.156  1.00  0.00    -0.206 F 
ATOM     81  C   UNL A   1      41.230  36.036  39.258  1.00  0.00     0.059 A 
ATOM     82  C   UNL A   1      39.661  34.558  40.376  1.00  0.00     0.059 A 
ATOM     83  F   UNL A   1      39.042  32.536  39.361  1.00  0.00    -0.206 F 
ATOM     84  C   UNL A   1      40.410  35.733  40.347  1.00  0.00     0.060 A 
BRANCH  84  85
ATOM     85  S   UNL A   1      40.328  36.907  41.717  1.00  0.00     0.124 S 
ATOM     86  O   UNL A   1      41.653  37.516  41.657  1.00  0.00    -0.237 OA
ATOM     87  O   UNL A   1      39.217  37.768  41.325  1.00  0.00    -0.237 OA
ATOM     88  O   UNL A   1      40.080  36.058  42.878  1.00  0.00    -0.744 OA
ENDBRANCH  84  85
ENDBRANCH  63  77
BRANCH  64  89
ATOM     89  C   UNL A   1      40.666  28.065  30.109  1.00  0.00     0.058 A 
ATOM     90  C   UNL A   1      41.616  28.305  29.105  1.00  0.00     0.135 A 
ATOM     91  C   UNL A   1      39.772  26.999  29.921  1.00  0.00     0.135 A 
ATOM     92  F   UNL A   1      42.489  29.316  29.237  1.00  0.00    -0.206 F 
ATOM     93  C   UNL A   1      41.669  27.531  27.950  1.00  0.00     0.059 A 
ATOM     94  C   UNL A   1      39.821  26.194  28.787  1.00  0.00     0.059 A 
ATOM     95  F   UNL A   1      38.855  26.716  30.860  1.00  0.00    -0.206 F 
ATOM     96  C   UNL A   1      40.767  26.476  27.801  1.00  0.00     0.060 A 
BRANCH  96  97
ATOM     97  S   UNL A   1      40.873  25.445  26.323  1.00  0.00     0.124 S 
ATOM     98  O   UNL A   1      39.532  24.873  26.268  1.00  0.00    -0.237 OA
ATOM     99  O   UNL A   1      41.193  26.423  25.287  1.00  0.00    -0.237 OA
ATOM    100  O   UNL A   1      41.947  24.509  26.643  1.00  0.00    -0.744 OA
ENDBRANCH  96  97
ENDBRANCH  64  89
BRANCH  76 101
ATOM    101  C   UNL A   1      44.669  28.516  35.800  1.00  0.00     0.058 A 
ATOM    102  C   UNL A   1      45.964  28.955  35.488  1.00  0.00     0.135 A 
ATOM    103  C   UNL A   1      44.538  27.363  36.591  1.00  0.00     0.135 A 
ATOM    104  F   UNL A   1      46.143  30.047  34.728  1.00  0.00    -0.206 F 
ATOM    105  C   UNL A   1      47.089  28.265  35.926  1.00  0.00     0.059 A 
ATOM    106  C   UNL A   1      45.649  26.671  37.061  1.00  0.00     0.059 A 
ATOM    107  F   UNL A   1      43.321  26.906  36.924  1.00  0.00    -0.206 F 
ATOM    108  C   UNL A   1      46.922  27.124  36.714  1.00  0.00     0.060 A 
BRANCH 108 109
ATOM    109  S   UNL A   1      48.390  26.255  37.304  1.00  0.00     0.124 S 
ATOM    110  O   UNL A   1      49.420  27.278  37.146  1.00  0.00    -0.237 OA
ATOM    111  O   UNL A   1      48.029  25.926  38.679  1.00  0.00    -0.237 OA
ATOM    112  O   UNL A   1      48.495  25.114  36.401  1.00  0.00    -0.744 OA
ENDBRANCH 108 109
ENDBRANCH  76 101
ENDBRANCH  50  51
ENDBRANCH  42  45
ENDBRANCH  40  41
ENDBRANCH   1  40
TORSDOF 20
ENDMDL
MODEL 2
REMARK VINA RESULT:     -11.2     10.372     16.348
REMARK SMILES COc1cc([C@H]2CC(c3ccc(S(C)(=O)=O)cc3)=NN2c2ccc(C(=O)NCCCNC(=O)c3ccc(-c4c5nc(c(-c6c(F)cc(S(=O)(=O)[O-])cc6F)c6ccc([nH]6)c(-c6c(F)cc(S(=O)(=O)[O-])cc6F)c6nc(c(-c7c(F)cc(S(=O)(=O)[O-])cc7F)c7ccc4[nH]7)C=C6)C=C5)cc3)cc2)cc(OC)c1OC
REMARK SMILES IDX 29 1 28 2 27 3 25 4 26 5 24 7 21 8 22 9 101 10 23 11 100 12
REMARK SMILES IDX 20 13 6 14 7 15 8 16 19 17 5 18 3 19 4 20 106 21 103 22
REMARK SMILES IDX 102 23 2 24 1 25 107 26 108 27 104 28 105 29 9 30 10 31
REMARK SMILES IDX 18 32 11 33 17 34 12 35 13 36 14 37 15 38 16 39 30 40 31 41
REMARK SMILES IDX 32 42 33 44 34 45 35 46 99 47 36 48 98 49 37 50 38 51 39 52
REMARK SMILES IDX 92 53 40 54 97 55 91 56 93 57 41 58 96 59 90 60 89 61 42 63
REMARK SMILES IDX 76 64 55 65 75 66 56 67 59 68 74 69 94 70 57 71 58 72 73 74
REMARK SMILES IDX 95 75 60 76 43 77 44 78 53 79 45 80 46 81 52 82 54 83 47 84
REMARK SMILES IDX 48 85 49 86 50 87 51 88 77 89 78 90 87 91 79 92 80 93 86 94
REMARK SMILES IDX 88 95 81 96 82 97 83 98 84 99 85 100 61 101 62 102 71 103
REMARK SMILES IDX 63 104 64 105 70 106 72 107 65 108 66 109 67 110 68 111
REMARK SMILES IDX 69 112
REMARK H PARENT 27 6 31 43 93 62 59 73
REMARK Flexibility Score: inf
ROOT
ATOM      1  C   UNL A   1      44.842  38.726  30.592  1.00  0.00     0.042 C 
ENDROOT
BRANCH   1   2
ATOM      2  C   UNL A   1      43.433  38.902  30.027  1.00  0.00     0.118 C 
BRANCH   2   3
ATOM      3  N   UNL A   1      43.149  37.899  29.019  1.00  0.00    -0.352 N 
ATOM      4  C   UNL A   1      43.179  37.933  27.649  1.00  0.00     0.251 C 
ATOM      5  O   UNL A   1      42.931  36.886  27.050  1.00  0.00    -0.269 OA
ATOM      6  H   UNL A   1      42.885  37.025  29.390  1.00  0.00     0.163 HD
BRANCH   4   7
ATOM      7  C   UNL A   1      43.562  39.142  26.873  1.00  0.00     0.039 A 
ATOM      8  C   UNL A   1      44.084  41.425  25.292  1.00  0.00     0.060 A 
ATOM      9  C   UNL A   1      42.790  41.150  25.749  1.00  0.00     0.029 A 
ATOM     10  C   UNL A   1      45.122  40.586  25.698  1.00  0.00     0.029 A 
ATOM     11  C   UNL A   1      42.526  40.013  26.512  1.00  0.00     0.016 A 
ATOM     12  C   UNL A   1      44.869  39.476  26.512  1.00  0.00     0.016 A 
BRANCH   8  13
ATOM     13  N   UNL A   1      44.295  42.522  24.475  1.00  0.00    -0.257 N 
ATOM     14  C   UNL A   1      44.293  43.917  24.924  1.00  0.00     0.144 C 
ATOM     15  C   UNL A   1      44.499  44.668  23.593  1.00  0.00     0.091 C 
ATOM     16  C   UNL A   1      44.144  43.563  22.634  1.00  0.00     0.071 C 
ATOM     17  N   UNL A   1      44.074  42.376  23.146  1.00  0.00    -0.176 NA
BRANCH  14  18
ATOM     18  C   UNL A   1      45.357  44.144  25.990  1.00  0.00    -0.015 A 
ATOM     19  C   UNL A   1      46.118  43.947  28.311  1.00  0.00     0.164 A 
ATOM     20  C   UNL A   1      45.095  43.881  27.343  1.00  0.00     0.056 A 
ATOM     21  C   UNL A   1      47.443  44.258  27.953  1.00  0.00     0.203 A 
ATOM     22  C   UNL A   1      47.707  44.526  26.593  1.00  0.00     0.164 A 
ATOM     23  C   UNL A   1      46.671  44.481  25.642  1.00  0.00     0.056 A 
BRANCH  19  24
ATOM     24  O   UNL A   1      45.790  43.555  29.586  1.00  0.00    -0.493 OA
ATOM     25  C   UNL A   1      44.704  44.314  30.118  1.00  0.00     0.278 C 
ENDBRANCH  19  24
BRANCH  21  26
ATOM     26  O   UNL A   1      48.518  44.329  28.795  1.00  0.00    -0.490 OA
ATOM     27  C   UNL A   1      49.229  43.169  29.185  1.00  0.00     0.278 C 
ENDBRANCH  21  26
BRANCH  22  28
ATOM     28  O   UNL A   1      48.912  44.860  26.020  1.00  0.00    -0.493 OA
ATOM     29  C   UNL A   1      49.643  45.943  26.581  1.00  0.00     0.278 C 
ENDBRANCH  22  28
ENDBRANCH  14  18
BRANCH  16  30
ATOM     30  C   UNL A   1      43.890  43.793  21.205  1.00  0.00    -0.002 A 
ATOM     31  C   UNL A   1      44.813  44.565  20.487  1.00  0.00     0.011 A 
ATOM     32  C   UNL A   1      42.710  43.351  20.607  1.00  0.00     0.011 A 
ATOM     33  C   UNL A   1      44.561  44.894  19.156  1.00  0.00     0.021 A 
ATOM     34  C   UNL A   1      42.442  43.704  19.280  1.00  0.00     0.021 A 
ATOM     35  C   UNL A   1      43.364  44.481  18.566  1.00  0.00     0.067 A 
BRANCH  35  36
ATOM     36  S   UNL A   1      43.011  44.959  16.888  1.00  0.00     0.175 S 
ATOM     37  C   UNL A   1      41.239  45.027  16.806  1.00  0.00     0.163 C 
ATOM     38  O   UNL A   1      43.530  46.306  16.719  1.00  0.00    -0.224 OA
ATOM     39  O   UNL A   1      43.444  43.881  16.024  1.00  0.00    -0.224 OA
ENDBRANCH  35  36
ENDBRANCH  16  30
ENDBRANCH   8  13
ENDBRANCH   4   7
ENDBRANCH   2   3
ENDBRANCH   1   2
BRANCH   1  40
ATOM     40  C   UNL A   1      45.510  37.427  30.146  1.00  0.00     0.118 C 
BRANCH  40  41
ATOM     41  N   UNL A   1      46.849  37.661  29.622  1.00  0.00    -0.352 N 
ATOM     42  C   UNL A   1      47.776  36.771  29.146  1.00  0.00     0.251 C 
ATOM     43  H   UNL A   1      47.131  38.604  29.608  1.00  0.00     0.163 HD
ATOM     44  O   UNL A   1      48.935  37.143  28.980  1.00  0.00    -0.269 OA
BRANCH  42  45
ATOM     45  C   UNL A   1      47.398  35.373  28.843  1.00  0.00     0.039 A 
ATOM     46  C   UNL A   1      47.515  34.412  29.852  1.00  0.00     0.014 A 
ATOM     47  C   UNL A   1      46.974  34.996  27.565  1.00  0.00     0.014 A 
ATOM     48  C   UNL A   1      47.151  33.087  29.597  1.00  0.00     0.010 A 
ATOM     49  C   UNL A   1      46.553  33.688  27.328  1.00  0.00     0.010 A 
ATOM     50  C   UNL A   1      46.635  32.721  28.343  1.00  0.00    -0.014 A 
BRANCH  50  51
ATOM     51  C   UNL A   1      46.148  31.342  28.087  1.00  0.00     0.031 A 
ATOM     52  C   UNL A   1      44.712  30.977  28.350  1.00  0.00     0.074 A 
ATOM     53  C   UNL A   1      47.023  30.401  27.682  1.00  0.00     0.049 A 
ATOM     54  N   UNL A   1      44.129  29.810  28.255  1.00  0.00    -0.248 NA
ATOM     55  C   UNL A   1      43.822  32.059  28.799  1.00  0.00     0.031 C 
ATOM     56  C   UNL A   1      48.452  30.624  27.440  1.00  0.00     0.029 A 
ATOM     57  N   UNL A   1      46.848  29.066  27.415  1.00  0.00    -0.354 N 
ATOM     58  C   UNL A   1      42.808  30.011  28.643  1.00  0.00     0.074 A 
ATOM     59  C   UNL A   1      42.688  31.406  29.014  1.00  0.00     0.031 C 
ATOM     60  C   UNL A   1      49.018  29.471  27.052  1.00  0.00     0.029 A 
ATOM     61  C   UNL A   1      48.006  28.419  27.052  1.00  0.00     0.049 A 
ATOM     62  H   UNL A   1      45.976  28.614  27.480  1.00  0.00     0.167 HD
ATOM     63  C   UNL A   1      41.790  29.120  28.670  1.00  0.00     0.037 A 
ATOM     64  C   UNL A   1      48.232  27.122  26.763  1.00  0.00     0.037 A 
ATOM     65  C   UNL A   1      41.914  27.740  28.277  1.00  0.00     0.049 A 
ATOM     66  C   UNL A   1      47.083  26.153  26.801  1.00  0.00     0.074 A 
ATOM     67  C   UNL A   1      40.924  26.774  28.205  1.00  0.00     0.029 A 
ATOM     68  N   UNL A   1      43.097  27.126  27.893  1.00  0.00    -0.354 N 
ATOM     69  N   UNL A   1      45.826  26.377  27.104  1.00  0.00    -0.248 NA
ATOM     70  C   UNL A   1      47.379  24.756  26.455  1.00  0.00     0.031 C 
ATOM     71  C   UNL A   1      41.517  25.567  27.819  1.00  0.00     0.029 A 
ATOM     72  C   UNL A   1      42.868  25.790  27.606  1.00  0.00     0.049 A 
ATOM     73  H   UNL A   1      43.972  27.574  27.834  1.00  0.00     0.167 HD
ATOM     74  C   UNL A   1      45.179  25.156  26.967  1.00  0.00     0.074 A 
ATOM     75  C   UNL A   1      46.179  24.199  26.537  1.00  0.00     0.031 C 
ATOM     76  C   UNL A   1      43.875  24.851  27.179  1.00  0.00     0.037 A 
BRANCH  63  77
ATOM     77  C   UNL A   1      40.444  29.606  29.135  1.00  0.00     0.058 A 
ATOM     78  C   UNL A   1      39.391  29.829  28.233  1.00  0.00     0.135 A 
ATOM     79  C   UNL A   1      40.186  29.797  30.502  1.00  0.00     0.135 A 
ATOM     80  F   UNL A   1      39.586  29.672  26.914  1.00  0.00    -0.206 F 
ATOM     81  C   UNL A   1      38.137  30.243  28.667  1.00  0.00     0.059 A 
ATOM     82  C   UNL A   1      38.931  30.188  30.961  1.00  0.00     0.059 A 
ATOM     83  F   UNL A   1      41.157  29.598  31.407  1.00  0.00    -0.206 F 
ATOM     84  C   UNL A   1      37.916  30.420  30.034  1.00  0.00     0.060 A 
BRANCH  84  85
ATOM     85  S   UNL A   1      36.276  30.941  30.583  1.00  0.00     0.124 S 
ATOM     86  O   UNL A   1      35.470  30.657  29.399  1.00  0.00    -0.237 OA
ATOM     87  O   UNL A   1      36.040  30.073  31.732  1.00  0.00    -0.237 OA
ATOM     88  O   UNL A   1      36.455  32.355  30.895  1.00  0.00    -0.744 OA
ENDBRANCH  84  85
ENDBRANCH  63  77
BRANCH  64  89
ATOM     89  C   UNL A   1      49.602  26.670  26.406  1.00  0.00     0.058 A 
ATOM     90  C   UNL A   1      50.442  26.087  27.366  1.00  0.00     0.135 A 
ATOM     91  C   UNL A   1      50.096  26.802  25.099  1.00  0.00     0.135 A 
ATOM     92  F   UNL A   1      50.016  25.943  28.631  1.00  0.00    -0.206 F 
ATOM     93  C   UNL A   1      51.730  25.666  27.048  1.00  0.00     0.059 A 
ATOM     94  C   UNL A   1      51.370  26.366  24.751  1.00  0.00     0.059 A 
ATOM     95  F   UNL A   1      49.324  27.338  24.139  1.00  0.00    -0.206 F 
ATOM     96  C   UNL A   1      52.184  25.809  25.736  1.00  0.00     0.060 A 
BRANCH  96  97
ATOM     97  S   UNL A   1      53.838  25.215  25.321  1.00  0.00     0.124 S 
ATOM     98  O   UNL A   1      54.643  25.834  26.368  1.00  0.00    -0.237 OA
ATOM     99  O   UNL A   1      53.677  23.767  25.410  1.00  0.00    -0.237 OA
ATOM    100  O   UNL A   1      54.050  25.732  23.972  1.00  0.00    -0.744 OA
ENDBRANCH  96  97
ENDBRANCH  64  89
BRANCH  76 101
ATOM    101  C   UNL A   1      43.449  23.431  26.930  1.00  0.00     0.058 A 
ATOM    102  C   UNL A   1      43.170  22.552  27.988  1.00  0.00     0.135 A 
ATOM    103  C   UNL A   1      43.273  22.959  25.620  1.00  0.00     0.135 A 
ATOM    104  F   UNL A   1      43.331  22.952  29.260  1.00  0.00    -0.206 F 
ATOM    105  C   UNL A   1      42.753  21.247  27.755  1.00  0.00     0.059 A 
ATOM    106  C   UNL A   1      42.833  21.665  25.363  1.00  0.00     0.059 A 
ATOM    107  F   UNL A   1      43.519  23.763  24.573  1.00  0.00    -0.206 F 
ATOM    108  C   UNL A   1      42.585  20.812  26.438  1.00  0.00     0.060 A 
BRANCH 108 109
ATOM    109  S   UNL A   1      42.011  19.126  26.149  1.00  0.00     0.124 S 
ATOM    110  O   UNL A   1      40.583  19.334  25.930  1.00  0.00    -0.237 OA
ATOM    111  O   UNL A   1      42.781  18.729  24.973  1.00  0.00    -0.237 OA
ATOM    112  O   UNL A   1      42.362  18.431  27.383  1.00  0.00    -0.744 OA
ENDBRANCH 108 109
ENDBRANCH  76 101
ENDBRANCH  50  51
ENDBRANCH  42  45
ENDBRANCH  40  41
ENDBRANCH   1  40
TORSDOF 20
ENDMDL
MODEL 3
REMARK VINA RESULT:     -10.5      5.985     12.004
REMARK SMILES COc1cc([C@H]2CC(c3ccc(S(C)(=O)=O)cc3)=NN2c2ccc(C(=O)NCCCNC(=O)c3ccc(-c4c5nc(c(-c6c(F)cc(S(=O)(=O)[O-])cc6F)c6ccc([nH]6)c(-c6c(F)cc(S(=O)(=O)[O-])cc6F)c6nc(c(-c7c(F)cc(S(=O)(=O)[O-])cc7F)c7ccc4[nH]7)C=C6)C=C5)cc3)cc2)cc(OC)c1OC
REMARK SMILES IDX 29 1 28 2 27 3 25 4 26 5 24 7 21 8 22 9 101 10 23 11 100 12
REMARK SMILES IDX 20 13 6 14 7 15 8 16 19 17 5 18 3 19 4 20 106 21 103 22
REMARK SMILES IDX 102 23 2 24 1 25 107 26 108 27 104 28 105 29 9 30 10 31
REMARK SMILES IDX 18 32 11 33 17 34 12 35 13 36 14 37 15 38 16 39 30 40 31 41
REMARK SMILES IDX 32 42 33 44 34 45 35 46 99 47 36 48 98 49 37 50 38 51 39 52
REMARK SMILES IDX 92 53 40 54 97 55 91 56 93 57 41 58 96 59 90 60 89 61 42 63
REMARK SMILES IDX 76 64 55 65 75 66 56 67 59 68 74 69 94 70 57 71 58 72 73 74
REMARK SMILES IDX 95 75 60 76 43 77 44 78 53 79 45 80 46 81 52 82 54 83 47 84
REMARK SMILES IDX 48 85 49 86 50 87 51 88 77 89 78 90 87 91 79 92 80 93 86 94
REMARK SMILES IDX 88 95 81 96 82 97 83 98 84 99 85 100 61 101 62 102 71 103
REMARK SMILES IDX 63 104 64 105 70 106 72 107 65 108 66 109 67 110 68 111
REMARK SMILES IDX 69 112
REMARK H PARENT 27 6 31 43 93 62 59 73
REMARK Flexibility Score: inf
ROOT
ATOM      1  C   UNL A   1      50.490  25.831  26.506  1.00  0.00     0.042 C 
ENDROOT
BRANCH   1   2
ATOM      2  C   UNL A   1      49.491  24.941  27.245  1.00  0.00     0.118 C 
BRANCH   2   3
ATOM      3  N   UNL A   1      49.473  25.249  28.662  1.00  0.00    -0.352 N 
ATOM      4  C   UNL A   1      48.453  25.542  29.530  1.00  0.00     0.251 C 
ATOM      5  O   UNL A   1      48.746  25.714  30.714  1.00  0.00    -0.269 OA
ATOM      6  H   UNL A   1      50.364  25.246  29.082  1.00  0.00     0.163 HD
BRANCH   4   7
ATOM      7  C   UNL A   1      47.024  25.591  29.120  1.00  0.00     0.039 A 
ATOM      8  C   UNL A   1      44.338  25.910  28.304  1.00  0.00     0.060 A 
ATOM      9  C   UNL A   1      45.362  26.653  27.706  1.00  0.00     0.029 A 
ATOM     10  C   UNL A   1      44.684  24.955  29.260  1.00  0.00     0.029 A 
ATOM     11  C   UNL A   1      46.686  26.513  28.121  1.00  0.00     0.016 A 
ATOM     12  C   UNL A   1      46.019  24.770  29.637  1.00  0.00     0.016 A 
BRANCH   8  13
ATOM     13  N   UNL A   1      43.028  26.130  27.918  1.00  0.00    -0.257 N 
ATOM     14  C   UNL A   1      42.544  26.106  26.535  1.00  0.00     0.144 C 
ATOM     15  C   UNL A   1      41.061  26.486  26.721  1.00  0.00     0.091 C 
ATOM     16  C   UNL A   1      41.131  27.059  28.112  1.00  0.00     0.071 C 
ATOM     17  N   UNL A   1      42.221  26.813  28.766  1.00  0.00    -0.176 NA
BRANCH  14  18
ATOM     18  C   UNL A   1      42.809  24.751  25.891  1.00  0.00    -0.015 A 
ATOM     19  C   UNL A   1      44.216  23.288  24.518  1.00  0.00     0.164 A 
ATOM     20  C   UNL A   1      43.876  24.569  24.999  1.00  0.00     0.056 A 
ATOM     21  C   UNL A   1      43.510  22.143  24.932  1.00  0.00     0.203 A 
ATOM     22  C   UNL A   1      42.435  22.324  25.827  1.00  0.00     0.164 A 
ATOM     23  C   UNL A   1      42.092  23.612  26.279  1.00  0.00     0.056 A 
BRANCH  19  24
ATOM     24  O   UNL A   1      45.348  23.196  23.746  1.00  0.00    -0.493 OA
ATOM     25  C   UNL A   1      46.506  23.667  24.434  1.00  0.00     0.278 C 
ENDBRANCH  19  24
BRANCH  21  26
ATOM     26  O   UNL A   1      43.760  20.853  24.554  1.00  0.00    -0.490 OA
ATOM     27  C   UNL A   1      44.747  20.071  25.201  1.00  0.00     0.278 C 
ENDBRANCH  21  26
BRANCH  22  28
ATOM     28  O   UNL A   1      41.605  21.361  26.352  1.00  0.00    -0.493 OA
ATOM     29  C   UNL A   1      40.771  21.721  27.445  1.00  0.00     0.278 C 
ENDBRANCH  22  28
ENDBRANCH  14  18
BRANCH  16  30
ATOM     30  C   UNL A   1      40.045  27.847  28.709  1.00  0.00    -0.002 A 
ATOM     31  C   UNL A   1      39.853  29.158  28.251  1.00  0.00     0.011 A 
ATOM     32  C   UNL A   1      39.300  27.347  29.778  1.00  0.00     0.011 A 
ATOM     33  C   UNL A   1      38.902  29.977  28.860  1.00  0.00     0.021 A 
ATOM     34  C   UNL A   1      38.366  28.177  30.408  1.00  0.00     0.021 A 
ATOM     35  C   UNL A   1      38.180  29.489  29.951  1.00  0.00     0.067 A 
BRANCH  35  36
ATOM     36  S   UNL A   1      37.015  30.557  30.771  1.00  0.00     0.175 S 
ATOM     37  C   UNL A   1      35.862  31.017  29.502  1.00  0.00     0.163 C 
ATOM     38  O   UNL A   1      36.318  29.742  31.752  1.00  0.00    -0.224 OA
ATOM     39  O   UNL A   1      37.724  31.755  31.168  1.00  0.00    -0.224 OA
ENDBRANCH  35  36
ENDBRANCH  16  30
ENDBRANCH   8  13
ENDBRANCH   4   7
ENDBRANCH   2   3
ENDBRANCH   1   2
BRANCH   1  40
ATOM     40  C   UNL A   1      49.827  26.998  25.775  1.00  0.00     0.118 C 
BRANCH  40  41
ATOM     41  N   UNL A   1      50.732  28.130  25.634  1.00  0.00    -0.352 N 
ATOM     42  C   UNL A   1      50.602  29.423  26.072  1.00  0.00     0.251 C 
ATOM     43  H   UNL A   1      51.567  27.937  25.149  1.00  0.00     0.163 HD
ATOM     44  O   UNL A   1      51.365  30.283  25.638  1.00  0.00    -0.269 OA
BRANCH  42  45
ATOM     45  C   UNL A   1      49.551  29.789  27.046  1.00  0.00     0.039 A 
ATOM     46  C   UNL A   1      48.211  29.636  26.678  1.00  0.00     0.014 A 
ATOM     47  C   UNL A   1      49.875  30.321  28.297  1.00  0.00     0.014 A 
ATOM     48  C   UNL A   1      47.198  29.962  27.584  1.00  0.00     0.010 A 
ATOM     49  C   UNL A   1      48.867  30.588  29.223  1.00  0.00     0.010 A 
ATOM     50  C   UNL A   1      47.519  30.408  28.877  1.00  0.00    -0.014 A 
BRANCH  50  51
ATOM     51  C   UNL A   1      46.458  30.659  29.885  1.00  0.00     0.031 A 
ATOM     52  C   UNL A   1      45.642  31.923  29.838  1.00  0.00     0.074 A 
ATOM     53  C   UNL A   1      46.279  29.775  30.885  1.00  0.00     0.049 A 
ATOM     54  N   UNL A   1      44.728  32.345  30.673  1.00  0.00    -0.248 NA
ATOM     55  C   UNL A   1      45.904  32.843  28.719  1.00  0.00     0.031 C 
ATOM     56  C   UNL A   1      47.042  28.536  31.064  1.00  0.00     0.029 A 
ATOM     57  N   UNL A   1      45.412  29.784  31.949  1.00  0.00    -0.354 N 
ATOM     58  C   UNL A   1      44.313  33.582  30.191  1.00  0.00     0.074 A 
ATOM     59  C   UNL A   1      45.106  33.860  29.012  1.00  0.00     0.031 C 
ATOM     60  C   UNL A   1      46.603  27.902  32.163  1.00  0.00     0.029 A 
ATOM     61  C   UNL A   1      45.555  28.703  32.787  1.00  0.00     0.049 A 
ATOM     62  H   UNL A   1      44.751  30.498  32.098  1.00  0.00     0.167 HD
ATOM     63  C   UNL A   1      43.349  34.399  30.677  1.00  0.00     0.037 A 
ATOM     64  C   UNL A   1      44.922  28.396  33.936  1.00  0.00     0.037 A 
ATOM     65  C   UNL A   1      42.550  34.102  31.838  1.00  0.00     0.049 A 
ATOM     66  C   UNL A   1      43.856  29.321  34.456  1.00  0.00     0.074 A 
ATOM     67  C   UNL A   1      41.502  34.835  32.371  1.00  0.00     0.029 A 
ATOM     68  N   UNL A   1      42.708  32.987  32.649  1.00  0.00    -0.354 N 
ATOM     69  N   UNL A   1      43.429  30.453  33.947  1.00  0.00    -0.248 NA
ATOM     70  C   UNL A   1      43.182  28.927  35.700  1.00  0.00     0.031 C 
ATOM     71  C   UNL A   1      41.057  34.185  33.527  1.00  0.00     0.029 A 
ATOM     72  C   UNL A   1      41.795  33.024  33.690  1.00  0.00     0.049 A 
ATOM     73  H   UNL A   1      43.372  32.275  32.505  1.00  0.00     0.167 HD
ATOM     74  C   UNL A   1      42.425  30.896  34.799  1.00  0.00     0.074 A 
ATOM     75  C   UNL A   1      42.296  29.903  35.845  1.00  0.00     0.031 C 
ATOM     76  C   UNL A   1      41.679  32.026  34.723  1.00  0.00     0.037 A 
BRANCH  63  77
ATOM     77  C   UNL A   1      43.096  35.694  29.955  1.00  0.00     0.058 A 
ATOM     78  C   UNL A   1      43.799  36.865  30.278  1.00  0.00     0.135 A 
ATOM     79  C   UNL A   1      42.182  35.752  28.890  1.00  0.00     0.135 A 
ATOM     80  F   UNL A   1      44.676  36.869  31.294  1.00  0.00    -0.206 F 
ATOM     81  C   UNL A   1      43.590  38.053  29.586  1.00  0.00     0.059 A 
ATOM     82  C   UNL A   1      41.975  36.923  28.167  1.00  0.00     0.059 A 
ATOM     83  F   UNL A   1      41.484  34.660  28.538  1.00  0.00    -0.206 F 
ATOM     84  C   UNL A   1      42.676  38.073  28.530  1.00  0.00     0.060 A 
BRANCH  84  85
ATOM     85  S   UNL A   1      42.431  39.619  27.630  1.00  0.00     0.124 S 
ATOM     86  O   UNL A   1      43.772  39.867  27.110  1.00  0.00    -0.237 OA
ATOM     87  O   UNL A   1      41.426  39.248  26.639  1.00  0.00    -0.237 OA
ATOM     88  O   UNL A   1      41.976  40.545  28.663  1.00  0.00    -0.744 OA
ENDBRANCH  84  85
ENDBRANCH  63  77
BRANCH  64  89
ATOM     89  C   UNL A   1      45.278  27.153  34.670  1.00  0.00     0.058 A 
ATOM     90  C   UNL A   1      44.573  25.960  34.452  1.00  0.00     0.135 A 
ATOM     91  C   UNL A   1      46.333  27.129  35.594  1.00  0.00     0.135 A 
ATOM     92  F   UNL A   1      43.552  25.934  33.581  1.00  0.00    -0.206 F 
ATOM     93  C   UNL A   1      44.890  24.791  35.137  1.00  0.00     0.059 A 
ATOM     94  C   UNL A   1      46.686  25.967  36.272  1.00  0.00     0.059 A 
ATOM     95  F   UNL A   1      47.050  28.241  35.826  1.00  0.00    -0.206 F 
ATOM     96  C   UNL A   1      45.950  24.804  36.045  1.00  0.00     0.060 A 
BRANCH  96  97
ATOM     97  S   UNL A   1      46.387  23.271  36.893  1.00  0.00     0.124 S 
ATOM     98  O   UNL A   1      47.674  23.620  37.483  1.00  0.00    -0.237 OA
ATOM     99  O   UNL A   1      45.278  23.111  37.829  1.00  0.00    -0.237 OA
ATOM    100  O   UNL A   1      46.431  22.291  35.812  1.00  0.00    -0.744 OA
ENDBRANCH  96  97
ENDBRANCH  64  89
BRANCH  76 101
ATOM    101  C   UNL A   1      40.641  32.238  35.790  1.00  0.00     0.058 A 
ATOM    102  C   UNL A   1      39.329  31.761  35.643  1.00  0.00     0.135 A 
ATOM    103  C   UNL A   1      40.974  32.884  36.991  1.00  0.00     0.135 A 
ATOM    104  F   UNL A   1      38.957  31.144  34.510  1.00  0.00    -0.206 F 
ATOM    105  C   UNL A   1      38.377  31.937  36.641  1.00  0.00     0.059 A 
ATOM    106  C   UNL A   1      40.045  33.049  38.013  1.00  0.00     0.059 A 
ATOM    107  F   UNL A   1      42.218  33.351  37.184  1.00  0.00    -0.206 F 
ATOM    108  C   UNL A   1      38.746  32.581  37.824  1.00  0.00     0.060 A 
BRANCH 108 109
ATOM    109  S   UNL A   1      37.510  32.774  39.126  1.00  0.00     0.124 S 
ATOM    110  O   UNL A   1      36.275  32.852  38.350  1.00  0.00    -0.237 OA
ATOM    111  O   UNL A   1      37.689  31.557  39.912  1.00  0.00    -0.237 OA
ATOM    112  O   UNL A   1      37.910  34.008  39.794  1.00  0.00    -0.744 OA
ENDBRANCH 108 109
ENDBRANCH  76 101
ENDBRANCH  50  51
ENDBRANCH  42  45
ENDBRANCH  40  41
ENDBRANCH   1  40
TORSDOF 20
ENDMDL
