MODEL 1
REMARK VINA RESULT:     -12.0      0.000      0.000
REMARK SMILES CC(C)(C)NS(=O)(=O)c1csc(C(=O)Nc2ccccc2C(=O)NCCCNC(=O)c2ccc(-c3c4nc(c(-c5c(F)cc(S(=O)(=O)[O-])cc5F)c5ccc([nH]5)c(-c5c(F)cc(S(=O)(=O)[O-])cc5F)c5nc(c(-c6c(F)cc(S(=O)(=O)[O-])cc6F)c6ccc3[nH]6)C=C5)C=C4)cc2)c1
REMARK SMILES IDX 25 1 24 2 22 3 23 4 21 6 16 7 17 8 18 9 20 10 19 11 15 12
REMARK SMILES IDX 13 13 14 14 12 16 9 17 10 18 97 19 11 20 6 21 7 22 8 23 5 24
REMARK SMILES IDX 2 26 1 27 3 28 4 29 26 30 27 31 28 32 29 33 30 35 31 36
REMARK SMILES IDX 32 37 96 38 33 39 95 40 34 41 35 42 36 43 89 44 37 45 94 46
REMARK SMILES IDX 88 47 90 48 38 49 93 50 87 51 86 52 39 54 73 55 52 56 72 57
REMARK SMILES IDX 53 58 56 59 71 60 91 61 54 62 55 63 70 65 92 66 57 67 40 68
REMARK SMILES IDX 41 69 50 70 42 71 43 72 49 73 51 74 44 75 45 76 46 77 47 78
REMARK SMILES IDX 48 79 74 80 75 81 84 82 76 83 77 84 83 85 85 86 78 87 79 88
REMARK SMILES IDX 80 89 81 90 82 91 58 92 59 93 68 94 60 95 61 96 67 97 69 98
REMARK SMILES IDX 62 99 63 100 64 101 65 102 66 103
REMARK H PARENT 24 5 15 15 5 25 28 34 90 53 56 64
REMARK Flexibility Score: inf
ROOT
ATOM      1  C   UNL A   1      32.869  27.104  26.216  1.00  0.00     0.118 C 
ENDROOT
BRANCH   1   2
ATOM      2  N   UNL A   1      34.067  26.344  25.963  1.00  0.00    -0.352 N 
ATOM      3  C   UNL A   1      34.193  25.031  25.585  1.00  0.00     0.253 C 
ATOM      4  O   UNL A   1      35.326  24.622  25.325  1.00  0.00    -0.269 OA
ATOM      5  H   UNL A   1      34.913  26.835  26.078  1.00  0.00     0.163 HD
BRANCH   3   6
ATOM      6  C   UNL A   1      33.044  24.065  25.548  1.00  0.00     0.063 A 
ATOM      7  C   UNL A   1      32.453  23.426  24.434  1.00  0.00     0.054 A 
ATOM      8  C   UNL A   1      31.235  22.740  24.619  1.00  0.00     0.027 A 
ATOM      9  C   UNL A   1      30.711  22.513  25.891  1.00  0.00     0.002 A 
ATOM     10  C   UNL A   1      32.516  23.786  26.830  1.00  0.00     0.016 A 
ATOM     11  C   UNL A   1      31.379  22.997  27.003  1.00  0.00     0.001 A 
BRANCH   7  12
ATOM     12  N   UNL A   1      32.957  23.283  23.120  1.00  0.00    -0.321 N 
ATOM     13  C   UNL A   1      33.012  24.130  22.027  1.00  0.00     0.265 C 
ATOM     14  O   UNL A   1      33.399  23.630  20.969  1.00  0.00    -0.268 OA
ATOM     15  H   UNL A   1      33.349  22.397  22.947  1.00  0.00     0.170 HD
BRANCH  13  16
ATOM     16  C   UNL A   1      32.703  25.537  22.169  1.00  0.00     0.094 A 
ATOM     17  C   UNL A   1      31.527  27.466  22.702  1.00  0.00     0.093 A 
ATOM     18  C   UNL A   1      32.810  27.958  22.678  1.00  0.00     0.087 A 
ATOM     19  C   UNL A   1      31.465  26.113  22.311  1.00  0.00     0.047 A 
ATOM     20  S   UNL A   1      33.942  26.714  22.310  1.00  0.00    -0.137 S 
BRANCH  17  21
ATOM     21  S   UNL A   1      30.119  28.244  23.303  1.00  0.00     0.241 S 
ATOM     22  O   UNL A   1      30.553  29.032  24.430  1.00  0.00    -0.207 OA
ATOM     23  O   UNL A   1      29.124  27.201  23.439  1.00  0.00    -0.207 OA
BRANCH  21  24
ATOM     24  N   UNL A   1      29.558  29.300  22.113  1.00  0.00    -0.206 NA
ATOM     25  H   UNL A   1      30.367  29.865  21.851  1.00  0.00     0.141 HD
BRANCH  24  26
ATOM     26  C   UNL A   1      28.432  30.275  22.275  1.00  0.00     0.025 C 
ATOM     27  C   UNL A   1      27.247  29.683  23.055  1.00  0.00     0.028 C 
ATOM     28  C   UNL A   1      27.976  30.883  20.944  1.00  0.00     0.028 C 
ATOM     29  C   UNL A   1      29.003  31.405  23.152  1.00  0.00     0.028 C 
ENDBRANCH  24  26
ENDBRANCH  21  24
ENDBRANCH  17  21
ENDBRANCH  13  16
ENDBRANCH   7  12
ENDBRANCH   3   6
ENDBRANCH   1   2
BRANCH   1  30
ATOM     30  C   UNL A   1      32.970  28.190  27.252  1.00  0.00     0.042 C 
BRANCH  30  31
ATOM     31  C   UNL A   1      33.557  29.488  26.714  1.00  0.00     0.118 C 
BRANCH  31  32
ATOM     32  N   UNL A   1      33.652  30.598  27.673  1.00  0.00    -0.352 N 
ATOM     33  C   UNL A   1      34.695  31.007  28.482  1.00  0.00     0.251 C 
ATOM     34  H   UNL A   1      32.835  31.141  27.752  1.00  0.00     0.163 HD
ATOM     35  O   UNL A   1      34.570  31.978  29.222  1.00  0.00    -0.269 OA
BRANCH  33  36
ATOM     36  C   UNL A   1      35.946  30.225  28.502  1.00  0.00     0.039 A 
ATOM     37  C   UNL A   1      36.821  30.294  27.416  1.00  0.00     0.014 A 
ATOM     38  C   UNL A   1      36.308  29.535  29.653  1.00  0.00     0.014 A 
ATOM     39  C   UNL A   1      38.121  29.803  27.557  1.00  0.00     0.010 A 
ATOM     40  C   UNL A   1      37.641  29.222  29.852  1.00  0.00     0.010 A 
ATOM     41  C   UNL A   1      38.566  29.341  28.806  1.00  0.00    -0.014 A 
BRANCH  41  42
ATOM     42  C   UNL A   1      39.981  28.958  29.056  1.00  0.00     0.031 A 
ATOM     43  C   UNL A   1      40.924  29.965  29.663  1.00  0.00     0.074 A 
ATOM     44  C   UNL A   1      40.440  27.755  28.652  1.00  0.00     0.049 A 
ATOM     45  N   UNL A   1      42.214  29.878  29.859  1.00  0.00    -0.248 NA
ATOM     46  C   UNL A   1      40.349  31.265  30.052  1.00  0.00     0.031 C 
ATOM     47  C   UNL A   1      39.645  26.716  27.990  1.00  0.00     0.029 A 
ATOM     48  N   UNL A   1      41.693  27.200  28.738  1.00  0.00    -0.354 N 
ATOM     49  C   UNL A   1      42.600  31.118  30.358  1.00  0.00     0.074 A 
ATOM     50  C   UNL A   1      41.432  31.966  30.345  1.00  0.00     0.031 C 
ATOM     51  C   UNL A   1      40.413  25.634  27.785  1.00  0.00     0.029 A 
ATOM     52  C   UNL A   1      41.766  25.916  28.250  1.00  0.00     0.049 A 
ATOM     53  H   UNL A   1      42.467  27.678  29.114  1.00  0.00     0.167 HD
ATOM     54  C   UNL A   1      43.809  31.505  30.829  1.00  0.00     0.037 A 
ATOM     55  C   UNL A   1      42.808  25.063  28.190  1.00  0.00     0.037 A 
ATOM     56  C   UNL A   1      44.955  30.638  30.881  1.00  0.00     0.049 A 
ATOM     57  C   UNL A   1      44.144  25.511  28.717  1.00  0.00     0.074 A 
ATOM     58  C   UNL A   1      46.208  30.899  31.402  1.00  0.00     0.029 A 
ATOM     59  N   UNL A   1      44.984  29.340  30.392  1.00  0.00    -0.354 N 
ATOM     60  N   UNL A   1      44.476  26.661  29.256  1.00  0.00    -0.248 NA
ATOM     61  C   UNL A   1      45.249  24.547  28.630  1.00  0.00     0.031 C 
ATOM     62  C   UNL A   1      47.011  29.777  31.180  1.00  0.00     0.029 A 
ATOM     63  C   UNL A   1      46.242  28.795  30.574  1.00  0.00     0.049 A 
ATOM     64  H   UNL A   1      44.222  28.876  29.975  1.00  0.00     0.167 HD
ATOM     65  C   UNL A   1      45.817  26.546  29.605  1.00  0.00     0.074 A 
ATOM     66  C   UNL A   1      46.232  25.212  29.222  1.00  0.00     0.031 C 
ATOM     67  C   UNL A   1      46.631  27.459  30.193  1.00  0.00     0.037 A 
BRANCH  54  68
ATOM     68  C   UNL A   1      43.935  32.921  31.326  1.00  0.00     0.058 A 
ATOM     69  C   UNL A   1      43.717  33.257  32.674  1.00  0.00     0.135 A 
ATOM     70  C   UNL A   1      44.259  33.961  30.441  1.00  0.00     0.135 A 
ATOM     71  F   UNL A   1      43.387  32.306  33.564  1.00  0.00    -0.206 F 
ATOM     72  C   UNL A   1      43.757  34.575  33.114  1.00  0.00     0.059 A 
ATOM     73  C   UNL A   1      44.344  35.284  30.867  1.00  0.00     0.059 A 
ATOM     74  F   UNL A   1      44.479  33.702  29.143  1.00  0.00    -0.206 F 
ATOM     75  C   UNL A   1      44.067  35.583  32.200  1.00  0.00     0.060 A 
BRANCH  75  76
ATOM     76  S   UNL A   1      44.091  37.292  32.780  1.00  0.00     0.124 S 
ATOM     77  O   UNL A   1      43.937  38.026  31.526  1.00  0.00    -0.237 OA
ATOM     78  O   UNL A   1      42.943  37.332  33.680  1.00  0.00    -0.237 OA
ATOM     79  O   UNL A   1      45.395  37.415  33.423  1.00  0.00    -0.744 OA
ENDBRANCH  75  76
ENDBRANCH  54  68
BRANCH  55  80
ATOM     80  C   UNL A   1      42.616  23.682  27.666  1.00  0.00     0.058 A 
ATOM     81  C   UNL A   1      42.694  23.425  26.288  1.00  0.00     0.135 A 
ATOM     82  C   UNL A   1      42.369  22.593  28.516  1.00  0.00     0.135 A 
ATOM     83  F   UNL A   1      42.921  24.433  25.430  1.00  0.00    -0.206 F 
ATOM     84  C   UNL A   1      42.525  22.145  25.770  1.00  0.00     0.059 A 
ATOM     85  C   UNL A   1      42.222  21.298  28.025  1.00  0.00     0.059 A 
ATOM     86  F   UNL A   1      42.300  22.780  29.844  1.00  0.00    -0.206 F 
ATOM     87  C   UNL A   1      42.294  21.085  26.649  1.00  0.00     0.060 A 
BRANCH  87  88
ATOM     88  S   UNL A   1      42.133  19.420  25.970  1.00  0.00     0.124 S 
ATOM     89  O   UNL A   1      40.693  19.323  25.762  1.00  0.00    -0.237 OA
ATOM     90  O   UNL A   1      42.948  19.503  24.762  1.00  0.00    -0.237 OA
ATOM     91  O   UNL A   1      42.677  18.572  27.026  1.00  0.00    -0.744 OA
ENDBRANCH  87  88
ENDBRANCH  55  80
BRANCH  67  92
ATOM     92  C   UNL A   1      48.042  27.035  30.497  1.00  0.00     0.058 A 
ATOM     93  C   UNL A   1      49.097  27.279  29.606  1.00  0.00     0.135 A 
ATOM     94  C   UNL A   1      48.347  26.431  31.728  1.00  0.00     0.135 A 
ATOM     95  F   UNL A   1      48.858  27.847  28.414  1.00  0.00    -0.206 F 
ATOM     96  C   UNL A   1      50.404  26.916  29.914  1.00  0.00     0.059 A 
ATOM     97  C   UNL A   1      49.651  26.090  32.070  1.00  0.00     0.059 A 
ATOM     98  F   UNL A   1      47.376  26.186  32.622  1.00  0.00    -0.206 F 
ATOM     99  C   UNL A   1      50.672  26.326  31.151  1.00  0.00     0.060 A 
BRANCH  99 100
ATOM    100  S   UNL A   1      52.378  25.898  31.552  1.00  0.00     0.124 S 
ATOM    101  O   UNL A   1      52.232  24.528  32.033  1.00  0.00    -0.237 OA
ATOM    102  O   UNL A   1      53.048  26.050  30.264  1.00  0.00    -0.237 OA
ATOM    103  O   UNL A   1      52.747  26.883  32.564  1.00  0.00    -0.744 OA
ENDBRANCH  99 100
ENDBRANCH  67  92
ENDBRANCH  41  42
ENDBRANCH  33  36
ENDBRANCH  31  32
ENDBRANCH  30  31
ENDBRANCH   1  30
TORSDOF 18
ENDMDL
MODEL 2
REMARK VINA RESULT:     -11.8      1.814      3.739
REMARK SMILES CC(C)(C)NS(=O)(=O)c1csc(C(=O)Nc2ccccc2C(=O)NCCCNC(=O)c2ccc(-c3c4nc(c(-c5c(F)cc(S(=O)(=O)[O-])cc5F)c5ccc([nH]5)c(-c5c(F)cc(S(=O)(=O)[O-])cc5F)c5nc(c(-c6c(F)cc(S(=O)(=O)[O-])cc6F)c6ccc3[nH]6)C=C5)C=C4)cc2)c1
REMARK SMILES IDX 25 1 24 2 22 3 23 4 21 6 16 7 17 8 18 9 20 10 19 11 15 12
REMARK SMILES IDX 13 13 14 14 12 16 9 17 10 18 97 19 11 20 6 21 7 22 8 23 5 24
REMARK SMILES IDX 2 26 1 27 3 28 4 29 26 30 27 31 28 32 29 33 30 35 31 36
REMARK SMILES IDX 32 37 96 38 33 39 95 40 34 41 35 42 36 43 89 44 37 45 94 46
REMARK SMILES IDX 88 47 90 48 38 49 93 50 87 51 86 52 39 54 73 55 52 56 72 57
REMARK SMILES IDX 53 58 56 59 71 60 91 61 54 62 55 63 70 65 92 66 57 67 40 68
REMARK SMILES IDX 41 69 50 70 42 71 43 72 49 73 51 74 44 75 45 76 46 77 47 78
REMARK SMILES IDX 48 79 74 80 75 81 84 82 76 83 77 84 83 85 85 86 78 87 79 88
REMARK SMILES IDX 80 89 81 90 82 91 58 92 59 93 68 94 60 95 61 96 67 97 69 98
REMARK SMILES IDX 62 99 63 100 64 101 65 102 66 103
REMARK H PARENT 24 5 15 15 5 25 28 34 90 53 56 64
REMARK Flexibility Score: inf
ROOT
ATOM      1  C   UNL A   1      33.927  28.244  24.766  1.00  0.00     0.118 C 
ENDROOT
BRANCH   1   2
ATOM      2  N   UNL A   1      34.236  26.978  25.383  1.00  0.00    -0.352 N 
ATOM      3  C   UNL A   1      33.462  25.848  25.467  1.00  0.00     0.253 C 
ATOM      4  O   UNL A   1      33.981  24.842  25.956  1.00  0.00    -0.269 OA
ATOM      5  H   UNL A   1      35.125  26.916  25.803  1.00  0.00     0.163 HD
BRANCH   3   6
ATOM      6  C   UNL A   1      32.016  25.801  25.066  1.00  0.00     0.063 A 
ATOM      7  C   UNL A   1      31.449  25.815  23.772  1.00  0.00     0.054 A 
ATOM      8  C   UNL A   1      30.057  25.997  23.649  1.00  0.00     0.027 A 
ATOM      9  C   UNL A   1      29.215  25.966  24.760  1.00  0.00     0.002 A 
ATOM     10  C   UNL A   1      31.140  25.729  26.174  1.00  0.00     0.016 A 
ATOM     11  C   UNL A   1      29.755  25.783  26.023  1.00  0.00     0.001 A 
BRANCH   7  12
ATOM     12  N   UNL A   1      32.073  25.577  22.525  1.00  0.00    -0.321 N 
ATOM     13  C   UNL A   1      32.821  24.525  22.023  1.00  0.00     0.265 C 
ATOM     14  O   UNL A   1      33.342  24.706  20.921  1.00  0.00    -0.268 OA
ATOM     15  H   UNL A   1      31.949  26.310  21.880  1.00  0.00     0.170 HD
BRANCH  13  16
ATOM     16  C   UNL A   1      32.901  23.271  22.740  1.00  0.00     0.094 A 
ATOM     17  C   UNL A   1      33.641  21.662  24.241  1.00  0.00     0.093 A 
ATOM     18  C   UNL A   1      32.357  21.223  24.021  1.00  0.00     0.087 A 
ATOM     19  C   UNL A   1      33.974  22.766  23.430  1.00  0.00     0.047 A 
ATOM     20  S   UNL A   1      31.529  22.258  22.923  1.00  0.00    -0.137 S 
BRANCH  17  21
ATOM     21  S   UNL A   1      34.731  21.141  25.460  1.00  0.00     0.241 S 
ATOM     22  O   UNL A   1      35.565  20.138  24.843  1.00  0.00    -0.207 OA
ATOM     23  O   UNL A   1      33.913  20.846  26.617  1.00  0.00    -0.207 OA
BRANCH  21  24
ATOM     24  N   UNL A   1      35.712  22.449  25.877  1.00  0.00    -0.206 NA
ATOM     25  H   UNL A   1      35.157  23.280  25.667  1.00  0.00     0.141 HD
BRANCH  24  26
ATOM     26  C   UNL A   1      37.072  22.731  25.315  1.00  0.00     0.025 C 
ATOM     27  C   UNL A   1      37.038  23.026  23.807  1.00  0.00     0.028 C 
ATOM     28  C   UNL A   1      38.091  21.636  25.646  1.00  0.00     0.028 C 
ATOM     29  C   UNL A   1      37.526  24.035  25.999  1.00  0.00     0.028 C 
ENDBRANCH  24  26
ENDBRANCH  21  24
ENDBRANCH  17  21
ENDBRANCH  13  16
ENDBRANCH   7  12
ENDBRANCH   3   6
ENDBRANCH   1   2
BRANCH   1  30
ATOM     30  C   UNL A   1      33.177  29.236  25.611  1.00  0.00     0.042 C 
BRANCH  30  31
ATOM     31  C   UNL A   1      33.467  29.106  27.101  1.00  0.00     0.118 C 
BRANCH  31  32
ATOM     32  N   UNL A   1      33.643  30.367  27.836  1.00  0.00    -0.352 N 
ATOM     33  C   UNL A   1      34.756  30.906  28.451  1.00  0.00     0.251 C 
ATOM     34  H   UNL A   1      32.831  30.920  27.899  1.00  0.00     0.163 HD
ATOM     35  O   UNL A   1      34.695  31.993  29.018  1.00  0.00    -0.269 OA
BRANCH  33  36
ATOM     36  C   UNL A   1      36.013  30.132  28.482  1.00  0.00     0.039 A 
ATOM     37  C   UNL A   1      36.896  30.206  27.404  1.00  0.00     0.014 A 
ATOM     38  C   UNL A   1      36.370  29.447  29.637  1.00  0.00     0.014 A 
ATOM     39  C   UNL A   1      38.198  29.724  27.556  1.00  0.00     0.010 A 
ATOM     40  C   UNL A   1      37.704  29.143  29.848  1.00  0.00     0.010 A 
ATOM     41  C   UNL A   1      38.637  29.267  28.809  1.00  0.00    -0.014 A 
BRANCH  41  42
ATOM     42  C   UNL A   1      40.051  28.894  29.072  1.00  0.00     0.031 A 
ATOM     43  C   UNL A   1      40.976  29.900  29.707  1.00  0.00     0.074 A 
ATOM     44  C   UNL A   1      40.528  27.703  28.654  1.00  0.00     0.049 A 
ATOM     45  N   UNL A   1      42.265  29.823  29.918  1.00  0.00    -0.248 NA
ATOM     46  C   UNL A   1      40.383  31.188  30.109  1.00  0.00     0.031 C 
ATOM     47  C   UNL A   1      39.753  26.667  27.965  1.00  0.00     0.029 A 
ATOM     48  N   UNL A   1      41.786  27.159  28.747  1.00  0.00    -0.354 N 
ATOM     49  C   UNL A   1      42.632  31.058  30.443  1.00  0.00     0.074 A 
ATOM     50  C   UNL A   1      41.455  31.894  30.429  1.00  0.00     0.031 C 
ATOM     51  C   UNL A   1      40.534  25.596  27.752  1.00  0.00     0.029 A 
ATOM     52  C   UNL A   1      41.878  25.884  28.239  1.00  0.00     0.049 A 
ATOM     53  H   UNL A   1      42.550  27.638  29.141  1.00  0.00     0.167 HD
ATOM     54  C   UNL A   1      43.830  31.449  30.936  1.00  0.00     0.037 A 
ATOM     55  C   UNL A   1      42.929  25.042  28.179  1.00  0.00     0.037 A 
ATOM     56  C   UNL A   1      44.984  30.594  30.988  1.00  0.00     0.049 A 
ATOM     57  C   UNL A   1      44.254  25.496  28.730  1.00  0.00     0.074 A 
ATOM     58  C   UNL A   1      46.228  30.858  31.530  1.00  0.00     0.029 A 
ATOM     59  N   UNL A   1      45.033  29.305  30.478  1.00  0.00    -0.354 N 
ATOM     60  N   UNL A   1      44.567  26.640  29.292  1.00  0.00    -0.248 NA
ATOM     61  C   UNL A   1      45.370  24.544  28.642  1.00  0.00     0.031 C 
ATOM     62  C   UNL A   1      47.045  29.748  31.300  1.00  0.00     0.029 A 
ATOM     63  C   UNL A   1      46.294  28.769  30.668  1.00  0.00     0.049 A 
ATOM     64  H   UNL A   1      44.281  28.840  30.045  1.00  0.00     0.167 HD
ATOM     65  C   UNL A   1      45.904  26.532  29.656  1.00  0.00     0.074 A 
ATOM     66  C   UNL A   1      46.338  25.208  29.257  1.00  0.00     0.031 C 
ATOM     67  C   UNL A   1      46.701  27.443  30.270  1.00  0.00     0.037 A 
BRANCH  54  68
ATOM     68  C   UNL A   1      43.935  32.858  31.458  1.00  0.00     0.058 A 
ATOM     69  C   UNL A   1      44.269  33.938  30.621  1.00  0.00     0.135 A 
ATOM     70  C   UNL A   1      43.720  33.133  32.818  1.00  0.00     0.135 A 
ATOM     71  F   UNL A   1      44.503  33.734  29.314  1.00  0.00    -0.206 F 
ATOM     72  C   UNL A   1      44.442  35.223  31.122  1.00  0.00     0.059 A 
ATOM     73  C   UNL A   1      43.849  34.419  33.334  1.00  0.00     0.059 A 
ATOM     74  F   UNL A   1      43.398  32.143  33.666  1.00  0.00    -0.206 F 
ATOM     75  C   UNL A   1      44.234  35.453  32.482  1.00  0.00     0.060 A 
BRANCH  75  76
ATOM     76  S   UNL A   1      44.488  37.121  33.121  1.00  0.00     0.124 S 
ATOM     77  O   UNL A   1      45.106  37.781  31.974  1.00  0.00    -0.237 OA
ATOM     78  O   UNL A   1      43.127  37.544  33.436  1.00  0.00    -0.237 OA
ATOM     79  O   UNL A   1      45.361  36.916  34.272  1.00  0.00    -0.744 OA
ENDBRANCH  75  76
ENDBRANCH  54  68
BRANCH  55  80
ATOM     80  C   UNL A   1      42.758  23.669  27.629  1.00  0.00     0.058 A 
ATOM     81  C   UNL A   1      42.483  22.588  28.481  1.00  0.00     0.135 A 
ATOM     82  C   UNL A   1      42.845  23.405  26.253  1.00  0.00     0.135 A 
ATOM     83  F   UNL A   1      42.397  22.785  29.806  1.00  0.00    -0.206 F 
ATOM     84  C   UNL A   1      42.313  21.296  27.994  1.00  0.00     0.059 A 
ATOM     85  C   UNL A   1      42.652  22.125  25.738  1.00  0.00     0.059 A 
ATOM     86  F   UNL A   1      43.090  24.405  25.391  1.00  0.00    -0.206 F 
ATOM     87  C   UNL A   1      42.394  21.075  26.619  1.00  0.00     0.060 A 
BRANCH  87  88
ATOM     88  S   UNL A   1      42.114  19.404  25.994  1.00  0.00     0.124 S 
ATOM     89  O   UNL A   1      42.949  19.391  24.799  1.00  0.00    -0.237 OA
ATOM     90  O   UNL A   1      42.577  18.581  27.107  1.00  0.00    -0.237 OA
ATOM     91  O   UNL A   1      40.674  19.370  25.758  1.00  0.00    -0.744 OA
ENDBRANCH  87  88
ENDBRANCH  55  80
BRANCH  67  92
ATOM     92  C   UNL A   1      48.112  27.028  30.586  1.00  0.00     0.058 A 
ATOM     93  C   UNL A   1      49.157  27.194  29.664  1.00  0.00     0.135 A 
ATOM     94  C   UNL A   1      48.430  26.515  31.854  1.00  0.00     0.135 A 
ATOM     95  F   UNL A   1      48.906  27.674  28.436  1.00  0.00    -0.206 F 
ATOM     96  C   UNL A   1      50.465  26.842  29.980  1.00  0.00     0.059 A 
ATOM     97  C   UNL A   1      49.736  26.187  32.203  1.00  0.00     0.059 A 
ATOM     98  F   UNL A   1      47.469  26.348  32.777  1.00  0.00    -0.206 F 
ATOM     99  C   UNL A   1      50.745  26.343  31.255  1.00  0.00     0.060 A 
BRANCH  99 100
ATOM    100  S   UNL A   1      52.453  25.928  31.663  1.00  0.00     0.124 S 
ATOM    101  O   UNL A   1      52.327  24.532  32.069  1.00  0.00    -0.237 OA
ATOM    102  O   UNL A   1      53.141  26.161  30.397  1.00  0.00    -0.237 OA
ATOM    103  O   UNL A   1      52.784  26.865  32.732  1.00  0.00    -0.744 OA
ENDBRANCH  99 100
ENDBRANCH  67  92
ENDBRANCH  41  42
ENDBRANCH  33  36
ENDBRANCH  31  32
ENDBRANCH  30  31
ENDBRANCH   1  30
TORSDOF 18
ENDMDL
MODEL 3
REMARK VINA RESULT:     -11.2      4.781     10.086
REMARK SMILES CC(C)(C)NS(=O)(=O)c1csc(C(=O)Nc2ccccc2C(=O)NCCCNC(=O)c2ccc(-c3c4nc(c(-c5c(F)cc(S(=O)(=O)[O-])cc5F)c5ccc([nH]5)c(-c5c(F)cc(S(=O)(=O)[O-])cc5F)c5nc(c(-c6c(F)cc(S(=O)(=O)[O-])cc6F)c6ccc3[nH]6)C=C5)C=C4)cc2)c1
REMARK SMILES IDX 25 1 24 2 22 3 23 4 21 6 16 7 17 8 18 9 20 10 19 11 15 12
REMARK SMILES IDX 13 13 14 14 12 16 9 17 10 18 97 19 11 20 6 21 7 22 8 23 5 24
REMARK SMILES IDX 2 26 1 27 3 28 4 29 26 30 27 31 28 32 29 33 30 35 31 36
REMARK SMILES IDX 32 37 96 38 33 39 95 40 34 41 35 42 36 43 89 44 37 45 94 46
REMARK SMILES IDX 88 47 90 48 38 49 93 50 87 51 86 52 39 54 73 55 52 56 72 57
REMARK SMILES IDX 53 58 56 59 71 60 91 61 54 62 55 63 70 65 92 66 57 67 40 68
REMARK SMILES IDX 41 69 50 70 42 71 43 72 49 73 51 74 44 75 45 76 46 77 47 78
REMARK SMILES IDX 48 79 74 80 75 81 84 82 76 83 77 84 83 85 85 86 78 87 79 88
REMARK SMILES IDX 80 89 81 90 82 91 58 92 59 93 68 94 60 95 61 96 67 97 69 98
REMARK SMILES IDX 62 99 63 100 64 101 65 102 66 103
REMARK H PARENT 24 5 15 15 5 25 28 34 90 53 56 64
REMARK Flexibility Score: inf
ROOT
ATOM      1  C   UNL A   1      33.280  29.852  26.536  1.00  0.00     0.118 C 
ENDROOT
BRANCH   1   2
ATOM      2  N   UNL A   1      33.641  29.695  25.149  1.00  0.00    -0.352 N 
ATOM      3  C   UNL A   1      33.136  28.821  24.219  1.00  0.00     0.253 C 
ATOM      4  O   UNL A   1      33.529  28.940  23.057  1.00  0.00    -0.269 OA
ATOM      5  H   UNL A   1      34.348  30.299  24.823  1.00  0.00     0.163 HD
BRANCH   3   6
ATOM      6  C   UNL A   1      32.200  27.697  24.560  1.00  0.00     0.063 A 
ATOM      7  C   UNL A   1      31.688  26.679  23.724  1.00  0.00     0.054 A 
ATOM      8  C   UNL A   1      30.643  25.869  24.212  1.00  0.00     0.027 A 
ATOM      9  C   UNL A   1      30.243  25.919  25.547  1.00  0.00     0.002 A 
ATOM     10  C   UNL A   1      31.809  27.700  25.919  1.00  0.00     0.016 A 
ATOM     11  C   UNL A   1      30.861  26.804  26.415  1.00  0.00     0.001 A 
BRANCH   7  12
ATOM     12  N   UNL A   1      32.139  26.265  22.449  1.00  0.00    -0.321 N 
ATOM     13  C   UNL A   1      32.916  25.204  22.015  1.00  0.00     0.265 C 
ATOM     14  O   UNL A   1      33.241  25.219  20.826  1.00  0.00    -0.268 OA
ATOM     15  H   UNL A   1      31.838  26.853  21.719  1.00  0.00     0.170 HD
BRANCH  13  16
ATOM     16  C   UNL A   1      33.243  24.116  22.910  1.00  0.00     0.094 A 
ATOM     17  C   UNL A   1      33.207  22.008  23.881  1.00  0.00     0.093 A 
ATOM     18  C   UNL A   1      34.446  22.445  24.285  1.00  0.00     0.087 A 
ATOM     19  C   UNL A   1      32.489  23.003  23.188  1.00  0.00     0.047 A 
ATOM     20  S   UNL A   1      34.769  24.026  23.687  1.00  0.00    -0.137 S 
BRANCH  17  21
ATOM     21  S   UNL A   1      32.578  20.413  23.976  1.00  0.00     0.241 S 
ATOM     22  O   UNL A   1      32.003  20.137  22.683  1.00  0.00    -0.207 OA
ATOM     23  O   UNL A   1      31.785  20.377  25.187  1.00  0.00    -0.207 OA
BRANCH  21  24
ATOM     24  N   UNL A   1      33.871  19.355  24.209  1.00  0.00    -0.206 NA
ATOM     25  H   UNL A   1      34.477  19.487  23.399  1.00  0.00     0.141 HD
BRANCH  24  26
ATOM     26  C   UNL A   1      33.761  17.870  24.380  1.00  0.00     0.025 C 
ATOM     27  C   UNL A   1      32.642  17.470  25.355  1.00  0.00     0.028 C 
ATOM     28  C   UNL A   1      35.093  17.215  24.762  1.00  0.00     0.028 C 
ATOM     29  C   UNL A   1      33.340  17.337  22.998  1.00  0.00     0.028 C 
ENDBRANCH  24  26
ENDBRANCH  21  24
ENDBRANCH  17  21
ENDBRANCH  13  16
ENDBRANCH   7  12
ENDBRANCH   3   6
ENDBRANCH   1   2
BRANCH   1  30
ATOM     30  C   UNL A   1      32.547  31.114  26.899  1.00  0.00     0.042 C 
BRANCH  30  31
ATOM     31  C   UNL A   1      33.436  32.167  27.547  1.00  0.00     0.118 C 
BRANCH  31  32
ATOM     32  N   UNL A   1      32.835  33.497  27.724  1.00  0.00    -0.352 N 
ATOM     33  C   UNL A   1      33.174  34.537  28.568  1.00  0.00     0.251 C 
ATOM     34  H   UNL A   1      32.061  33.677  27.143  1.00  0.00     0.163 HD
ATOM     35  O   UNL A   1      32.536  35.585  28.559  1.00  0.00    -0.269 OA
BRANCH  33  36
ATOM     36  C   UNL A   1      34.273  34.354  29.536  1.00  0.00     0.039 A 
ATOM     37  C   UNL A   1      34.002  33.822  30.797  1.00  0.00     0.014 A 
ATOM     38  C   UNL A   1      35.585  34.584  29.138  1.00  0.00     0.014 A 
ATOM     39  C   UNL A   1      35.061  33.375  31.591  1.00  0.00     0.010 A 
ATOM     40  C   UNL A   1      36.612  33.975  29.838  1.00  0.00     0.010 A 
ATOM     41  C   UNL A   1      36.369  33.370  31.079  1.00  0.00    -0.014 A 
BRANCH  41  42
ATOM     42  C   UNL A   1      37.510  32.761  31.811  1.00  0.00     0.031 A 
ATOM     43  C   UNL A   1      38.221  31.573  31.216  1.00  0.00     0.074 A 
ATOM     44  C   UNL A   1      37.840  33.203  33.042  1.00  0.00     0.049 A 
ATOM     45  N   UNL A   1      39.158  30.823  31.736  1.00  0.00    -0.248 NA
ATOM     46  C   UNL A   1      37.781  31.135  29.880  1.00  0.00     0.031 C 
ATOM     47  C   UNL A   1      37.185  34.301  33.759  1.00  0.00     0.029 A 
ATOM     48  N   UNL A   1      38.814  32.781  33.914  1.00  0.00    -0.354 N 
ATOM     49  C   UNL A   1      39.390  29.815  30.805  1.00  0.00     0.074 A 
ATOM     50  C   UNL A   1      38.433  29.992  29.738  1.00  0.00     0.031 C 
ATOM     51  C   UNL A   1      37.811  34.502  34.930  1.00  0.00     0.029 A 
ATOM     52  C   UNL A   1      38.877  33.517  35.074  1.00  0.00     0.049 A 
ATOM     53  H   UNL A   1      39.411  32.022  33.726  1.00  0.00     0.167 HD
ATOM     54  C   UNL A   1      40.343  28.854  30.813  1.00  0.00     0.037 A 
ATOM     55  C   UNL A   1      39.706  33.411  36.132  1.00  0.00     0.037 A 
ATOM     56  C   UNL A   1      41.320  28.714  31.858  1.00  0.00     0.049 A 
ATOM     57  C   UNL A   1      40.757  32.335  36.124  1.00  0.00     0.074 A 
ATOM     58  C   UNL A   1      42.376  27.825  31.936  1.00  0.00     0.029 A 
ATOM     59  N   UNL A   1      41.361  29.490  33.008  1.00  0.00    -0.354 N 
ATOM     60  N   UNL A   1      41.013  31.436  35.202  1.00  0.00    -0.248 NA
ATOM     61  C   UNL A   1      41.637  32.258  37.299  1.00  0.00     0.031 C 
ATOM     62  C   UNL A   1      43.022  28.026  33.159  1.00  0.00     0.029 A 
ATOM     63  C   UNL A   1      42.407  29.081  33.816  1.00  0.00     0.049 A 
ATOM     64  H   UNL A   1      40.737  30.222  33.218  1.00  0.00     0.167 HD
ATOM     65  C   UNL A   1      42.103  30.711  35.668  1.00  0.00     0.074 A 
ATOM     66  C   UNL A   1      42.463  31.281  36.951  1.00  0.00     0.031 C 
ATOM     67  C   UNL A   1      42.753  29.671  35.087  1.00  0.00     0.037 A 
BRANCH  54  68
ATOM     68  C   UNL A   1      40.365  27.895  29.652  1.00  0.00     0.058 A 
ATOM     69  C   UNL A   1      39.530  26.764  29.607  1.00  0.00     0.135 A 
ATOM     70  C   UNL A   1      41.248  28.095  28.579  1.00  0.00     0.135 A 
ATOM     71  F   UNL A   1      38.678  26.511  30.613  1.00  0.00    -0.206 F 
ATOM     72  C   UNL A   1      39.610  25.839  28.571  1.00  0.00     0.059 A 
ATOM     73  C   UNL A   1      41.317  27.202  27.512  1.00  0.00     0.059 A 
ATOM     74  F   UNL A   1      42.069  29.157  28.565  1.00  0.00    -0.206 F 
ATOM     75  C   UNL A   1      40.511  26.065  27.530  1.00  0.00     0.060 A 
BRANCH  75  76
ATOM     76  S   UNL A   1      40.621  24.843  26.208  1.00  0.00     0.124 S 
ATOM     77  O   UNL A   1      41.290  25.609  25.160  1.00  0.00    -0.237 OA
ATOM     78  O   UNL A   1      41.418  23.787  26.825  1.00  0.00    -0.237 OA
ATOM     79  O   UNL A   1      39.228  24.501  25.943  1.00  0.00    -0.744 OA
ENDBRANCH  75  76
ENDBRANCH  54  68
BRANCH  55  80
ATOM     80  C   UNL A   1      39.613  34.382  37.257  1.00  0.00     0.058 A 
ATOM     81  C   UNL A   1      38.974  34.027  38.456  1.00  0.00     0.135 A 
ATOM     82  C   UNL A   1      40.167  35.669  37.173  1.00  0.00     0.135 A 
ATOM     83  F   UNL A   1      38.420  32.812  38.585  1.00  0.00    -0.206 F 
ATOM     84  C   UNL A   1      38.878  34.913  39.525  1.00  0.00     0.059 A 
ATOM     85  C   UNL A   1      40.107  36.564  38.238  1.00  0.00     0.059 A 
ATOM     86  F   UNL A   1      40.803  36.055  36.056  1.00  0.00    -0.206 F 
ATOM     87  C   UNL A   1      39.453  36.179  39.408  1.00  0.00     0.060 A 
BRANCH  87  88
ATOM     88  S   UNL A   1      39.371  37.298  40.823  1.00  0.00     0.124 S 
ATOM     89  O   UNL A   1      40.776  37.639  41.012  1.00  0.00    -0.237 OA
ATOM     90  O   UNL A   1      38.517  38.367  40.317  1.00  0.00    -0.237 OA
ATOM     91  O   UNL A   1      38.776  36.473  41.870  1.00  0.00    -0.744 OA
ENDBRANCH  87  88
ENDBRANCH  55  80
BRANCH  67  92
ATOM     92  C   UNL A   1      43.944  29.105  35.810  1.00  0.00     0.058 A 
ATOM     93  C   UNL A   1      45.227  29.656  35.669  1.00  0.00     0.135 A 
ATOM     94  C   UNL A   1      43.783  28.035  36.705  1.00  0.00     0.135 A 
ATOM     95  F   UNL A   1      45.436  30.676  34.822  1.00  0.00    -0.206 F 
ATOM     96  C   UNL A   1      46.314  29.148  36.372  1.00  0.00     0.059 A 
ATOM     97  C   UNL A   1      44.850  27.533  37.443  1.00  0.00     0.059 A 
ATOM     98  F   UNL A   1      42.574  27.479  36.886  1.00  0.00    -0.206 F 
ATOM     99  C   UNL A   1      46.115  28.089  37.261  1.00  0.00     0.060 A 
BRANCH  99 100
ATOM    100  S   UNL A   1      47.528  27.468  38.195  1.00  0.00     0.124 S 
ATOM    101  O   UNL A   1      48.128  28.707  38.678  1.00  0.00    -0.237 OA
ATOM    102  O   UNL A   1      46.889  26.634  39.208  1.00  0.00    -0.237 OA
ATOM    103  O   UNL A   1      48.305  26.743  37.194  1.00  0.00    -0.744 OA
ENDBRANCH  99 100
ENDBRANCH  67  92
ENDBRANCH  41  42
ENDBRANCH  33  36
ENDBRANCH  31  32
ENDBRANCH  30  31
ENDBRANCH   1  30
TORSDOF 18
ENDMDL
