MODEL 1
REMARK VINA RESULT:     -12.6      0.000      0.000
REMARK SMILES CCCCc1ncc(C[N@H+]2C[C@@H]3c4ccccc4OC[C@]3(C(=O)NCCCNC(=O)c3ccc(-c4c5nc(c(-c6c(F)cc(S(=O)(=O)[O-])cc6F)c6ccc([nH]6)c(-c6c(F)cc(S(=O)(=O)[O-])cc6F)c6nc(c(-c7c(F)cc(S(=O)(=O)[O-])cc7F)c7ccc4[nH]7)C=C6)C=C5)cc3)C2)[nH]1
REMARK SMILES IDX 25 1 24 2 22 3 23 4 21 6 10 7 11 8 97 9 12 11 13 12 20 13
REMARK SMILES IDX 14 14 18 15 19 16 15 17 17 18 16 19 9 20 8 21 5 22 6 23
REMARK SMILES IDX 98 24 7 25 4 27 3 28 2 29 1 30 26 31 27 32 28 33 29 34 30 36
REMARK SMILES IDX 31 37 32 38 96 39 33 40 95 41 34 42 35 43 36 44 89 45 37 46
REMARK SMILES IDX 94 47 88 48 90 49 38 50 93 51 87 52 86 53 39 55 73 56 52 57
REMARK SMILES IDX 72 58 53 59 56 60 71 61 91 62 54 63 55 64 70 66 92 67 57 68
REMARK SMILES IDX 40 69 41 70 50 71 42 72 43 73 49 74 51 75 44 76 45 77 46 78
REMARK SMILES IDX 47 79 48 80 74 81 75 82 84 83 76 84 77 85 83 86 85 87 78 88
REMARK SMILES IDX 79 89 80 90 81 91 82 92 58 93 59 94 68 95 60 96 61 97 67 98
REMARK SMILES IDX 69 99 62 100 63 101 64 102 65 103 66 104
REMARK H PARENT 24 5 10 10 98 26 28 35 90 54 56 65
REMARK Flexibility Score: inf
ROOT
ATOM      1  C   UNL A   1      33.917  27.607  26.311  1.00  0.00     0.117 C 
ENDROOT
BRANCH   1   2
ATOM      2  N   UNL A   1      32.652  26.869  26.497  1.00  0.00    -0.355 N 
ATOM      3  C   UNL A   1      32.183  25.598  26.236  1.00  0.00     0.236 C 
ATOM      4  O   UNL A   1      31.156  25.297  26.854  1.00  0.00    -0.274 OA
ATOM      5  H   UNL A   1      31.961  27.431  26.916  1.00  0.00     0.163 HD
BRANCH   3   6
ATOM      6  C   UNL A   1      32.670  24.712  25.058  1.00  0.00     0.144 C 
ATOM      7  N   UNL A   1      32.889  25.481  22.706  1.00  0.00    -0.328 N 
ATOM      8  C   UNL A   1      34.137  24.864  23.064  1.00  0.00     0.272 C 
ATOM      9  C   UNL A   1      31.966  25.223  23.798  1.00  0.00     0.284 C 
ATOM     10  H   UNL A   1      32.531  25.048  21.854  1.00  0.00     0.348 HD
ATOM     11  C   UNL A   1      34.167  24.734  24.610  1.00  0.00     0.103 C 
ATOM     12  C   UNL A   1      34.977  23.471  24.826  1.00  0.00     0.004 A 
ATOM     13  C   UNL A   1      32.334  23.341  25.697  1.00  0.00     0.253 C 
ATOM     14  C   UNL A   1      36.323  23.402  24.403  1.00  0.00     0.008 A 
ATOM     15  C   UNL A   1      34.347  22.283  25.179  1.00  0.00     0.123 A 
ATOM     16  O   UNL A   1      32.984  22.182  25.200  1.00  0.00    -0.492 OA
ATOM     17  C   UNL A   1      37.014  22.187  24.392  1.00  0.00     0.001 A 
ATOM     18  C   UNL A   1      35.066  21.092  25.288  1.00  0.00     0.047 A 
ATOM     19  C   UNL A   1      36.401  21.041  24.889  1.00  0.00     0.004 A 
BRANCH   7  20
ATOM     20  C   UNL A   1      32.938  26.845  22.169  1.00  0.00     0.319 C 
BRANCH  20  21
ATOM     21  C   UNL A   1      31.840  27.762  22.594  1.00  0.00     0.090 A 
ATOM     22  C   UNL A   1      29.817  28.659  22.860  1.00  0.00     0.106 A 
ATOM     23  N   UNL A   1      30.616  29.344  23.655  1.00  0.00    -0.241 NA
ATOM     24  N   UNL A   1      30.550  27.755  22.118  1.00  0.00    -0.341 N 
ATOM     25  C   UNL A   1      31.861  28.810  23.490  1.00  0.00     0.140 A 
ATOM     26  H   UNL A   1      30.210  27.203  21.377  1.00  0.00     0.168 HD
BRANCH  22  27
ATOM     27  C   UNL A   1      28.332  28.859  22.805  1.00  0.00     0.075 C 
BRANCH  27  28
ATOM     28  C   UNL A   1      27.819  30.278  22.576  1.00  0.00     0.008 C 
BRANCH  28  29
ATOM     29  C   UNL A   1      27.987  30.811  21.157  1.00  0.00    -0.003 C 
ATOM     30  C   UNL A   1      28.157  32.316  21.040  1.00  0.00     0.004 C 
ENDBRANCH  28  29
ENDBRANCH  27  28
ENDBRANCH  22  27
ENDBRANCH  20  21
ENDBRANCH   7  20
ENDBRANCH   3   6
ENDBRANCH   1   2
BRANCH   1  31
ATOM     31  C   UNL A   1      34.021  28.975  26.980  1.00  0.00     0.042 C 
BRANCH  31  32
ATOM     32  C   UNL A   1      35.405  29.259  27.557  1.00  0.00     0.118 C 
BRANCH  32  33
ATOM     33  N   UNL A   1      35.353  29.697  28.954  1.00  0.00    -0.352 N 
ATOM     34  C   UNL A   1      36.312  29.718  29.938  1.00  0.00     0.251 C 
ATOM     35  H   UNL A   1      34.473  30.035  29.240  1.00  0.00     0.163 HD
ATOM     36  O   UNL A   1      35.965  29.856  31.112  1.00  0.00    -0.269 OA
BRANCH  34  37
ATOM     37  C   UNL A   1      37.740  29.578  29.595  1.00  0.00     0.039 A 
ATOM     38  C   UNL A   1      38.168  29.849  28.298  1.00  0.00     0.014 A 
ATOM     39  C   UNL A   1      38.666  29.193  30.569  1.00  0.00     0.014 A 
ATOM     40  C   UNL A   1      39.458  29.517  27.917  1.00  0.00     0.010 A 
ATOM     41  C   UNL A   1      40.002  28.981  30.210  1.00  0.00     0.010 A 
ATOM     42  C   UNL A   1      40.396  29.084  28.867  1.00  0.00    -0.014 A 
BRANCH  42  43
ATOM     43  C   UNL A   1      41.770  28.744  28.412  1.00  0.00     0.031 A 
ATOM     44  C   UNL A   1      42.860  29.783  28.417  1.00  0.00     0.074 A 
ATOM     45  C   UNL A   1      42.050  27.469  28.073  1.00  0.00     0.049 A 
ATOM     46  N   UNL A   1      44.114  29.661  28.062  1.00  0.00    -0.248 NA
ATOM     47  C   UNL A   1      42.501  31.138  28.872  1.00  0.00     0.031 C 
ATOM     48  C   UNL A   1      41.076  26.372  28.047  1.00  0.00     0.029 A 
ATOM     49  N   UNL A   1      43.229  26.867  27.717  1.00  0.00    -0.354 N 
ATOM     50  C   UNL A   1      44.684  30.919  28.224  1.00  0.00     0.074 A 
ATOM     51  C   UNL A   1      43.635  31.800  28.685  1.00  0.00     0.031 C 
ATOM     52  C   UNL A   1      41.707  25.226  27.760  1.00  0.00     0.029 A 
ATOM     53  C   UNL A   1      43.111  25.515  27.490  1.00  0.00     0.049 A 
ATOM     54  H   UNL A   1      44.080  27.356  27.633  1.00  0.00     0.167 HD
ATOM     55  C   UNL A   1      45.967  31.297  28.017  1.00  0.00     0.037 A 
ATOM     56  C   UNL A   1      44.020  24.610  27.081  1.00  0.00     0.037 A 
ATOM     57  C   UNL A   1      47.011  30.398  27.594  1.00  0.00     0.049 A 
ATOM     58  C   UNL A   1      45.425  25.066  26.822  1.00  0.00     0.074 A 
ATOM     59  C   UNL A   1      48.350  30.678  27.384  1.00  0.00     0.029 A 
ATOM     60  N   UNL A   1      46.837  29.049  27.321  1.00  0.00    -0.354 N 
ATOM     61  N   UNL A   1      45.943  26.261  26.980  1.00  0.00    -0.248 NA
ATOM     62  C   UNL A   1      46.368  24.060  26.318  1.00  0.00     0.031 C 
ATOM     63  C   UNL A   1      48.974  29.512  26.933  1.00  0.00     0.029 A 
ATOM     64  C   UNL A   1      48.038  28.490  26.916  1.00  0.00     0.049 A 
ATOM     65  H   UNL A   1      45.987  28.562  27.402  1.00  0.00     0.167 HD
ATOM     66  C   UNL A   1      47.275  26.150  26.598  1.00  0.00     0.074 A 
ATOM     67  C   UNL A   1      47.488  24.764  26.230  1.00  0.00     0.031 C 
ATOM     68  C   UNL A   1      48.231  27.109  26.550  1.00  0.00     0.037 A 
BRANCH  55  69
ATOM     69  C   UNL A   1      46.327  32.743  28.228  1.00  0.00     0.058 A 
ATOM     70  C   UNL A   1      46.864  33.206  29.439  1.00  0.00     0.135 A 
ATOM     71  C   UNL A   1      46.206  33.664  27.173  1.00  0.00     0.135 A 
ATOM     72  F   UNL A   1      46.984  32.376  30.487  1.00  0.00    -0.206 F 
ATOM     73  C   UNL A   1      47.260  34.530  29.600  1.00  0.00     0.059 A 
ATOM     74  C   UNL A   1      46.621  34.986  27.303  1.00  0.00     0.059 A 
ATOM     75  F   UNL A   1      45.695  33.277  25.994  1.00  0.00    -0.206 F 
ATOM     76  C   UNL A   1      47.142  35.412  28.523  1.00  0.00     0.060 A 
BRANCH  76  77
ATOM     77  S   UNL A   1      47.693  37.117  28.743  1.00  0.00     0.124 S 
ATOM     78  O   UNL A   1      46.580  37.861  28.162  1.00  0.00    -0.237 OA
ATOM     79  O   UNL A   1      47.830  37.213  30.193  1.00  0.00    -0.237 OA
ATOM     80  O   UNL A   1      48.943  37.173  27.991  1.00  0.00    -0.744 OA
ENDBRANCH  76  77
ENDBRANCH  55  69
BRANCH  56  81
ATOM     81  C   UNL A   1      43.607  23.197  26.866  1.00  0.00     0.058 A 
ATOM     82  C   UNL A   1      43.350  22.341  27.946  1.00  0.00     0.135 A 
ATOM     83  C   UNL A   1      43.426  22.687  25.569  1.00  0.00     0.135 A 
ATOM     84  F   UNL A   1      43.514  22.779  29.203  1.00  0.00    -0.206 F 
ATOM     85  C   UNL A   1      42.933  21.028  27.749  1.00  0.00     0.059 A 
ATOM     86  C   UNL A   1      42.979  21.389  25.348  1.00  0.00     0.059 A 
ATOM     87  F   UNL A   1      43.644  23.470  24.501  1.00  0.00    -0.206 F 
ATOM     88  C   UNL A   1      42.743  20.564  26.446  1.00  0.00     0.060 A 
BRANCH  88  89
ATOM     89  S   UNL A   1      42.148  18.877  26.206  1.00  0.00     0.124 S 
ATOM     90  O   UNL A   1      43.063  18.385  25.182  1.00  0.00    -0.237 OA
ATOM     91  O   UNL A   1      42.311  18.305  27.538  1.00  0.00    -0.237 OA
ATOM     92  O   UNL A   1      40.765  19.066  25.778  1.00  0.00    -0.744 OA
ENDBRANCH  88  89
ENDBRANCH  56  81
BRANCH  68  93
ATOM     93  C   UNL A   1      49.601  26.696  26.091  1.00  0.00     0.058 A 
ATOM     94  C   UNL A   1      50.007  26.858  24.758  1.00  0.00     0.135 A 
ATOM     95  C   UNL A   1      50.538  26.192  27.007  1.00  0.00     0.135 A 
ATOM     96  F   UNL A   1      49.146  27.327  23.841  1.00  0.00    -0.206 F 
ATOM     97  C   UNL A   1      51.290  26.519  24.345  1.00  0.00     0.059 A 
ATOM     98  C   UNL A   1      51.837  25.875  26.623  1.00  0.00     0.059 A 
ATOM     99  F   UNL A   1      50.203  26.026  28.297  1.00  0.00    -0.206 F 
ATOM    100  C   UNL A   1      52.201  26.034  25.287  1.00  0.00     0.060 A 
BRANCH 100 101
ATOM    101  S   UNL A   1      53.873  25.638  24.740  1.00  0.00     0.124 S 
ATOM    102  O   UNL A   1      53.907  26.259  23.419  1.00  0.00    -0.237 OA
ATOM    103  O   UNL A   1      54.694  26.279  25.762  1.00  0.00    -0.237 OA
ATOM    104  O   UNL A   1      53.898  24.178  24.746  1.00  0.00    -0.744 OA
ENDBRANCH 100 101
ENDBRANCH  68  93
ENDBRANCH  42  43
ENDBRANCH  34  37
ENDBRANCH  32  33
ENDBRANCH  31  32
ENDBRANCH   1  31
TORSDOF 18
ENDMDL
MODEL 2
REMARK VINA RESULT:     -12.6      2.467      8.406
REMARK SMILES CCCCc1ncc(C[N@H+]2C[C@@H]3c4ccccc4OC[C@]3(C(=O)NCCCNC(=O)c3ccc(-c4c5nc(c(-c6c(F)cc(S(=O)(=O)[O-])cc6F)c6ccc([nH]6)c(-c6c(F)cc(S(=O)(=O)[O-])cc6F)c6nc(c(-c7c(F)cc(S(=O)(=O)[O-])cc7F)c7ccc4[nH]7)C=C6)C=C5)cc3)C2)[nH]1
REMARK SMILES IDX 25 1 24 2 22 3 23 4 21 6 10 7 11 8 97 9 12 11 13 12 20 13
REMARK SMILES IDX 14 14 18 15 19 16 15 17 17 18 16 19 9 20 8 21 5 22 6 23
REMARK SMILES IDX 98 24 7 25 4 27 3 28 2 29 1 30 26 31 27 32 28 33 29 34 30 36
REMARK SMILES IDX 31 37 32 38 96 39 33 40 95 41 34 42 35 43 36 44 89 45 37 46
REMARK SMILES IDX 94 47 88 48 90 49 38 50 93 51 87 52 86 53 39 55 73 56 52 57
REMARK SMILES IDX 72 58 53 59 56 60 71 61 91 62 54 63 55 64 70 66 92 67 57 68
REMARK SMILES IDX 40 69 41 70 50 71 42 72 43 73 49 74 51 75 44 76 45 77 46 78
REMARK SMILES IDX 47 79 48 80 74 81 75 82 84 83 76 84 77 85 83 86 85 87 78 88
REMARK SMILES IDX 79 89 80 90 81 91 82 92 58 93 59 94 68 95 60 96 61 97 67 98
REMARK SMILES IDX 69 99 62 100 63 101 64 102 65 103 66 104
REMARK H PARENT 24 5 10 10 98 26 28 35 90 54 56 65
REMARK Flexibility Score: inf
ROOT
ATOM      1  C   UNL A   1      31.404  27.820  26.668  1.00  0.00     0.117 C 
ENDROOT
BRANCH   1   2
ATOM      2  N   UNL A   1      30.626  26.567  26.595  1.00  0.00    -0.355 N 
ATOM      3  C   UNL A   1      30.819  25.293  26.102  1.00  0.00     0.236 C 
ATOM      4  O   UNL A   1      30.030  24.451  26.545  1.00  0.00    -0.274 OA
ATOM      5  H   UNL A   1      29.738  26.667  27.005  1.00  0.00     0.163 HD
BRANCH   3   6
ATOM      6  C   UNL A   1      31.709  24.956  24.876  1.00  0.00     0.144 C 
ATOM      7  N   UNL A   1      32.321  26.567  23.086  1.00  0.00    -0.328 N 
ATOM      8  C   UNL A   1      33.543  25.962  23.543  1.00  0.00     0.272 C 
ATOM      9  C   UNL A   1      31.234  25.844  23.724  1.00  0.00     0.284 C 
ATOM     10  H   UNL A   1      32.249  26.458  22.074  1.00  0.00     0.348 HD
ATOM     11  C   UNL A   1      33.242  25.264  24.896  1.00  0.00     0.103 C 
ATOM     12  C   UNL A   1      34.191  24.082  24.883  1.00  0.00     0.004 A 
ATOM     13  C   UNL A   1      31.483  23.423  24.890  1.00  0.00     0.253 C 
ATOM     14  C   UNL A   1      35.588  24.285  24.851  1.00  0.00     0.008 A 
ATOM     15  C   UNL A   1      33.715  22.802  24.620  1.00  0.00     0.123 A 
ATOM     16  O   UNL A   1      32.422  22.592  24.228  1.00  0.00    -0.492 OA
ATOM     17  C   UNL A   1      36.465  23.222  24.618  1.00  0.00     0.001 A 
ATOM     18  C   UNL A   1      34.588  21.719  24.510  1.00  0.00     0.047 A 
ATOM     19  C   UNL A   1      35.966  21.928  24.504  1.00  0.00     0.004 A 
BRANCH   7  20
ATOM     20  C   UNL A   1      32.250  28.032  23.083  1.00  0.00     0.319 C 
BRANCH  20  21
ATOM     21  C   UNL A   1      30.899  28.628  22.869  1.00  0.00     0.090 A 
ATOM     22  C   UNL A   1      29.228  29.825  22.008  1.00  0.00     0.106 A 
ATOM     23  N   UNL A   1      28.677  29.055  22.926  1.00  0.00    -0.241 NA
ATOM     24  N   UNL A   1      30.599  29.666  22.020  1.00  0.00    -0.341 N 
ATOM     25  C   UNL A   1      29.696  28.326  23.469  1.00  0.00     0.140 A 
ATOM     26  H   UNL A   1      31.248  30.204  21.510  1.00  0.00     0.168 HD
BRANCH  22  27
ATOM     27  C   UNL A   1      28.442  30.721  21.099  1.00  0.00     0.075 C 
BRANCH  27  28
ATOM     28  C   UNL A   1      28.403  32.209  21.437  1.00  0.00     0.008 C 
BRANCH  28  29
ATOM     29  C   UNL A   1      28.403  32.540  22.925  1.00  0.00    -0.003 C 
ATOM     30  C   UNL A   1      29.301  33.694  23.338  1.00  0.00     0.004 C 
ENDBRANCH  28  29
ENDBRANCH  27  28
ENDBRANCH  22  27
ENDBRANCH  20  21
ENDBRANCH   7  20
ENDBRANCH   3   6
ENDBRANCH   1   2
BRANCH   1  31
ATOM     31  C   UNL A   1      32.600  27.835  27.615  1.00  0.00     0.042 C 
BRANCH  31  32
ATOM     32  C   UNL A   1      33.776  28.651  27.087  1.00  0.00     0.118 C 
BRANCH  32  33
ATOM     33  N   UNL A   1      33.809  30.010  27.635  1.00  0.00    -0.352 N 
ATOM     34  C   UNL A   1      34.752  30.665  28.389  1.00  0.00     0.251 C 
ATOM     35  H   UNL A   1      33.012  30.550  27.425  1.00  0.00     0.163 HD
ATOM     36  O   UNL A   1      34.437  31.701  28.978  1.00  0.00    -0.269 OA
BRANCH  34  37
ATOM     37  C   UNL A   1      36.125  30.137  28.496  1.00  0.00     0.039 A 
ATOM     38  C   UNL A   1      36.571  29.612  29.706  1.00  0.00     0.014 A 
ATOM     39  C   UNL A   1      36.973  30.142  27.383  1.00  0.00     0.014 A 
ATOM     40  C   UNL A   1      37.914  29.314  29.873  1.00  0.00     0.010 A 
ATOM     41  C   UNL A   1      38.299  29.718  27.521  1.00  0.00     0.010 A 
ATOM     42  C   UNL A   1      38.797  29.355  28.783  1.00  0.00    -0.014 A 
BRANCH  42  43
ATOM     43  C   UNL A   1      40.228  29.021  29.008  1.00  0.00     0.031 A 
ATOM     44  C   UNL A   1      40.776  27.678  28.605  1.00  0.00     0.074 A 
ATOM     45  C   UNL A   1      41.050  29.969  29.504  1.00  0.00     0.049 A 
ATOM     46  N   UNL A   1      41.996  27.220  28.719  1.00  0.00    -0.248 NA
ATOM     47  C   UNL A   1      39.836  26.718  27.999  1.00  0.00     0.031 C 
ATOM     48  C   UNL A   1      40.633  31.314  29.915  1.00  0.00     0.029 A 
ATOM     49  N   UNL A   1      42.404  29.967  29.719  1.00  0.00    -0.354 N 
ATOM     50  C   UNL A   1      41.967  25.919  28.229  1.00  0.00     0.074 A 
ATOM     51  C   UNL A   1      40.603  25.647  27.839  1.00  0.00     0.031 C 
ATOM     52  C   UNL A   1      41.713  32.024  30.267  1.00  0.00     0.029 A 
ATOM     53  C   UNL A   1      42.887  31.162  30.198  1.00  0.00     0.049 A 
ATOM     54  H   UNL A   1      42.976  29.184  29.545  1.00  0.00     0.167 HD
ATOM     55  C   UNL A   1      42.989  25.040  28.108  1.00  0.00     0.037 A 
ATOM     56  C   UNL A   1      44.130  31.521  30.571  1.00  0.00     0.037 A 
ATOM     57  C   UNL A   1      44.353  25.338  28.467  1.00  0.00     0.049 A 
ATOM     58  C   UNL A   1      45.236  30.513  30.462  1.00  0.00     0.074 A 
ATOM     59  C   UNL A   1      45.466  24.524  28.354  1.00  0.00     0.029 A 
ATOM     60  N   UNL A   1      44.790  26.541  29.002  1.00  0.00    -0.354 N 
ATOM     61  N   UNL A   1      45.186  29.287  29.997  1.00  0.00    -0.248 NA
ATOM     62  C   UNL A   1      46.562  30.926  30.938  1.00  0.00     0.031 C 
ATOM     63  C   UNL A   1      46.566  25.215  28.870  1.00  0.00     0.029 A 
ATOM     64  C   UNL A   1      46.151  26.481  29.252  1.00  0.00     0.049 A 
ATOM     65  H   UNL A   1      44.217  27.321  29.177  1.00  0.00     0.167 HD
ATOM     66  C   UNL A   1      46.475  28.783  30.121  1.00  0.00     0.074 A 
ATOM     67  C   UNL A   1      47.287  29.847  30.676  1.00  0.00     0.031 C 
ATOM     68  C   UNL A   1      46.942  27.549  29.809  1.00  0.00     0.037 A 
BRANCH  55  69
ATOM     69  C   UNL A   1      42.685  23.663  27.579  1.00  0.00     0.058 A 
ATOM     70  C   UNL A   1      42.684  23.380  26.205  1.00  0.00     0.135 A 
ATOM     71  C   UNL A   1      42.473  22.595  28.467  1.00  0.00     0.135 A 
ATOM     72  F   UNL A   1      42.863  24.364  25.311  1.00  0.00    -0.206 F 
ATOM     73  C   UNL A   1      42.474  22.088  25.729  1.00  0.00     0.059 A 
ATOM     74  C   UNL A   1      42.287  21.292  28.014  1.00  0.00     0.059 A 
ATOM     75  F   UNL A   1      42.460  22.809  29.792  1.00  0.00    -0.206 F 
ATOM     76  C   UNL A   1      42.284  21.049  26.642  1.00  0.00     0.060 A 
BRANCH  76  77
ATOM     77  S   UNL A   1      42.045  19.377  26.005  1.00  0.00     0.124 S 
ATOM     78  O   UNL A   1      42.927  19.379  24.843  1.00  0.00    -0.237 OA
ATOM     79  O   UNL A   1      42.479  18.553  27.129  1.00  0.00    -0.237 OA
ATOM     80  O   UNL A   1      40.617  19.325  25.706  1.00  0.00    -0.744 OA
ENDBRANCH  76  77
ENDBRANCH  55  69
BRANCH  56  81
ATOM     81  C   UNL A   1      44.372  32.887  31.109  1.00  0.00     0.058 A 
ATOM     82  C   UNL A   1      44.255  33.160  32.479  1.00  0.00     0.135 A 
ATOM     83  C   UNL A   1      44.763  33.939  30.263  1.00  0.00     0.135 A 
ATOM     84  F   UNL A   1      43.878  32.192  33.327  1.00  0.00    -0.206 F 
ATOM     85  C   UNL A   1      44.511  34.429  32.991  1.00  0.00     0.059 A 
ATOM     86  C   UNL A   1      45.055  35.206  30.756  1.00  0.00     0.059 A 
ATOM     87  F   UNL A   1      44.904  33.726  28.945  1.00  0.00    -0.206 F 
ATOM     88  C   UNL A   1      44.918  35.443  32.122  1.00  0.00     0.060 A 
BRANCH  88  89
ATOM     89  S   UNL A   1      45.303  37.068  32.807  1.00  0.00     0.124 S 
ATOM     90  O   UNL A   1      45.760  36.722  34.148  1.00  0.00    -0.237 OA
ATOM     91  O   UNL A   1      46.327  37.550  31.887  1.00  0.00    -0.237 OA
ATOM     92  O   UNL A   1      44.026  37.773  32.738  1.00  0.00    -0.744 OA
ENDBRANCH  88  89
ENDBRANCH  56  81
BRANCH  68  93
ATOM     93  C   UNL A   1      48.400  27.281  30.052  1.00  0.00     0.058 A 
ATOM     94  C   UNL A   1      49.382  27.681  29.133  1.00  0.00     0.135 A 
ATOM     95  C   UNL A   1      48.825  26.676  31.246  1.00  0.00     0.135 A 
ATOM     96  F   UNL A   1      49.028  28.256  27.972  1.00  0.00    -0.206 F 
ATOM     97  C   UNL A   1      50.734  27.475  29.381  1.00  0.00     0.059 A 
ATOM     98  C   UNL A   1      50.173  26.488  31.529  1.00  0.00     0.059 A 
ATOM     99  F   UNL A   1      47.926  26.284  32.163  1.00  0.00    -0.206 F 
ATOM    100  C   UNL A   1      51.120  26.883  30.586  1.00  0.00     0.060 A 
BRANCH 100 101
ATOM    101  S   UNL A   1      52.881  26.661  30.908  1.00  0.00     0.124 S 
ATOM    102  O   UNL A   1      52.863  25.673  31.982  1.00  0.00    -0.237 OA
ATOM    103  O   UNL A   1      53.375  26.187  29.619  1.00  0.00    -0.237 OA
ATOM    104  O   UNL A   1      53.329  27.996  31.293  1.00  0.00    -0.744 OA
ENDBRANCH 100 101
ENDBRANCH  68  93
ENDBRANCH  42  43
ENDBRANCH  34  37
ENDBRANCH  32  33
ENDBRANCH  31  32
ENDBRANCH   1  31
TORSDOF 18
ENDMDL
MODEL 3
REMARK VINA RESULT:     -12.4      2.742      3.461
REMARK SMILES CCCCc1ncc(C[N@H+]2C[C@@H]3c4ccccc4OC[C@]3(C(=O)NCCCNC(=O)c3ccc(-c4c5nc(c(-c6c(F)cc(S(=O)(=O)[O-])cc6F)c6ccc([nH]6)c(-c6c(F)cc(S(=O)(=O)[O-])cc6F)c6nc(c(-c7c(F)cc(S(=O)(=O)[O-])cc7F)c7ccc4[nH]7)C=C6)C=C5)cc3)C2)[nH]1
REMARK SMILES IDX 25 1 24 2 22 3 23 4 21 6 10 7 11 8 97 9 12 11 13 12 20 13
REMARK SMILES IDX 14 14 18 15 19 16 15 17 17 18 16 19 9 20 8 21 5 22 6 23
REMARK SMILES IDX 98 24 7 25 4 27 3 28 2 29 1 30 26 31 27 32 28 33 29 34 30 36
REMARK SMILES IDX 31 37 32 38 96 39 33 40 95 41 34 42 35 43 36 44 89 45 37 46
REMARK SMILES IDX 94 47 88 48 90 49 38 50 93 51 87 52 86 53 39 55 73 56 52 57
REMARK SMILES IDX 72 58 53 59 56 60 71 61 91 62 54 63 55 64 70 66 92 67 57 68
REMARK SMILES IDX 40 69 41 70 50 71 42 72 43 73 49 74 51 75 44 76 45 77 46 78
REMARK SMILES IDX 47 79 48 80 74 81 75 82 84 83 76 84 77 85 83 86 85 87 78 88
REMARK SMILES IDX 79 89 80 90 81 91 82 92 58 93 59 94 68 95 60 96 61 97 67 98
REMARK SMILES IDX 69 99 62 100 63 101 64 102 65 103 66 104
REMARK H PARENT 24 5 10 10 98 26 28 35 90 54 56 65
REMARK Flexibility Score: inf
ROOT
ATOM      1  C   UNL A   1      31.659  26.849  26.488  1.00  0.00     0.117 C 
ENDROOT
BRANCH   1   2
ATOM      2  N   UNL A   1      31.372  25.466  26.917  1.00  0.00    -0.355 N 
ATOM      3  C   UNL A   1      31.941  24.221  26.742  1.00  0.00     0.236 C 
ATOM      4  O   UNL A   1      31.561  23.369  27.552  1.00  0.00    -0.274 OA
ATOM      5  H   UNL A   1      30.562  25.418  27.474  1.00  0.00     0.163 HD
BRANCH   3   6
ATOM      6  C   UNL A   1      32.739  23.795  25.480  1.00  0.00     0.144 C 
ATOM      7  N   UNL A   1      33.356  25.316  23.616  1.00  0.00    -0.328 N 
ATOM      8  C   UNL A   1      34.558  24.642  24.023  1.00  0.00     0.272 C 
ATOM      9  C   UNL A   1      32.260  24.685  24.331  1.00  0.00     0.284 C 
ATOM     10  H   UNL A   1      33.221  25.188  22.612  1.00  0.00     0.348 HD
ATOM     11  C   UNL A   1      34.287  23.999  25.409  1.00  0.00     0.103 C 
ATOM     12  C   UNL A   1      35.153  22.755  25.378  1.00  0.00     0.004 A 
ATOM     13  C   UNL A   1      32.412  22.282  25.549  1.00  0.00     0.253 C 
ATOM     14  C   UNL A   1      36.556  22.862  25.267  1.00  0.00     0.008 A 
ATOM     15  C   UNL A   1      34.580  21.505  25.178  1.00  0.00     0.123 A 
ATOM     16  O   UNL A   1      33.256  21.373  24.861  1.00  0.00    -0.492 OA
ATOM     17  C   UNL A   1      37.347  21.736  25.017  1.00  0.00     0.001 A 
ATOM     18  C   UNL A   1      35.372  20.362  25.052  1.00  0.00     0.047 A 
ATOM     19  C   UNL A   1      36.758  20.477  24.966  1.00  0.00     0.004 A 
BRANCH   7  20
ATOM     20  C   UNL A   1      33.383  26.782  23.576  1.00  0.00     0.319 C 
BRANCH  20  21
ATOM     21  C   UNL A   1      32.108  27.457  23.194  1.00  0.00     0.090 A 
ATOM     22  C   UNL A   1      30.430  28.922  23.120  1.00  0.00     0.106 A 
ATOM     23  N   UNL A   1      30.228  28.100  22.109  1.00  0.00    -0.241 NA
ATOM     24  N   UNL A   1      31.509  28.496  23.867  1.00  0.00    -0.341 N 
ATOM     25  C   UNL A   1      31.245  27.190  22.153  1.00  0.00     0.140 A 
ATOM     26  H   UNL A   1      31.799  28.869  24.731  1.00  0.00     0.168 HD
BRANCH  22  27
ATOM     27  C   UNL A   1      29.590  30.136  23.381  1.00  0.00     0.075 C 
BRANCH  27  28
ATOM     28  C   UNL A   1      28.952  30.825  22.178  1.00  0.00     0.008 C 
BRANCH  28  29
ATOM     29  C   UNL A   1      28.111  32.055  22.503  1.00  0.00    -0.003 C 
ATOM     30  C   UNL A   1      28.890  33.279  22.957  1.00  0.00     0.004 C 
ENDBRANCH  28  29
ENDBRANCH  27  28
ENDBRANCH  22  27
ENDBRANCH  20  21
ENDBRANCH   7  20
ENDBRANCH   3   6
ENDBRANCH   1   2
BRANCH   1  31
ATOM     31  C   UNL A   1      32.110  27.826  27.569  1.00  0.00     0.042 C 
BRANCH  31  32
ATOM     32  C   UNL A   1      33.462  28.469  27.272  1.00  0.00     0.118 C 
BRANCH  32  33
ATOM     33  N   UNL A   1      33.500  29.890  27.630  1.00  0.00    -0.352 N 
ATOM     34  C   UNL A   1      34.466  30.649  28.245  1.00  0.00     0.251 C 
ATOM     35  H   UNL A   1      32.686  30.390  27.386  1.00  0.00     0.163 HD
ATOM     36  O   UNL A   1      34.162  31.752  28.703  1.00  0.00    -0.269 OA
BRANCH  34  37
ATOM     37  C   UNL A   1      35.849  30.151  28.359  1.00  0.00     0.039 A 
ATOM     38  C   UNL A   1      36.300  29.637  29.572  1.00  0.00     0.014 A 
ATOM     39  C   UNL A   1      36.703  30.176  27.251  1.00  0.00     0.014 A 
ATOM     40  C   UNL A   1      37.648  29.369  29.745  1.00  0.00     0.010 A 
ATOM     41  C   UNL A   1      38.037  29.780  27.396  1.00  0.00     0.010 A 
ATOM     42  C   UNL A   1      38.536  29.430  28.660  1.00  0.00    -0.014 A 
BRANCH  42  43
ATOM     43  C   UNL A   1      39.973  29.127  28.893  1.00  0.00     0.031 A 
ATOM     44  C   UNL A   1      40.874  30.138  29.550  1.00  0.00     0.074 A 
ATOM     45  C   UNL A   1      40.441  27.900  28.584  1.00  0.00     0.049 A 
ATOM     46  N   UNL A   1      42.147  30.041  29.838  1.00  0.00    -0.248 NA
ATOM     47  C   UNL A   1      40.277  31.430  29.931  1.00  0.00     0.031 C 
ATOM     48  C   UNL A   1      39.654  26.832  27.958  1.00  0.00     0.029 A 
ATOM     49  N   UNL A   1      41.671  27.328  28.777  1.00  0.00    -0.354 N 
ATOM     50  C   UNL A   1      42.508  31.259  30.404  1.00  0.00     0.074 A 
ATOM     51  C   UNL A   1      41.328  32.092  30.398  1.00  0.00     0.031 C 
ATOM     52  C   UNL A   1      40.398  25.721  27.881  1.00  0.00     0.029 A 
ATOM     53  C   UNL A   1      41.742  26.018  28.363  1.00  0.00     0.049 A 
ATOM     54  H   UNL A   1      42.433  27.810  29.176  1.00  0.00     0.167 HD
ATOM     55  C   UNL A   1      43.712  31.638  30.893  1.00  0.00     0.037 A 
ATOM     56  C   UNL A   1      42.776  25.157  28.343  1.00  0.00     0.037 A 
ATOM     57  C   UNL A   1      44.871  30.783  30.927  1.00  0.00     0.049 A 
ATOM     58  C   UNL A   1      44.109  25.618  28.856  1.00  0.00     0.074 A 
ATOM     59  C   UNL A   1      46.130  31.064  31.429  1.00  0.00     0.029 A 
ATOM     60  N   UNL A   1      44.915  29.482  30.446  1.00  0.00    -0.354 N 
ATOM     61  N   UNL A   1      44.429  26.775  29.386  1.00  0.00    -0.248 NA
ATOM     62  C   UNL A   1      45.224  24.668  28.758  1.00  0.00     0.031 C 
ATOM     63  C   UNL A   1      46.949  29.954  31.203  1.00  0.00     0.029 A 
ATOM     64  C   UNL A   1      46.186  28.958  30.613  1.00  0.00     0.049 A 
ATOM     65  H   UNL A   1      44.155  29.003  30.045  1.00  0.00     0.167 HD
ATOM     66  C   UNL A   1      45.783  26.690  29.689  1.00  0.00     0.074 A 
ATOM     67  C   UNL A   1      46.212  25.359  29.310  1.00  0.00     0.031 C 
ATOM     68  C   UNL A   1      46.597  27.632  30.226  1.00  0.00     0.037 A 
BRANCH  55  69
ATOM     69  C   UNL A   1      43.856  33.040  31.422  1.00  0.00     0.058 A 
ATOM     70  C   UNL A   1      44.124  34.129  30.578  1.00  0.00     0.135 A 
ATOM     71  C   UNL A   1      43.642  33.307  32.785  1.00  0.00     0.135 A 
ATOM     72  F   UNL A   1      44.356  33.931  29.271  1.00  0.00    -0.206 F 
ATOM     73  C   UNL A   1      44.184  35.430  31.068  1.00  0.00     0.059 A 
ATOM     74  C   UNL A   1      43.670  34.603  33.291  1.00  0.00     0.059 A 
ATOM     75  F   UNL A   1      43.386  32.303  33.638  1.00  0.00    -0.206 F 
ATOM     76  C   UNL A   1      43.947  35.659  32.425  1.00  0.00     0.060 A 
BRANCH  76  77
ATOM     77  S   UNL A   1      43.997  37.359  33.032  1.00  0.00     0.124 S 
ATOM     78  O   UNL A   1      43.926  38.116  31.787  1.00  0.00    -0.237 OA
ATOM     79  O   UNL A   1      42.810  37.418  33.880  1.00  0.00    -0.237 OA
ATOM     80  O   UNL A   1      45.273  37.432  33.738  1.00  0.00    -0.744 OA
ENDBRANCH  76  77
ENDBRANCH  55  69
BRANCH  56  81
ATOM     81  C   UNL A   1      42.586  23.790  27.788  1.00  0.00     0.058 A 
ATOM     82  C   UNL A   1      42.498  22.670  28.627  1.00  0.00     0.135 A 
ATOM     83  C   UNL A   1      42.452  23.584  26.405  1.00  0.00     0.135 A 
ATOM     84  F   UNL A   1      42.626  22.814  29.955  1.00  0.00    -0.206 F 
ATOM     85  C   UNL A   1      42.288  21.393  28.115  1.00  0.00     0.059 A 
ATOM     86  C   UNL A   1      42.210  22.322  25.872  1.00  0.00     0.059 A 
ATOM     87  F   UNL A   1      42.514  24.624  25.560  1.00  0.00    -0.206 F 
ATOM     88  C   UNL A   1      42.138  21.231  26.736  1.00  0.00     0.060 A 
BRANCH  88  89
ATOM     89  S   UNL A   1      41.810  19.578  26.089  1.00  0.00     0.124 S 
ATOM     90  O   UNL A   1      40.410  19.689  25.694  1.00  0.00    -0.237 OA
ATOM     91  O   UNL A   1      42.777  19.481  25.000  1.00  0.00    -0.237 OA
ATOM     92  O   UNL A   1      42.076  18.710  27.232  1.00  0.00    -0.744 OA
ENDBRANCH  88  89
ENDBRANCH  56  81
BRANCH  68  93
ATOM     93  C   UNL A   1      48.035  27.257  30.444  1.00  0.00     0.058 A 
ATOM     94  C   UNL A   1      49.020  27.542  29.487  1.00  0.00     0.135 A 
ATOM     95  C   UNL A   1      48.442  26.664  31.651  1.00  0.00     0.135 A 
ATOM     96  F   UNL A   1      48.682  28.100  28.314  1.00  0.00    -0.206 F 
ATOM     97  C   UNL A   1      50.358  27.237  29.711  1.00  0.00     0.059 A 
ATOM     98  C   UNL A   1      49.779  26.379  31.909  1.00  0.00     0.059 A 
ATOM     99  F   UNL A   1      47.540  26.380  32.603  1.00  0.00    -0.206 F 
ATOM    100  C   UNL A   1      50.728  26.661  30.928  1.00  0.00     0.060 A 
BRANCH 100 101
ATOM    101  S   UNL A   1      52.474  26.310  31.217  1.00  0.00     0.124 S 
ATOM    102  O   UNL A   1      52.884  27.474  31.997  1.00  0.00    -0.237 OA
ATOM    103  O   UNL A   1      52.421  25.047  31.945  1.00  0.00    -0.237 OA
ATOM    104  O   UNL A   1      53.033  26.230  29.871  1.00  0.00    -0.744 OA
ENDBRANCH 100 101
ENDBRANCH  68  93
ENDBRANCH  42  43
ENDBRANCH  34  37
ENDBRANCH  32  33
ENDBRANCH  31  32
ENDBRANCH   1  31
TORSDOF 18
ENDMDL
