MODEL 1
REMARK VINA RESULT:     -11.9      0.000      0.000
REMARK SMILES O=C(NCCCNC(=O)[C@@H]1CCCN1C(=O)OCc1ccc(/N=N/c2ccccc2)cc1)c1ccc(-c2c3nc(c(-c4c(F)cc(S(=O)(=O)[O-])cc4F)c4ccc([nH]4)c(-c4c(F)cc(S(=O)(=O)[O-])cc4F)c4nc(c(-c5c(F)cc(S(=O)(=O)[O-])cc5F)c5ccc2[nH]5)C=C4)C=C3)cc1
REMARK SMILES IDX 7 1 8 2 9 3 6 5 5 6 4 7 3 8 1 9 2 10 33 12 34 13 98 14 35 15
REMARK SMILES IDX 97 16 36 17 37 18 38 19 91 20 39 21 96 22 90 23 92 24 40 25
REMARK SMILES IDX 95 26 89 27 88 28 41 30 75 31 54 32 74 33 55 34 58 35 73 36
REMARK SMILES IDX 93 37 56 38 57 39 72 41 94 42 59 43 42 44 43 45 52 46 44 47
REMARK SMILES IDX 45 48 51 49 53 50 46 51 47 52 48 53 49 54 50 55 76 56 77 57
REMARK SMILES IDX 86 58 78 59 79 60 85 61 87 62 80 63 81 64 82 65 83 66 84 67
REMARK SMILES IDX 60 68 61 69 70 70 62 71 63 72 69 73 71 74 64 75 65 76 66 77
REMARK SMILES IDX 67 78 68 79 10 80 11 81 14 82 12 83 13 84 15 85 16 86 17 87
REMARK SMILES IDX 18 88 19 89 20 90 32 91 21 92 31 93 22 94 23 95 24 96 25 97
REMARK SMILES IDX 26 98 30 99 27 100 29 101 28 102
REMARK H PARENT 7 4 3 11 92 29 58 40
REMARK Flexibility Score: inf
ROOT
ATOM      1  N   UNL A   1      34.164  25.329  23.220  1.00  0.00    -0.354 N 
ATOM      2  C   UNL A   1      33.603  26.229  22.352  1.00  0.00     0.242 C 
ATOM      3  O   UNL A   1      33.418  25.871  21.191  1.00  0.00    -0.273 OA
ATOM      4  H   UNL A   1      34.693  24.608  22.807  1.00  0.00     0.163 HD
ENDROOT
BRANCH   1   5
ATOM      5  C   UNL A   1      34.077  25.299  24.670  1.00  0.00     0.117 C 
BRANCH   5   6
ATOM      6  C   UNL A   1      34.752  24.046  25.217  1.00  0.00     0.042 C 
BRANCH   6   7
ATOM      7  C   UNL A   1      36.147  24.308  25.767  1.00  0.00     0.118 C 
BRANCH   7   8
ATOM      8  N   UNL A   1      36.936  23.090  25.900  1.00  0.00    -0.352 N 
ATOM      9  O   UNL A   1      38.805  21.855  26.140  1.00  0.00    -0.269 OA
ATOM     10  C   UNL A   1      38.257  22.947  26.254  1.00  0.00     0.251 C 
ATOM     11  H   UNL A   1      36.456  22.253  25.708  1.00  0.00     0.163 HD
BRANCH  10  12
ATOM     12  C   UNL A   1      39.011  24.119  26.748  1.00  0.00     0.039 A 
ATOM     13  C   UNL A   1      38.960  24.468  28.099  1.00  0.00     0.014 A 
ATOM     14  C   UNL A   1      39.771  24.879  25.856  1.00  0.00     0.014 A 
ATOM     15  C   UNL A   1      39.529  25.659  28.524  1.00  0.00     0.010 A 
ATOM     16  C   UNL A   1      40.441  26.019  26.311  1.00  0.00     0.010 A 
ATOM     17  C   UNL A   1      40.305  26.433  27.645  1.00  0.00    -0.014 A 
BRANCH  17  18
ATOM     18  C   UNL A   1      41.037  27.606  28.187  1.00  0.00     0.031 A 
ATOM     19  C   UNL A   1      42.534  27.712  28.101  1.00  0.00     0.074 A 
ATOM     20  C   UNL A   1      40.312  28.608  28.726  1.00  0.00     0.049 A 
ATOM     21  N   UNL A   1      43.310  28.690  28.496  1.00  0.00    -0.248 NA
ATOM     22  C   UNL A   1      43.259  26.579  27.503  1.00  0.00     0.031 C 
ATOM     23  C   UNL A   1      38.853  28.602  28.878  1.00  0.00     0.029 A 
ATOM     24  N   UNL A   1      40.687  29.828  29.223  1.00  0.00    -0.354 N 
ATOM     25  C   UNL A   1      44.609  28.294  28.203  1.00  0.00     0.074 A 
ATOM     26  C   UNL A   1      44.522  26.969  27.627  1.00  0.00     0.031 C 
ATOM     27  C   UNL A   1      38.454  29.780  29.375  1.00  0.00     0.029 A 
ATOM     28  C   UNL A   1      39.629  30.594  29.654  1.00  0.00     0.049 A 
ATOM     29  H   UNL A   1      41.624  30.130  29.266  1.00  0.00     0.167 HD
ATOM     30  C   UNL A   1      45.763  28.980  28.391  1.00  0.00     0.037 A 
ATOM     31  C   UNL A   1      39.604  31.807  30.235  1.00  0.00     0.037 A 
ATOM     32  C   UNL A   1      45.832  30.302  28.965  1.00  0.00     0.049 A 
ATOM     33  C   UNL A   1      40.904  32.525  30.464  1.00  0.00     0.074 A 
ATOM     34  C   UNL A   1      46.952  31.090  29.177  1.00  0.00     0.029 A 
ATOM     35  N   UNL A   1      44.744  31.032  29.422  1.00  0.00    -0.354 N 
ATOM     36  N   UNL A   1      42.119  32.146  30.148  1.00  0.00    -0.248 NA
ATOM     37  C   UNL A   1      40.830  33.830  31.129  1.00  0.00     0.031 C 
ATOM     38  C   UNL A   1      46.548  32.269  29.810  1.00  0.00     0.029 A 
ATOM     39  C   UNL A   1      45.168  32.247  29.938  1.00  0.00     0.049 A 
ATOM     40  H   UNL A   1      43.808  30.730  29.387  1.00  0.00     0.167 HD
ATOM     41  C   UNL A   1      42.954  33.176  30.560  1.00  0.00     0.074 A 
ATOM     42  C   UNL A   1      42.100  34.206  31.118  1.00  0.00     0.031 C 
ATOM     43  C   UNL A   1      44.306  33.262  30.491  1.00  0.00     0.037 A 
BRANCH  30  44
ATOM     44  C   UNL A   1      47.055  28.323  27.983  1.00  0.00     0.058 A 
ATOM     45  C   UNL A   1      47.756  27.469  28.850  1.00  0.00     0.135 A 
ATOM     46  C   UNL A   1      47.553  28.477  26.677  1.00  0.00     0.135 A 
ATOM     47  F   UNL A   1      47.336  27.296  30.113  1.00  0.00    -0.206 F 
ATOM     48  C   UNL A   1      48.908  26.802  28.443  1.00  0.00     0.059 A 
ATOM     49  C   UNL A   1      48.688  27.799  26.240  1.00  0.00     0.059 A 
ATOM     50  F   UNL A   1      46.925  29.280  25.806  1.00  0.00    -0.206 F 
ATOM     51  C   UNL A   1      49.362  26.968  27.133  1.00  0.00     0.060 A 
BRANCH  51  52
ATOM     52  S   UNL A   1      50.838  26.066  26.615  1.00  0.00     0.124 S 
ATOM     53  O   UNL A   1      50.681  24.808  27.339  1.00  0.00    -0.237 OA
ATOM     54  O   UNL A   1      50.664  25.989  25.168  1.00  0.00    -0.237 OA
ATOM     55  O   UNL A   1      51.935  26.916  27.068  1.00  0.00    -0.744 OA
ENDBRANCH  51  52
ENDBRANCH  30  44
BRANCH  31  56
ATOM     56  C   UNL A   1      38.311  32.400  30.670  1.00  0.00     0.058 A 
ATOM     57  C   UNL A   1      37.499  33.114  29.775  1.00  0.00     0.135 A 
ATOM     58  C   UNL A   1      37.865  32.269  31.995  1.00  0.00     0.135 A 
ATOM     59  F   UNL A   1      37.880  33.267  28.498  1.00  0.00    -0.206 F 
ATOM     60  C   UNL A   1      36.311  33.707  30.188  1.00  0.00     0.059 A 
ATOM     61  C   UNL A   1      36.664  32.822  32.421  1.00  0.00     0.059 A 
ATOM     62  F   UNL A   1      38.592  31.577  32.886  1.00  0.00    -0.206 F 
ATOM     63  C   UNL A   1      35.903  33.557  31.515  1.00  0.00     0.060 A 
BRANCH  63  64
ATOM     64  S   UNL A   1      34.356  34.325  32.039  1.00  0.00     0.124 S 
ATOM     65  O   UNL A   1      34.843  35.482  32.782  1.00  0.00    -0.237 OA
ATOM     66  O   UNL A   1      33.707  34.609  30.763  1.00  0.00    -0.237 OA
ATOM     67  O   UNL A   1      33.720  33.282  32.839  1.00  0.00    -0.744 OA
ENDBRANCH  63  64
ENDBRANCH  31  56
BRANCH  43  68
ATOM     68  C   UNL A   1      44.936  34.526  31.008  1.00  0.00     0.058 A 
ATOM     69  C   UNL A   1      45.128  35.647  30.185  1.00  0.00     0.135 A 
ATOM     70  C   UNL A   1      45.343  34.621  32.350  1.00  0.00     0.135 A 
ATOM     71  F   UNL A   1      44.766  35.607  28.893  1.00  0.00    -0.206 F 
ATOM     72  C   UNL A   1      45.738  36.803  30.662  1.00  0.00     0.059 A 
ATOM     73  C   UNL A   1      45.922  35.779  32.856  1.00  0.00     0.059 A 
ATOM     74  F   UNL A   1      45.173  33.583  33.184  1.00  0.00    -0.206 F 
ATOM     75  C   UNL A   1      46.133  36.858  32.000  1.00  0.00     0.060 A 
BRANCH  75  76
ATOM     76  S   UNL A   1      46.912  38.368  32.608  1.00  0.00     0.124 S 
ATOM     77  O   UNL A   1      46.146  39.395  31.911  1.00  0.00    -0.237 OA
ATOM     78  O   UNL A   1      46.687  38.276  34.048  1.00  0.00    -0.237 OA
ATOM     79  O   UNL A   1      48.302  38.227  32.186  1.00  0.00    -0.744 OA
ENDBRANCH  75  76
ENDBRANCH  43  68
ENDBRANCH  17  18
ENDBRANCH  10  12
ENDBRANCH   7   8
ENDBRANCH   6   7
ENDBRANCH   5   6
ENDBRANCH   1   5
BRANCH   2  80
ATOM     80  C   UNL A   1      33.210  27.609  22.903  1.00  0.00     0.177 C 
ATOM     81  C   UNL A   1      34.042  27.902  24.156  1.00  0.00     0.037 C 
ATOM     82  N   UNL A   1      31.844  27.824  23.379  1.00  0.00    -0.296 N 
ATOM     83  C   UNL A   1      33.271  29.022  24.835  1.00  0.00     0.024 C 
ATOM     84  C   UNL A   1      31.815  28.700  24.533  1.00  0.00     0.124 C 
BRANCH  82  85
ATOM     85  C   UNL A   1      30.682  27.496  22.726  1.00  0.00     0.410 C 
ATOM     86  O   UNL A   1      29.973  28.318  22.154  1.00  0.00    -0.224 OA
BRANCH  85  87
ATOM     87  O   UNL A   1      30.381  26.180  22.835  1.00  0.00    -0.445 OA
BRANCH  87  88
ATOM     88  C   UNL A   1      30.165  25.694  24.169  1.00  0.00     0.270 C 
BRANCH  88  89
ATOM     89  C   UNL A   1      30.722  24.308  24.437  1.00  0.00    -0.010 A 
ATOM     90  C   UNL A   1      31.116  23.444  23.408  1.00  0.00     0.009 A 
ATOM     91  C   UNL A   1      30.822  23.850  25.756  1.00  0.00     0.009 A 
ATOM     92  C   UNL A   1      31.652  22.180  23.696  1.00  0.00     0.031 A 
ATOM     93  C   UNL A   1      31.350  22.584  26.038  1.00  0.00     0.031 A 
ATOM     94  C   UNL A   1      31.792  21.733  25.014  1.00  0.00     0.086 A 
BRANCH  94  95
ATOM     95  N   UNL A   1      32.389  20.465  25.223  1.00  0.00    -0.151 NA
ATOM     96  N   UNL A   1      32.421  19.765  24.188  1.00  0.00    -0.151 NA
BRANCH  96  97
ATOM     97  C   UNL A   1      32.882  18.458  24.433  1.00  0.00     0.086 A 
ATOM     98  C   UNL A   1      33.594  17.800  23.423  1.00  0.00     0.030 A 
ATOM     99  C   UNL A   1      32.568  17.749  25.602  1.00  0.00     0.030 A 
ATOM    100  C   UNL A   1      33.990  16.467  23.575  1.00  0.00     0.002 A 
ATOM    101  C   UNL A   1      32.964  16.416  25.757  1.00  0.00     0.002 A 
ATOM    102  C   UNL A   1      33.670  15.776  24.742  1.00  0.00     0.000 A 
ENDBRANCH  96  97
ENDBRANCH  94  95
ENDBRANCH  88  89
ENDBRANCH  87  88
ENDBRANCH  85  87
ENDBRANCH  82  85
ENDBRANCH   2  80
TORSDOF 19
ENDMDL
MODEL 2
REMARK VINA RESULT:     -11.8      1.905      2.463
REMARK SMILES O=C(NCCCNC(=O)[C@@H]1CCCN1C(=O)OCc1ccc(/N=N/c2ccccc2)cc1)c1ccc(-c2c3nc(c(-c4c(F)cc(S(=O)(=O)[O-])cc4F)c4ccc([nH]4)c(-c4c(F)cc(S(=O)(=O)[O-])cc4F)c4nc(c(-c5c(F)cc(S(=O)(=O)[O-])cc5F)c5ccc2[nH]5)C=C4)C=C3)cc1
REMARK SMILES IDX 7 1 8 2 9 3 6 5 5 6 4 7 3 8 1 9 2 10 33 12 34 13 98 14 35 15
REMARK SMILES IDX 97 16 36 17 37 18 38 19 91 20 39 21 96 22 90 23 92 24 40 25
REMARK SMILES IDX 95 26 89 27 88 28 41 30 75 31 54 32 74 33 55 34 58 35 73 36
REMARK SMILES IDX 93 37 56 38 57 39 72 41 94 42 59 43 42 44 43 45 52 46 44 47
REMARK SMILES IDX 45 48 51 49 53 50 46 51 47 52 48 53 49 54 50 55 76 56 77 57
REMARK SMILES IDX 86 58 78 59 79 60 85 61 87 62 80 63 81 64 82 65 83 66 84 67
REMARK SMILES IDX 60 68 61 69 70 70 62 71 63 72 69 73 71 74 64 75 65 76 66 77
REMARK SMILES IDX 67 78 68 79 10 80 11 81 14 82 12 83 13 84 15 85 16 86 17 87
REMARK SMILES IDX 18 88 19 89 20 90 32 91 21 92 31 93 22 94 23 95 24 96 25 97
REMARK SMILES IDX 26 98 30 99 27 100 29 101 28 102
REMARK H PARENT 7 4 3 11 92 29 58 40
REMARK Flexibility Score: inf
ROOT
ATOM      1  N   UNL A   1      34.192  25.256  23.290  1.00  0.00    -0.354 N 
ATOM      2  C   UNL A   1      33.632  26.159  22.426  1.00  0.00     0.242 C 
ATOM      3  O   UNL A   1      33.444  25.804  21.264  1.00  0.00    -0.273 OA
ATOM      4  H   UNL A   1      34.720  24.535  22.875  1.00  0.00     0.163 HD
ENDROOT
BRANCH   1   5
ATOM      5  C   UNL A   1      34.108  25.223  24.741  1.00  0.00     0.117 C 
BRANCH   5   6
ATOM      6  C   UNL A   1      34.949  24.079  25.296  1.00  0.00     0.042 C 
BRANCH   6   7
ATOM      7  C   UNL A   1      36.417  24.446  25.475  1.00  0.00     0.118 C 
BRANCH   7   8
ATOM      8  N   UNL A   1      37.277  23.276  25.598  1.00  0.00    -0.352 N 
ATOM      9  O   UNL A   1      39.184  22.148  26.004  1.00  0.00    -0.269 OA
ATOM     10  C   UNL A   1      38.533  23.178  26.147  1.00  0.00     0.251 C 
ATOM     11  H   UNL A   1      36.906  22.439  25.237  1.00  0.00     0.163 HD
BRANCH  10  12
ATOM     12  C   UNL A   1      39.098  24.327  26.888  1.00  0.00     0.039 A 
ATOM     13  C   UNL A   1      38.817  24.494  28.245  1.00  0.00     0.014 A 
ATOM     14  C   UNL A   1      39.909  25.248  26.221  1.00  0.00     0.014 A 
ATOM     15  C   UNL A   1      39.208  25.656  28.891  1.00  0.00     0.010 A 
ATOM     16  C   UNL A   1      40.399  26.364  26.907  1.00  0.00     0.010 A 
ATOM     17  C   UNL A   1      40.032  26.592  28.241  1.00  0.00    -0.014 A 
BRANCH  17  18
ATOM     18  C   UNL A   1      40.568  27.734  29.026  1.00  0.00     0.031 A 
ATOM     19  C   UNL A   1      41.972  27.735  29.560  1.00  0.00     0.074 A 
ATOM     20  C   UNL A   1      39.765  28.803  29.211  1.00  0.00     0.049 A 
ATOM     21  N   UNL A   1      42.592  28.674  30.230  1.00  0.00    -0.248 NA
ATOM     22  C   UNL A   1      42.788  26.533  29.322  1.00  0.00     0.031 C 
ATOM     23  C   UNL A   1      38.376  28.900  28.751  1.00  0.00     0.029 A 
ATOM     24  N   UNL A   1      39.999  30.014  29.807  1.00  0.00    -0.354 N 
ATOM     25  C   UNL A   1      43.863  28.180  30.499  1.00  0.00     0.074 A 
ATOM     26  C   UNL A   1      43.916  26.842  29.949  1.00  0.00     0.031 C 
ATOM     27  C   UNL A   1      37.901  30.121  29.031  1.00  0.00     0.029 A 
ATOM     28  C   UNL A   1      38.920  30.865  29.760  1.00  0.00     0.049 A 
ATOM     29  H   UNL A   1      40.857  30.253  30.228  1.00  0.00     0.167 HD
ATOM     30  C   UNL A   1      44.890  28.794  31.137  1.00  0.00     0.037 A 
ATOM     31  C   UNL A   1      38.754  32.099  30.269  1.00  0.00     0.037 A 
ATOM     32  C   UNL A   1      44.821  30.130  31.677  1.00  0.00     0.049 A 
ATOM     33  C   UNL A   1      39.898  32.736  31.005  1.00  0.00     0.074 A 
ATOM     34  C   UNL A   1      45.814  30.849  32.322  1.00  0.00     0.029 A 
ATOM     35  N   UNL A   1      43.701  30.949  31.642  1.00  0.00    -0.354 N 
ATOM     36  N   UNL A   1      41.103  32.265  31.217  1.00  0.00    -0.248 NA
ATOM     37  C   UNL A   1      39.661  34.070  31.569  1.00  0.00     0.031 C 
ATOM     38  C   UNL A   1      45.280  32.077  32.723  1.00  0.00     0.029 A 
ATOM     39  C   UNL A   1      43.971  32.152  32.275  1.00  0.00     0.049 A 
ATOM     40  H   UNL A   1      42.840  30.709  31.228  1.00  0.00     0.167 HD
ATOM     41  C   UNL A   1      41.775  33.253  31.927  1.00  0.00     0.074 A 
ATOM     42  C   UNL A   1      40.850  34.359  32.077  1.00  0.00     0.031 C 
ATOM     43  C   UNL A   1      43.039  33.244  32.417  1.00  0.00     0.037 A 
BRANCH  30  44
ATOM     44  C   UNL A   1      46.181  28.035  31.300  1.00  0.00     0.058 A 
ATOM     45  C   UNL A   1      46.412  27.201  32.405  1.00  0.00     0.135 A 
ATOM     46  C   UNL A   1      47.163  28.074  30.295  1.00  0.00     0.135 A 
ATOM     47  F   UNL A   1      45.516  27.135  33.403  1.00  0.00    -0.206 F 
ATOM     48  C   UNL A   1      47.574  26.441  32.514  1.00  0.00     0.059 A 
ATOM     49  C   UNL A   1      48.320  27.302  30.370  1.00  0.00     0.059 A 
ATOM     50  F   UNL A   1      46.996  28.854  29.217  1.00  0.00    -0.206 F 
ATOM     51  C   UNL A   1      48.519  26.493  31.487  1.00  0.00     0.060 A 
BRANCH  51  52
ATOM     52  S   UNL A   1      50.002  25.473  31.632  1.00  0.00     0.124 S 
ATOM     53  O   UNL A   1      50.142  24.967  30.270  1.00  0.00    -0.237 OA
ATOM     54  O   UNL A   1      51.007  26.444  32.052  1.00  0.00    -0.237 OA
ATOM     55  O   UNL A   1      49.636  24.478  32.635  1.00  0.00    -0.744 OA
ENDBRANCH  51  52
ENDBRANCH  30  44
BRANCH  31  56
ATOM     56  C   UNL A   1      37.446  32.794  30.130  1.00  0.00     0.058 A 
ATOM     57  C   UNL A   1      36.390  32.545  31.018  1.00  0.00     0.135 A 
ATOM     58  C   UNL A   1      37.227  33.720  29.097  1.00  0.00     0.135 A 
ATOM     59  F   UNL A   1      36.549  31.669  32.022  1.00  0.00    -0.206 F 
ATOM     60  C   UNL A   1      35.152  33.159  30.866  1.00  0.00     0.059 A 
ATOM     61  C   UNL A   1      36.010  34.374  28.946  1.00  0.00     0.059 A 
ATOM     62  F   UNL A   1      38.211  34.013  28.232  1.00  0.00    -0.206 F 
ATOM     63  C   UNL A   1      34.971  34.071  29.824  1.00  0.00     0.060 A 
BRANCH  63  64
ATOM     64  S   UNL A   1      33.363  34.870  29.639  1.00  0.00     0.124 S 
ATOM     65  O   UNL A   1      33.744  36.168  29.094  1.00  0.00    -0.237 OA
ATOM     66  O   UNL A   1      32.676  33.967  28.720  1.00  0.00    -0.237 OA
ATOM     67  O   UNL A   1      32.838  34.885  31.001  1.00  0.00    -0.744 OA
ENDBRANCH  63  64
ENDBRANCH  31  56
BRANCH  43  68
ATOM     68  C   UNL A   1      43.500  34.483  33.136  1.00  0.00     0.058 A 
ATOM     69  C   UNL A   1      44.095  35.556  32.454  1.00  0.00     0.135 A 
ATOM     70  C   UNL A   1      43.332  34.602  34.526  1.00  0.00     0.135 A 
ATOM     71  F   UNL A   1      44.287  35.490  31.127  1.00  0.00    -0.206 F 
ATOM     72  C   UNL A   1      44.544  36.686  33.128  1.00  0.00     0.059 A 
ATOM     73  C   UNL A   1      43.742  35.738  35.215  1.00  0.00     0.059 A 
ATOM     74  F   UNL A   1      42.760  33.610  35.227  1.00  0.00    -0.206 F 
ATOM     75  C   UNL A   1      44.365  36.767  34.510  1.00  0.00     0.060 A 
BRANCH  75  76
ATOM     76  S   UNL A   1      44.943  38.244  35.371  1.00  0.00     0.124 S 
ATOM     77  O   UNL A   1      44.828  39.256  34.326  1.00  0.00    -0.237 OA
ATOM     78  O   UNL A   1      43.988  38.357  36.470  1.00  0.00    -0.237 OA
ATOM     79  O   UNL A   1      46.305  37.898  35.764  1.00  0.00    -0.744 OA
ENDBRANCH  75  76
ENDBRANCH  43  68
ENDBRANCH  17  18
ENDBRANCH  10  12
ENDBRANCH   7   8
ENDBRANCH   6   7
ENDBRANCH   5   6
ENDBRANCH   1   5
BRANCH   2  80
ATOM     80  C   UNL A   1      33.242  27.538  22.980  1.00  0.00     0.177 C 
ATOM     81  C   UNL A   1      34.014  27.790  24.280  1.00  0.00     0.037 C 
ATOM     82  N   UNL A   1      31.858  27.778  23.389  1.00  0.00    -0.296 N 
ATOM     83  C   UNL A   1      33.235  28.917  24.938  1.00  0.00     0.024 C 
ATOM     84  C   UNL A   1      31.790  28.635  24.555  1.00  0.00     0.124 C 
BRANCH  82  85
ATOM     85  C   UNL A   1      30.726  27.489  22.670  1.00  0.00     0.410 C 
ATOM     86  O   UNL A   1      30.115  28.322  22.007  1.00  0.00    -0.224 OA
BRANCH  85  87
ATOM     87  O   UNL A   1      30.329  26.203  22.825  1.00  0.00    -0.445 OA
BRANCH  87  88
ATOM     88  C   UNL A   1      30.172  25.753  24.180  1.00  0.00     0.270 C 
BRANCH  88  89
ATOM     89  C   UNL A   1      30.709  24.360  24.451  1.00  0.00    -0.010 A 
ATOM     90  C   UNL A   1      30.835  23.840  25.746  1.00  0.00     0.009 A 
ATOM     91  C   UNL A   1      31.129  23.564  23.378  1.00  0.00     0.009 A 
ATOM     92  C   UNL A   1      31.310  22.538  25.955  1.00  0.00     0.031 A 
ATOM     93  C   UNL A   1      31.612  22.267  23.593  1.00  0.00     0.031 A 
ATOM     94  C   UNL A   1      31.694  21.724  24.884  1.00  0.00     0.086 A 
BRANCH  94  95
ATOM     95  N   UNL A   1      32.116  20.403  25.176  1.00  0.00    -0.151 NA
ATOM     96  N   UNL A   1      32.761  19.880  24.243  1.00  0.00    -0.151 NA
BRANCH  96  97
ATOM     97  C   UNL A   1      33.053  18.523  24.480  1.00  0.00     0.086 A 
ATOM     98  C   UNL A   1      33.711  17.796  23.482  1.00  0.00     0.030 A 
ATOM     99  C   UNL A   1      32.619  17.843  25.628  1.00  0.00     0.030 A 
ATOM    100  C   UNL A   1      33.938  16.423  23.624  1.00  0.00     0.002 A 
ATOM    101  C   UNL A   1      32.845  16.470  25.774  1.00  0.00     0.002 A 
ATOM    102  C   UNL A   1      33.501  15.761  24.769  1.00  0.00     0.000 A 
ENDBRANCH  96  97
ENDBRANCH  94  95
ENDBRANCH  88  89
ENDBRANCH  87  88
ENDBRANCH  85  87
ENDBRANCH  82  85
ENDBRANCH   2  80
TORSDOF 19
ENDMDL
MODEL 3
REMARK VINA RESULT:     -11.8      5.034      8.141
REMARK SMILES O=C(NCCCNC(=O)[C@@H]1CCCN1C(=O)OCc1ccc(/N=N/c2ccccc2)cc1)c1ccc(-c2c3nc(c(-c4c(F)cc(S(=O)(=O)[O-])cc4F)c4ccc([nH]4)c(-c4c(F)cc(S(=O)(=O)[O-])cc4F)c4nc(c(-c5c(F)cc(S(=O)(=O)[O-])cc5F)c5ccc2[nH]5)C=C4)C=C3)cc1
REMARK SMILES IDX 7 1 8 2 9 3 6 5 5 6 4 7 3 8 1 9 2 10 33 12 34 13 98 14 35 15
REMARK SMILES IDX 97 16 36 17 37 18 38 19 91 20 39 21 96 22 90 23 92 24 40 25
REMARK SMILES IDX 95 26 89 27 88 28 41 30 75 31 54 32 74 33 55 34 58 35 73 36
REMARK SMILES IDX 93 37 56 38 57 39 72 41 94 42 59 43 42 44 43 45 52 46 44 47
REMARK SMILES IDX 45 48 51 49 53 50 46 51 47 52 48 53 49 54 50 55 76 56 77 57
REMARK SMILES IDX 86 58 78 59 79 60 85 61 87 62 80 63 81 64 82 65 83 66 84 67
REMARK SMILES IDX 60 68 61 69 70 70 62 71 63 72 69 73 71 74 64 75 65 76 66 77
REMARK SMILES IDX 67 78 68 79 10 80 11 81 14 82 12 83 13 84 15 85 16 86 17 87
REMARK SMILES IDX 18 88 19 89 20 90 32 91 21 92 31 93 22 94 23 95 24 96 25 97
REMARK SMILES IDX 26 98 30 99 27 100 29 101 28 102
REMARK H PARENT 7 4 3 11 92 29 58 40
REMARK Flexibility Score: inf
ROOT
ATOM      1  N   UNL A   1      44.555  23.592  24.442  1.00  0.00    -0.354 N 
ATOM      2  C   UNL A   1      44.457  22.323  23.934  1.00  0.00     0.242 C 
ATOM      3  O   UNL A   1      44.252  22.200  22.728  1.00  0.00    -0.273 OA
ATOM      4  H   UNL A   1      44.120  24.300  23.913  1.00  0.00     0.163 HD
ENDROOT
BRANCH   1   5
ATOM      5  C   UNL A   1      45.218  24.028  25.659  1.00  0.00     0.117 C 
BRANCH   5   6
ATOM      6  C   UNL A   1      45.772  25.439  25.487  1.00  0.00     0.042 C 
BRANCH   6   7
ATOM      7  C   UNL A   1      44.696  26.515  25.540  1.00  0.00     0.118 C 
BRANCH   7   8
ATOM      8  N   UNL A   1      43.430  26.071  24.970  1.00  0.00    -0.352 N 
ATOM      9  O   UNL A   1      41.237  25.557  24.959  1.00  0.00    -0.269 OA
ATOM     10  C   UNL A   1      42.165  26.145  25.504  1.00  0.00     0.251 C 
ATOM     11  H   UNL A   1      43.489  25.661  24.077  1.00  0.00     0.163 HD
BRANCH  10  12
ATOM     12  C   UNL A   1      41.942  26.914  26.748  1.00  0.00     0.039 A 
ATOM     13  C   UNL A   1      41.346  26.304  27.853  1.00  0.00     0.014 A 
ATOM     14  C   UNL A   1      42.327  28.255  26.809  1.00  0.00     0.014 A 
ATOM     15  C   UNL A   1      40.987  27.069  28.951  1.00  0.00     0.010 A 
ATOM     16  C   UNL A   1      42.067  28.998  27.965  1.00  0.00     0.010 A 
ATOM     17  C   UNL A   1      41.372  28.419  29.037  1.00  0.00    -0.014 A 
BRANCH  17  18
ATOM     18  C   UNL A   1      41.119  29.151  30.304  1.00  0.00     0.031 A 
ATOM     19  C   UNL A   1      41.988  28.957  31.516  1.00  0.00     0.074 A 
ATOM     20  C   UNL A   1      40.103  30.039  30.327  1.00  0.00     0.049 A 
ATOM     21  N   UNL A   1      41.913  29.553  32.680  1.00  0.00    -0.248 NA
ATOM     22  C   UNL A   1      43.074  27.970  31.418  1.00  0.00     0.031 C 
ATOM     23  C   UNL A   1      39.184  30.293  29.213  1.00  0.00     0.029 A 
ATOM     24  N   UNL A   1      39.684  30.906  31.301  1.00  0.00    -0.354 N 
ATOM     25  C   UNL A   1      42.933  29.012  33.454  1.00  0.00     0.074 A 
ATOM     26  C   UNL A   1      43.593  28.015  32.639  1.00  0.00     0.031 C 
ATOM     27  C   UNL A   1      38.349  31.286  29.545  1.00  0.00     0.029 A 
ATOM     28  C   UNL A   1      38.617  31.685  30.920  1.00  0.00     0.049 A 
ATOM     29  H   UNL A   1      40.107  30.967  32.189  1.00  0.00     0.167 HD
ATOM     30  C   UNL A   1      43.287  29.330  34.724  1.00  0.00     0.037 A 
ATOM     31  C   UNL A   1      37.912  32.602  31.606  1.00  0.00     0.037 A 
ATOM     32  C   UNL A   1      42.619  30.330  35.522  1.00  0.00     0.049 A 
ATOM     33  C   UNL A   1      38.306  32.904  33.024  1.00  0.00     0.074 A 
ATOM     34  C   UNL A   1      42.917  30.740  36.812  1.00  0.00     0.029 A 
ATOM     35  N   UNL A   1      41.521  31.074  35.115  1.00  0.00    -0.354 N 
ATOM     36  N   UNL A   1      39.296  32.406  33.725  1.00  0.00    -0.248 NA
ATOM     37  C   UNL A   1      37.489  33.888  33.742  1.00  0.00     0.031 C 
ATOM     38  C   UNL A   1      41.969  31.689  37.202  1.00  0.00     0.029 A 
ATOM     39  C   UNL A   1      41.115  31.919  36.136  1.00  0.00     0.049 A 
ATOM     40  H   UNL A   1      41.093  31.009  34.231  1.00  0.00     0.167 HD
ATOM     41  C   UNL A   1      39.230  33.030  34.965  1.00  0.00     0.074 A 
ATOM     42  C   UNL A   1      38.124  33.964  34.902  1.00  0.00     0.031 C 
ATOM     43  C   UNL A   1      40.010  32.843  36.058  1.00  0.00     0.037 A 
BRANCH  30  44
ATOM     44  C   UNL A   1      44.444  28.592  35.344  1.00  0.00     0.058 A 
ATOM     45  C   UNL A   1      44.261  27.392  36.050  1.00  0.00     0.135 A 
ATOM     46  C   UNL A   1      45.762  29.043  35.157  1.00  0.00     0.135 A 
ATOM     47  F   UNL A   1      43.024  26.920  36.272  1.00  0.00    -0.206 F 
ATOM     48  C   UNL A   1      45.340  26.671  36.555  1.00  0.00     0.059 A 
ATOM     49  C   UNL A   1      46.858  28.326  35.630  1.00  0.00     0.059 A 
ATOM     50  F   UNL A   1      45.997  30.184  34.492  1.00  0.00    -0.206 F 
ATOM     51  C   UNL A   1      46.636  27.143  36.333  1.00  0.00     0.060 A 
BRANCH  51  52
ATOM     52  S   UNL A   1      48.022  26.176  36.967  1.00  0.00     0.124 S 
ATOM     53  O   UNL A   1      47.463  24.827  36.965  1.00  0.00    -0.237 OA
ATOM     54  O   UNL A   1      49.060  26.432  35.973  1.00  0.00    -0.237 OA
ATOM     55  O   UNL A   1      48.266  26.750  38.286  1.00  0.00    -0.744 OA
ENDBRANCH  51  52
ENDBRANCH  30  44
BRANCH  31  56
ATOM     56  C   UNL A   1      36.744  33.273  30.973  1.00  0.00     0.058 A 
ATOM     57  C   UNL A   1      36.915  34.256  29.987  1.00  0.00     0.135 A 
ATOM     58  C   UNL A   1      35.432  32.946  31.350  1.00  0.00     0.135 A 
ATOM     59  F   UNL A   1      38.149  34.605  29.593  1.00  0.00    -0.206 F 
ATOM     60  C   UNL A   1      35.828  34.917  29.425  1.00  0.00     0.059 A 
ATOM     61  C   UNL A   1      34.329  33.566  30.775  1.00  0.00     0.059 A 
ATOM     62  F   UNL A   1      35.211  31.996  32.272  1.00  0.00    -0.206 F 
ATOM     63  C   UNL A   1      34.538  34.566  29.827  1.00  0.00     0.060 A 
BRANCH  63  64
ATOM     64  S   UNL A   1      33.134  35.423  29.086  1.00  0.00     0.124 S 
ATOM     65  O   UNL A   1      33.805  36.431  28.273  1.00  0.00    -0.237 OA
ATOM     66  O   UNL A   1      32.470  34.349  28.355  1.00  0.00    -0.237 OA
ATOM     67  O   UNL A   1      32.402  35.930  30.244  1.00  0.00    -0.744 OA
ENDBRANCH  63  64
ENDBRANCH  31  56
BRANCH  43  68
ATOM     68  C   UNL A   1      39.705  33.689  37.265  1.00  0.00     0.058 A 
ATOM     69  C   UNL A   1      40.376  34.899  37.508  1.00  0.00     0.135 A 
ATOM     70  C   UNL A   1      38.721  33.290  38.184  1.00  0.00     0.135 A 
ATOM     71  F   UNL A   1      41.331  35.323  36.667  1.00  0.00    -0.206 F 
ATOM     72  C   UNL A   1      40.110  35.662  38.640  1.00  0.00     0.059 A 
ATOM     73  C   UNL A   1      38.414  34.055  39.303  1.00  0.00     0.059 A 
ATOM     74  F   UNL A   1      38.042  32.147  37.995  1.00  0.00    -0.206 F 
ATOM     75  C   UNL A   1      39.128  35.230  39.533  1.00  0.00     0.060 A 
BRANCH  75  76
ATOM     76  S   UNL A   1      38.785  36.236  40.992  1.00  0.00     0.124 S 
ATOM     77  O   UNL A   1      38.434  37.518  40.389  1.00  0.00    -0.237 OA
ATOM     78  O   UNL A   1      37.685  35.509  41.620  1.00  0.00    -0.237 OA
ATOM     79  O   UNL A   1      40.046  36.211  41.726  1.00  0.00    -0.744 OA
ENDBRANCH  75  76
ENDBRANCH  43  68
ENDBRANCH  17  18
ENDBRANCH  10  12
ENDBRANCH   7   8
ENDBRANCH   6   7
ENDBRANCH   5   6
ENDBRANCH   1   5
BRANCH   2  80
ATOM     80  C   UNL A   1      44.649  21.145  24.902  1.00  0.00     0.177 C 
ATOM     81  C   UNL A   1      45.106  19.916  24.109  1.00  0.00     0.037 C 
ATOM     82  N   UNL A   1      43.494  20.630  25.636  1.00  0.00    -0.296 N 
ATOM     83  C   UNL A   1      44.823  18.761  25.057  1.00  0.00     0.024 C 
ATOM     84  C   UNL A   1      43.561  19.190  25.789  1.00  0.00     0.124 C 
BRANCH  82  85
ATOM     85  C   UNL A   1      42.573  21.362  26.343  1.00  0.00     0.410 C 
ATOM     86  O   UNL A   1      42.750  21.736  27.498  1.00  0.00    -0.224 OA
BRANCH  85  87
ATOM     87  O   UNL A   1      41.432  21.571  25.643  1.00  0.00    -0.445 OA
BRANCH  87  88
ATOM     88  C   UNL A   1      40.225  21.082  26.249  1.00  0.00     0.270 C 
BRANCH  88  89
ATOM     89  C   UNL A   1      39.013  21.973  26.053  1.00  0.00    -0.010 A 
ATOM     90  C   UNL A   1      37.872  21.549  25.359  1.00  0.00     0.009 A 
ATOM     91  C   UNL A   1      39.032  23.281  26.552  1.00  0.00     0.009 A 
ATOM     92  C   UNL A   1      36.760  22.392  25.222  1.00  0.00     0.031 A 
ATOM     93  C   UNL A   1      37.922  24.122  26.405  1.00  0.00     0.031 A 
ATOM     94  C   UNL A   1      36.758  23.686  25.753  1.00  0.00     0.086 A 
BRANCH  94  95
ATOM     95  N   UNL A   1      35.577  24.456  25.616  1.00  0.00    -0.151 NA
ATOM     96  N   UNL A   1      34.562  23.875  26.056  1.00  0.00    -0.151 NA
BRANCH  96  97
ATOM     97  C   UNL A   1      33.374  24.582  25.788  1.00  0.00     0.086 A 
ATOM     98  C   UNL A   1      32.171  23.869  25.725  1.00  0.00     0.030 A 
ATOM     99  C   UNL A   1      33.358  25.949  25.476  1.00  0.00     0.030 A 
ATOM    100  C   UNL A   1      30.978  24.502  25.365  1.00  0.00     0.002 A 
ATOM    101  C   UNL A   1      32.166  26.587  25.117  1.00  0.00     0.002 A 
ATOM    102  C   UNL A   1      30.978  25.862  25.058  1.00  0.00     0.000 A 
ENDBRANCH  96  97
ENDBRANCH  94  95
ENDBRANCH  88  89
ENDBRANCH  87  88
ENDBRANCH  85  87
ENDBRANCH  82  85
ENDBRANCH   2  80
TORSDOF 19
ENDMDL
