MODEL 1
REMARK VINA RESULT:     -12.9      0.000      0.000
REMARK SMILES CC(=O)NC(C)(C)C(=O)N1C[C@@H](C(=O)NCCCNC(=O)c2ccc(-c3c4nc(c(-c5c(F)cc(S(=O)(=O)[O-])cc5F)c5ccc([nH]5)c(-c5c(F)cc(S(=O)(=O)[O-])cc5F)c5nc(c(-c6c(F)cc(S(=O)(=O)[O-])cc6F)c6ccc3[nH]6)C=C5)C=C4)cc2)[C@H](c2ccccc2C)C1
REMARK SMILES IDX 17 1 16 2 15 3 13 4 14 5 12 7 10 8 11 9 96 10 88 11 8 12
REMARK SMILES IDX 9 13 5 14 6 15 7 16 4 17 1 18 2 19 3 20 89 22 90 23 94 24
REMARK SMILES IDX 91 25 93 26 95 27 92 28 18 29 19 30 20 31 21 33 22 34 23 35
REMARK SMILES IDX 87 36 24 37 86 38 25 39 26 40 27 41 80 42 28 43 85 44 79 45
REMARK SMILES IDX 81 46 29 47 84 48 78 49 77 50 30 52 64 53 43 54 63 55 44 56
REMARK SMILES IDX 47 57 62 58 82 59 45 60 46 61 61 63 83 64 48 65 31 66 32 67
REMARK SMILES IDX 41 68 33 69 34 70 40 71 42 72 35 73 36 74 37 75 38 76 39 77
REMARK SMILES IDX 65 78 66 79 75 80 67 81 68 82 74 83 76 84 69 85 70 86 71 87
REMARK SMILES IDX 72 88 73 89 49 90 50 91 59 92 51 93 52 94 58 95 60 96 53 97
REMARK SMILES IDX 54 98 55 99 56 100 57 101
REMARK H PARENT 15 6 4 21 19 32 81 51 47 62
REMARK Flexibility Score: inf
ROOT
ATOM      1  C   UNL A   1      33.376  29.166  27.432  1.00  0.00     0.042 C 
ENDROOT
BRANCH   1   2
ATOM      2  C   UNL A   1      32.782  29.820  26.185  1.00  0.00     0.117 C 
BRANCH   2   3
ATOM      3  N   UNL A   1      33.565  29.610  24.976  1.00  0.00    -0.356 N 
ATOM      4  C   UNL A   1      33.426  28.885  23.844  1.00  0.00     0.225 C 
ATOM      5  O   UNL A   1      34.293  29.111  22.985  1.00  0.00    -0.275 OA
ATOM      6  H   UNL A   1      34.404  30.125  24.986  1.00  0.00     0.163 HD
BRANCH   4   7
ATOM      7  C   UNL A   1      32.410  27.777  23.584  1.00  0.00     0.107 C 
ATOM      8  N   UNL A   1      32.245  25.580  22.755  1.00  0.00    -0.339 N 
ATOM      9  C   UNL A   1      33.212  26.493  23.313  1.00  0.00     0.133 C 
ATOM     10  C   UNL A   1      31.346  26.343  21.914  1.00  0.00     0.128 C 
ATOM     11  C   UNL A   1      31.441  27.820  22.392  1.00  0.00     0.053 C 
BRANCH   8  12
ATOM     12  C   UNL A   1      32.649  24.308  22.367  1.00  0.00     0.247 C 
ATOM     13  O   UNL A   1      33.255  24.124  21.312  1.00  0.00    -0.272 OA
BRANCH  12  14
ATOM     14  C   UNL A   1      32.430  23.196  23.451  1.00  0.00     0.113 C 
ATOM     15  C   UNL A   1      32.432  21.791  22.827  1.00  0.00     0.045 C 
ATOM     16  C   UNL A   1      31.038  23.467  24.059  1.00  0.00     0.045 C 
BRANCH  14  17
ATOM     17  N   UNL A   1      33.381  23.209  24.591  1.00  0.00    -0.342 N 
ATOM     18  C   UNL A   1      35.592  23.009  23.488  1.00  0.00     0.114 C 
ATOM     19  C   UNL A   1      34.692  22.863  24.677  1.00  0.00     0.217 C 
ATOM     20  O   UNL A   1      35.131  22.506  25.772  1.00  0.00    -0.275 OA
ATOM     21  H   UNL A   1      32.991  23.526  25.438  1.00  0.00     0.164 HD
ENDBRANCH  14  17
ENDBRANCH  12  14
ENDBRANCH   8  12
BRANCH  11  22
ATOM     22  C   UNL A   1      30.045  28.444  22.495  1.00  0.00    -0.039 A 
ATOM     23  C   UNL A   1      29.918  29.701  21.844  1.00  0.00     0.004 A 
ATOM     24  C   UNL A   1      28.910  27.950  23.179  1.00  0.00    -0.048 A 
ATOM     25  C   UNL A   1      28.751  30.461  21.902  1.00  0.00     0.000 A 
ATOM     26  C   UNL A   1      27.749  28.756  23.254  1.00  0.00     0.004 A 
ATOM     27  C   UNL A   1      28.789  26.596  23.826  1.00  0.00     0.044 C 
ATOM     28  C   UNL A   1      27.671  29.998  22.632  1.00  0.00     0.000 A 
ENDBRANCH  11  22
ENDBRANCH   4   7
ENDBRANCH   2   3
ENDBRANCH   1   2
BRANCH   1  29
ATOM     29  C   UNL A   1      34.864  29.426  27.645  1.00  0.00     0.118 C 
BRANCH  29  30
ATOM     30  N   UNL A   1      35.104  30.362  28.729  1.00  0.00    -0.352 N 
ATOM     31  C   UNL A   1      36.210  30.539  29.525  1.00  0.00     0.251 C 
ATOM     32  H   UNL A   1      34.353  30.966  28.926  1.00  0.00     0.163 HD
ATOM     33  O   UNL A   1      36.086  31.197  30.557  1.00  0.00    -0.269 OA
BRANCH  31  34
ATOM     34  C   UNL A   1      37.538  29.967  29.181  1.00  0.00     0.039 A 
ATOM     35  C   UNL A   1      38.409  29.630  30.226  1.00  0.00     0.014 A 
ATOM     36  C   UNL A   1      37.993  29.870  27.863  1.00  0.00     0.014 A 
ATOM     37  C   UNL A   1      39.710  29.189  29.953  1.00  0.00     0.010 A 
ATOM     38  C   UNL A   1      39.266  29.362  27.587  1.00  0.00     0.010 A 
ATOM     39  C   UNL A   1      40.152  29.044  28.628  1.00  0.00    -0.014 A 
BRANCH  39  40
ATOM     40  C   UNL A   1      41.554  28.641  28.319  1.00  0.00     0.031 A 
ATOM     41  C   UNL A   1      42.654  29.675  28.326  1.00  0.00     0.074 A 
ATOM     42  C   UNL A   1      41.846  27.363  28.006  1.00  0.00     0.049 A 
ATOM     43  N   UNL A   1      43.917  29.545  28.007  1.00  0.00    -0.248 NA
ATOM     44  C   UNL A   1      42.278  31.041  28.725  1.00  0.00     0.031 C 
ATOM     45  C   UNL A   1      40.880  26.264  27.945  1.00  0.00     0.029 A 
ATOM     46  N   UNL A   1      43.041  26.772  27.675  1.00  0.00    -0.354 N 
ATOM     47  C   UNL A   1      44.479  30.810  28.145  1.00  0.00     0.074 A 
ATOM     48  C   UNL A   1      43.409  31.703  28.534  1.00  0.00     0.031 C 
ATOM     49  C   UNL A   1      41.524  25.131  27.617  1.00  0.00     0.029 A 
ATOM     50  C   UNL A   1      42.939  25.427  27.409  1.00  0.00     0.049 A 
ATOM     51  H   UNL A   1      43.891  27.266  27.631  1.00  0.00     0.167 HD
ATOM     52  C   UNL A   1      45.769  31.193  27.987  1.00  0.00     0.037 A 
ATOM     53  C   UNL A   1      43.876  24.533  27.035  1.00  0.00     0.037 A 
ATOM     54  C   UNL A   1      46.844  30.301  27.640  1.00  0.00     0.049 A 
ATOM     55  C   UNL A   1      45.304  24.980  26.865  1.00  0.00     0.074 A 
ATOM     56  C   UNL A   1      48.191  30.589  27.495  1.00  0.00     0.029 A 
ATOM     57  N   UNL A   1      46.699  28.944  27.396  1.00  0.00    -0.354 N 
ATOM     58  N   UNL A   1      45.817  26.177  27.024  1.00  0.00    -0.248 NA
ATOM     59  C   UNL A   1      46.280  23.956  26.468  1.00  0.00     0.031 C 
ATOM     60  C   UNL A   1      48.856  29.411  27.136  1.00  0.00     0.029 A 
ATOM     61  C   UNL A   1      47.929  28.382  27.093  1.00  0.00     0.049 A 
ATOM     62  H   UNL A   1      45.846  28.451  27.432  1.00  0.00     0.167 HD
ATOM     63  C   UNL A   1      47.178  26.043  26.771  1.00  0.00     0.074 A 
ATOM     64  C   UNL A   1      47.411  24.648  26.459  1.00  0.00     0.031 C 
ATOM     65  C   UNL A   1      48.148  26.990  26.797  1.00  0.00     0.037 A 
BRANCH  52  66
ATOM     66  C   UNL A   1      46.094  32.647  28.200  1.00  0.00     0.058 A 
ATOM     67  C   UNL A   1      46.003  33.580  27.155  1.00  0.00     0.135 A 
ATOM     68  C   UNL A   1      46.472  33.118  29.468  1.00  0.00     0.135 A 
ATOM     69  F   UNL A   1      45.661  33.180  25.920  1.00  0.00    -0.206 F 
ATOM     70  C   UNL A   1      46.307  34.923  27.350  1.00  0.00     0.059 A 
ATOM     71  C   UNL A   1      46.755  34.462  29.692  1.00  0.00     0.059 A 
ATOM     72  F   UNL A   1      46.571  32.269  30.504  1.00  0.00    -0.206 F 
ATOM     73  C   UNL A   1      46.686  35.354  28.623  1.00  0.00     0.060 A 
BRANCH  73  74
ATOM     74  S   UNL A   1      47.083  37.099  28.860  1.00  0.00     0.124 S 
ATOM     75  O   UNL A   1      46.156  37.466  29.925  1.00  0.00    -0.237 OA
ATOM     76  O   UNL A   1      48.493  37.054  29.235  1.00  0.00    -0.237 OA
ATOM     77  O   UNL A   1      46.805  37.691  27.554  1.00  0.00    -0.744 OA
ENDBRANCH  73  74
ENDBRANCH  52  66
BRANCH  53  78
ATOM     78  C   UNL A   1      43.502  23.111  26.813  1.00  0.00     0.058 A 
ATOM     79  C   UNL A   1      43.464  22.571  25.519  1.00  0.00     0.135 A 
ATOM     80  C   UNL A   1      43.175  22.267  27.885  1.00  0.00     0.135 A 
ATOM     81  F   UNL A   1      43.760  23.343  24.461  1.00  0.00    -0.206 F 
ATOM     82  C   UNL A   1      43.100  21.248  25.291  1.00  0.00     0.059 A 
ATOM     83  C   UNL A   1      42.829  20.934  27.684  1.00  0.00     0.059 A 
ATOM     84  F   UNL A   1      43.211  22.733  29.142  1.00  0.00    -0.206 F 
ATOM     85  C   UNL A   1      42.783  20.437  26.382  1.00  0.00     0.060 A 
BRANCH  85  86
ATOM     86  S   UNL A   1      42.357  18.707  26.084  1.00  0.00     0.124 S 
ATOM     87  O   UNL A   1      42.600  18.116  27.395  1.00  0.00    -0.237 OA
ATOM     88  O   UNL A   1      40.959  18.799  25.673  1.00  0.00    -0.237 OA
ATOM     89  O   UNL A   1      43.287  18.314  25.029  1.00  0.00    -0.744 OA
ENDBRANCH  85  86
ENDBRANCH  53  78
BRANCH  65  90
ATOM     90  C   UNL A   1      49.556  26.547  26.514  1.00  0.00     0.058 A 
ATOM     91  C   UNL A   1      50.366  25.990  27.514  1.00  0.00     0.135 A 
ATOM     92  C   UNL A   1      50.082  26.638  25.215  1.00  0.00     0.135 A 
ATOM     93  F   UNL A   1      49.913  25.888  28.773  1.00  0.00    -0.206 F 
ATOM     94  C   UNL A   1      51.660  25.555  27.241  1.00  0.00     0.059 A 
ATOM     95  C   UNL A   1      51.364  26.189  24.915  1.00  0.00     0.059 A 
ATOM     96  F   UNL A   1      49.343  27.155  24.221  1.00  0.00    -0.206 F 
ATOM     97  C   UNL A   1      52.150  25.659  25.938  1.00  0.00     0.060 A 
BRANCH  97  98
ATOM     98  S   UNL A   1      53.817  25.060  25.587  1.00  0.00     0.124 S 
ATOM     99  O   UNL A   1      54.528  25.440  26.803  1.00  0.00    -0.237 OA
ATOM    100  O   UNL A   1      53.604  23.628  25.397  1.00  0.00    -0.237 OA
ATOM    101  O   UNL A   1      54.194  25.795  24.383  1.00  0.00    -0.744 OA
ENDBRANCH  97  98
ENDBRANCH  65  90
ENDBRANCH  39  40
ENDBRANCH  31  34
ENDBRANCH  29  30
ENDBRANCH   1  29
TORSDOF 17
ENDMDL
MODEL 2
REMARK VINA RESULT:     -12.4      6.560     12.161
REMARK SMILES CC(=O)NC(C)(C)C(=O)N1C[C@@H](C(=O)NCCCNC(=O)c2ccc(-c3c4nc(c(-c5c(F)cc(S(=O)(=O)[O-])cc5F)c5ccc([nH]5)c(-c5c(F)cc(S(=O)(=O)[O-])cc5F)c5nc(c(-c6c(F)cc(S(=O)(=O)[O-])cc6F)c6ccc3[nH]6)C=C5)C=C4)cc2)[C@H](c2ccccc2C)C1
REMARK SMILES IDX 17 1 16 2 15 3 13 4 14 5 12 7 10 8 11 9 96 10 88 11 8 12
REMARK SMILES IDX 9 13 5 14 6 15 7 16 4 17 1 18 2 19 3 20 89 22 90 23 94 24
REMARK SMILES IDX 91 25 93 26 95 27 92 28 18 29 19 30 20 31 21 33 22 34 23 35
REMARK SMILES IDX 87 36 24 37 86 38 25 39 26 40 27 41 80 42 28 43 85 44 79 45
REMARK SMILES IDX 81 46 29 47 84 48 78 49 77 50 30 52 64 53 43 54 63 55 44 56
REMARK SMILES IDX 47 57 62 58 82 59 45 60 46 61 61 63 83 64 48 65 31 66 32 67
REMARK SMILES IDX 41 68 33 69 34 70 40 71 42 72 35 73 36 74 37 75 38 76 39 77
REMARK SMILES IDX 65 78 66 79 75 80 67 81 68 82 74 83 76 84 69 85 70 86 71 87
REMARK SMILES IDX 72 88 73 89 49 90 50 91 59 92 51 93 52 94 58 95 60 96 53 97
REMARK SMILES IDX 54 98 55 99 56 100 57 101
REMARK H PARENT 15 6 4 21 19 32 81 51 47 62
REMARK Flexibility Score: inf
ROOT
ATOM      1  C   UNL A   1      39.028  22.134  26.243  1.00  0.00     0.042 C 
ENDROOT
BRANCH   1   2
ATOM      2  C   UNL A   1      37.569  22.339  25.838  1.00  0.00     0.117 C 
BRANCH   2   3
ATOM      3  N   UNL A   1      37.380  22.598  24.418  1.00  0.00    -0.356 N 
ATOM      4  C   UNL A   1      36.320  22.747  23.592  1.00  0.00     0.225 C 
ATOM      5  O   UNL A   1      36.618  23.102  22.441  1.00  0.00    -0.275 OA
ATOM      6  H   UNL A   1      38.236  22.686  23.941  1.00  0.00     0.163 HD
BRANCH   4   7
ATOM      7  C   UNL A   1      34.864  22.418  23.902  1.00  0.00     0.107 C 
ATOM      8  N   UNL A   1      32.987  23.250  25.054  1.00  0.00    -0.339 N 
ATOM      9  C   UNL A   1      34.231  23.696  24.477  1.00  0.00     0.133 C 
ATOM     10  C   UNL A   1      33.210  21.945  25.640  1.00  0.00     0.128 C 
ATOM     11  C   UNL A   1      34.470  21.356  24.941  1.00  0.00     0.053 C 
BRANCH   8  12
ATOM     12  C   UNL A   1      32.161  24.167  25.693  1.00  0.00     0.247 C 
ATOM     13  O   UNL A   1      32.219  24.340  26.910  1.00  0.00    -0.272 OA
BRANCH  12  14
ATOM     14  C   UNL A   1      31.308  25.060  24.727  1.00  0.00     0.113 C 
ATOM     15  C   UNL A   1      30.186  25.795  25.478  1.00  0.00     0.045 C 
ATOM     16  C   UNL A   1      30.670  24.090  23.709  1.00  0.00     0.045 C 
BRANCH  14  17
ATOM     17  N   UNL A   1      32.068  26.050  23.923  1.00  0.00    -0.342 N 
ATOM     18  C   UNL A   1      33.360  27.297  25.633  1.00  0.00     0.114 C 
ATOM     19  C   UNL A   1      32.731  27.182  24.278  1.00  0.00     0.217 C 
ATOM     20  O   UNL A   1      32.869  28.068  23.433  1.00  0.00    -0.275 OA
ATOM     21  H   UNL A   1      32.096  25.852  22.959  1.00  0.00     0.164 HD
ENDBRANCH  14  17
ENDBRANCH  12  14
ENDBRANCH   8  12
BRANCH  11  22
ATOM     22  C   UNL A   1      34.240  19.889  24.565  1.00  0.00    -0.039 A 
ATOM     23  C   UNL A   1      32.903  19.585  24.192  1.00  0.00     0.004 A 
ATOM     24  C   UNL A   1      35.166  18.820  24.586  1.00  0.00    -0.048 A 
ATOM     25  C   UNL A   1      32.481  18.287  23.901  1.00  0.00     0.000 A 
ATOM     26  C   UNL A   1      34.706  17.508  24.324  1.00  0.00     0.004 A 
ATOM     27  C   UNL A   1      36.647  18.940  24.832  1.00  0.00     0.044 C 
ATOM     28  C   UNL A   1      33.382  17.241  23.993  1.00  0.00     0.000 A 
ENDBRANCH  11  22
ENDBRANCH   4   7
ENDBRANCH   2   3
ENDBRANCH   1   2
BRANCH   1  29
ATOM     29  C   UNL A   1      39.699  23.354  26.866  1.00  0.00     0.118 C 
BRANCH  29  30
ATOM     30  N   UNL A   1      40.745  23.894  26.016  1.00  0.00    -0.352 N 
ATOM     31  C   UNL A   1      41.402  25.100  26.067  1.00  0.00     0.251 C 
ATOM     32  H   UNL A   1      41.030  23.300  25.284  1.00  0.00     0.163 HD
ATOM     33  O   UNL A   1      42.049  25.454  25.082  1.00  0.00    -0.269 OA
BRANCH  31  34
ATOM     34  C   UNL A   1      41.356  25.981  27.265  1.00  0.00     0.039 A 
ATOM     35  C   UNL A   1      40.325  25.786  28.194  1.00  0.00     0.014 A 
ATOM     36  C   UNL A   1      42.222  27.064  27.431  1.00  0.00     0.014 A 
ATOM     37  C   UNL A   1      40.175  26.657  29.281  1.00  0.00     0.010 A 
ATOM     38  C   UNL A   1      42.116  27.891  28.554  1.00  0.00     0.010 A 
ATOM     39  C   UNL A   1      41.073  27.718  29.477  1.00  0.00    -0.014 A 
BRANCH  39  40
ATOM     40  C   UNL A   1      40.889  28.694  30.588  1.00  0.00     0.031 A 
ATOM     41  C   UNL A   1      41.769  28.615  31.813  1.00  0.00     0.074 A 
ATOM     42  C   UNL A   1      39.925  29.633  30.522  1.00  0.00     0.049 A 
ATOM     43  N   UNL A   1      41.716  29.315  32.918  1.00  0.00    -0.248 NA
ATOM     44  C   UNL A   1      42.834  27.600  31.800  1.00  0.00     0.031 C 
ATOM     45  C   UNL A   1      38.993  29.814  29.407  1.00  0.00     0.029 A 
ATOM     46  N   UNL A   1      39.564  30.611  31.417  1.00  0.00    -0.354 N 
ATOM     47  C   UNL A   1      42.723  28.813  33.737  1.00  0.00     0.074 A 
ATOM     48  C   UNL A   1      43.341  27.720  33.018  1.00  0.00     0.031 C 
ATOM     49  C   UNL A   1      38.182  30.851  29.676  1.00  0.00     0.029 A 
ATOM     50  C   UNL A   1      38.510  31.387  30.995  1.00  0.00     0.049 A 
ATOM     51  H   UNL A   1      40.018  30.745  32.280  1.00  0.00     0.167 HD
ATOM     52  C   UNL A   1      43.116  29.235  34.964  1.00  0.00     0.037 A 
ATOM     53  C   UNL A   1      37.874  32.409  31.602  1.00  0.00     0.037 A 
ATOM     54  C   UNL A   1      42.531  30.348  35.665  1.00  0.00     0.049 A 
ATOM     55  C   UNL A   1      38.327  32.861  32.965  1.00  0.00     0.074 A 
ATOM     56  C   UNL A   1      42.886  30.874  36.896  1.00  0.00     0.029 A 
ATOM     57  N   UNL A   1      41.476  31.115  35.193  1.00  0.00    -0.354 N 
ATOM     58  N   UNL A   1      39.297  32.387  33.711  1.00  0.00    -0.248 NA
ATOM     59  C   UNL A   1      37.602  33.988  33.568  1.00  0.00     0.031 C 
ATOM     60  C   UNL A   1      42.029  31.943  37.180  1.00  0.00     0.029 A 
ATOM     61  C   UNL A   1      41.162  32.104  36.111  1.00  0.00     0.049 A 
ATOM     62  H   UNL A   1      41.017  30.976  34.333  1.00  0.00     0.167 HD
ATOM     63  C   UNL A   1      39.312  33.174  34.857  1.00  0.00     0.074 A 
ATOM     64  C   UNL A   1      38.264  34.161  34.703  1.00  0.00     0.031 C 
ATOM     65  C   UNL A   1      40.125  33.088  35.939  1.00  0.00     0.037 A 
BRANCH  52  66
ATOM     66  C   UNL A   1      44.244  28.493  35.625  1.00  0.00     0.058 A 
ATOM     67  C   UNL A   1      44.006  27.418  36.498  1.00  0.00     0.135 A 
ATOM     68  C   UNL A   1      45.580  28.839  35.364  1.00  0.00     0.135 A 
ATOM     69  F   UNL A   1      42.747  27.056  36.793  1.00  0.00    -0.206 F 
ATOM     70  C   UNL A   1      45.048  26.735  37.113  1.00  0.00     0.059 A 
ATOM     71  C   UNL A   1      46.640  28.151  35.948  1.00  0.00     0.059 A 
ATOM     72  F   UNL A   1      45.866  29.856  34.535  1.00  0.00    -0.206 F 
ATOM     73  C   UNL A   1      46.364  27.111  36.834  1.00  0.00     0.060 A 
BRANCH  73  74
ATOM     74  S   UNL A   1      47.707  26.218  37.645  1.00  0.00     0.124 S 
ATOM     75  O   UNL A   1      48.773  27.215  37.622  1.00  0.00    -0.237 OA
ATOM     76  O   UNL A   1      47.143  25.923  38.957  1.00  0.00    -0.237 OA
ATOM     77  O   UNL A   1      47.913  25.059  36.780  1.00  0.00    -0.744 OA
ENDBRANCH  73  74
ENDBRANCH  52  66
BRANCH  53  78
ATOM     78  C   UNL A   1      36.747  33.096  30.917  1.00  0.00     0.058 A 
ATOM     79  C   UNL A   1      35.421  32.875  31.317  1.00  0.00     0.135 A 
ATOM     80  C   UNL A   1      36.972  33.983  29.853  1.00  0.00     0.135 A 
ATOM     81  F   UNL A   1      35.156  32.029  32.323  1.00  0.00    -0.206 F 
ATOM     82  C   UNL A   1      34.354  33.497  30.676  1.00  0.00     0.059 A 
ATOM     83  C   UNL A   1      35.923  34.634  29.212  1.00  0.00     0.059 A 
ATOM     84  F   UNL A   1      38.224  34.239  29.444  1.00  0.00    -0.206 F 
ATOM     85  C   UNL A   1      34.616  34.375  29.623  1.00  0.00     0.060 A 
BRANCH  85  86
ATOM     86  S   UNL A   1      33.229  35.214  28.827  1.00  0.00     0.124 S 
ATOM     87  O   UNL A   1      33.907  36.300  28.128  1.00  0.00    -0.237 OA
ATOM     88  O   UNL A   1      32.671  34.161  27.985  1.00  0.00    -0.237 OA
ATOM     89  O   UNL A   1      32.391  35.613  29.955  1.00  0.00    -0.744 OA
ENDBRANCH  85  86
ENDBRANCH  53  78
BRANCH  65  90
ATOM     90  C   UNL A   1      39.938  34.106  37.028  1.00  0.00     0.058 A 
ATOM     91  C   UNL A   1      40.483  35.395  36.931  1.00  0.00     0.135 A 
ATOM     92  C   UNL A   1      39.162  33.803  38.159  1.00  0.00     0.135 A 
ATOM     93  F   UNL A   1      41.237  35.732  35.873  1.00  0.00    -0.206 F 
ATOM     94  C   UNL A   1      40.283  36.345  37.929  1.00  0.00     0.059 A 
ATOM     95  C   UNL A   1      38.932  34.744  39.158  1.00  0.00     0.059 A 
ATOM     96  F   UNL A   1      38.611  32.587  38.294  1.00  0.00    -0.206 F 
ATOM     97  C   UNL A   1      39.505  36.009  39.039  1.00  0.00     0.060 A 
BRANCH  97  98
ATOM     98  S   UNL A   1      39.224  37.259  40.312  1.00  0.00     0.124 S 
ATOM     99  O   UNL A   1      40.589  37.602  40.693  1.00  0.00    -0.237 OA
ATOM    100  O   UNL A   1      38.490  38.290  39.584  1.00  0.00    -0.237 OA
ATOM    101  O   UNL A   1      38.449  36.544  41.322  1.00  0.00    -0.744 OA
ENDBRANCH  97  98
ENDBRANCH  65  90
ENDBRANCH  39  40
ENDBRANCH  31  34
ENDBRANCH  29  30
ENDBRANCH   1  29
TORSDOF 17
ENDMDL
MODEL 3
REMARK VINA RESULT:     -12.4      2.402      8.657
REMARK SMILES CC(=O)NC(C)(C)C(=O)N1C[C@@H](C(=O)NCCCNC(=O)c2ccc(-c3c4nc(c(-c5c(F)cc(S(=O)(=O)[O-])cc5F)c5ccc([nH]5)c(-c5c(F)cc(S(=O)(=O)[O-])cc5F)c5nc(c(-c6c(F)cc(S(=O)(=O)[O-])cc6F)c6ccc3[nH]6)C=C5)C=C4)cc2)[C@H](c2ccccc2C)C1
REMARK SMILES IDX 17 1 16 2 15 3 13 4 14 5 12 7 10 8 11 9 96 10 88 11 8 12
REMARK SMILES IDX 9 13 5 14 6 15 7 16 4 17 1 18 2 19 3 20 89 22 90 23 94 24
REMARK SMILES IDX 91 25 93 26 95 27 92 28 18 29 19 30 20 31 21 33 22 34 23 35
REMARK SMILES IDX 87 36 24 37 86 38 25 39 26 40 27 41 80 42 28 43 85 44 79 45
REMARK SMILES IDX 81 46 29 47 84 48 78 49 77 50 30 52 64 53 43 54 63 55 44 56
REMARK SMILES IDX 47 57 62 58 82 59 45 60 46 61 61 63 83 64 48 65 31 66 32 67
REMARK SMILES IDX 41 68 33 69 34 70 40 71 42 72 35 73 36 74 37 75 38 76 39 77
REMARK SMILES IDX 65 78 66 79 75 80 67 81 68 82 74 83 76 84 69 85 70 86 71 87
REMARK SMILES IDX 72 88 73 89 49 90 50 91 59 92 51 93 52 94 58 95 60 96 53 97
REMARK SMILES IDX 54 98 55 99 56 100 57 101
REMARK H PARENT 15 6 4 21 19 32 81 51 47 62
REMARK Flexibility Score: inf
ROOT
ATOM      1  C   UNL A   1      38.088  19.735  25.002  1.00  0.00     0.042 C 
ENDROOT
BRANCH   1   2
ATOM      2  C   UNL A   1      36.954  20.740  24.807  1.00  0.00     0.117 C 
BRANCH   2   3
ATOM      3  N   UNL A   1      37.238  22.065  25.341  1.00  0.00    -0.356 N 
ATOM      4  C   UNL A   1      36.533  23.198  25.550  1.00  0.00     0.225 C 
ATOM      5  O   UNL A   1      37.151  24.076  26.171  1.00  0.00    -0.275 OA
ATOM      6  H   UNL A   1      38.178  22.157  25.618  1.00  0.00     0.163 HD
BRANCH   4   7
ATOM      7  C   UNL A   1      35.144  23.525  25.011  1.00  0.00     0.107 C 
ATOM      8  N   UNL A   1      33.487  25.196  25.067  1.00  0.00    -0.339 N 
ATOM      9  C   UNL A   1      34.903  25.020  25.279  1.00  0.00     0.133 C 
ATOM     10  C   UNL A   1      32.811  24.014  25.561  1.00  0.00     0.128 C 
ATOM     11  C   UNL A   1      33.873  22.877  25.583  1.00  0.00     0.053 C 
BRANCH   8  12
ATOM     12  C   UNL A   1      32.918  26.451  25.254  1.00  0.00     0.247 C 
ATOM     13  O   UNL A   1      32.761  26.921  26.380  1.00  0.00    -0.272 OA
BRANCH  12  14
ATOM     14  C   UNL A   1      32.675  27.259  23.932  1.00  0.00     0.113 C 
ATOM     15  C   UNL A   1      32.733  26.348  22.695  1.00  0.00     0.045 C 
ATOM     16  C   UNL A   1      33.824  28.286  23.846  1.00  0.00     0.045 C 
BRANCH  14  17
ATOM     17  N   UNL A   1      31.419  28.049  23.879  1.00  0.00    -0.342 N 
ATOM     18  C   UNL A   1      29.659  26.342  24.247  1.00  0.00     0.114 C 
ATOM     19  C   UNL A   1      30.121  27.673  23.736  1.00  0.00     0.217 C 
ATOM     20  O   UNL A   1      29.328  28.483  23.253  1.00  0.00    -0.275 OA
ATOM     21  H   UNL A   1      31.550  29.021  23.963  1.00  0.00     0.164 HD
ENDBRANCH  14  17
ENDBRANCH  12  14
ENDBRANCH   8  12
BRANCH  11  22
ATOM     22  C   UNL A   1      33.286  21.582  25.010  1.00  0.00    -0.039 A 
ATOM     23  C   UNL A   1      33.314  20.482  25.908  1.00  0.00     0.004 A 
ATOM     24  C   UNL A   1      32.773  21.348  23.713  1.00  0.00    -0.048 A 
ATOM     25  C   UNL A   1      32.905  19.201  25.539  1.00  0.00     0.000 A 
ATOM     26  C   UNL A   1      32.399  20.032  23.350  1.00  0.00     0.004 A 
ATOM     27  C   UNL A   1      32.541  22.392  22.653  1.00  0.00     0.044 C 
ATOM     28  C   UNL A   1      32.470  18.970  24.246  1.00  0.00     0.000 A 
ENDBRANCH  11  22
ENDBRANCH   4   7
ENDBRANCH   2   3
ENDBRANCH   1   2
BRANCH   1  29
ATOM     29  C   UNL A   1      39.288  20.265  25.781  1.00  0.00     0.118 C 
BRANCH  29  30
ATOM     30  N   UNL A   1      40.278  19.231  26.025  1.00  0.00    -0.352 N 
ATOM     31  C   UNL A   1      41.646  19.316  26.140  1.00  0.00     0.251 C 
ATOM     32  H   UNL A   1      39.912  18.324  26.125  1.00  0.00     0.163 HD
ATOM     33  O   UNL A   1      42.302  18.278  26.067  1.00  0.00    -0.269 OA
BRANCH  31  34
ATOM     34  C   UNL A   1      42.348  20.610  26.347  1.00  0.00     0.039 A 
ATOM     35  C   UNL A   1      42.468  21.100  27.654  1.00  0.00     0.014 A 
ATOM     36  C   UNL A   1      42.779  21.407  25.283  1.00  0.00     0.014 A 
ATOM     37  C   UNL A   1      43.025  22.363  27.892  1.00  0.00     0.010 A 
ATOM     38  C   UNL A   1      43.400  22.637  25.524  1.00  0.00     0.010 A 
ATOM     39  C   UNL A   1      43.503  23.145  26.828  1.00  0.00    -0.014 A 
BRANCH  39  40
ATOM     40  C   UNL A   1      44.036  24.518  27.054  1.00  0.00     0.031 A 
ATOM     41  C   UNL A   1      43.104  25.627  27.482  1.00  0.00     0.074 A 
ATOM     42  C   UNL A   1      45.341  24.788  26.854  1.00  0.00     0.049 A 
ATOM     43  N   UNL A   1      43.354  26.901  27.652  1.00  0.00    -0.248 NA
ATOM     44  C   UNL A   1      41.703  25.255  27.732  1.00  0.00     0.031 C 
ATOM     45  C   UNL A   1      46.351  23.818  26.424  1.00  0.00     0.029 A 
ATOM     46  N   UNL A   1      46.044  25.962  26.981  1.00  0.00    -0.354 N 
ATOM     47  C   UNL A   1      42.141  27.484  28.006  1.00  0.00     0.074 A 
ATOM     48  C   UNL A   1      41.148  26.432  27.983  1.00  0.00     0.031 C 
ATOM     49  C   UNL A   1      47.543  24.431  26.343  1.00  0.00     0.029 A 
ATOM     50  C   UNL A   1      47.380  25.844  26.678  1.00  0.00     0.049 A 
ATOM     51  H   UNL A   1      45.629  26.809  27.262  1.00  0.00     0.167 HD
ATOM     52  C   UNL A   1      41.878  28.770  28.343  1.00  0.00     0.037 A 
ATOM     53  C   UNL A   1      48.362  26.767  26.665  1.00  0.00     0.037 A 
ATOM     54  C   UNL A   1      42.871  29.812  28.406  1.00  0.00     0.049 A 
ATOM     55  C   UNL A   1      48.047  28.191  27.042  1.00  0.00     0.074 A 
ATOM     56  C   UNL A   1      42.707  31.137  28.774  1.00  0.00     0.029 A 
ATOM     57  N   UNL A   1      44.214  29.644  28.107  1.00  0.00    -0.354 N 
ATOM     58  N   UNL A   1      46.898  28.715  27.397  1.00  0.00    -0.248 NA
ATOM     59  C   UNL A   1      49.163  29.148  27.021  1.00  0.00     0.031 C 
ATOM     60  C   UNL A   1      43.947  31.777  28.671  1.00  0.00     0.029 A 
ATOM     61  C   UNL A   1      44.890  30.842  28.273  1.00  0.00     0.049 A 
ATOM     62  H   UNL A   1      44.628  28.798  27.818  1.00  0.00     0.167 HD
ATOM     63  C   UNL A   1      47.159  30.055  27.664  1.00  0.00     0.074 A 
ATOM     64  C   UNL A   1      48.575  30.259  27.442  1.00  0.00     0.031 C 
ATOM     65  C   UNL A   1      46.302  31.029  28.060  1.00  0.00     0.037 A 
BRANCH  52  66
ATOM     66  C   UNL A   1      40.456  29.124  28.680  1.00  0.00     0.058 A 
ATOM     67  C   UNL A   1      40.017  29.216  30.011  1.00  0.00     0.135 A 
ATOM     68  C   UNL A   1      39.527  29.402  27.664  1.00  0.00     0.135 A 
ATOM     69  F   UNL A   1      40.861  28.946  31.020  1.00  0.00    -0.206 F 
ATOM     70  C   UNL A   1      38.702  29.539  30.323  1.00  0.00     0.059 A 
ATOM     71  C   UNL A   1      38.212  29.753  27.954  1.00  0.00     0.059 A 
ATOM     72  F   UNL A   1      39.893  29.332  26.374  1.00  0.00    -0.206 F 
ATOM     73  C   UNL A   1      37.804  29.802  29.286  1.00  0.00     0.060 A 
BRANCH  73  74
ATOM     74  S   UNL A   1      36.097  30.214  29.706  1.00  0.00     0.124 S 
ATOM     75  O   UNL A   1      35.981  29.642  31.044  1.00  0.00    -0.237 OA
ATOM     76  O   UNL A   1      36.099  31.672  29.638  1.00  0.00    -0.237 OA
ATOM     77  O   UNL A   1      35.321  29.543  28.667  1.00  0.00    -0.744 OA
ENDBRANCH  73  74
ENDBRANCH  52  66
BRANCH  53  78
ATOM     78  C   UNL A   1      49.748  26.375  26.301  1.00  0.00     0.058 A 
ATOM     79  C   UNL A   1      50.624  25.852  27.264  1.00  0.00     0.135 A 
ATOM     80  C   UNL A   1      50.225  26.515  24.989  1.00  0.00     0.135 A 
ATOM     81  F   UNL A   1      50.216  25.707  28.533  1.00  0.00    -0.206 F 
ATOM     82  C   UNL A   1      51.930  25.495  26.944  1.00  0.00     0.059 A 
ATOM     83  C   UNL A   1      51.520  26.145  24.640  1.00  0.00     0.059 A 
ATOM     84  F   UNL A   1      49.421  26.997  24.029  1.00  0.00    -0.206 F 
ATOM     85  C   UNL A   1      52.369  25.647  25.627  1.00  0.00     0.060 A 
BRANCH  85  86
ATOM     86  S   UNL A   1      54.051  25.138  25.209  1.00  0.00     0.124 S 
ATOM     87  O   UNL A   1      54.313  25.943  24.021  1.00  0.00    -0.237 OA
ATOM     88  O   UNL A   1      54.795  25.509  26.409  1.00  0.00    -0.237 OA
ATOM     89  O   UNL A   1      53.917  23.701  24.984  1.00  0.00    -0.744 OA
ENDBRANCH  85  86
ENDBRANCH  53  78
BRANCH  65  90
ATOM     90  C   UNL A   1      46.875  32.394  28.313  1.00  0.00     0.058 A 
ATOM     91  C   UNL A   1      47.481  32.723  29.534  1.00  0.00     0.135 A 
ATOM     92  C   UNL A   1      46.858  33.370  27.303  1.00  0.00     0.135 A 
ATOM     93  F   UNL A   1      47.517  31.828  30.534  1.00  0.00    -0.206 F 
ATOM     94  C   UNL A   1      48.036  33.981  29.754  1.00  0.00     0.059 A 
ATOM     95  C   UNL A   1      47.426  34.626  27.493  1.00  0.00     0.059 A 
ATOM     96  F   UNL A   1      46.298  33.102  26.113  1.00  0.00    -0.206 F 
ATOM     97  C   UNL A   1      48.004  34.925  28.726  1.00  0.00     0.060 A 
BRANCH  97  98
ATOM     98  S   UNL A   1      48.756  36.542  29.009  1.00  0.00     0.124 S 
ATOM     99  O   UNL A   1      48.290  36.852  30.356  1.00  0.00    -0.237 OA
ATOM    100  O   UNL A   1      50.182  36.253  28.883  1.00  0.00    -0.237 OA
ATOM    101  O   UNL A   1      48.195  37.368  27.944  1.00  0.00    -0.744 OA
ENDBRANCH  97  98
ENDBRANCH  65  90
ENDBRANCH  39  40
ENDBRANCH  31  34
ENDBRANCH  29  30
ENDBRANCH   1  29
TORSDOF 17
ENDMDL
