MODEL 1
REMARK VINA RESULT:     -11.7      0.000      0.000
REMARK SMILES CC[C@H](C)[C@@H](C(=O)NCCCNC(=O)c1ccc(-c2c3nc(c(-c4c(F)cc(S(=O)(=O)[O-])cc4F)c4ccc([nH]4)c(-c4c(F)cc(S(=O)(=O)[O-])cc4F)c4nc(c(-c5c(F)cc(S(=O)(=O)[O-])cc5F)c5ccc2[nH]5)C=C4)C=C3)cc1)N1C(=O)/C(=C/c2ccccc2OC)SC1=S
REMARK SMILES IDX 10 1 9 2 8 3 6 4 7 5 5 7 3 8 4 9 2 10 1 11 81 12 82 13 95 14
REMARK SMILES IDX 83 15 84 16 94 17 96 18 85 19 86 20 87 21 91 22 88 23 90 24
REMARK SMILES IDX 89 25 92 26 93 27 11 28 12 29 13 30 14 32 15 33 16 34 80 35
REMARK SMILES IDX 17 36 79 37 18 38 19 39 20 40 73 41 21 42 78 43 72 44 74 45
REMARK SMILES IDX 22 46 77 47 71 48 70 49 23 51 57 52 36 53 56 54 37 55 40 56
REMARK SMILES IDX 55 57 75 58 38 59 39 60 54 62 76 63 41 64 24 65 25 66 34 67
REMARK SMILES IDX 26 68 27 69 33 70 35 71 28 72 29 73 30 74 31 75 32 76 58 77
REMARK SMILES IDX 59 78 68 79 60 80 61 81 67 82 69 83 62 84 63 85 64 86 65 87
REMARK SMILES IDX 66 88 42 89 43 90 52 91 44 92 45 93 51 94 53 95 46 96 47 97
REMARK SMILES IDX 48 98 49 99 50 100
REMARK H PARENT 8 6 12 31 74 50 40 61
REMARK Flexibility Score: inf
ROOT
ATOM      1  C   UNL A   1      37.851  22.744  25.848  1.00  0.00     0.042 C 
ENDROOT
BRANCH   1   2
ATOM      2  C   UNL A   1      36.345  22.966  25.672  1.00  0.00     0.117 C 
BRANCH   2   3
ATOM      3  N   UNL A   1      35.590  22.768  26.905  1.00  0.00    -0.354 N 
ATOM      4  C   UNL A   1      34.259  22.542  27.134  1.00  0.00     0.243 C 
ATOM      5  O   UNL A   1      33.928  22.307  28.301  1.00  0.00    -0.273 OA
ATOM      6  H   UNL A   1      36.138  22.804  27.722  1.00  0.00     0.163 HD
BRANCH   4   7
ATOM      7  C   UNL A   1      33.219  22.561  25.982  1.00  0.00     0.184 C 
BRANCH   7   8
ATOM      8  C   UNL A   1      33.819  22.190  24.585  1.00  0.00     0.018 C 
ATOM      9  C   UNL A   1      34.162  20.718  24.420  1.00  0.00     0.010 C 
BRANCH   8  10
ATOM     10  C   UNL A   1      32.889  22.647  23.438  1.00  0.00     0.002 C 
ATOM     11  C   UNL A   1      33.615  23.494  22.401  1.00  0.00     0.004 C 
ENDBRANCH   8  10
ENDBRANCH   7   8
BRANCH   7  12
ATOM     12  N   UNL A   1      32.587  23.922  26.003  1.00  0.00    -0.280 N 
ATOM     13  C   UNL A   1      33.350  25.056  25.803  1.00  0.00     0.266 C 
ATOM     14  C   UNL A   1      31.272  24.168  26.356  1.00  0.00     0.149 C 
ATOM     15  O   UNL A   1      34.572  25.135  25.701  1.00  0.00    -0.268 OA
ATOM     16  C   UNL A   1      32.509  26.268  25.764  1.00  0.00     0.081 C 
ATOM     17  S   UNL A   1      30.915  25.900  26.236  1.00  0.00    -0.054 SA
ATOM     18  S   UNL A   1      30.108  23.067  26.828  1.00  0.00    -0.052 S 
ATOM     19  C   UNL A   1      33.103  27.435  25.491  1.00  0.00     0.033 C 
BRANCH  19  20
ATOM     20  C   UNL A   1      32.585  28.785  25.680  1.00  0.00     0.018 A 
ATOM     21  C   UNL A   1      33.037  29.480  26.818  1.00  0.00     0.012 A 
ATOM     22  C   UNL A   1      31.593  29.359  24.867  1.00  0.00     0.126 A 
ATOM     23  C   UNL A   1      32.520  30.734  27.144  1.00  0.00     0.001 A 
ATOM     24  C   UNL A   1      31.103  30.630  25.200  1.00  0.00     0.047 A 
ATOM     25  C   UNL A   1      31.551  31.310  26.332  1.00  0.00     0.004 A 
BRANCH  22  26
ATOM     26  O   UNL A   1      30.994  28.860  23.742  1.00  0.00    -0.496 OA
ATOM     27  C   UNL A   1      29.770  29.404  23.268  1.00  0.00     0.278 C 
ENDBRANCH  22  26
ENDBRANCH  19  20
ENDBRANCH   7  12
ENDBRANCH   4   7
ENDBRANCH   2   3
ENDBRANCH   1   2
BRANCH   1  28
ATOM     28  C   UNL A   1      38.610  23.941  26.404  1.00  0.00     0.118 C 
BRANCH  28  29
ATOM     29  N   UNL A   1      40.025  23.862  26.091  1.00  0.00    -0.352 N 
ATOM     30  C   UNL A   1      41.052  24.705  26.448  1.00  0.00     0.251 C 
ATOM     31  H   UNL A   1      40.290  23.089  25.542  1.00  0.00     0.163 HD
ATOM     32  O   UNL A   1      42.117  24.628  25.839  1.00  0.00    -0.269 OA
BRANCH  30  33
ATOM     33  C   UNL A   1      40.894  25.707  27.535  1.00  0.00     0.039 A 
ATOM     34  C   UNL A   1      41.840  26.732  27.648  1.00  0.00     0.014 A 
ATOM     35  C   UNL A   1      39.873  25.613  28.485  1.00  0.00     0.014 A 
ATOM     36  C   UNL A   1      41.739  27.673  28.679  1.00  0.00     0.010 A 
ATOM     37  C   UNL A   1      39.723  26.602  29.460  1.00  0.00     0.010 A 
ATOM     38  C   UNL A   1      40.665  27.633  29.583  1.00  0.00    -0.014 A 
BRANCH  38  39
ATOM     39  C   UNL A   1      40.533  28.640  30.674  1.00  0.00     0.031 A 
ATOM     40  C   UNL A   1      41.402  28.545  31.905  1.00  0.00     0.074 A 
ATOM     41  C   UNL A   1      39.609  29.617  30.580  1.00  0.00     0.049 A 
ATOM     42  N   UNL A   1      41.393  29.287  32.982  1.00  0.00    -0.248 NA
ATOM     43  C   UNL A   1      42.396  27.459  31.938  1.00  0.00     0.031 C 
ATOM     44  C   UNL A   1      38.681  29.801  29.461  1.00  0.00     0.029 A 
ATOM     45  N   UNL A   1      39.291  30.640  31.441  1.00  0.00    -0.354 N 
ATOM     46  C   UNL A   1      42.367  28.755  33.821  1.00  0.00     0.074 A 
ATOM     47  C   UNL A   1      42.908  27.593  33.152  1.00  0.00     0.031 C 
ATOM     48  C   UNL A   1      37.916  30.879  29.694  1.00  0.00     0.029 A 
ATOM     49  C   UNL A   1      38.266  31.443  30.994  1.00  0.00     0.049 A 
ATOM     50  H   UNL A   1      39.753  30.785  32.298  1.00  0.00     0.167 HD
ATOM     51  C   UNL A   1      42.793  29.208  35.025  1.00  0.00     0.037 A 
ATOM     52  C   UNL A   1      37.668  32.506  31.569  1.00  0.00     0.037 A 
ATOM     53  C   UNL A   1      42.272  30.383  35.677  1.00  0.00     0.049 A 
ATOM     54  C   UNL A   1      38.148  32.978  32.916  1.00  0.00     0.074 A 
ATOM     55  C   UNL A   1      42.669  30.948  36.876  1.00  0.00     0.029 A 
ATOM     56  N   UNL A   1      41.245  31.173  35.184  1.00  0.00    -0.354 N 
ATOM     57  N   UNL A   1      39.109  32.493  33.667  1.00  0.00    -0.248 NA
ATOM     58  C   UNL A   1      37.469  34.147  33.494  1.00  0.00     0.031 C 
ATOM     59  C   UNL A   1      41.853  32.054  37.131  1.00  0.00     0.029 A 
ATOM     60  C   UNL A   1      40.983  32.211  36.065  1.00  0.00     0.049 A 
ATOM     61  H   UNL A   1      40.771  31.020  34.335  1.00  0.00     0.167 HD
ATOM     62  C   UNL A   1      39.168  33.315  34.787  1.00  0.00     0.074 A 
ATOM     63  C   UNL A   1      38.159  34.337  34.610  1.00  0.00     0.031 C 
ATOM     64  C   UNL A   1      39.984  33.231  35.868  1.00  0.00     0.037 A 
BRANCH  51  65
ATOM     65  C   UNL A   1      43.890  28.445  35.718  1.00  0.00     0.058 A 
ATOM     66  C   UNL A   1      43.606  27.407  36.621  1.00  0.00     0.135 A 
ATOM     67  C   UNL A   1      45.239  28.709  35.431  1.00  0.00     0.135 A 
ATOM     68  F   UNL A   1      42.335  27.121  36.945  1.00  0.00    -0.206 F 
ATOM     69  C   UNL A   1      44.620  26.671  37.226  1.00  0.00     0.059 A 
ATOM     70  C   UNL A   1      46.268  27.966  36.002  1.00  0.00     0.059 A 
ATOM     71  F   UNL A   1      45.569  29.691  34.576  1.00  0.00    -0.206 F 
ATOM     72  C   UNL A   1      45.949  26.954  36.906  1.00  0.00     0.060 A 
BRANCH  72  73
ATOM     73  S   UNL A   1      47.248  25.968  37.680  1.00  0.00     0.124 S 
ATOM     74  O   UNL A   1      48.194  27.002  38.090  1.00  0.00    -0.237 OA
ATOM     75  O   UNL A   1      46.530  25.301  38.761  1.00  0.00    -0.237 OA
ATOM     76  O   UNL A   1      47.703  25.096  36.600  1.00  0.00    -0.744 OA
ENDBRANCH  72  73
ENDBRANCH  51  65
BRANCH  52  77
ATOM     77  C   UNL A   1      36.551  33.206  30.877  1.00  0.00     0.058 A 
ATOM     78  C   UNL A   1      36.800  34.116  29.839  1.00  0.00     0.135 A 
ATOM     79  C   UNL A   1      35.215  32.996  31.252  1.00  0.00     0.135 A 
ATOM     80  F   UNL A   1      38.060  34.357  29.445  1.00  0.00    -0.206 F 
ATOM     81  C   UNL A   1      35.770  34.817  29.219  1.00  0.00     0.059 A 
ATOM     82  C   UNL A   1      34.165  33.662  30.628  1.00  0.00     0.059 A 
ATOM     83  F   UNL A   1      34.919  32.122  32.227  1.00  0.00    -0.206 F 
ATOM     84  C   UNL A   1      34.455  34.584  29.623  1.00  0.00     0.060 A 
BRANCH  84  85
ATOM     85  S   UNL A   1      33.122  35.484  28.801  1.00  0.00     0.124 S 
ATOM     86  O   UNL A   1      33.870  36.413  27.961  1.00  0.00    -0.237 OA
ATOM     87  O   UNL A   1      32.417  34.416  28.100  1.00  0.00    -0.237 OA
ATOM     88  O   UNL A   1      32.389  36.086  29.912  1.00  0.00    -0.744 OA
ENDBRANCH  84  85
ENDBRANCH  52  77
BRANCH  64  89
ATOM     89  C   UNL A   1      39.853  34.295  36.923  1.00  0.00     0.058 A 
ATOM     90  C   UNL A   1      39.061  34.111  38.066  1.00  0.00     0.135 A 
ATOM     91  C   UNL A   1      40.572  35.498  36.809  1.00  0.00     0.135 A 
ATOM     92  F   UNL A   1      38.349  32.983  38.220  1.00  0.00    -0.206 F 
ATOM     93  C   UNL A   1      38.966  35.090  39.049  1.00  0.00     0.059 A 
ATOM     94  C   UNL A   1      40.516  36.478  37.796  1.00  0.00     0.059 A 
ATOM     95  F   UNL A   1      41.353  35.722  35.741  1.00  0.00    -0.206 F 
ATOM     96  C   UNL A   1      39.700  36.270  38.907  1.00  0.00     0.060 A 
BRANCH  96  97
ATOM     97  S   UNL A   1      39.591  37.518  40.206  1.00  0.00     0.124 S 
ATOM     98  O   UNL A   1      40.661  38.435  39.825  1.00  0.00    -0.237 OA
ATOM     99  O   UNL A   1      38.233  38.026  40.038  1.00  0.00    -0.237 OA
ATOM    100  O   UNL A   1      39.823  36.757  41.430  1.00  0.00    -0.744 OA
ENDBRANCH  96  97
ENDBRANCH  64  89
ENDBRANCH  38  39
ENDBRANCH  30  33
ENDBRANCH  28  29
ENDBRANCH   1  28
TORSDOF 18
ENDMDL
MODEL 2
REMARK VINA RESULT:     -11.3      0.498      8.152
REMARK SMILES CC[C@H](C)[C@@H](C(=O)NCCCNC(=O)c1ccc(-c2c3nc(c(-c4c(F)cc(S(=O)(=O)[O-])cc4F)c4ccc([nH]4)c(-c4c(F)cc(S(=O)(=O)[O-])cc4F)c4nc(c(-c5c(F)cc(S(=O)(=O)[O-])cc5F)c5ccc2[nH]5)C=C4)C=C3)cc1)N1C(=O)/C(=C/c2ccccc2OC)SC1=S
REMARK SMILES IDX 10 1 9 2 8 3 6 4 7 5 5 7 3 8 4 9 2 10 1 11 81 12 82 13 95 14
REMARK SMILES IDX 83 15 84 16 94 17 96 18 85 19 86 20 87 21 91 22 88 23 90 24
REMARK SMILES IDX 89 25 92 26 93 27 11 28 12 29 13 30 14 32 15 33 16 34 80 35
REMARK SMILES IDX 17 36 79 37 18 38 19 39 20 40 73 41 21 42 78 43 72 44 74 45
REMARK SMILES IDX 22 46 77 47 71 48 70 49 23 51 57 52 36 53 56 54 37 55 40 56
REMARK SMILES IDX 55 57 75 58 38 59 39 60 54 62 76 63 41 64 24 65 25 66 34 67
REMARK SMILES IDX 26 68 27 69 33 70 35 71 28 72 29 73 30 74 31 75 32 76 58 77
REMARK SMILES IDX 59 78 68 79 60 80 61 81 67 82 69 83 62 84 63 85 64 86 65 87
REMARK SMILES IDX 66 88 42 89 43 90 52 91 44 92 45 93 51 94 53 95 46 96 47 97
REMARK SMILES IDX 48 98 49 99 50 100
REMARK H PARENT 8 6 12 31 74 50 40 61
REMARK Flexibility Score: inf
ROOT
ATOM      1  C   UNL A   1      37.795  22.984  25.905  1.00  0.00     0.042 C 
ENDROOT
BRANCH   1   2
ATOM      2  C   UNL A   1      36.286  23.180  25.719  1.00  0.00     0.117 C 
BRANCH   2   3
ATOM      3  N   UNL A   1      35.522  22.925  26.936  1.00  0.00    -0.354 N 
ATOM      4  C   UNL A   1      34.200  22.629  27.138  1.00  0.00     0.243 C 
ATOM      5  O   UNL A   1      33.862  22.358  28.295  1.00  0.00    -0.273 OA
ATOM      6  H   UNL A   1      36.053  22.975  27.763  1.00  0.00     0.163 HD
BRANCH   4   7
ATOM      7  C   UNL A   1      33.180  22.614  25.968  1.00  0.00     0.184 C 
BRANCH   7   8
ATOM      8  C   UNL A   1      33.813  22.249  24.584  1.00  0.00     0.018 C 
ATOM      9  C   UNL A   1      34.249  20.799  24.456  1.00  0.00     0.010 C 
BRANCH   8  10
ATOM     10  C   UNL A   1      32.866  22.622  23.421  1.00  0.00     0.002 C 
ATOM     11  C   UNL A   1      33.537  23.513  22.383  1.00  0.00     0.004 C 
ENDBRANCH   8  10
ENDBRANCH   7   8
BRANCH   7  12
ATOM     12  N   UNL A   1      32.514  23.959  25.969  1.00  0.00    -0.280 N 
ATOM     13  C   UNL A   1      33.244  25.107  25.733  1.00  0.00     0.266 C 
ATOM     14  C   UNL A   1      31.198  24.179  26.337  1.00  0.00     0.149 C 
ATOM     15  O   UNL A   1      34.461  25.215  25.610  1.00  0.00    -0.268 OA
ATOM     16  C   UNL A   1      32.371  26.296  25.680  1.00  0.00     0.081 C 
ATOM     17  S   UNL A   1      30.794  25.898  26.185  1.00  0.00    -0.054 SA
ATOM     18  S   UNL A   1      30.071  23.060  26.852  1.00  0.00    -0.052 S 
ATOM     19  C   UNL A   1      32.931  27.471  25.372  1.00  0.00     0.033 C 
BRANCH  19  20
ATOM     20  C   UNL A   1      32.381  28.812  25.540  1.00  0.00     0.018 A 
ATOM     21  C   UNL A   1      32.754  29.504  26.708  1.00  0.00     0.012 A 
ATOM     22  C   UNL A   1      31.430  29.377  24.674  1.00  0.00     0.126 A 
ATOM     23  C   UNL A   1      32.199  30.747  27.012  1.00  0.00     0.001 A 
ATOM     24  C   UNL A   1      30.901  30.637  24.986  1.00  0.00     0.047 A 
ATOM     25  C   UNL A   1      31.270  31.315  26.148  1.00  0.00     0.004 A 
BRANCH  22  26
ATOM     26  O   UNL A   1      30.907  28.878  23.511  1.00  0.00    -0.496 OA
ATOM     27  C   UNL A   1      29.891  29.581  22.811  1.00  0.00     0.278 C 
ENDBRANCH  22  26
ENDBRANCH  19  20
ENDBRANCH   7  12
ENDBRANCH   4   7
ENDBRANCH   2   3
ENDBRANCH   1   2
BRANCH   1  28
ATOM     28  C   UNL A   1      38.520  24.174  26.517  1.00  0.00     0.118 C 
BRANCH  28  29
ATOM     29  N   UNL A   1      39.888  24.264  26.038  1.00  0.00    -0.352 N 
ATOM     30  C   UNL A   1      40.866  25.183  26.339  1.00  0.00     0.251 C 
ATOM     31  H   UNL A   1      40.156  23.560  25.404  1.00  0.00     0.163 HD
ATOM     32  O   UNL A   1      41.851  25.256  25.608  1.00  0.00    -0.269 OA
BRANCH  30  33
ATOM     33  C   UNL A   1      40.748  26.088  27.512  1.00  0.00     0.039 A 
ATOM     34  C   UNL A   1      41.656  27.145  27.640  1.00  0.00     0.014 A 
ATOM     35  C   UNL A   1      39.806  25.872  28.522  1.00  0.00     0.014 A 
ATOM     36  C   UNL A   1      41.593  27.997  28.749  1.00  0.00     0.010 A 
ATOM     37  C   UNL A   1      39.688  26.774  29.582  1.00  0.00     0.010 A 
ATOM     38  C   UNL A   1      40.592  27.837  29.720  1.00  0.00    -0.014 A 
BRANCH  38  39
ATOM     39  C   UNL A   1      40.500  28.748  30.896  1.00  0.00     0.031 A 
ATOM     40  C   UNL A   1      39.498  29.877  30.905  1.00  0.00     0.074 A 
ATOM     41  C   UNL A   1      41.339  28.588  31.939  1.00  0.00     0.049 A 
ATOM     42  N   UNL A   1      39.309  30.807  31.806  1.00  0.00    -0.248 NA
ATOM     43  C   UNL A   1      38.607  29.988  29.738  1.00  0.00     0.031 C 
ATOM     44  C   UNL A   1      42.379  27.561  32.041  1.00  0.00     0.029 A 
ATOM     45  N   UNL A   1      41.458  29.292  33.114  1.00  0.00    -0.354 N 
ATOM     46  C   UNL A   1      38.289  31.615  31.313  1.00  0.00     0.074 A 
ATOM     47  C   UNL A   1      37.939  31.100  30.008  1.00  0.00     0.031 C 
ATOM     48  C   UNL A   1      43.011  27.686  33.218  1.00  0.00     0.029 A 
ATOM     49  C   UNL A   1      42.456  28.827  33.941  1.00  0.00     0.049 A 
ATOM     50  H   UNL A   1      40.882  30.057  33.343  1.00  0.00     0.167 HD
ATOM     51  C   UNL A   1      37.680  32.672  31.903  1.00  0.00     0.037 A 
ATOM     52  C   UNL A   1      42.882  29.272  35.139  1.00  0.00     0.037 A 
ATOM     53  C   UNL A   1      38.012  33.166  33.216  1.00  0.00     0.049 A 
ATOM     54  C   UNL A   1      42.200  30.461  35.766  1.00  0.00     0.074 A 
ATOM     55  C   UNL A   1      37.421  34.202  33.919  1.00  0.00     0.029 A 
ATOM     56  N   UNL A   1      39.018  32.658  34.023  1.00  0.00    -0.354 N 
ATOM     57  N   UNL A   1      41.201  31.176  35.306  1.00  0.00    -0.248 NA
ATOM     58  C   UNL A   1      42.698  30.899  37.077  1.00  0.00     0.031 C 
ATOM     59  C   UNL A   1      38.099  34.350  35.132  1.00  0.00     0.029 A 
ATOM     60  C   UNL A   1      39.077  33.372  35.210  1.00  0.00     0.049 A 
ATOM     61  H   UNL A   1      39.604  31.903  33.789  1.00  0.00     0.167 HD
ATOM     62  C   UNL A   1      40.932  32.127  36.285  1.00  0.00     0.074 A 
ATOM     63  C   UNL A   1      41.861  31.887  37.367  1.00  0.00     0.031 C 
ATOM     64  C   UNL A   1      39.999  33.112  36.287  1.00  0.00     0.037 A 
BRANCH  51  65
ATOM     65  C   UNL A   1      36.578  33.364  31.147  1.00  0.00     0.058 A 
ATOM     66  C   UNL A   1      36.847  34.180  30.037  1.00  0.00     0.135 A 
ATOM     67  C   UNL A   1      35.232  33.159  31.495  1.00  0.00     0.135 A 
ATOM     68  F   UNL A   1      38.115  34.423  29.668  1.00  0.00    -0.206 F 
ATOM     69  C   UNL A   1      35.825  34.782  29.309  1.00  0.00     0.059 A 
ATOM     70  C   UNL A   1      34.192  33.728  30.764  1.00  0.00     0.059 A 
ATOM     71  F   UNL A   1      34.916  32.390  32.549  1.00  0.00    -0.206 F 
ATOM     72  C   UNL A   1      34.500  34.545  29.678  1.00  0.00     0.060 A 
BRANCH  72  73
ATOM     73  S   UNL A   1      33.187  35.312  28.703  1.00  0.00     0.124 S 
ATOM     74  O   UNL A   1      33.953  36.192  27.825  1.00  0.00    -0.237 OA
ATOM     75  O   UNL A   1      32.565  34.159  28.060  1.00  0.00    -0.237 OA
ATOM     76  O   UNL A   1      32.368  35.986  29.706  1.00  0.00    -0.744 OA
ENDBRANCH  72  73
ENDBRANCH  51  65
BRANCH  52  77
ATOM     77  C   UNL A   1      44.010  28.595  35.836  1.00  0.00     0.058 A 
ATOM     78  C   UNL A   1      43.778  27.548  36.741  1.00  0.00     0.135 A 
ATOM     79  C   UNL A   1      45.340  28.991  35.627  1.00  0.00     0.135 A 
ATOM     80  F   UNL A   1      42.524  27.134  36.981  1.00  0.00    -0.206 F 
ATOM     81  C   UNL A   1      44.817  26.942  37.440  1.00  0.00     0.059 A 
ATOM     82  C   UNL A   1      46.400  28.381  36.291  1.00  0.00     0.059 A 
ATOM     83  F   UNL A   1      45.620  29.975  34.758  1.00  0.00    -0.206 F 
ATOM     84  C   UNL A   1      46.126  27.367  37.208  1.00  0.00     0.060 A 
BRANCH  84  85
ATOM     85  S   UNL A   1      47.471  26.562  38.104  1.00  0.00     0.124 S 
ATOM     86  O   UNL A   1      47.955  25.608  37.112  1.00  0.00    -0.237 OA
ATOM     87  O   UNL A   1      48.358  27.683  38.398  1.00  0.00    -0.237 OA
ATOM     88  O   UNL A   1      46.801  25.981  39.264  1.00  0.00    -0.744 OA
ENDBRANCH  84  85
ENDBRANCH  52  77
BRANCH  64  89
ATOM     89  C   UNL A   1      39.906  33.978  37.513  1.00  0.00     0.058 A 
ATOM     90  C   UNL A   1      40.678  35.139  37.659  1.00  0.00     0.135 A 
ATOM     91  C   UNL A   1      38.991  33.665  38.533  1.00  0.00     0.135 A 
ATOM     92  F   UNL A   1      41.572  35.481  36.717  1.00  0.00    -0.206 F 
ATOM     93  C   UNL A   1      40.566  35.948  38.786  1.00  0.00     0.059 A 
ATOM     94  C   UNL A   1      38.840  34.477  39.654  1.00  0.00     0.059 A 
ATOM     95  F   UNL A   1      38.219  32.571  38.439  1.00  0.00    -0.206 F 
ATOM     96  C   UNL A   1      39.642  35.611  39.777  1.00  0.00     0.060 A 
BRANCH  96  97
ATOM     97  S   UNL A   1      39.484  36.687  41.217  1.00  0.00     0.124 S 
ATOM     98  O   UNL A   1      38.676  35.867  42.112  1.00  0.00    -0.237 OA
ATOM     99  O   UNL A   1      40.876  36.879  41.616  1.00  0.00    -0.237 OA
ATOM    100  O   UNL A   1      38.823  37.875  40.684  1.00  0.00    -0.744 OA
ENDBRANCH  96  97
ENDBRANCH  64  89
ENDBRANCH  38  39
ENDBRANCH  30  33
ENDBRANCH  28  29
ENDBRANCH   1  28
TORSDOF 18
ENDMDL
MODEL 3
REMARK VINA RESULT:     -11.3      6.613     13.022
REMARK SMILES CC[C@H](C)[C@@H](C(=O)NCCCNC(=O)c1ccc(-c2c3nc(c(-c4c(F)cc(S(=O)(=O)[O-])cc4F)c4ccc([nH]4)c(-c4c(F)cc(S(=O)(=O)[O-])cc4F)c4nc(c(-c5c(F)cc(S(=O)(=O)[O-])cc5F)c5ccc2[nH]5)C=C4)C=C3)cc1)N1C(=O)/C(=C/c2ccccc2OC)SC1=S
REMARK SMILES IDX 10 1 9 2 8 3 6 4 7 5 5 7 3 8 4 9 2 10 1 11 81 12 82 13 95 14
REMARK SMILES IDX 83 15 84 16 94 17 96 18 85 19 86 20 87 21 91 22 88 23 90 24
REMARK SMILES IDX 89 25 92 26 93 27 11 28 12 29 13 30 14 32 15 33 16 34 80 35
REMARK SMILES IDX 17 36 79 37 18 38 19 39 20 40 73 41 21 42 78 43 72 44 74 45
REMARK SMILES IDX 22 46 77 47 71 48 70 49 23 51 57 52 36 53 56 54 37 55 40 56
REMARK SMILES IDX 55 57 75 58 38 59 39 60 54 62 76 63 41 64 24 65 25 66 34 67
REMARK SMILES IDX 26 68 27 69 33 70 35 71 28 72 29 73 30 74 31 75 32 76 58 77
REMARK SMILES IDX 59 78 68 79 60 80 61 81 67 82 69 83 62 84 63 85 64 86 65 87
REMARK SMILES IDX 66 88 42 89 43 90 52 91 44 92 45 93 51 94 53 95 46 96 47 97
REMARK SMILES IDX 48 98 49 99 50 100
REMARK H PARENT 8 6 12 31 74 50 40 61
REMARK Flexibility Score: inf
ROOT
ATOM      1  C   UNL A   1      37.520  29.735  33.142  1.00  0.00     0.042 C 
ENDROOT
BRANCH   1   2
ATOM      2  C   UNL A   1      38.573  30.211  34.149  1.00  0.00     0.117 C 
BRANCH   2   3
ATOM      3  N   UNL A   1      38.034  30.402  35.492  1.00  0.00    -0.354 N 
ATOM      4  C   UNL A   1      38.119  31.451  36.369  1.00  0.00     0.243 C 
ATOM      5  O   UNL A   1      37.460  31.359  37.410  1.00  0.00    -0.273 OA
ATOM      6  H   UNL A   1      37.515  29.637  35.830  1.00  0.00     0.163 HD
BRANCH   4   7
ATOM      7  C   UNL A   1      38.986  32.701  36.062  1.00  0.00     0.184 C 
BRANCH   7   8
ATOM      8  C   UNL A   1      39.246  33.610  37.309  1.00  0.00     0.018 C 
ATOM      9  C   UNL A   1      40.408  33.161  38.181  1.00  0.00     0.010 C 
BRANCH   8  10
ATOM     10  C   UNL A   1      39.436  35.086  36.895  1.00  0.00     0.002 C 
ATOM     11  C   UNL A   1      40.891  35.534  36.979  1.00  0.00     0.004 C 
ENDBRANCH   8  10
ENDBRANCH   7   8
BRANCH   7  12
ATOM     12  N   UNL A   1      38.300  33.428  34.943  1.00  0.00    -0.280 N 
ATOM     13  C   UNL A   1      36.965  33.766  35.035  1.00  0.00     0.266 C 
ATOM     14  C   UNL A   1      38.874  33.684  33.709  1.00  0.00     0.149 C 
ATOM     15  O   UNL A   1      36.167  33.453  35.916  1.00  0.00    -0.268 OA
ATOM     16  C   UNL A   1      36.530  34.561  33.870  1.00  0.00     0.081 C 
ATOM     17  S   UNL A   1      37.744  34.578  32.677  1.00  0.00    -0.054 SA
ATOM     18  S   UNL A   1      40.401  33.268  33.177  1.00  0.00    -0.052 S 
ATOM     19  C   UNL A   1      35.278  35.034  33.866  1.00  0.00     0.033 C 
BRANCH  19  20
ATOM     20  C   UNL A   1      34.515  35.573  32.746  1.00  0.00     0.018 A 
ATOM     21  C   UNL A   1      34.101  36.915  32.854  1.00  0.00     0.012 A 
ATOM     22  C   UNL A   1      34.086  34.802  31.653  1.00  0.00     0.126 A 
ATOM     23  C   UNL A   1      33.278  37.490  31.886  1.00  0.00     0.001 A 
ATOM     24  C   UNL A   1      33.278  35.406  30.680  1.00  0.00     0.047 A 
ATOM     25  C   UNL A   1      32.866  36.733  30.796  1.00  0.00     0.004 A 
BRANCH  22  26
ATOM     26  O   UNL A   1      34.341  33.489  31.361  1.00  0.00    -0.496 OA
ATOM     27  C   UNL A   1      34.777  33.104  30.065  1.00  0.00     0.278 C 
ENDBRANCH  22  26
ENDBRANCH  19  20
ENDBRANCH   7  12
ENDBRANCH   4   7
ENDBRANCH   2   3
ENDBRANCH   1   2
BRANCH   1  28
ATOM     28  C   UNL A   1      36.962  30.826  32.240  1.00  0.00     0.118 C 
BRANCH  28  29
ATOM     29  N   UNL A   1      36.066  30.278  31.239  1.00  0.00    -0.352 N 
ATOM     30  C   UNL A   1      36.337  29.829  29.967  1.00  0.00     0.251 C 
ATOM     31  H   UNL A   1      35.121  30.218  31.511  1.00  0.00     0.163 HD
ATOM     32  O   UNL A   1      35.403  29.684  29.181  1.00  0.00    -0.269 OA
BRANCH  30  33
ATOM     33  C   UNL A   1      37.726  29.532  29.527  1.00  0.00     0.039 A 
ATOM     34  C   UNL A   1      38.588  28.879  30.415  1.00  0.00     0.014 A 
ATOM     35  C   UNL A   1      38.213  29.948  28.285  1.00  0.00     0.014 A 
ATOM     36  C   UNL A   1      39.911  28.612  30.045  1.00  0.00     0.010 A 
ATOM     37  C   UNL A   1      39.506  29.605  27.883  1.00  0.00     0.010 A 
ATOM     38  C   UNL A   1      40.378  28.950  28.765  1.00  0.00    -0.014 A 
BRANCH  38  39
ATOM     39  C   UNL A   1      41.779  28.655  28.348  1.00  0.00     0.031 A 
ATOM     40  C   UNL A   1      42.172  27.255  27.944  1.00  0.00     0.074 A 
ATOM     41  C   UNL A   1      42.707  29.633  28.368  1.00  0.00     0.049 A 
ATOM     42  N   UNL A   1      43.349  26.791  27.611  1.00  0.00    -0.248 NA
ATOM     43  C   UNL A   1      41.107  26.238  27.936  1.00  0.00     0.031 C 
ATOM     44  C   UNL A   1      42.468  31.020  28.773  1.00  0.00     0.029 A 
ATOM     45  N   UNL A   1      44.043  29.611  28.046  1.00  0.00    -0.354 N 
ATOM     46  C   UNL A   1      43.169  25.433  27.363  1.00  0.00     0.074 A 
ATOM     47  C   UNL A   1      41.781  25.136  27.641  1.00  0.00     0.031 C 
ATOM     48  C   UNL A   1      43.608  31.718  28.655  1.00  0.00     0.029 A 
ATOM     49  C   UNL A   1      44.672  30.825  28.206  1.00  0.00     0.049 A 
ATOM     50  H   UNL A   1      44.507  28.802  27.730  1.00  0.00     0.167 HD
ATOM     51  C   UNL A   1      44.069  24.523  26.919  1.00  0.00     0.037 A 
ATOM     52  C   UNL A   1      45.960  31.178  28.023  1.00  0.00     0.037 A 
ATOM     53  C   UNL A   1      45.444  24.827  26.616  1.00  0.00     0.049 A 
ATOM     54  C   UNL A   1      46.944  30.142  27.546  1.00  0.00     0.074 A 
ATOM     55  C   UNL A   1      46.421  23.983  26.117  1.00  0.00     0.029 A 
ATOM     56  N   UNL A   1      46.036  26.070  26.780  1.00  0.00    -0.354 N 
ATOM     57  N   UNL A   1      46.740  28.876  27.265  1.00  0.00    -0.248 NA
ATOM     58  C   UNL A   1      48.333  30.581  27.353  1.00  0.00     0.031 C 
ATOM     59  C   UNL A   1      47.615  24.704  26.021  1.00  0.00     0.029 A 
ATOM     60  C   UNL A   1      47.370  26.011  26.408  1.00  0.00     0.049 A 
ATOM     61  H   UNL A   1      45.577  26.876  27.110  1.00  0.00     0.167 HD
ATOM     62  C   UNL A   1      47.965  28.379  26.834  1.00  0.00     0.074 A 
ATOM     63  C   UNL A   1      48.901  29.482  26.876  1.00  0.00     0.031 C 
ATOM     64  C   UNL A   1      48.287  27.122  26.440  1.00  0.00     0.037 A 
BRANCH  51  65
ATOM     65  C   UNL A   1      43.598  23.108  26.714  1.00  0.00     0.058 A 
ATOM     66  C   UNL A   1      43.454  22.560  25.429  1.00  0.00     0.135 A 
ATOM     67  C   UNL A   1      43.349  22.268  27.813  1.00  0.00     0.135 A 
ATOM     68  F   UNL A   1      43.664  23.320  24.342  1.00  0.00    -0.206 F 
ATOM     69  C   UNL A   1      43.064  21.237  25.240  1.00  0.00     0.059 A 
ATOM     70  C   UNL A   1      42.986  20.934  27.647  1.00  0.00     0.059 A 
ATOM     71  F   UNL A   1      43.470  22.740  29.064  1.00  0.00    -0.206 F 
ATOM     72  C   UNL A   1      42.838  20.430  26.357  1.00  0.00     0.060 A 
BRANCH  72  73
ATOM     73  S   UNL A   1      42.361  18.709  26.090  1.00  0.00     0.124 S 
ATOM     74  O   UNL A   1      42.653  18.121  27.395  1.00  0.00    -0.237 OA
ATOM     75  O   UNL A   1      40.947  18.828  25.751  1.00  0.00    -0.237 OA
ATOM     76  O   UNL A   1      43.232  18.279  25.001  1.00  0.00    -0.744 OA
ENDBRANCH  72  73
ENDBRANCH  51  65
BRANCH  52  77
ATOM     77  C   UNL A   1      46.402  32.575  28.284  1.00  0.00     0.058 A 
ATOM     78  C   UNL A   1      46.850  32.967  29.555  1.00  0.00     0.135 A 
ATOM     79  C   UNL A   1      46.366  33.552  27.277  1.00  0.00     0.135 A 
ATOM     80  F   UNL A   1      46.898  32.073  30.554  1.00  0.00    -0.206 F 
ATOM     81  C   UNL A   1      47.216  34.281  29.828  1.00  0.00     0.059 A 
ATOM     82  C   UNL A   1      46.755  34.867  27.517  1.00  0.00     0.059 A 
ATOM     83  F   UNL A   1      45.963  33.228  26.039  1.00  0.00    -0.206 F 
ATOM     84  C   UNL A   1      47.162  35.225  28.801  1.00  0.00     0.060 A 
BRANCH  84  85
ATOM     85  S   UNL A   1      47.657  36.925  29.159  1.00  0.00     0.124 S 
ATOM     86  O   UNL A   1      46.685  37.304  30.179  1.00  0.00    -0.237 OA
ATOM     87  O   UNL A   1      49.031  36.754  29.618  1.00  0.00    -0.237 OA
ATOM     88  O   UNL A   1      47.513  37.594  27.869  1.00  0.00    -0.744 OA
ENDBRANCH  84  85
ENDBRANCH  52  77
BRANCH  64  89
ATOM     89  C   UNL A   1      49.698  26.878  25.980  1.00  0.00     0.058 A 
ATOM     90  C   UNL A   1      50.701  26.449  26.863  1.00  0.00     0.135 A 
ATOM     91  C   UNL A   1      50.038  27.027  24.625  1.00  0.00     0.135 A 
ATOM     92  F   UNL A   1      50.432  26.297  28.170  1.00  0.00    -0.206 F 
ATOM     93  C   UNL A   1      51.997  26.202  26.424  1.00  0.00     0.059 A 
ATOM     94  C   UNL A   1      51.320  26.755  24.158  1.00  0.00     0.059 A 
ATOM     95  F   UNL A   1      49.114  27.424  23.735  1.00  0.00    -0.206 F 
ATOM     96  C   UNL A   1      52.297  26.354  25.068  1.00  0.00     0.060 A 
BRANCH  96  97
ATOM     97  S   UNL A   1      53.975  25.997  24.507  1.00  0.00     0.124 S 
ATOM     98  O   UNL A   1      54.763  26.900  25.339  1.00  0.00    -0.237 OA
ATOM     99  O   UNL A   1      54.110  24.575  24.811  1.00  0.00    -0.237 OA
ATOM    100  O   UNL A   1      53.936  26.327  23.085  1.00  0.00    -0.744 OA
ENDBRANCH  96  97
ENDBRANCH  64  89
ENDBRANCH  38  39
ENDBRANCH  30  33
ENDBRANCH  28  29
ENDBRANCH   1  28
TORSDOF 18
ENDMDL
