MODEL 1
REMARK VINA RESULT:     -11.7      0.000      0.000
REMARK SMILES CCOC(=O)C1=NN(c2ccc(Cl)cc2F)[C@@H](C(=O)NCCCNC(=O)c2ccc(-c3c4nc(c(-c5c(F)cc(S(=O)(=O)[O-])cc5F)c5ccc([nH]5)c(-c5c(F)cc(S(=O)(=O)[O-])cc5F)c5nc(c(-c6c(F)cc(S(=O)(=O)[O-])cc6F)c6ccc3[nH]6)C=C5)C=C4)cc2)C1
REMARK SMILES IDX 22 1 21 2 20 3 18 4 19 5 17 7 6 8 7 9 93 10 8 11 4 12 5 13
REMARK SMILES IDX 3 14 2 15 1 16 9 17 10 18 15 19 11 20 14 21 16 22 12 23
REMARK SMILES IDX 13 24 23 25 24 26 25 27 26 29 27 30 28 31 92 32 29 33 91 34
REMARK SMILES IDX 30 35 31 36 32 37 85 38 33 39 90 40 84 41 86 42 34 43 89 44
REMARK SMILES IDX 83 45 82 46 35 48 69 49 48 50 68 51 49 52 52 53 67 54 87 55
REMARK SMILES IDX 50 56 51 57 66 59 88 60 53 61 36 62 37 63 46 64 38 65 39 66
REMARK SMILES IDX 45 67 47 68 40 69 41 70 42 71 43 72 44 73 70 74 71 75 80 76
REMARK SMILES IDX 72 77 73 78 79 79 81 80 74 81 75 82 76 83 77 84 78 85 54 86
REMARK SMILES IDX 55 87 64 88 56 89 57 90 63 91 65 92 58 93 59 94 60 95 61 96
REMARK SMILES IDX 62 97
REMARK H PARENT 20 6 24 28 86 47 52 58
REMARK Flexibility Score: inf
ROOT
ATOM      1  C   UNL A   1      34.291  28.341  26.174  1.00  0.00     0.042 C 
ENDROOT
BRANCH   1   2
ATOM      2  C   UNL A   1      33.743  27.224  25.306  1.00  0.00     0.117 C 
BRANCH   2   3
ATOM      3  N   UNL A   1      33.570  27.609  23.917  1.00  0.00    -0.354 N 
ATOM      4  C   UNL A   1      32.495  28.137  23.258  1.00  0.00     0.245 C 
ATOM      5  O   UNL A   1      32.677  28.399  22.066  1.00  0.00    -0.273 OA
ATOM      6  H   UNL A   1      34.363  27.462  23.351  1.00  0.00     0.163 HD
BRANCH   4   7
ATOM      7  C   UNL A   1      31.137  28.320  23.977  1.00  0.00     0.203 C 
ATOM      8  C   UNL A   1      29.062  28.746  23.032  1.00  0.00     0.148 C 
ATOM      9  N   UNL A   1      29.046  27.463  23.200  1.00  0.00    -0.169 NA
ATOM     10  C   UNL A   1      30.312  29.460  23.393  1.00  0.00     0.103 C 
ATOM     11  N   UNL A   1      30.254  27.159  23.764  1.00  0.00    -0.249 N 
BRANCH   8  12
ATOM     12  C   UNL A   1      27.914  29.553  22.505  1.00  0.00     0.354 C 
ATOM     13  O   UNL A   1      26.927  29.812  23.165  1.00  0.00    -0.245 OA
BRANCH  12  14
ATOM     14  O   UNL A   1      28.254  30.012  21.282  1.00  0.00    -0.461 OA
BRANCH  14  15
ATOM     15  C   UNL A   1      27.958  31.394  21.041  1.00  0.00     0.230 C 
ATOM     16  C   UNL A   1      28.725  32.283  21.999  1.00  0.00     0.049 C 
ENDBRANCH  14  15
ENDBRANCH  12  14
ENDBRANCH   8  12
BRANCH  11  17
ATOM     17  C   UNL A   1      30.514  25.867  24.205  1.00  0.00     0.096 A 
ATOM     18  C   UNL A   1      30.757  24.848  23.271  1.00  0.00     0.032 A 
ATOM     19  C   UNL A   1      30.561  25.518  25.564  1.00  0.00     0.149 A 
ATOM     20  C   UNL A   1      31.061  23.546  23.677  1.00  0.00     0.023 A 
ATOM     21  C   UNL A   1      30.827  24.214  25.984  1.00  0.00     0.062 A 
ATOM     22  F   UNL A   1      30.300  26.436  26.507  1.00  0.00    -0.205 F 
ATOM     23  C   UNL A   1      31.086  23.234  25.033  1.00  0.00     0.044 A 
ATOM     24  Cl  UNL A   1      31.435  21.625  25.534  1.00  0.00    -0.084 Cl
ENDBRANCH  11  17
ENDBRANCH   4   7
ENDBRANCH   2   3
ENDBRANCH   1   2
BRANCH   1  25
ATOM     25  C   UNL A   1      33.497  28.617  27.441  1.00  0.00     0.118 C 
BRANCH  25  26
ATOM     26  N   UNL A   1      33.485  30.024  27.821  1.00  0.00    -0.352 N 
ATOM     27  C   UNL A   1      34.474  30.799  28.380  1.00  0.00     0.251 C 
ATOM     28  H   UNL A   1      32.636  30.493  27.649  1.00  0.00     0.163 HD
ATOM     29  O   UNL A   1      34.204  31.935  28.764  1.00  0.00    -0.269 OA
BRANCH  27  30
ATOM     30  C   UNL A   1      35.844  30.263  28.553  1.00  0.00     0.039 A 
ATOM     31  C   UNL A   1      36.748  30.357  27.491  1.00  0.00     0.014 A 
ATOM     32  C   UNL A   1      36.243  29.676  29.755  1.00  0.00     0.014 A 
ATOM     33  C   UNL A   1      38.071  29.943  27.667  1.00  0.00     0.010 A 
ATOM     34  C   UNL A   1      37.582  29.361  29.962  1.00  0.00     0.010 A 
ATOM     35  C   UNL A   1      38.512  29.485  28.920  1.00  0.00    -0.014 A 
BRANCH  35  36
ATOM     36  C   UNL A   1      39.934  29.125  29.164  1.00  0.00     0.031 A 
ATOM     37  C   UNL A   1      40.884  30.149  29.729  1.00  0.00     0.074 A 
ATOM     38  C   UNL A   1      40.388  27.906  28.810  1.00  0.00     0.049 A 
ATOM     39  N   UNL A   1      42.174  30.058  29.927  1.00  0.00    -0.248 NA
ATOM     40  C   UNL A   1      40.314  31.458  30.087  1.00  0.00     0.031 C 
ATOM     41  C   UNL A   1      39.581  26.842  28.206  1.00  0.00     0.029 A 
ATOM     42  N   UNL A   1      41.643  27.356  28.897  1.00  0.00    -0.354 N 
ATOM     43  C   UNL A   1      42.570  31.298  30.415  1.00  0.00     0.074 A 
ATOM     44  C   UNL A   1      41.396  32.143  30.425  1.00  0.00     0.031 C 
ATOM     45  C   UNL A   1      40.353  25.763  28.004  1.00  0.00     0.029 A 
ATOM     46  C   UNL A   1      41.717  26.068  28.422  1.00  0.00     0.049 A 
ATOM     47  H   UNL A   1      42.418  27.840  29.263  1.00  0.00     0.167 HD
ATOM     48  C   UNL A   1      43.794  31.692  30.842  1.00  0.00     0.037 A 
ATOM     49  C   UNL A   1      42.767  25.227  28.329  1.00  0.00     0.037 A 
ATOM     50  C   UNL A   1      44.953  30.838  30.860  1.00  0.00     0.049 A 
ATOM     51  C   UNL A   1      44.118  25.686  28.809  1.00  0.00     0.074 A 
ATOM     52  C   UNL A   1      46.224  31.122  31.326  1.00  0.00     0.029 A 
ATOM     53  N   UNL A   1      44.981  29.531  30.392  1.00  0.00    -0.354 N 
ATOM     54  N   UNL A   1      44.460  26.844  29.321  1.00  0.00    -0.248 NA
ATOM     55  C   UNL A   1      45.222  24.723  28.703  1.00  0.00     0.031 C 
ATOM     56  C   UNL A   1      47.032  30.001  31.102  1.00  0.00     0.029 A 
ATOM     57  C   UNL A   1      46.252  29.003  30.542  1.00  0.00     0.049 A 
ATOM     58  H   UNL A   1      44.211  29.051  30.010  1.00  0.00     0.167 HD
ATOM     59  C   UNL A   1      45.813  26.738  29.627  1.00  0.00     0.074 A 
ATOM     60  C   UNL A   1      46.222  25.400  29.251  1.00  0.00     0.031 C 
ATOM     61  C   UNL A   1      46.641  27.664  30.173  1.00  0.00     0.037 A 
BRANCH  48  62
ATOM     62  C   UNL A   1      43.938  33.107  31.334  1.00  0.00     0.058 A 
ATOM     63  C   UNL A   1      43.881  33.420  32.703  1.00  0.00     0.135 A 
ATOM     64  C   UNL A   1      44.157  34.159  30.432  1.00  0.00     0.135 A 
ATOM     65  F   UNL A   1      43.658  32.455  33.608  1.00  0.00    -0.206 F 
ATOM     66  C   UNL A   1      43.999  34.730  33.155  1.00  0.00     0.059 A 
ATOM     67  C   UNL A   1      44.309  35.474  30.865  1.00  0.00     0.059 A 
ATOM     68  F   UNL A   1      44.221  33.918  29.113  1.00  0.00    -0.206 F 
ATOM     69  C   UNL A   1      44.211  35.751  32.228  1.00  0.00     0.060 A 
BRANCH  69  70
ATOM     70  S   UNL A   1      44.356  37.446  32.832  1.00  0.00     0.124 S 
ATOM     71  O   UNL A   1      44.500  38.187  31.584  1.00  0.00    -0.237 OA
ATOM     72  O   UNL A   1      43.093  37.634  33.539  1.00  0.00    -0.237 OA
ATOM     73  O   UNL A   1      45.545  37.404  33.678  1.00  0.00    -0.744 OA
ENDBRANCH  69  70
ENDBRANCH  48  62
BRANCH  49  74
ATOM     74  C   UNL A   1      42.577  23.856  27.785  1.00  0.00     0.058 A 
ATOM     75  C   UNL A   1      42.557  23.629  26.401  1.00  0.00     0.135 A 
ATOM     76  C   UNL A   1      42.424  22.747  28.631  1.00  0.00     0.135 A 
ATOM     77  F   UNL A   1      42.693  24.659  25.551  1.00  0.00    -0.206 F 
ATOM     78  C   UNL A   1      42.376  22.356  25.872  1.00  0.00     0.059 A 
ATOM     79  C   UNL A   1      42.267  21.459  28.126  1.00  0.00     0.059 A 
ATOM     80  F   UNL A   1      42.454  22.907  29.962  1.00  0.00    -0.206 F 
ATOM     81  C   UNL A   1      42.234  21.275  26.744  1.00  0.00     0.060 A 
BRANCH  81  82
ATOM     82  S   UNL A   1      42.051  19.618  26.048  1.00  0.00     0.124 S 
ATOM     83  O   UNL A   1      43.009  19.655  24.950  1.00  0.00    -0.237 OA
ATOM     84  O   UNL A   1      42.409  18.770  27.181  1.00  0.00    -0.237 OA
ATOM     85  O   UNL A   1      40.645  19.572  25.660  1.00  0.00    -0.744 OA
ENDBRANCH  81  82
ENDBRANCH  49  74
BRANCH  61  86
ATOM     86  C   UNL A   1      48.063  27.253  30.435  1.00  0.00     0.058 A 
ATOM     87  C   UNL A   1      49.093  27.528  29.522  1.00  0.00     0.135 A 
ATOM     88  C   UNL A   1      48.407  26.621  31.642  1.00  0.00     0.135 A 
ATOM     89  F   UNL A   1      48.816  28.124  28.352  1.00  0.00    -0.206 F 
ATOM     90  C   UNL A   1      50.411  27.172  29.788  1.00  0.00     0.059 A 
ATOM     91  C   UNL A   1      49.722  26.281  31.940  1.00  0.00     0.059 A 
ATOM     92  F   UNL A   1      47.460  26.345  32.553  1.00  0.00    -0.206 F 
ATOM     93  C   UNL A   1      50.716  26.550  31.000  1.00  0.00     0.060 A 
BRANCH  93  94
ATOM     94  S   UNL A   1      52.436  26.126  31.346  1.00  0.00     0.124 S 
ATOM     95  O   UNL A   1      52.839  27.223  32.220  1.00  0.00    -0.237 OA
ATOM     96  O   UNL A   1      52.314  24.819  31.985  1.00  0.00    -0.237 OA
ATOM     97  O   UNL A   1      53.056  26.115  30.025  1.00  0.00    -0.744 OA
ENDBRANCH  93  94
ENDBRANCH  61  86
ENDBRANCH  35  36
ENDBRANCH  27  30
ENDBRANCH  25  26
ENDBRANCH   1  25
TORSDOF 17
ENDMDL
MODEL 2
REMARK VINA RESULT:     -11.6      5.338     10.866
REMARK SMILES CCOC(=O)C1=NN(c2ccc(Cl)cc2F)[C@@H](C(=O)NCCCNC(=O)c2ccc(-c3c4nc(c(-c5c(F)cc(S(=O)(=O)[O-])cc5F)c5ccc([nH]5)c(-c5c(F)cc(S(=O)(=O)[O-])cc5F)c5nc(c(-c6c(F)cc(S(=O)(=O)[O-])cc6F)c6ccc3[nH]6)C=C5)C=C4)cc2)C1
REMARK SMILES IDX 22 1 21 2 20 3 18 4 19 5 17 7 6 8 7 9 93 10 8 11 4 12 5 13
REMARK SMILES IDX 3 14 2 15 1 16 9 17 10 18 15 19 11 20 14 21 16 22 12 23
REMARK SMILES IDX 13 24 23 25 24 26 25 27 26 29 27 30 28 31 92 32 29 33 91 34
REMARK SMILES IDX 30 35 31 36 32 37 85 38 33 39 90 40 84 41 86 42 34 43 89 44
REMARK SMILES IDX 83 45 82 46 35 48 69 49 48 50 68 51 49 52 52 53 67 54 87 55
REMARK SMILES IDX 50 56 51 57 66 59 88 60 53 61 36 62 37 63 46 64 38 65 39 66
REMARK SMILES IDX 45 67 47 68 40 69 41 70 42 71 43 72 44 73 70 74 71 75 80 76
REMARK SMILES IDX 72 77 73 78 79 79 81 80 74 81 75 82 76 83 77 84 78 85 54 86
REMARK SMILES IDX 55 87 64 88 56 89 57 90 63 91 65 92 58 93 59 94 60 95 61 96
REMARK SMILES IDX 62 97
REMARK H PARENT 20 6 24 28 86 47 52 58
REMARK Flexibility Score: inf
ROOT
ATOM      1  C   UNL A   1      37.969  24.096  25.748  1.00  0.00     0.042 C 
ENDROOT
BRANCH   1   2
ATOM      2  C   UNL A   1      36.895  23.092  25.374  1.00  0.00     0.117 C 
BRANCH   2   3
ATOM      3  N   UNL A   1      35.923  22.871  26.429  1.00  0.00    -0.354 N 
ATOM      4  C   UNL A   1      34.755  22.161  26.438  1.00  0.00     0.245 C 
ATOM      5  O   UNL A   1      34.162  22.128  27.521  1.00  0.00    -0.273 OA
ATOM      6  H   UNL A   1      36.142  23.308  27.283  1.00  0.00     0.163 HD
BRANCH   4   7
ATOM      7  C   UNL A   1      34.211  21.512  25.144  1.00  0.00     0.203 C 
ATOM      8  C   UNL A   1      32.995  19.548  24.928  1.00  0.00     0.148 C 
ATOM      9  N   UNL A   1      32.076  20.460  24.927  1.00  0.00    -0.169 NA
ATOM     10  C   UNL A   1      34.395  19.998  25.124  1.00  0.00     0.103 C 
ATOM     11  N   UNL A   1      32.747  21.646  25.047  1.00  0.00    -0.249 N 
BRANCH   8  12
ATOM     12  C   UNL A   1      32.743  18.082  24.745  1.00  0.00     0.354 C 
ATOM     13  O   UNL A   1      31.848  17.487  25.312  1.00  0.00    -0.245 OA
BRANCH  12  14
ATOM     14  O   UNL A   1      33.572  17.634  23.778  1.00  0.00    -0.461 OA
BRANCH  14  15
ATOM     15  C   UNL A   1      33.963  16.260  23.893  1.00  0.00     0.230 C 
ATOM     16  C   UNL A   1      34.940  16.072  25.036  1.00  0.00     0.049 C 
ENDBRANCH  14  15
ENDBRANCH  12  14
ENDBRANCH   8  12
BRANCH  11  17
ATOM     17  C   UNL A   1      32.062  22.850  24.941  1.00  0.00     0.096 A 
ATOM     18  C   UNL A   1      32.135  23.590  23.750  1.00  0.00     0.032 A 
ATOM     19  C   UNL A   1      31.272  23.376  25.975  1.00  0.00     0.149 A 
ATOM     20  C   UNL A   1      31.428  24.785  23.591  1.00  0.00     0.023 A 
ATOM     21  C   UNL A   1      30.591  24.586  25.845  1.00  0.00     0.062 A 
ATOM     22  F   UNL A   1      31.191  22.737  27.154  1.00  0.00    -0.205 F 
ATOM     23  C   UNL A   1      30.666  25.282  24.644  1.00  0.00     0.044 A 
ATOM     24  Cl  UNL A   1      29.815  26.766  24.459  1.00  0.00    -0.084 Cl
ENDBRANCH  11  17
ENDBRANCH   4   7
ENDBRANCH   2   3
ENDBRANCH   1   2
BRANCH   1  25
ATOM     25  C   UNL A   1      38.986  23.599  26.765  1.00  0.00     0.118 C 
BRANCH  25  26
ATOM     26  N   UNL A   1      40.363  23.691  26.298  1.00  0.00    -0.352 N 
ATOM     27  C   UNL A   1      41.319  24.650  26.541  1.00  0.00     0.251 C 
ATOM     28  H   UNL A   1      40.655  22.951  25.717  1.00  0.00     0.163 HD
ATOM     29  O   UNL A   1      42.379  24.614  25.921  1.00  0.00    -0.269 OA
BRANCH  27  30
ATOM     30  C   UNL A   1      41.063  25.737  27.514  1.00  0.00     0.039 A 
ATOM     31  C   UNL A   1      40.060  25.568  28.472  1.00  0.00     0.014 A 
ATOM     32  C   UNL A   1      41.811  26.916  27.492  1.00  0.00     0.014 A 
ATOM     33  C   UNL A   1      39.869  26.541  29.457  1.00  0.00     0.010 A 
ATOM     34  C   UNL A   1      41.690  27.834  28.531  1.00  0.00     0.010 A 
ATOM     35  C   UNL A   1      40.714  27.661  29.524  1.00  0.00    -0.014 A 
BRANCH  35  36
ATOM     36  C   UNL A   1      40.596  28.666  30.613  1.00  0.00     0.031 A 
ATOM     37  C   UNL A   1      41.465  28.555  31.838  1.00  0.00     0.074 A 
ATOM     38  C   UNL A   1      39.659  29.632  30.536  1.00  0.00     0.049 A 
ATOM     39  N   UNL A   1      41.450  29.275  32.931  1.00  0.00    -0.248 NA
ATOM     40  C   UNL A   1      42.462  27.471  31.850  1.00  0.00     0.031 C 
ATOM     41  C   UNL A   1      38.720  29.817  29.426  1.00  0.00     0.029 A 
ATOM     42  N   UNL A   1      39.332  30.636  31.412  1.00  0.00    -0.354 N 
ATOM     43  C   UNL A   1      42.417  28.722  33.762  1.00  0.00     0.074 A 
ATOM     44  C   UNL A   1      42.958  27.570  33.073  1.00  0.00     0.031 C 
ATOM     45  C   UNL A   1      37.946  30.884  29.676  1.00  0.00     0.029 A 
ATOM     46  C   UNL A   1      38.300  31.435  30.979  1.00  0.00     0.049 A 
ATOM     47  H   UNL A   1      39.793  30.772  32.272  1.00  0.00     0.167 HD
ATOM     48  C   UNL A   1      42.837  29.148  34.978  1.00  0.00     0.037 A 
ATOM     49  C   UNL A   1      37.702  32.490  31.568  1.00  0.00     0.037 A 
ATOM     50  C   UNL A   1      42.317  30.313  35.645  1.00  0.00     0.049 A 
ATOM     51  C   UNL A   1      38.185  32.947  32.919  1.00  0.00     0.074 A 
ATOM     52  C   UNL A   1      42.714  30.863  36.851  1.00  0.00     0.029 A 
ATOM     53  N   UNL A   1      41.288  31.109  35.163  1.00  0.00    -0.354 N 
ATOM     54  N   UNL A   1      39.141  32.445  33.665  1.00  0.00    -0.248 NA
ATOM     55  C   UNL A   1      37.511  34.113  33.506  1.00  0.00     0.031 C 
ATOM     56  C   UNL A   1      41.897  31.967  37.118  1.00  0.00     0.029 A 
ATOM     57  C   UNL A   1      41.025  32.134  36.055  1.00  0.00     0.049 A 
ATOM     58  H   UNL A   1      40.814  30.965  34.311  1.00  0.00     0.167 HD
ATOM     59  C   UNL A   1      39.205  33.254  34.794  1.00  0.00     0.074 A 
ATOM     60  C   UNL A   1      38.197  34.282  34.628  1.00  0.00     0.031 C 
ATOM     61  C   UNL A   1      40.025  33.157  35.870  1.00  0.00     0.037 A 
BRANCH  48  62
ATOM     62  C   UNL A   1      43.919  28.354  35.658  1.00  0.00     0.058 A 
ATOM     63  C   UNL A   1      45.280  28.621  35.432  1.00  0.00     0.135 A 
ATOM     64  C   UNL A   1      43.596  27.331  36.562  1.00  0.00     0.135 A 
ATOM     65  F   UNL A   1      45.647  29.579  34.567  1.00  0.00    -0.206 F 
ATOM     66  C   UNL A   1      46.280  27.877  36.051  1.00  0.00     0.059 A 
ATOM     67  C   UNL A   1      44.580  26.594  37.215  1.00  0.00     0.059 A 
ATOM     68  F   UNL A   1      42.311  27.033  36.815  1.00  0.00    -0.206 F 
ATOM     69  C   UNL A   1      45.920  26.863  36.939  1.00  0.00     0.060 A 
BRANCH  69  70
ATOM     70  S   UNL A   1      47.229  25.904  37.727  1.00  0.00     0.124 S 
ATOM     71  O   UNL A   1      46.603  24.590  37.832  1.00  0.00    -0.237 OA
ATOM     72  O   UNL A   1      48.319  26.010  36.762  1.00  0.00    -0.237 OA
ATOM     73  O   UNL A   1      47.446  26.599  38.992  1.00  0.00    -0.744 OA
ENDBRANCH  69  70
ENDBRANCH  48  62
BRANCH  49  74
ATOM     74  C   UNL A   1      36.600  33.206  30.871  1.00  0.00     0.058 A 
ATOM     75  C   UNL A   1      35.274  33.084  31.311  1.00  0.00     0.135 A 
ATOM     76  C   UNL A   1      36.848  34.033  29.764  1.00  0.00     0.135 A 
ATOM     77  F   UNL A   1      34.985  32.301  32.362  1.00  0.00    -0.206 F 
ATOM     78  C   UNL A   1      34.229  33.742  30.671  1.00  0.00     0.059 A 
ATOM     79  C   UNL A   1      35.823  34.721  29.123  1.00  0.00     0.059 A 
ATOM     80  F   UNL A   1      38.101  34.197  29.315  1.00  0.00    -0.206 F 
ATOM     81  C   UNL A   1      34.514  34.561  29.577  1.00  0.00     0.060 A 
BRANCH  81  82
ATOM     82  S   UNL A   1      33.157  35.451  28.784  1.00  0.00     0.124 S 
ATOM     83  O   UNL A   1      32.405  35.927  29.939  1.00  0.00    -0.237 OA
ATOM     84  O   UNL A   1      33.867  36.471  28.018  1.00  0.00    -0.237 OA
ATOM     85  O   UNL A   1      32.503  34.419  27.984  1.00  0.00    -0.744 OA
ENDBRANCH  81  82
ENDBRANCH  49  74
BRANCH  61  86
ATOM     86  C   UNL A   1      39.897  34.210  36.936  1.00  0.00     0.058 A 
ATOM     87  C   UNL A   1      40.599  35.423  36.864  1.00  0.00     0.135 A 
ATOM     88  C   UNL A   1      39.019  34.022  38.016  1.00  0.00     0.135 A 
ATOM     89  F   UNL A   1      41.455  35.649  35.856  1.00  0.00    -0.206 F 
ATOM     90  C   UNL A   1      40.450  36.405  37.839  1.00  0.00     0.059 A 
ATOM     91  C   UNL A   1      38.834  35.001  38.986  1.00  0.00     0.059 A 
ATOM     92  F   UNL A   1      38.316  32.883  38.125  1.00  0.00    -0.206 F 
ATOM     93  C   UNL A   1      39.564  36.185  38.895  1.00  0.00     0.060 A 
BRANCH  93  94
ATOM     94  S   UNL A   1      39.355  37.482  40.133  1.00  0.00     0.124 S 
ATOM     95  O   UNL A   1      38.861  36.720  41.275  1.00  0.00    -0.237 OA
ATOM     96  O   UNL A   1      40.707  38.014  40.262  1.00  0.00    -0.237 OA
ATOM     97  O   UNL A   1      38.388  38.387  39.517  1.00  0.00    -0.744 OA
ENDBRANCH  93  94
ENDBRANCH  61  86
ENDBRANCH  35  36
ENDBRANCH  27  30
ENDBRANCH  25  26
ENDBRANCH   1  25
TORSDOF 17
ENDMDL
MODEL 3
REMARK VINA RESULT:     -11.4      3.096      4.601
REMARK SMILES CCOC(=O)C1=NN(c2ccc(Cl)cc2F)[C@@H](C(=O)NCCCNC(=O)c2ccc(-c3c4nc(c(-c5c(F)cc(S(=O)(=O)[O-])cc5F)c5ccc([nH]5)c(-c5c(F)cc(S(=O)(=O)[O-])cc5F)c5nc(c(-c6c(F)cc(S(=O)(=O)[O-])cc6F)c6ccc3[nH]6)C=C5)C=C4)cc2)C1
REMARK SMILES IDX 22 1 21 2 20 3 18 4 19 5 17 7 6 8 7 9 93 10 8 11 4 12 5 13
REMARK SMILES IDX 3 14 2 15 1 16 9 17 10 18 15 19 11 20 14 21 16 22 12 23
REMARK SMILES IDX 13 24 23 25 24 26 25 27 26 29 27 30 28 31 92 32 29 33 91 34
REMARK SMILES IDX 30 35 31 36 32 37 85 38 33 39 90 40 84 41 86 42 34 43 89 44
REMARK SMILES IDX 83 45 82 46 35 48 69 49 48 50 68 51 49 52 52 53 67 54 87 55
REMARK SMILES IDX 50 56 51 57 66 59 88 60 53 61 36 62 37 63 46 64 38 65 39 66
REMARK SMILES IDX 45 67 47 68 40 69 41 70 42 71 43 72 44 73 70 74 71 75 80 76
REMARK SMILES IDX 72 77 73 78 79 79 81 80 74 81 75 82 76 83 77 84 78 85 54 86
REMARK SMILES IDX 55 87 64 88 56 89 57 90 63 91 65 92 58 93 59 94 60 95 61 96
REMARK SMILES IDX 62 97
REMARK H PARENT 20 6 24 28 86 47 52 58
REMARK Flexibility Score: inf
ROOT
ATOM      1  C   UNL A   1      34.379  30.642  27.319  1.00  0.00     0.042 C 
ENDROOT
BRANCH   1   2
ATOM      2  C   UNL A   1      34.337  29.134  27.157  1.00  0.00     0.117 C 
BRANCH   2   3
ATOM      3  N   UNL A   1      33.024  28.567  27.401  1.00  0.00    -0.354 N 
ATOM      4  C   UNL A   1      32.351  27.555  26.774  1.00  0.00     0.245 C 
ATOM      5  O   UNL A   1      31.248  27.274  27.252  1.00  0.00    -0.273 OA
ATOM      6  H   UNL A   1      32.531  28.983  28.146  1.00  0.00     0.163 HD
BRANCH   4   7
ATOM      7  C   UNL A   1      32.937  26.876  25.514  1.00  0.00     0.203 C 
ATOM      8  C   UNL A   1      32.919  24.623  24.961  1.00  0.00     0.148 C 
ATOM      9  N   UNL A   1      31.903  25.090  24.310  1.00  0.00    -0.169 NA
ATOM     10  C   UNL A   1      33.658  25.571  25.831  1.00  0.00     0.103 C 
ATOM     11  N   UNL A   1      31.873  26.426  24.600  1.00  0.00    -0.249 N 
BRANCH   8  12
ATOM     12  C   UNL A   1      33.397  23.204  24.895  1.00  0.00     0.354 C 
ATOM     13  O   UNL A   1      32.644  22.254  24.815  1.00  0.00    -0.245 OA
BRANCH  12  14
ATOM     14  O   UNL A   1      34.744  23.221  24.806  1.00  0.00    -0.461 OA
BRANCH  14  15
ATOM     15  C   UNL A   1      35.278  22.932  23.508  1.00  0.00     0.230 C 
ATOM     16  C   UNL A   1      36.793  22.969  23.529  1.00  0.00     0.049 C 
ENDBRANCH  14  15
ENDBRANCH  12  14
ENDBRANCH   8  12
BRANCH  11  17
ATOM     17  C   UNL A   1      30.976  27.263  23.947  1.00  0.00     0.096 A 
ATOM     18  C   UNL A   1      31.456  28.337  23.181  1.00  0.00     0.032 A 
ATOM     19  C   UNL A   1      29.585  27.084  24.001  1.00  0.00     0.149 A 
ATOM     20  C   UNL A   1      30.587  29.176  22.478  1.00  0.00     0.023 A 
ATOM     21  C   UNL A   1      28.703  27.936  23.336  1.00  0.00     0.062 A 
ATOM     22  F   UNL A   1      29.058  26.100  24.748  1.00  0.00    -0.205 F 
ATOM     23  C   UNL A   1      29.212  28.976  22.567  1.00  0.00     0.044 A 
ATOM     24  Cl  UNL A   1      28.139  30.023  21.723  1.00  0.00    -0.084 Cl
ENDBRANCH  11  17
ENDBRANCH   4   7
ENDBRANCH   2   3
ENDBRANCH   1   2
BRANCH   1  25
ATOM     25  C   UNL A   1      35.564  31.169  28.114  1.00  0.00     0.118 C 
BRANCH  25  26
ATOM     26  N   UNL A   1      35.442  30.944  29.549  1.00  0.00    -0.352 N 
ATOM     27  C   UNL A   1      36.363  30.468  30.453  1.00  0.00     0.251 C 
ATOM     28  H   UNL A   1      34.562  31.169  29.931  1.00  0.00     0.163 HD
ATOM     29  O   UNL A   1      36.004  30.211  31.599  1.00  0.00    -0.269 OA
BRANCH  27  30
ATOM     30  C   UNL A   1      37.766  30.232  30.043  1.00  0.00     0.039 A 
ATOM     31  C   UNL A   1      38.743  30.072  31.029  1.00  0.00     0.014 A 
ATOM     32  C   UNL A   1      38.123  30.161  28.695  1.00  0.00     0.014 A 
ATOM     33  C   UNL A   1      40.054  29.754  30.664  1.00  0.00     0.010 A 
ATOM     34  C   UNL A   1      39.400  29.744  28.336  1.00  0.00     0.010 A 
ATOM     35  C   UNL A   1      40.384  29.540  29.315  1.00  0.00    -0.014 A 
BRANCH  35  36
ATOM     36  C   UNL A   1      41.747  29.111  28.902  1.00  0.00     0.031 A 
ATOM     37  C   UNL A   1      42.870  30.113  28.854  1.00  0.00     0.074 A 
ATOM     38  C   UNL A   1      41.957  27.842  28.501  1.00  0.00     0.049 A 
ATOM     39  N   UNL A   1      44.100  29.957  28.435  1.00  0.00    -0.248 NA
ATOM     40  C   UNL A   1      42.561  31.481  29.304  1.00  0.00     0.031 C 
ATOM     41  C   UNL A   1      40.941  26.787  28.452  1.00  0.00     0.029 A 
ATOM     42  N   UNL A   1      43.094  27.222  28.046  1.00  0.00    -0.354 N 
ATOM     43  C   UNL A   1      44.702  31.204  28.555  1.00  0.00     0.074 A 
ATOM     44  C   UNL A   1      43.687  32.120  29.028  1.00  0.00     0.031 C 
ATOM     45  C   UNL A   1      41.506  25.648  28.022  1.00  0.00     0.029 A 
ATOM     46  C   UNL A   1      42.912  25.898  27.722  1.00  0.00     0.049 A 
ATOM     47  H   UNL A   1      43.960  27.683  27.958  1.00  0.00     0.167 HD
ATOM     48  C   UNL A   1      45.991  31.552  28.320  1.00  0.00     0.037 A 
ATOM     49  C   UNL A   1      43.778  24.988  27.234  1.00  0.00     0.037 A 
ATOM     50  C   UNL A   1      47.004  30.630  27.881  1.00  0.00     0.049 A 
ATOM     51  C   UNL A   1      45.205  25.396  26.980  1.00  0.00     0.074 A 
ATOM     52  C   UNL A   1      48.351  30.868  27.668  1.00  0.00     0.029 A 
ATOM     53  N   UNL A   1      46.784  29.291  27.586  1.00  0.00    -0.354 N 
ATOM     54  N   UNL A   1      45.770  26.567  27.155  1.00  0.00    -0.248 NA
ATOM     55  C   UNL A   1      46.111  24.360  26.467  1.00  0.00     0.031 C 
ATOM     56  C   UNL A   1      48.937  29.684  27.206  1.00  0.00     0.029 A 
ATOM     57  C   UNL A   1      47.966  28.697  27.178  1.00  0.00     0.049 A 
ATOM     58  H   UNL A   1      45.916  28.833  27.657  1.00  0.00     0.167 HD
ATOM     59  C   UNL A   1      47.105  26.400  26.803  1.00  0.00     0.074 A 
ATOM     60  C   UNL A   1      47.264  25.013  26.415  1.00  0.00     0.031 C 
ATOM     61  C   UNL A   1      48.110  27.311  26.804  1.00  0.00     0.037 A 
BRANCH  48  62
ATOM     62  C   UNL A   1      46.375  32.989  28.545  1.00  0.00     0.058 A 
ATOM     63  C   UNL A   1      46.306  33.940  27.512  1.00  0.00     0.135 A 
ATOM     64  C   UNL A   1      46.797  33.428  29.809  1.00  0.00     0.135 A 
ATOM     65  F   UNL A   1      45.925  33.572  26.279  1.00  0.00    -0.206 F 
ATOM     66  C   UNL A   1      46.676  35.265  27.717  1.00  0.00     0.059 A 
ATOM     67  C   UNL A   1      47.142  34.756  30.045  1.00  0.00     0.059 A 
ATOM     68  F   UNL A   1      46.881  32.562  30.833  1.00  0.00    -0.206 F 
ATOM     69  C   UNL A   1      47.096  35.663  28.987  1.00  0.00     0.060 A 
BRANCH  69  70
ATOM     70  S   UNL A   1      47.577  37.385  29.234  1.00  0.00     0.124 S 
ATOM     71  O   UNL A   1      46.354  37.951  29.792  1.00  0.00    -0.237 OA
ATOM     72  O   UNL A   1      48.699  37.266  30.160  1.00  0.00    -0.237 OA
ATOM     73  O   UNL A   1      47.923  37.838  27.890  1.00  0.00    -0.744 OA
ENDBRANCH  69  70
ENDBRANCH  48  62
BRANCH  49  74
ATOM     74  C   UNL A   1      43.328  23.593  26.981  1.00  0.00     0.058 A 
ATOM     75  C   UNL A   1      43.070  23.147  25.676  1.00  0.00     0.135 A 
ATOM     76  C   UNL A   1      43.160  22.675  28.030  1.00  0.00     0.135 A 
ATOM     77  F   UNL A   1      43.210  23.989  24.640  1.00  0.00    -0.206 F 
ATOM     78  C   UNL A   1      42.644  21.848  25.419  1.00  0.00     0.059 A 
ATOM     79  C   UNL A   1      42.760  21.363  27.795  1.00  0.00     0.059 A 
ATOM     80  F   UNL A   1      43.412  23.045  29.294  1.00  0.00    -0.206 F 
ATOM     81  C   UNL A   1      42.494  20.962  26.486  1.00  0.00     0.060 A 
BRANCH  81  82
ATOM     82  S   UNL A   1      41.991  19.262  26.137  1.00  0.00     0.124 S 
ATOM     83  O   UNL A   1      42.814  18.946  24.976  1.00  0.00    -0.237 OA
ATOM     84  O   UNL A   1      42.344  18.578  27.378  1.00  0.00    -0.237 OA
ATOM     85  O   UNL A   1      40.559  19.384  25.883  1.00  0.00    -0.744 OA
ENDBRANCH  81  82
ENDBRANCH  49  74
BRANCH  61  86
ATOM     86  C   UNL A   1      49.480  26.832  26.412  1.00  0.00     0.058 A 
ATOM     87  C   UNL A   1      50.326  26.184  27.324  1.00  0.00     0.135 A 
ATOM     88  C   UNL A   1      49.928  26.977  25.088  1.00  0.00     0.135 A 
ATOM     89  F   UNL A   1      49.948  26.027  28.602  1.00  0.00    -0.206 F 
ATOM     90  C   UNL A   1      51.581  25.716  26.943  1.00  0.00     0.059 A 
ATOM     91  C   UNL A   1      51.166  26.492  24.679  1.00  0.00     0.059 A 
ATOM     92  F   UNL A   1      49.152  27.580  24.174  1.00  0.00    -0.206 F 
ATOM     93  C   UNL A   1      51.990  25.873  25.618  1.00  0.00     0.060 A 
BRANCH  93  94
ATOM     94  S   UNL A   1      53.604  25.229  25.129  1.00  0.00     0.124 S 
ATOM     95  O   UNL A   1      53.412  23.793  25.301  1.00  0.00    -0.237 OA
ATOM     96  O   UNL A   1      53.722  25.693  23.751  1.00  0.00    -0.237 OA
ATOM     97  O   UNL A   1      54.521  25.857  26.077  1.00  0.00    -0.744 OA
ENDBRANCH  93  94
ENDBRANCH  61  86
ENDBRANCH  35  36
ENDBRANCH  27  30
ENDBRANCH  25  26
ENDBRANCH   1  25
TORSDOF 17
ENDMDL
