MODEL 1
REMARK VINA RESULT:     -12.4      0.000      0.000
REMARK SMILES CC[N@H+]1C[C@@H](C(=O)NCCCNC(=O)c2ccc(-c3c4nc(c(-c5c(F)cc(S(=O)(=O)[O-])cc5F)c5ccc([nH]5)c(-c5c(F)cc(S(=O)(=O)[O-])cc5F)c5nc(c(-c6c(F)cc(S(=O)(=O)[O-])cc6F)c6ccc3[nH]6)C=C5)C=C4)cc2)C[C@@H](C(=O)Nc2ccc(F)cc2)C1
REMARK SMILES IDX 10 1 9 2 8 3 6 4 7 5 5 7 3 8 4 9 93 10 82 12 81 13 2 14 1 15
REMARK SMILES IDX 83 16 84 17 85 18 86 20 87 21 92 22 88 23 91 24 89 25 90 26
REMARK SMILES IDX 11 27 12 28 13 29 14 31 15 32 16 33 80 34 17 35 79 36 18 37
REMARK SMILES IDX 19 38 20 39 73 40 21 41 78 42 72 43 74 44 22 45 77 46 71 47
REMARK SMILES IDX 70 48 23 50 57 51 36 52 56 53 37 54 40 55 55 56 75 57 38 58
REMARK SMILES IDX 39 59 54 61 76 62 41 63 24 64 25 65 34 66 26 67 27 68 33 69
REMARK SMILES IDX 35 70 28 71 29 72 30 73 31 74 32 75 58 76 59 77 68 78 60 79
REMARK SMILES IDX 61 80 67 81 69 82 62 83 63 84 64 85 65 86 66 87 42 88 43 89
REMARK SMILES IDX 52 90 44 91 45 92 51 93 53 94 46 95 47 96 48 97 49 98 50 99
REMARK H PARENT 8 6 3 11 85 19 12 30 74 49 40 60
REMARK Flexibility Score: inf
ROOT
ATOM      1  C   UNL A   1      39.211  22.387  26.516  1.00  0.00     0.042 C 
ENDROOT
BRANCH   1   2
ATOM      2  C   UNL A   1      38.061  23.299  26.110  1.00  0.00     0.117 C 
BRANCH   2   3
ATOM      3  N   UNL A   1      37.762  23.219  24.685  1.00  0.00    -0.356 N 
ATOM      4  C   UNL A   1      36.578  23.136  24.018  1.00  0.00     0.228 C 
ATOM      5  O   UNL A   1      36.616  23.089  22.786  1.00  0.00    -0.275 OA
ATOM      6  H   UNL A   1      38.557  23.227  24.103  1.00  0.00     0.163 HD
BRANCH   4   7
ATOM      7  C   UNL A   1      35.246  23.139  24.752  1.00  0.00     0.134 C 
ATOM      8  N   UNL A   1      33.405  21.542  25.449  1.00  0.00    -0.334 N 
ATOM      9  C   UNL A   1      34.802  21.691  25.016  1.00  0.00     0.275 C 
ATOM     10  C   UNL A   1      32.491  22.307  24.580  1.00  0.00     0.275 C 
ATOM     11  H   UNL A   1      33.355  21.911  26.400  1.00  0.00     0.348 HD
ATOM     12  C   UNL A   1      32.814  23.806  24.617  1.00  0.00     0.135 C 
ATOM     13  C   UNL A   1      34.219  24.042  24.065  1.00  0.00     0.038 C 
BRANCH   8  14
ATOM     14  C   UNL A   1      32.983  20.127  25.468  1.00  0.00     0.258 C 
ATOM     15  C   UNL A   1      32.560  19.586  24.107  1.00  0.00     0.071 C 
ENDBRANCH   8  14
BRANCH  12  16
ATOM     16  C   UNL A   1      31.758  24.570  23.814  1.00  0.00     0.233 C 
ATOM     17  O   UNL A   1      31.099  24.011  22.934  1.00  0.00    -0.274 OA
ATOM     18  N   UNL A   1      31.421  25.854  24.156  1.00  0.00    -0.326 N 
ATOM     19  H   UNL A   1      30.606  26.200  23.723  1.00  0.00     0.169 HD
BRANCH  18  20
ATOM     20  C   UNL A   1      32.056  26.752  25.025  1.00  0.00     0.041 A 
ATOM     21  C   UNL A   1      31.476  26.965  26.279  1.00  0.00     0.029 A 
ATOM     22  C   UNL A   1      33.228  27.435  24.686  1.00  0.00     0.029 A 
ATOM     23  C   UNL A   1      32.129  27.758  27.225  1.00  0.00     0.041 A 
ATOM     24  C   UNL A   1      33.878  28.232  25.629  1.00  0.00     0.041 A 
ATOM     25  C   UNL A   1      33.333  28.370  26.898  1.00  0.00     0.123 A 
ATOM     26  F   UNL A   1      33.972  29.110  27.812  1.00  0.00    -0.207 F 
ENDBRANCH  18  20
ENDBRANCH  12  16
ENDBRANCH   4   7
ENDBRANCH   2   3
ENDBRANCH   1   2
BRANCH   1  27
ATOM     27  C   UNL A   1      40.415  23.133  27.072  1.00  0.00     0.118 C 
BRANCH  27  28
ATOM     28  N   UNL A   1      41.092  23.933  26.058  1.00  0.00    -0.352 N 
ATOM     29  C   UNL A   1      41.480  25.250  26.088  1.00  0.00     0.251 C 
ATOM     30  H   UNL A   1      41.305  23.455  25.224  1.00  0.00     0.163 HD
ATOM     31  O   UNL A   1      41.847  25.799  25.051  1.00  0.00    -0.269 OA
BRANCH  29  32
ATOM     32  C   UNL A   1      41.426  26.013  27.354  1.00  0.00     0.039 A 
ATOM     33  C   UNL A   1      42.573  26.674  27.798  1.00  0.00     0.014 A 
ATOM     34  C   UNL A   1      40.243  26.088  28.094  1.00  0.00     0.014 A 
ATOM     35  C   UNL A   1      42.506  27.493  28.927  1.00  0.00     0.010 A 
ATOM     36  C   UNL A   1      40.156  26.967  29.168  1.00  0.00     0.010 A 
ATOM     37  C   UNL A   1      41.282  27.692  29.585  1.00  0.00    -0.014 A 
BRANCH  37  38
ATOM     38  C   UNL A   1      41.138  28.699  30.669  1.00  0.00     0.031 A 
ATOM     39  C   UNL A   1      41.954  28.584  31.928  1.00  0.00     0.074 A 
ATOM     40  C   UNL A   1      40.189  29.652  30.558  1.00  0.00     0.049 A 
ATOM     41  N   UNL A   1      41.875  29.289  33.025  1.00  0.00    -0.248 NA
ATOM     42  C   UNL A   1      42.975  27.522  31.969  1.00  0.00     0.031 C 
ATOM     43  C   UNL A   1      39.294  29.826  29.409  1.00  0.00     0.029 A 
ATOM     44  N   UNL A   1      39.795  30.637  31.431  1.00  0.00    -0.354 N 
ATOM     45  C   UNL A   1      42.813  28.746  33.895  1.00  0.00     0.074 A 
ATOM     46  C   UNL A   1      43.433  27.633  33.209  1.00  0.00     0.031 C 
ATOM     47  C   UNL A   1      38.461  30.850  29.648  1.00  0.00     0.029 A 
ATOM     48  C   UNL A   1      38.725  31.377  30.982  1.00  0.00     0.049 A 
ATOM     49  H   UNL A   1      40.237  30.798  32.296  1.00  0.00     0.167 HD
ATOM     50  C   UNL A   1      43.135  29.150  35.146  1.00  0.00     0.037 A 
ATOM     51  C   UNL A   1      38.013  32.348  31.588  1.00  0.00     0.037 A 
ATOM     52  C   UNL A   1      42.540  30.284  35.804  1.00  0.00     0.049 A 
ATOM     53  C   UNL A   1      38.391  32.771  32.982  1.00  0.00     0.074 A 
ATOM     54  C   UNL A   1      42.878  30.839  37.027  1.00  0.00     0.029 A 
ATOM     55  N   UNL A   1      41.480  31.026  35.308  1.00  0.00    -0.354 N 
ATOM     56  N   UNL A   1      39.358  32.317  33.745  1.00  0.00    -0.248 NA
ATOM     57  C   UNL A   1      37.584  33.831  33.602  1.00  0.00     0.031 C 
ATOM     58  C   UNL A   1      41.984  31.878  37.296  1.00  0.00     0.029 A 
ATOM     59  C   UNL A   1      41.122  32.005  36.219  1.00  0.00     0.049 A 
ATOM     60  H   UNL A   1      41.046  30.879  34.436  1.00  0.00     0.167 HD
ATOM     61  C   UNL A   1      39.281  33.045  34.928  1.00  0.00     0.074 A 
ATOM     62  C   UNL A   1      38.193  33.987  34.770  1.00  0.00     0.031 C 
ATOM     63  C   UNL A   1      40.038  32.939  36.046  1.00  0.00     0.037 A 
BRANCH  50  64
ATOM     64  C   UNL A   1      44.179  28.378  35.903  1.00  0.00     0.058 A 
ATOM     65  C   UNL A   1      45.542  28.695  35.811  1.00  0.00     0.135 A 
ATOM     66  C   UNL A   1      43.797  27.382  36.817  1.00  0.00     0.135 A 
ATOM     67  F   UNL A   1      45.962  29.629  34.941  1.00  0.00    -0.206 F 
ATOM     68  C   UNL A   1      46.491  28.055  36.600  1.00  0.00     0.059 A 
ATOM     69  C   UNL A   1      44.727  26.745  37.634  1.00  0.00     0.059 A 
ATOM     70  F   UNL A   1      42.506  27.037  36.941  1.00  0.00    -0.206 F 
ATOM     71  C   UNL A   1      46.073  27.089  37.517  1.00  0.00     0.060 A 
BRANCH  71  72
ATOM     72  S   UNL A   1      47.312  26.315  38.578  1.00  0.00     0.124 S 
ATOM     73  O   UNL A   1      48.343  27.347  38.624  1.00  0.00    -0.237 OA
ATOM     74  O   UNL A   1      46.570  26.106  39.818  1.00  0.00    -0.237 OA
ATOM     75  O   UNL A   1      47.672  25.101  37.853  1.00  0.00    -0.744 OA
ENDBRANCH  71  72
ENDBRANCH  50  64
BRANCH  51  76
ATOM     76  C   UNL A   1      36.847  32.968  30.901  1.00  0.00     0.058 A 
ATOM     77  C   UNL A   1      37.023  33.900  29.868  1.00  0.00     0.135 A 
ATOM     78  C   UNL A   1      35.531  32.661  31.283  1.00  0.00     0.135 A 
ATOM     79  F   UNL A   1      38.260  34.233  29.469  1.00  0.00    -0.206 F 
ATOM     80  C   UNL A   1      35.941  34.531  29.261  1.00  0.00     0.059 A 
ATOM     81  C   UNL A   1      34.432  33.255  30.670  1.00  0.00     0.059 A 
ATOM     82  F   UNL A   1      35.305  31.763  32.254  1.00  0.00    -0.206 F 
ATOM     83  C   UNL A   1      34.649  34.204  29.673  1.00  0.00     0.060 A 
BRANCH  83  84
ATOM     84  S   UNL A   1      33.249  35.019  28.874  1.00  0.00     0.124 S 
ATOM     85  O   UNL A   1      33.888  36.193  28.291  1.00  0.00    -0.237 OA
ATOM     86  O   UNL A   1      32.797  34.002  27.930  1.00  0.00    -0.237 OA
ATOM     87  O   UNL A   1      32.336  35.282  29.982  1.00  0.00    -0.744 OA
ENDBRANCH  83  84
ENDBRANCH  51  76
BRANCH  63  88
ATOM     88  C   UNL A   1      39.728  33.866  37.188  1.00  0.00     0.058 A 
ATOM     89  C   UNL A   1      38.869  33.481  38.229  1.00  0.00     0.135 A 
ATOM     90  C   UNL A   1      40.354  35.120  37.281  1.00  0.00     0.135 A 
ATOM     91  F   UNL A   1      38.238  32.297  38.181  1.00  0.00    -0.206 F 
ATOM     92  C   UNL A   1      38.633  34.312  39.319  1.00  0.00     0.059 A 
ATOM     93  C   UNL A   1      40.155  35.955  38.375  1.00  0.00     0.059 A 
ATOM     94  F   UNL A   1      41.190  35.531  36.315  1.00  0.00    -0.206 F 
ATOM     95  C   UNL A   1      39.287  35.545  39.387  1.00  0.00     0.060 A 
BRANCH  95  96
ATOM     96  S   UNL A   1      39.015  36.585  40.836  1.00  0.00     0.124 S 
ATOM     97  O   UNL A   1      38.181  35.724  41.666  1.00  0.00    -0.237 OA
ATOM     98  O   UNL A   1      40.374  36.808  41.319  1.00  0.00    -0.237 OA
ATOM     99  O   UNL A   1      38.350  37.764  40.288  1.00  0.00    -0.744 OA
ENDBRANCH  95  96
ENDBRANCH  63  88
ENDBRANCH  37  38
ENDBRANCH  29  32
ENDBRANCH  27  28
ENDBRANCH   1  27
TORSDOF 16
ENDMDL
MODEL 2
REMARK VINA RESULT:     -12.1      6.729     11.883
REMARK SMILES CC[N@H+]1C[C@@H](C(=O)NCCCNC(=O)c2ccc(-c3c4nc(c(-c5c(F)cc(S(=O)(=O)[O-])cc5F)c5ccc([nH]5)c(-c5c(F)cc(S(=O)(=O)[O-])cc5F)c5nc(c(-c6c(F)cc(S(=O)(=O)[O-])cc6F)c6ccc3[nH]6)C=C5)C=C4)cc2)C[C@@H](C(=O)Nc2ccc(F)cc2)C1
REMARK SMILES IDX 10 1 9 2 8 3 6 4 7 5 5 7 3 8 4 9 93 10 82 12 81 13 2 14 1 15
REMARK SMILES IDX 83 16 84 17 85 18 86 20 87 21 92 22 88 23 91 24 89 25 90 26
REMARK SMILES IDX 11 27 12 28 13 29 14 31 15 32 16 33 80 34 17 35 79 36 18 37
REMARK SMILES IDX 19 38 20 39 73 40 21 41 78 42 72 43 74 44 22 45 77 46 71 47
REMARK SMILES IDX 70 48 23 50 57 51 36 52 56 53 37 54 40 55 55 56 75 57 38 58
REMARK SMILES IDX 39 59 54 61 76 62 41 63 24 64 25 65 34 66 26 67 27 68 33 69
REMARK SMILES IDX 35 70 28 71 29 72 30 73 31 74 32 75 58 76 59 77 68 78 60 79
REMARK SMILES IDX 61 80 67 81 69 82 62 83 63 84 64 85 65 86 66 87 42 88 43 89
REMARK SMILES IDX 52 90 44 91 45 92 51 93 53 94 46 95 47 96 48 97 49 98 50 99
REMARK H PARENT 8 6 3 11 85 19 12 30 74 49 40 60
REMARK Flexibility Score: inf
ROOT
ATOM      1  C   UNL A   1      33.535  28.959  27.268  1.00  0.00     0.042 C 
ENDROOT
BRANCH   1   2
ATOM      2  C   UNL A   1      32.776  29.431  26.036  1.00  0.00     0.117 C 
BRANCH   2   3
ATOM      3  N   UNL A   1      33.615  29.468  24.844  1.00  0.00    -0.356 N 
ATOM      4  C   UNL A   1      33.624  28.689  23.726  1.00  0.00     0.228 C 
ATOM      5  O   UNL A   1      34.453  28.952  22.850  1.00  0.00    -0.275 OA
ATOM      6  H   UNL A   1      34.294  30.182  24.847  1.00  0.00     0.163 HD
BRANCH   4   7
ATOM      7  C   UNL A   1      32.629  27.555  23.535  1.00  0.00     0.134 C 
ATOM      8  N   UNL A   1      30.132  27.172  23.330  1.00  0.00    -0.334 N 
ATOM      9  C   UNL A   1      31.237  28.139  23.243  1.00  0.00     0.275 C 
ATOM     10  C   UNL A   1      30.209  26.381  24.573  1.00  0.00     0.275 C 
ATOM     11  H   UNL A   1      30.227  26.549  22.527  1.00  0.00     0.348 HD
ATOM     12  C   UNL A   1      31.513  25.576  24.639  1.00  0.00     0.135 C 
ATOM     13  C   UNL A   1      32.705  26.532  24.671  1.00  0.00     0.038 C 
BRANCH   8  14
ATOM     14  C   UNL A   1      28.814  27.836  23.260  1.00  0.00     0.258 C 
ATOM     15  C   UNL A   1      28.889  29.346  23.060  1.00  0.00     0.071 C 
ENDBRANCH   8  14
BRANCH  12  16
ATOM     16  C   UNL A   1      31.486  24.670  25.872  1.00  0.00     0.233 C 
ATOM     17  O   UNL A   1      30.552  24.717  26.676  1.00  0.00    -0.274 OA
ATOM     18  N   UNL A   1      32.426  23.685  26.030  1.00  0.00    -0.326 N 
ATOM     19  H   UNL A   1      32.226  23.028  26.736  1.00  0.00     0.169 HD
BRANCH  18  20
ATOM     20  C   UNL A   1      33.629  23.469  25.345  1.00  0.00     0.041 A 
ATOM     21  C   UNL A   1      33.587  22.689  24.185  1.00  0.00     0.029 A 
ATOM     22  C   UNL A   1      34.852  23.992  25.775  1.00  0.00     0.029 A 
ATOM     23  C   UNL A   1      34.733  22.539  23.401  1.00  0.00     0.041 A 
ATOM     24  C   UNL A   1      36.000  23.838  24.995  1.00  0.00     0.041 A 
ATOM     25  C   UNL A   1      35.924  23.130  23.804  1.00  0.00     0.123 A 
ATOM     26  F   UNL A   1      37.018  23.007  23.041  1.00  0.00    -0.207 F 
ENDBRANCH  18  20
ENDBRANCH  12  16
ENDBRANCH   4   7
ENDBRANCH   2   3
ENDBRANCH   1   2
BRANCH   1  27
ATOM     27  C   UNL A   1      34.924  29.564  27.400  1.00  0.00     0.118 C 
BRANCH  27  28
ATOM     28  N   UNL A   1      35.031  30.475  28.534  1.00  0.00    -0.352 N 
ATOM     29  C   UNL A   1      36.045  30.633  29.446  1.00  0.00     0.251 C 
ATOM     30  H   UNL A   1      34.257  31.069  28.665  1.00  0.00     0.163 HD
ATOM     31  O   UNL A   1      35.854  31.308  30.455  1.00  0.00    -0.269 OA
BRANCH  29  32
ATOM     32  C   UNL A   1      37.349  29.971  29.230  1.00  0.00     0.039 A 
ATOM     33  C   UNL A   1      37.876  29.913  27.938  1.00  0.00     0.014 A 
ATOM     34  C   UNL A   1      38.058  29.420  30.301  1.00  0.00     0.014 A 
ATOM     35  C   UNL A   1      39.158  29.397  27.735  1.00  0.00     0.010 A 
ATOM     36  C   UNL A   1      39.365  28.982  30.111  1.00  0.00     0.010 A 
ATOM     37  C   UNL A   1      39.934  28.982  28.830  1.00  0.00    -0.014 A 
BRANCH  37  38
ATOM     38  C   UNL A   1      41.364  28.606  28.669  1.00  0.00     0.031 A 
ATOM     39  C   UNL A   1      42.436  29.661  28.699  1.00  0.00     0.074 A 
ATOM     40  C   UNL A   1      41.677  27.324  28.386  1.00  0.00     0.049 A 
ATOM     41  N   UNL A   1      43.714  29.540  28.454  1.00  0.00    -0.248 NA
ATOM     42  C   UNL A   1      42.015  31.035  29.023  1.00  0.00     0.031 C 
ATOM     43  C   UNL A   1      40.715  26.224  28.269  1.00  0.00     0.029 A 
ATOM     44  N   UNL A   1      42.886  26.732  28.113  1.00  0.00    -0.354 N 
ATOM     45  C   UNL A   1      44.246  30.819  28.568  1.00  0.00     0.074 A 
ATOM     46  C   UNL A   1      43.149  31.709  28.879  1.00  0.00     0.031 C 
ATOM     47  C   UNL A   1      41.370  25.096  27.952  1.00  0.00     0.029 A 
ATOM     48  C   UNL A   1      42.787  25.397  27.792  1.00  0.00     0.049 A 
ATOM     49  H   UNL A   1      43.742  27.217  28.144  1.00  0.00     0.167 HD
ATOM     50  C   UNL A   1      45.536  31.209  28.438  1.00  0.00     0.037 A 
ATOM     51  C   UNL A   1      43.726  24.520  27.384  1.00  0.00     0.037 A 
ATOM     52  C   UNL A   1      46.627  30.308  28.168  1.00  0.00     0.049 A 
ATOM     53  C   UNL A   1      45.150  24.986  27.242  1.00  0.00     0.074 A 
ATOM     54  C   UNL A   1      47.981  30.592  28.129  1.00  0.00     0.029 A 
ATOM     55  N   UNL A   1      46.492  28.959  27.878  1.00  0.00    -0.354 N 
ATOM     56  N   UNL A   1      45.651  26.179  27.465  1.00  0.00    -0.248 NA
ATOM     57  C   UNL A   1      46.137  23.996  26.791  1.00  0.00     0.031 C 
ATOM     58  C   UNL A   1      48.660  29.429  27.756  1.00  0.00     0.029 A 
ATOM     59  C   UNL A   1      47.734  28.408  27.614  1.00  0.00     0.049 A 
ATOM     60  H   UNL A   1      45.639  28.467  27.862  1.00  0.00     0.167 HD
ATOM     61  C   UNL A   1      47.011  26.076  27.193  1.00  0.00     0.074 A 
ATOM     62  C   UNL A   1      47.260  24.700  26.816  1.00  0.00     0.031 C 
ATOM     63  C   UNL A   1      47.966  27.035  27.244  1.00  0.00     0.037 A 
BRANCH  50  64
ATOM     64  C   UNL A   1      45.862  32.668  28.588  1.00  0.00     0.058 A 
ATOM     65  C   UNL A   1      45.848  33.543  27.492  1.00  0.00     0.135 A 
ATOM     66  C   UNL A   1      46.077  33.216  29.863  1.00  0.00     0.135 A 
ATOM     67  F   UNL A   1      45.662  33.069  26.249  1.00  0.00    -0.206 F 
ATOM     68  C   UNL A   1      46.036  34.912  27.654  1.00  0.00     0.059 A 
ATOM     69  C   UNL A   1      46.244  34.585  30.051  1.00  0.00     0.059 A 
ATOM     70  F   UNL A   1      46.104  32.422  30.945  1.00  0.00    -0.206 F 
ATOM     71  C   UNL A   1      46.222  35.425  28.939  1.00  0.00     0.060 A 
BRANCH  71  72
ATOM     72  S   UNL A   1      46.399  37.211  29.135  1.00  0.00     0.124 S 
ATOM     73  O   UNL A   1      47.066  37.578  27.889  1.00  0.00    -0.237 OA
ATOM     74  O   UNL A   1      45.012  37.647  29.262  1.00  0.00    -0.237 OA
ATOM     75  O   UNL A   1      47.208  37.344  30.342  1.00  0.00    -0.744 OA
ENDBRANCH  71  72
ENDBRANCH  50  64
BRANCH  51  76
ATOM     76  C   UNL A   1      43.351  23.120  27.042  1.00  0.00     0.058 A 
ATOM     77  C   UNL A   1      43.038  22.187  28.041  1.00  0.00     0.135 A 
ATOM     78  C   UNL A   1      43.326  22.680  25.709  1.00  0.00     0.135 A 
ATOM     79  F   UNL A   1      43.054  22.556  29.331  1.00  0.00    -0.206 F 
ATOM     80  C   UNL A   1      42.748  20.861  27.736  1.00  0.00     0.059 A 
ATOM     81  C   UNL A   1      43.009  21.366  25.377  1.00  0.00     0.059 A 
ATOM     82  F   UNL A   1      43.601  23.535  24.712  1.00  0.00    -0.206 F 
ATOM     83  C   UNL A   1      42.740  20.460  26.400  1.00  0.00     0.060 A 
BRANCH  83  84
ATOM     84  S   UNL A   1      42.351  18.739  26.011  1.00  0.00     0.124 S 
ATOM     85  O   UNL A   1      40.940  18.832  25.651  1.00  0.00    -0.237 OA
ATOM     86  O   UNL A   1      43.272  18.454  24.916  1.00  0.00    -0.237 OA
ATOM     87  O   UNL A   1      42.640  18.039  27.259  1.00  0.00    -0.744 OA
ENDBRANCH  83  84
ENDBRANCH  51  76
BRANCH  63  88
ATOM     88  C   UNL A   1      49.372  26.636  26.893  1.00  0.00     0.058 A 
ATOM     89  C   UNL A   1      50.237  26.085  27.852  1.00  0.00     0.135 A 
ATOM     90  C   UNL A   1      49.834  26.735  25.570  1.00  0.00     0.135 A 
ATOM     91  F   UNL A   1      49.846  25.978  29.132  1.00  0.00    -0.206 F 
ATOM     92  C   UNL A   1      51.515  25.655  27.514  1.00  0.00     0.059 A 
ATOM     93  C   UNL A   1      51.098  26.285  25.204  1.00  0.00     0.059 A 
ATOM     94  F   UNL A   1      49.044  27.248  24.615  1.00  0.00    -0.206 F 
ATOM     95  C   UNL A   1      51.935  25.752  26.185  1.00  0.00     0.060 A 
BRANCH  95  96
ATOM     96  S   UNL A   1      53.574  25.135  25.751  1.00  0.00     0.124 S 
ATOM     97  O   UNL A   1      54.287  25.277  27.016  1.00  0.00    -0.237 OA
ATOM     98  O   UNL A   1      53.292  23.766  25.333  1.00  0.00    -0.237 OA
ATOM     99  O   UNL A   1      54.005  26.034  24.684  1.00  0.00    -0.744 OA
ENDBRANCH  95  96
ENDBRANCH  63  88
ENDBRANCH  37  38
ENDBRANCH  29  32
ENDBRANCH  27  28
ENDBRANCH   1  27
TORSDOF 16
ENDMDL
MODEL 3
REMARK VINA RESULT:     -12.1      6.430     11.761
REMARK SMILES CC[N@H+]1C[C@@H](C(=O)NCCCNC(=O)c2ccc(-c3c4nc(c(-c5c(F)cc(S(=O)(=O)[O-])cc5F)c5ccc([nH]5)c(-c5c(F)cc(S(=O)(=O)[O-])cc5F)c5nc(c(-c6c(F)cc(S(=O)(=O)[O-])cc6F)c6ccc3[nH]6)C=C5)C=C4)cc2)C[C@@H](C(=O)Nc2ccc(F)cc2)C1
REMARK SMILES IDX 10 1 9 2 8 3 6 4 7 5 5 7 3 8 4 9 93 10 82 12 81 13 2 14 1 15
REMARK SMILES IDX 83 16 84 17 85 18 86 20 87 21 92 22 88 23 91 24 89 25 90 26
REMARK SMILES IDX 11 27 12 28 13 29 14 31 15 32 16 33 80 34 17 35 79 36 18 37
REMARK SMILES IDX 19 38 20 39 73 40 21 41 78 42 72 43 74 44 22 45 77 46 71 47
REMARK SMILES IDX 70 48 23 50 57 51 36 52 56 53 37 54 40 55 55 56 75 57 38 58
REMARK SMILES IDX 39 59 54 61 76 62 41 63 24 64 25 65 34 66 26 67 27 68 33 69
REMARK SMILES IDX 35 70 28 71 29 72 30 73 31 74 32 75 58 76 59 77 68 78 60 79
REMARK SMILES IDX 61 80 67 81 69 82 62 83 63 84 64 85 65 86 66 87 42 88 43 89
REMARK SMILES IDX 52 90 44 91 45 92 51 93 53 94 46 95 47 96 48 97 49 98 50 99
REMARK H PARENT 8 6 3 11 85 19 12 30 74 49 40 60
REMARK Flexibility Score: inf
ROOT
ATOM      1  C   UNL A   1      34.049  31.096  27.664  1.00  0.00     0.042 C 
ENDROOT
BRANCH   1   2
ATOM      2  C   UNL A   1      34.042  29.634  27.241  1.00  0.00     0.117 C 
BRANCH   2   3
ATOM      3  N   UNL A   1      32.862  28.921  27.715  1.00  0.00    -0.356 N 
ATOM      4  C   UNL A   1      32.032  28.039  27.091  1.00  0.00     0.228 C 
ATOM      5  O   UNL A   1      31.096  27.571  27.744  1.00  0.00    -0.275 OA
ATOM      6  H   UNL A   1      32.623  29.110  28.652  1.00  0.00     0.163 HD
BRANCH   4   7
ATOM      7  C   UNL A   1      32.263  27.607  25.651  1.00  0.00     0.134 C 
ATOM      8  N   UNL A   1      31.367  28.048  23.321  1.00  0.00    -0.334 N 
ATOM      9  C   UNL A   1      31.471  28.528  24.707  1.00  0.00     0.275 C 
ATOM     10  C   UNL A   1      30.954  26.633  23.274  1.00  0.00     0.275 C 
ATOM     11  H   UNL A   1      32.297  28.141  22.910  1.00  0.00     0.348 HD
ATOM     12  C   UNL A   1      31.973  25.733  23.984  1.00  0.00     0.135 C 
ATOM     13  C   UNL A   1      32.044  26.105  25.464  1.00  0.00     0.038 C 
BRANCH   8  14
ATOM     14  C   UNL A   1      30.416  28.856  22.530  1.00  0.00     0.258 C 
ATOM     15  C   UNL A   1      28.952  28.510  22.777  1.00  0.00     0.071 C 
ENDBRANCH   8  14
BRANCH  12  16
ATOM     16  C   UNL A   1      31.575  24.268  23.790  1.00  0.00     0.233 C 
ATOM     17  O   UNL A   1      30.424  23.957  23.475  1.00  0.00    -0.274 OA
ATOM     18  N   UNL A   1      32.525  23.280  23.821  1.00  0.00    -0.326 N 
ATOM     19  H   UNL A   1      32.223  22.401  23.496  1.00  0.00     0.169 HD
BRANCH  18  20
ATOM     20  C   UNL A   1      33.860  23.327  24.246  1.00  0.00     0.041 A 
ATOM     21  C   UNL A   1      34.857  23.267  23.267  1.00  0.00     0.029 A 
ATOM     22  C   UNL A   1      34.225  23.423  25.592  1.00  0.00     0.029 A 
ATOM     23  C   UNL A   1      36.198  23.427  23.625  1.00  0.00     0.041 A 
ATOM     24  C   UNL A   1      35.565  23.577  25.951  1.00  0.00     0.041 A 
ATOM     25  C   UNL A   1      36.538  23.599  24.961  1.00  0.00     0.123 A 
ATOM     26  F   UNL A   1      37.820  23.776  25.304  1.00  0.00    -0.207 F 
ENDBRANCH  18  20
ENDBRANCH  12  16
ENDBRANCH   4   7
ENDBRANCH   2   3
ENDBRANCH   1   2
BRANCH   1  27
ATOM     27  C   UNL A   1      35.368  31.551  28.269  1.00  0.00     0.118 C 
BRANCH  27  28
ATOM     28  N   UNL A   1      35.308  31.653  29.723  1.00  0.00    -0.352 N 
ATOM     29  C   UNL A   1      36.120  31.097  30.681  1.00  0.00     0.251 C 
ATOM     30  H   UNL A   1      34.573  32.208  30.072  1.00  0.00     0.163 HD
ATOM     31  O   UNL A   1      35.778  31.128  31.860  1.00  0.00    -0.269 OA
BRANCH  29  32
ATOM     32  C   UNL A   1      37.384  30.436  30.291  1.00  0.00     0.039 A 
ATOM     33  C   UNL A   1      37.814  30.520  28.965  1.00  0.00     0.014 A 
ATOM     34  C   UNL A   1      38.152  29.747  31.234  1.00  0.00     0.014 A 
ATOM     35  C   UNL A   1      39.061  30.004  28.607  1.00  0.00     0.010 A 
ATOM     36  C   UNL A   1      39.428  29.306  30.896  1.00  0.00     0.010 A 
ATOM     37  C   UNL A   1      39.902  29.446  29.584  1.00  0.00    -0.014 A 
BRANCH  37  38
ATOM     38  C   UNL A   1      41.304  29.061  29.273  1.00  0.00     0.031 A 
ATOM     39  C   UNL A   1      42.391  30.101  29.244  1.00  0.00     0.074 A 
ATOM     40  C   UNL A   1      41.569  27.789  28.909  1.00  0.00     0.049 A 
ATOM     41  N   UNL A   1      43.637  29.976  28.873  1.00  0.00    -0.248 NA
ATOM     42  C   UNL A   1      42.023  31.464  29.663  1.00  0.00     0.031 C 
ATOM     43  C   UNL A   1      40.584  26.705  28.839  1.00  0.00     0.029 A 
ATOM     44  N   UNL A   1      42.738  27.194  28.498  1.00  0.00    -0.354 N 
ATOM     45  C   UNL A   1      44.198  31.242  28.989  1.00  0.00     0.074 A 
ATOM     46  C   UNL A   1      43.148  32.131  29.439  1.00  0.00     0.031 C 
ATOM     47  C   UNL A   1      41.188  25.584  28.415  1.00  0.00     0.029 A 
ATOM     48  C   UNL A   1      42.589  25.875  28.134  1.00  0.00     0.049 A 
ATOM     49  H   UNL A   1      43.600  27.667  28.468  1.00  0.00     0.167 HD
ATOM     50  C   UNL A   1      45.475  31.623  28.753  1.00  0.00     0.037 A 
ATOM     51  C   UNL A   1      43.471  25.006  27.603  1.00  0.00     0.037 A 
ATOM     52  C   UNL A   1      46.522  30.722  28.344  1.00  0.00     0.049 A 
ATOM     53  C   UNL A   1      44.882  25.461  27.346  1.00  0.00     0.074 A 
ATOM     54  C   UNL A   1      47.870  30.991  28.188  1.00  0.00     0.029 A 
ATOM     55  N   UNL A   1      46.339  29.388  28.013  1.00  0.00    -0.354 N 
ATOM     56  N   UNL A   1      45.420  26.637  27.568  1.00  0.00    -0.248 NA
ATOM     57  C   UNL A   1      45.807  24.479  26.762  1.00  0.00     0.031 C 
ATOM     58  C   UNL A   1      48.493  29.837  27.705  1.00  0.00     0.029 A 
ATOM     59  C   UNL A   1      47.542  28.834  27.610  1.00  0.00     0.049 A 
ATOM     60  H   UNL A   1      45.481  28.907  28.058  1.00  0.00     0.167 HD
ATOM     61  C   UNL A   1      46.747  26.530  27.165  1.00  0.00     0.074 A 
ATOM     62  C   UNL A   1      46.937  25.169  26.710  1.00  0.00     0.031 C 
ATOM     63  C   UNL A   1      47.717  27.475  27.163  1.00  0.00     0.037 A 
BRANCH  50  64
ATOM     64  C   UNL A   1      45.836  33.071  28.930  1.00  0.00     0.058 A 
ATOM     65  C   UNL A   1      46.354  33.559  30.138  1.00  0.00     0.135 A 
ATOM     66  C   UNL A   1      45.769  33.954  27.840  1.00  0.00     0.135 A 
ATOM     67  F   UNL A   1      46.426  32.760  31.216  1.00  0.00    -0.206 F 
ATOM     68  C   UNL A   1      46.794  34.873  30.261  1.00  0.00     0.059 A 
ATOM     69  C   UNL A   1      46.226  35.265  27.933  1.00  0.00     0.059 A 
ATOM     70  F   UNL A   1      45.277  33.538  26.662  1.00  0.00    -0.206 F 
ATOM     71  C   UNL A   1      46.737  35.716  29.149  1.00  0.00     0.060 A 
BRANCH  71  72
ATOM     72  S   UNL A   1      47.373  37.398  29.310  1.00  0.00     0.124 S 
ATOM     73  O   UNL A   1      48.803  37.190  29.102  1.00  0.00    -0.237 OA
ATOM     74  O   UNL A   1      46.673  38.097  28.238  1.00  0.00    -0.237 OA
ATOM     75  O   UNL A   1      46.985  37.781  30.663  1.00  0.00    -0.744 OA
ENDBRANCH  71  72
ENDBRANCH  50  64
BRANCH  51  76
ATOM     76  C   UNL A   1      43.044  23.626  27.241  1.00  0.00     0.058 A 
ATOM     77  C   UNL A   1      42.977  22.610  28.206  1.00  0.00     0.135 A 
ATOM     78  C   UNL A   1      42.722  23.289  25.916  1.00  0.00     0.135 A 
ATOM     79  F   UNL A   1      43.281  22.879  29.485  1.00  0.00    -0.206 F 
ATOM     80  C   UNL A   1      42.639  21.303  27.867  1.00  0.00     0.059 A 
ATOM     81  C   UNL A   1      42.352  21.996  25.558  1.00  0.00     0.059 A 
ATOM     82  F   UNL A   1      42.754  24.226  24.957  1.00  0.00    -0.206 F 
ATOM     83  C   UNL A   1      42.332  21.006  26.538  1.00  0.00     0.060 A 
BRANCH  83  84
ATOM     84  S   UNL A   1      41.885  19.309  26.108  1.00  0.00     0.124 S 
ATOM     85  O   UNL A   1      42.715  19.077  24.932  1.00  0.00    -0.237 OA
ATOM     86  O   UNL A   1      42.262  18.576  27.311  1.00  0.00    -0.237 OA
ATOM     87  O   UNL A   1      40.449  19.393  25.861  1.00  0.00    -0.744 OA
ENDBRANCH  83  84
ENDBRANCH  51  76
BRANCH  63  88
ATOM     88  C   UNL A   1      49.078  27.076  26.664  1.00  0.00     0.058 A 
ATOM     89  C   UNL A   1      50.039  26.524  27.525  1.00  0.00     0.135 A 
ATOM     90  C   UNL A   1      49.395  27.174  25.300  1.00  0.00     0.135 A 
ATOM     91  F   UNL A   1      49.788  26.419  28.840  1.00  0.00    -0.206 F 
ATOM     92  C   UNL A   1      51.274  26.093  27.053  1.00  0.00     0.059 A 
ATOM     93  C   UNL A   1      50.613  26.723  24.801  1.00  0.00     0.059 A 
ATOM     94  F   UNL A   1      48.508  27.686  24.434  1.00  0.00    -0.206 F 
ATOM     95  C   UNL A   1      51.549  26.189  25.686  1.00  0.00     0.060 A 
BRANCH  95  96
ATOM     96  S   UNL A   1      53.133  25.572  25.081  1.00  0.00     0.124 S 
ATOM     97  O   UNL A   1      53.052  24.159  25.432  1.00  0.00    -0.237 OA
ATOM     98  O   UNL A   1      53.061  25.876  23.655  1.00  0.00    -0.237 OA
ATOM     99  O   UNL A   1      54.112  26.350  25.834  1.00  0.00    -0.744 OA
ENDBRANCH  95  96
ENDBRANCH  63  88
ENDBRANCH  37  38
ENDBRANCH  29  32
ENDBRANCH  27  28
ENDBRANCH   1  27
TORSDOF 16
ENDMDL
