MODEL 1
REMARK VINA RESULT:     -11.6      0.000      0.000
REMARK SMILES O=C(NCCCNC(=O)[C@H](c1ccccc1)N1C(=O)/C(=C/c2ccc(-c3nc4ccccc4s3)o2)SC1=S)c1ccc(-c2c3nc(c(-c4c(F)cc(S(=O)(=O)[O-])cc4F)c4ccc([nH]4)c(-c4c(F)cc(S(=O)(=O)[O-])cc4F)c4nc(c(-c5c(F)cc(S(=O)(=O)[O-])cc5F)c5ccc2[nH]5)C=C4)C=C3)cc1
REMARK SMILES IDX 5 1 4 2 3 3 1 4 2 5 39 7 40 8 104 9 41 10 103 11 42 12 43 13
REMARK SMILES IDX 44 14 97 15 45 16 102 17 96 18 98 19 46 20 101 21 95 22
REMARK SMILES IDX 94 23 47 25 81 26 60 27 80 28 61 29 64 30 79 31 99 32 62 33
REMARK SMILES IDX 63 34 78 36 100 37 65 38 48 39 49 40 58 41 50 42 51 43 57 44
REMARK SMILES IDX 59 45 52 46 53 47 54 48 55 49 56 50 82 51 83 52 92 53 84 54
REMARK SMILES IDX 85 55 91 56 93 57 86 58 87 59 88 60 89 61 90 62 66 63 67 64
REMARK SMILES IDX 76 65 68 66 69 67 75 68 77 69 70 70 71 71 72 72 73 73 74 74
REMARK SMILES IDX 6 75 7 76 8 77 9 79 10 80 17 81 18 82 37 83 19 84 20 85
REMARK SMILES IDX 36 86 38 87 21 88 22 89 23 90 35 91 24 92 25 93 26 94 27 95
REMARK SMILES IDX 34 96 28 97 33 98 29 99 32 100 30 101 31 102 11 103 12 104
REMARK SMILES IDX 16 105 13 106 15 107 14 108
REMARK H PARENT 3 6 98 24 64 35 7 78
REMARK Flexibility Score: inf
ROOT
ATOM      1  C   UNL A   1      45.671  38.353  30.541  1.00  0.00     0.042 C 
ENDROOT
BRANCH   1   2
ATOM      2  C   UNL A   1      46.233  37.928  29.191  1.00  0.00     0.118 C 
BRANCH   2   3
ATOM      3  N   UNL A   1      47.683  37.795  29.204  1.00  0.00    -0.352 N 
ATOM      4  O   UNL A   1      49.678  36.793  29.456  1.00  0.00    -0.269 OA
ATOM      5  C   UNL A   1      48.477  36.672  29.225  1.00  0.00     0.251 C 
ATOM      6  H   UNL A   1      48.175  38.647  29.197  1.00  0.00     0.163 HD
BRANCH   5   7
ATOM      7  C   UNL A   1      47.903  35.328  28.983  1.00  0.00     0.039 A 
ATOM      8  C   UNL A   1      47.431  34.968  27.722  1.00  0.00     0.014 A 
ATOM      9  C   UNL A   1      47.886  34.388  30.021  1.00  0.00     0.014 A 
ATOM     10  C   UNL A   1      46.805  33.741  27.535  1.00  0.00     0.010 A 
ATOM     11  C   UNL A   1      47.354  33.112  29.803  1.00  0.00     0.010 A 
ATOM     12  C   UNL A   1      46.786  32.785  28.564  1.00  0.00    -0.014 A 
BRANCH  12  13
ATOM     13  C   UNL A   1      46.247  31.430  28.273  1.00  0.00     0.031 A 
ATOM     14  C   UNL A   1      47.123  30.337  27.726  1.00  0.00     0.074 A 
ATOM     15  C   UNL A   1      44.951  31.184  28.557  1.00  0.00     0.049 A 
ATOM     16  N   UNL A   1      46.812  29.096  27.448  1.00  0.00    -0.248 NA
ATOM     17  C   UNL A   1      48.528  30.677  27.449  1.00  0.00     0.031 C 
ATOM     18  C   UNL A   1      44.000  32.175  29.072  1.00  0.00     0.029 A 
ATOM     19  N   UNL A   1      44.212  30.032  28.478  1.00  0.00    -0.354 N 
ATOM     20  C   UNL A   1      47.973  28.508  26.959  1.00  0.00     0.074 A 
ATOM     21  C   UNL A   1      48.989  29.540  26.944  1.00  0.00     0.031 C 
ATOM     22  C   UNL A   1      42.825  31.578  29.313  1.00  0.00     0.029 A 
ATOM     23  C   UNL A   1      42.913  30.182  28.905  1.00  0.00     0.049 A 
ATOM     24  H   UNL A   1      44.577  29.179  28.147  1.00  0.00     0.167 HD
ATOM     25  C   UNL A   1      48.173  27.225  26.573  1.00  0.00     0.037 A 
ATOM     26  C   UNL A   1      41.896  29.302  28.944  1.00  0.00     0.037 A 
ATOM     27  C   UNL A   1      47.151  26.207  26.593  1.00  0.00     0.049 A 
ATOM     28  C   UNL A   1      42.140  27.894  28.485  1.00  0.00     0.074 A 
ATOM     29  C   UNL A   1      47.252  24.877  26.220  1.00  0.00     0.029 A 
ATOM     30  N   UNL A   1      45.842  26.403  27.011  1.00  0.00    -0.354 N 
ATOM     31  N   UNL A   1      43.250  27.356  28.039  1.00  0.00    -0.248 NA
ATOM     32  C   UNL A   1      40.998  26.974  28.532  1.00  0.00     0.031 C 
ATOM     33  C   UNL A   1      45.996  24.279  26.378  1.00  0.00     0.029 A 
ATOM     34  C   UNL A   1      45.124  25.223  26.894  1.00  0.00     0.049 A 
ATOM     35  H   UNL A   1      45.477  27.255  27.342  1.00  0.00     0.167 HD
ATOM     36  C   UNL A   1      42.942  26.030  27.763  1.00  0.00     0.074 A 
ATOM     37  C   UNL A   1      41.550  25.842  28.119  1.00  0.00     0.031 C 
ATOM     38  C   UNL A   1      43.738  25.056  27.256  1.00  0.00     0.037 A 
BRANCH  25  39
ATOM     39  C   UNL A   1      49.547  26.844  26.088  1.00  0.00     0.058 A 
ATOM     40  C   UNL A   1      50.520  26.337  26.963  1.00  0.00     0.135 A 
ATOM     41  C   UNL A   1      49.879  26.936  24.726  1.00  0.00     0.135 A 
ATOM     42  F   UNL A   1      50.262  26.240  28.278  1.00  0.00    -0.206 F 
ATOM     43  C   UNL A   1      51.779  25.955  26.512  1.00  0.00     0.059 A 
ATOM     44  C   UNL A   1      51.125  26.536  24.248  1.00  0.00     0.059 A 
ATOM     45  F   UNL A   1      48.988  27.412  23.844  1.00  0.00    -0.206 F 
ATOM     46  C   UNL A   1      52.073  26.058  25.151  1.00  0.00     0.060 A 
BRANCH  46  47
ATOM     47  S   UNL A   1      53.710  25.551  24.582  1.00  0.00     0.124 S 
ATOM     48  O   UNL A   1      53.598  24.096  24.634  1.00  0.00    -0.237 OA
ATOM     49  O   UNL A   1      53.770  26.134  23.246  1.00  0.00    -0.237 OA
ATOM     50  O   UNL A   1      54.612  26.146  25.563  1.00  0.00    -0.744 OA
ENDBRANCH  46  47
ENDBRANCH  25  39
BRANCH  26  51
ATOM     51  C   UNL A   1      40.554  29.739  29.414  1.00  0.00     0.058 A 
ATOM     52  C   UNL A   1      40.302  29.995  30.769  1.00  0.00     0.135 A 
ATOM     53  C   UNL A   1      39.496  29.918  28.508  1.00  0.00     0.135 A 
ATOM     54  F   UNL A   1      41.281  29.837  31.674  1.00  0.00    -0.206 F 
ATOM     55  C   UNL A   1      39.045  30.388  31.215  1.00  0.00     0.059 A 
ATOM     56  C   UNL A   1      38.239  30.341  28.924  1.00  0.00     0.059 A 
ATOM     57  F   UNL A   1      39.690  29.707  27.196  1.00  0.00    -0.206 F 
ATOM     58  C   UNL A   1      38.019  30.557  30.283  1.00  0.00     0.060 A 
BRANCH  58  59
ATOM     59  S   UNL A   1      36.395  31.092  30.864  1.00  0.00     0.124 S 
ATOM     60  O   UNL A   1      36.209  30.240  32.032  1.00  0.00    -0.237 OA
ATOM     61  O   UNL A   1      36.615  32.509  31.135  1.00  0.00    -0.237 OA
ATOM     62  O   UNL A   1      35.524  30.808  29.728  1.00  0.00    -0.744 OA
ENDBRANCH  58  59
ENDBRANCH  26  51
BRANCH  38  63
ATOM     63  C   UNL A   1      43.124  23.695  27.086  1.00  0.00     0.058 A 
ATOM     64  C   UNL A   1      43.009  22.799  28.161  1.00  0.00     0.135 A 
ATOM     65  C   UNL A   1      42.625  23.291  25.837  1.00  0.00     0.135 A 
ATOM     66  F   UNL A   1      43.479  23.134  29.373  1.00  0.00    -0.206 F 
ATOM     67  C   UNL A   1      42.451  21.536  27.996  1.00  0.00     0.059 A 
ATOM     68  C   UNL A   1      42.038  22.043  25.656  1.00  0.00     0.059 A 
ATOM     69  F   UNL A   1      42.703  24.115  24.780  1.00  0.00    -0.206 F 
ATOM     70  C   UNL A   1      41.970  21.167  26.738  1.00  0.00     0.060 A 
BRANCH  70  71
ATOM     71  S   UNL A   1      41.232  19.531  26.539  1.00  0.00     0.124 S 
ATOM     72  O   UNL A   1      41.045  19.124  27.928  1.00  0.00    -0.237 OA
ATOM     73  O   UNL A   1      40.011  19.827  25.796  1.00  0.00    -0.237 OA
ATOM     74  O   UNL A   1      42.245  18.790  25.797  1.00  0.00    -0.744 OA
ENDBRANCH  70  71
ENDBRANCH  38  63
ENDBRANCH  12  13
ENDBRANCH   5   7
ENDBRANCH   2   3
ENDBRANCH   1   2
BRANCH   1  75
ATOM     75  C   UNL A   1      44.150  38.432  30.581  1.00  0.00     0.117 C 
BRANCH  75  76
ATOM     76  N   UNL A   1      43.614  39.777  30.418  1.00  0.00    -0.354 N 
ATOM     77  C   UNL A   1      42.709  40.313  29.543  1.00  0.00     0.247 C 
ATOM     78  H   UNL A   1      43.974  40.428  31.063  1.00  0.00     0.163 HD
ATOM     79  O   UNL A   1      42.130  41.332  29.951  1.00  0.00    -0.272 OA
BRANCH  77  80
ATOM     80  C   UNL A   1      42.268  39.665  28.194  1.00  0.00     0.211 C 
BRANCH  80  81
ATOM     81  N   UNL A   1      42.568  40.444  26.955  1.00  0.00    -0.276 N 
ATOM     82  C   UNL A   1      41.595  40.718  26.003  1.00  0.00     0.267 C 
ATOM     83  C   UNL A   1      43.782  41.084  26.761  1.00  0.00     0.149 C 
ATOM     84  O   UNL A   1      40.404  40.424  26.053  1.00  0.00    -0.268 OA
ATOM     85  C   UNL A   1      42.179  41.495  24.865  1.00  0.00     0.084 C 
ATOM     86  S   UNL A   1      43.708  42.110  25.344  1.00  0.00    -0.054 SA
ATOM     87  S   UNL A   1      45.198  40.987  27.641  1.00  0.00    -0.052 S 
ATOM     88  C   UNL A   1      41.578  41.662  23.674  1.00  0.00     0.068 C 
BRANCH  88  89
ATOM     89  C   UNL A   1      42.157  42.410  22.602  1.00  0.00     0.129 A 
ATOM     90  C   UNL A   1      41.547  43.198  21.632  1.00  0.00     0.051 A 
ATOM     91  O   UNL A   1      43.518  42.452  22.363  1.00  0.00    -0.454 OA
ATOM     92  C   UNL A   1      42.550  43.674  20.763  1.00  0.00     0.054 A 
ATOM     93  C   UNL A   1      43.758  43.196  21.233  1.00  0.00     0.163 A 
BRANCH  93  94
ATOM     94  C   UNL A   1      45.048  43.417  20.637  1.00  0.00     0.160 A 
ATOM     95  N   UNL A   1      46.122  42.802  21.088  1.00  0.00    -0.233 NA
ATOM     96  S   UNL A   1      45.311  44.537  19.368  1.00  0.00    -0.111 S 
ATOM     97  C   UNL A   1      47.243  43.256  20.421  1.00  0.00     0.082 A 
ATOM     98  C   UNL A   1      47.009  44.238  19.457  1.00  0.00     0.055 A 
ATOM     99  C   UNL A   1      48.566  42.826  20.652  1.00  0.00     0.030 A 
ATOM    100  C   UNL A   1      48.062  44.824  18.732  1.00  0.00     0.021 A 
ATOM    101  C   UNL A   1      49.620  43.401  19.935  1.00  0.00     0.002 A 
ATOM    102  C   UNL A   1      49.368  44.393  18.993  1.00  0.00     0.002 A 
ENDBRANCH  93  94
ENDBRANCH  88  89
ENDBRANCH  80  81
BRANCH  80 103
ATOM    103  C   UNL A   1      42.543  38.180  27.992  1.00  0.00    -0.016 A 
ATOM    104  C   UNL A   1      41.858  37.185  28.699  1.00  0.00     0.006 A 
ATOM    105  C   UNL A   1      43.560  37.790  27.092  1.00  0.00     0.006 A 
ATOM    106  C   UNL A   1      42.158  35.836  28.474  1.00  0.00     0.000 A 
ATOM    107  C   UNL A   1      43.850  36.448  26.868  1.00  0.00     0.000 A 
ATOM    108  C   UNL A   1      43.144  35.471  27.557  1.00  0.00     0.000 A 
ENDBRANCH  80 103
ENDBRANCH  77  80
ENDBRANCH  75  76
ENDBRANCH   1  75
TORSDOF 17
ENDMDL
MODEL 2
REMARK VINA RESULT:     -11.4      5.138     13.549
REMARK SMILES O=C(NCCCNC(=O)[C@H](c1ccccc1)N1C(=O)/C(=C/c2ccc(-c3nc4ccccc4s3)o2)SC1=S)c1ccc(-c2c3nc(c(-c4c(F)cc(S(=O)(=O)[O-])cc4F)c4ccc([nH]4)c(-c4c(F)cc(S(=O)(=O)[O-])cc4F)c4nc(c(-c5c(F)cc(S(=O)(=O)[O-])cc5F)c5ccc2[nH]5)C=C4)C=C3)cc1
REMARK SMILES IDX 5 1 4 2 3 3 1 4 2 5 39 7 40 8 104 9 41 10 103 11 42 12 43 13
REMARK SMILES IDX 44 14 97 15 45 16 102 17 96 18 98 19 46 20 101 21 95 22
REMARK SMILES IDX 94 23 47 25 81 26 60 27 80 28 61 29 64 30 79 31 99 32 62 33
REMARK SMILES IDX 63 34 78 36 100 37 65 38 48 39 49 40 58 41 50 42 51 43 57 44
REMARK SMILES IDX 59 45 52 46 53 47 54 48 55 49 56 50 82 51 83 52 92 53 84 54
REMARK SMILES IDX 85 55 91 56 93 57 86 58 87 59 88 60 89 61 90 62 66 63 67 64
REMARK SMILES IDX 76 65 68 66 69 67 75 68 77 69 70 70 71 71 72 72 73 73 74 74
REMARK SMILES IDX 6 75 7 76 8 77 9 79 10 80 17 81 18 82 37 83 19 84 20 85
REMARK SMILES IDX 36 86 38 87 21 88 22 89 23 90 35 91 24 92 25 93 26 94 27 95
REMARK SMILES IDX 34 96 28 97 33 98 29 99 32 100 30 101 31 102 11 103 12 104
REMARK SMILES IDX 16 105 13 106 15 107 14 108
REMARK H PARENT 3 6 98 24 64 35 7 78
REMARK Flexibility Score: inf
ROOT
ATOM      1  C   UNL A   1      42.614  22.675  25.342  1.00  0.00     0.042 C 
ENDROOT
BRANCH   1   2
ATOM      2  C   UNL A   1      41.565  22.401  26.410  1.00  0.00     0.118 C 
BRANCH   2   3
ATOM      3  N   UNL A   1      40.206  22.584  25.921  1.00  0.00    -0.352 N 
ATOM      4  O   UNL A   1      38.095  23.353  25.880  1.00  0.00    -0.269 OA
ATOM      5  C   UNL A   1      39.253  23.517  26.258  1.00  0.00     0.251 C 
ATOM      6  H   UNL A   1      39.923  21.935  25.237  1.00  0.00     0.163 HD
BRANCH   5   7
ATOM      7  C   UNL A   1      39.603  24.704  27.074  1.00  0.00     0.039 A 
ATOM      8  C   UNL A   1      39.285  24.759  28.430  1.00  0.00     0.014 A 
ATOM      9  C   UNL A   1      40.312  25.758  26.487  1.00  0.00     0.014 A 
ATOM     10  C   UNL A   1      39.531  25.918  29.156  1.00  0.00     0.010 A 
ATOM     11  C   UNL A   1      40.657  26.882  27.248  1.00  0.00     0.010 A 
ATOM     12  C   UNL A   1      40.247  26.982  28.585  1.00  0.00    -0.014 A 
BRANCH  12  13
ATOM     13  C   UNL A   1      40.624  28.136  29.444  1.00  0.00     0.031 A 
ATOM     14  C   UNL A   1      39.709  29.316  29.617  1.00  0.00     0.074 A 
ATOM     15  C   UNL A   1      41.796  28.080  30.110  1.00  0.00     0.049 A 
ATOM     16  N   UNL A   1      39.879  30.385  30.353  1.00  0.00    -0.248 NA
ATOM     17  C   UNL A   1      38.444  29.303  28.865  1.00  0.00     0.031 C 
ATOM     18  C   UNL A   1      42.773  26.992  30.003  1.00  0.00     0.029 A 
ATOM     19  N   UNL A   1      42.358  28.936  31.022  1.00  0.00    -0.354 N 
ATOM     20  C   UNL A   1      38.752  31.174  30.152  1.00  0.00     0.074 A 
ATOM     21  C   UNL A   1      37.919  30.476  29.194  1.00  0.00     0.031 C 
ATOM     22  C   UNL A   1      43.784  27.218  30.854  1.00  0.00     0.029 A 
ATOM     23  C   UNL A   1      43.565  28.499  31.514  1.00  0.00     0.049 A 
ATOM     24  H   UNL A   1      41.937  29.783  31.298  1.00  0.00     0.167 HD
ATOM     25  C   UNL A   1      38.437  32.362  30.724  1.00  0.00     0.037 A 
ATOM     26  C   UNL A   1      44.417  29.072  32.384  1.00  0.00     0.037 A 
ATOM     27  C   UNL A   1      39.276  33.046  31.677  1.00  0.00     0.049 A 
ATOM     28  C   UNL A   1      44.054  30.400  32.982  1.00  0.00     0.074 A 
ATOM     29  C   UNL A   1      39.048  34.255  32.314  1.00  0.00     0.029 A 
ATOM     30  N   UNL A   1      40.501  32.582  32.134  1.00  0.00    -0.354 N 
ATOM     31  N   UNL A   1      42.976  31.122  32.788  1.00  0.00    -0.248 NA
ATOM     32  C   UNL A   1      45.020  30.993  33.914  1.00  0.00     0.031 C 
ATOM     33  C   UNL A   1      40.152  34.539  33.126  1.00  0.00     0.029 A 
ATOM     34  C   UNL A   1      41.046  33.485  33.034  1.00  0.00     0.049 A 
ATOM     35  H   UNL A   1      40.922  31.736  31.860  1.00  0.00     0.167 HD
ATOM     36  C   UNL A   1      43.129  32.250  33.583  1.00  0.00     0.074 A 
ATOM     37  C   UNL A   1      44.390  32.100  34.282  1.00  0.00     0.031 C 
ATOM     38  C   UNL A   1      42.303  33.317  33.720  1.00  0.00     0.037 A 
BRANCH  25  39
ATOM     39  C   UNL A   1      37.133  33.006  30.334  1.00  0.00     0.058 A 
ATOM     40  C   UNL A   1      35.999  32.924  31.157  1.00  0.00     0.135 A 
ATOM     41  C   UNL A   1      37.028  33.756  29.151  1.00  0.00     0.135 A 
ATOM     42  F   UNL A   1      36.037  32.208  32.292  1.00  0.00    -0.206 F 
ATOM     43  C   UNL A   1      34.802  33.545  30.812  1.00  0.00     0.059 A 
ATOM     44  C   UNL A   1      35.847  34.406  28.798  1.00  0.00     0.059 A 
ATOM     45  F   UNL A   1      38.081  33.870  28.327  1.00  0.00    -0.206 F 
ATOM     46  C   UNL A   1      34.735  34.285  29.630  1.00  0.00     0.060 A 
BRANCH  46  47
ATOM     47  S   UNL A   1      33.176  35.089  29.203  1.00  0.00     0.124 S 
ATOM     48  O   UNL A   1      32.472  35.056  30.482  1.00  0.00    -0.237 OA
ATOM     49  O   UNL A   1      33.616  36.406  28.757  1.00  0.00    -0.237 OA
ATOM     50  O   UNL A   1      32.624  34.229  28.161  1.00  0.00    -0.744 OA
ENDBRANCH  46  47
ENDBRANCH  25  39
BRANCH  26  51
ATOM     51  C   UNL A   1      45.700  28.400  32.718  1.00  0.00     0.058 A 
ATOM     52  C   UNL A   1      45.750  27.321  33.613  1.00  0.00     0.135 A 
ATOM     53  C   UNL A   1      46.908  28.822  32.138  1.00  0.00     0.135 A 
ATOM     54  F   UNL A   1      44.623  26.882  34.195  1.00  0.00    -0.206 F 
ATOM     55  C   UNL A   1      46.950  26.701  33.941  1.00  0.00     0.059 A 
ATOM     56  C   UNL A   1      48.116  28.197  32.425  1.00  0.00     0.059 A 
ATOM     57  F   UNL A   1      46.914  29.836  31.259  1.00  0.00    -0.206 F 
ATOM     58  C   UNL A   1      48.129  27.148  33.341  1.00  0.00     0.060 A 
BRANCH  58  59
ATOM     59  S   UNL A   1      49.681  26.322  33.751  1.00  0.00     0.124 S 
ATOM     60  O   UNL A   1      49.203  25.065  34.314  1.00  0.00    -0.237 OA
ATOM     61  O   UNL A   1      50.336  26.232  32.449  1.00  0.00    -0.237 OA
ATOM     62  O   UNL A   1      50.309  27.240  34.696  1.00  0.00    -0.744 OA
ENDBRANCH  58  59
ENDBRANCH  26  51
BRANCH  38  63
ATOM     63  C   UNL A   1      42.730  34.388  34.684  1.00  0.00     0.058 A 
ATOM     64  C   UNL A   1      43.603  35.419  34.301  1.00  0.00     0.135 A 
ATOM     65  C   UNL A   1      42.243  34.395  36.001  1.00  0.00     0.135 A 
ATOM     66  F   UNL A   1      44.103  35.452  33.056  1.00  0.00    -0.206 F 
ATOM     67  C   UNL A   1      44.005  36.400  35.200  1.00  0.00     0.059 A 
ATOM     68  C   UNL A   1      42.610  35.383  36.909  1.00  0.00     0.059 A 
ATOM     69  F   UNL A   1      41.400  33.436  36.415  1.00  0.00    -0.206 F 
ATOM     70  C   UNL A   1      43.504  36.372  36.503  1.00  0.00     0.060 A 
BRANCH  70  71
ATOM     71  S   UNL A   1      44.019  37.662  37.656  1.00  0.00     0.124 S 
ATOM     72  O   UNL A   1      44.055  38.834  36.788  1.00  0.00    -0.237 OA
ATOM     73  O   UNL A   1      42.949  37.641  38.648  1.00  0.00    -0.237 OA
ATOM     74  O   UNL A   1      45.316  37.193  38.133  1.00  0.00    -0.744 OA
ENDBRANCH  70  71
ENDBRANCH  38  63
ENDBRANCH  12  13
ENDBRANCH   5   7
ENDBRANCH   2   3
ENDBRANCH   1   2
BRANCH   1  75
ATOM     75  C   UNL A   1      43.247  24.058  25.435  1.00  0.00     0.117 C 
BRANCH  75  76
ATOM     76  N   UNL A   1      44.246  24.191  26.487  1.00  0.00    -0.354 N 
ATOM     77  C   UNL A   1      45.009  25.245  26.910  1.00  0.00     0.247 C 
ATOM     78  H   UNL A   1      44.402  23.361  26.992  1.00  0.00     0.163 HD
ATOM     79  O   UNL A   1      45.396  25.168  28.087  1.00  0.00    -0.272 OA
BRANCH  77  80
ATOM     80  C   UNL A   1      45.281  26.546  26.093  1.00  0.00     0.211 C 
BRANCH  80  81
ATOM     81  N   UNL A   1      45.198  27.832  26.848  1.00  0.00    -0.276 N 
ATOM     82  C   UNL A   1      44.060  28.628  26.824  1.00  0.00     0.267 C 
ATOM     83  C   UNL A   1      46.175  28.225  27.749  1.00  0.00     0.149 C 
ATOM     84  O   UNL A   1      42.998  28.389  26.255  1.00  0.00    -0.268 OA
ATOM     85  C   UNL A   1      44.264  29.859  27.650  1.00  0.00     0.084 C 
ATOM     86  S   UNL A   1      45.647  29.635  28.643  1.00  0.00    -0.054 SA
ATOM     87  S   UNL A   1      47.683  27.572  28.047  1.00  0.00    -0.052 S 
ATOM     88  C   UNL A   1      43.475  30.946  27.598  1.00  0.00     0.068 C 
BRANCH  88  89
ATOM     89  C   UNL A   1      43.691  32.110  28.400  1.00  0.00     0.129 A 
ATOM     90  C   UNL A   1      43.834  32.232  29.778  1.00  0.00     0.051 A 
ATOM     91  O   UNL A   1      43.792  33.382  27.867  1.00  0.00    -0.454 OA
ATOM     92  C   UNL A   1      43.966  33.602  30.083  1.00  0.00     0.054 A 
ATOM     93  C   UNL A   1      43.932  34.292  28.887  1.00  0.00     0.163 A 
BRANCH  93  94
ATOM     94  C   UNL A   1      44.009  35.720  28.728  1.00  0.00     0.160 A 
ATOM     95  N   UNL A   1      43.779  36.531  29.740  1.00  0.00    -0.233 NA
ATOM     96  S   UNL A   1      44.319  36.477  27.224  1.00  0.00    -0.111 S 
ATOM     97  C   UNL A   1      43.814  37.844  29.312  1.00  0.00     0.082 A 
ATOM     98  C   UNL A   1      44.065  38.023  27.950  1.00  0.00     0.055 A 
ATOM     99  C   UNL A   1      43.601  38.978  30.122  1.00  0.00     0.030 A 
ATOM    100  C   UNL A   1      44.085  39.302  27.366  1.00  0.00     0.021 A 
ATOM    101  C   UNL A   1      43.621  40.254  29.552  1.00  0.00     0.002 A 
ATOM    102  C   UNL A   1      43.852  40.410  28.189  1.00  0.00     0.002 A 
ENDBRANCH  93  94
ENDBRANCH  88  89
ENDBRANCH  80  81
BRANCH  80 103
ATOM    103  C   UNL A   1      46.458  26.548  25.127  1.00  0.00    -0.016 A 
ATOM    104  C   UNL A   1      46.755  27.643  24.305  1.00  0.00     0.006 A 
ATOM    105  C   UNL A   1      47.256  25.388  25.018  1.00  0.00     0.006 A 
ATOM    106  C   UNL A   1      47.848  27.586  23.433  1.00  0.00     0.000 A 
ATOM    107  C   UNL A   1      48.345  25.338  24.154  1.00  0.00     0.000 A 
ATOM    108  C   UNL A   1      48.644  26.441  23.365  1.00  0.00     0.000 A 
ENDBRANCH  80 103
ENDBRANCH  77  80
ENDBRANCH  75  76
ENDBRANCH   1  75
TORSDOF 17
ENDMDL
MODEL 3
REMARK VINA RESULT:     -11.3      1.795      8.271
REMARK SMILES O=C(NCCCNC(=O)[C@H](c1ccccc1)N1C(=O)/C(=C/c2ccc(-c3nc4ccccc4s3)o2)SC1=S)c1ccc(-c2c3nc(c(-c4c(F)cc(S(=O)(=O)[O-])cc4F)c4ccc([nH]4)c(-c4c(F)cc(S(=O)(=O)[O-])cc4F)c4nc(c(-c5c(F)cc(S(=O)(=O)[O-])cc5F)c5ccc2[nH]5)C=C4)C=C3)cc1
REMARK SMILES IDX 5 1 4 2 3 3 1 4 2 5 39 7 40 8 104 9 41 10 103 11 42 12 43 13
REMARK SMILES IDX 44 14 97 15 45 16 102 17 96 18 98 19 46 20 101 21 95 22
REMARK SMILES IDX 94 23 47 25 81 26 60 27 80 28 61 29 64 30 79 31 99 32 62 33
REMARK SMILES IDX 63 34 78 36 100 37 65 38 48 39 49 40 58 41 50 42 51 43 57 44
REMARK SMILES IDX 59 45 52 46 53 47 54 48 55 49 56 50 82 51 83 52 92 53 84 54
REMARK SMILES IDX 85 55 91 56 93 57 86 58 87 59 88 60 89 61 90 62 66 63 67 64
REMARK SMILES IDX 76 65 68 66 69 67 75 68 77 69 70 70 71 71 72 72 73 73 74 74
REMARK SMILES IDX 6 75 7 76 8 77 9 79 10 80 17 81 18 82 37 83 19 84 20 85
REMARK SMILES IDX 36 86 38 87 21 88 22 89 23 90 35 91 24 92 25 93 26 94 27 95
REMARK SMILES IDX 34 96 28 97 33 98 29 99 32 100 30 101 31 102 11 103 12 104
REMARK SMILES IDX 16 105 13 106 15 107 14 108
REMARK H PARENT 3 6 98 24 64 35 7 78
REMARK Flexibility Score: inf
ROOT
ATOM      1  C   UNL A   1      45.548  37.657  30.132  1.00  0.00     0.042 C 
ENDROOT
BRANCH   1   2
ATOM      2  C   UNL A   1      46.109  37.930  28.744  1.00  0.00     0.118 C 
BRANCH   2   3
ATOM      3  N   UNL A   1      47.560  37.823  28.695  1.00  0.00    -0.352 N 
ATOM      4  O   UNL A   1      49.585  36.877  28.926  1.00  0.00    -0.269 OA
ATOM      5  C   UNL A   1      48.377  36.718  28.767  1.00  0.00     0.251 C 
ATOM      6  H   UNL A   1      48.034  38.679  28.592  1.00  0.00     0.163 HD
BRANCH   5   7
ATOM      7  C   UNL A   1      47.819  35.349  28.666  1.00  0.00     0.039 A 
ATOM      8  C   UNL A   1      47.378  34.845  27.443  1.00  0.00     0.014 A 
ATOM      9  C   UNL A   1      47.787  34.532  29.802  1.00  0.00     0.014 A 
ATOM     10  C   UNL A   1      46.766  33.599  27.384  1.00  0.00     0.010 A 
ATOM     11  C   UNL A   1      47.270  33.234  29.719  1.00  0.00     0.010 A 
ATOM     12  C   UNL A   1      46.732  32.764  28.512  1.00  0.00    -0.014 A 
BRANCH  12  13
ATOM     13  C   UNL A   1      46.210  31.379  28.364  1.00  0.00     0.031 A 
ATOM     14  C   UNL A   1      44.781  31.042  28.685  1.00  0.00     0.074 A 
ATOM     15  C   UNL A   1      47.041  30.431  27.885  1.00  0.00     0.049 A 
ATOM     16  N   UNL A   1      44.165  29.891  28.580  1.00  0.00    -0.248 NA
ATOM     17  C   UNL A   1      43.931  32.129  29.195  1.00  0.00     0.031 C 
ATOM     18  C   UNL A   1      48.456  30.640  27.557  1.00  0.00     0.029 A 
ATOM     19  N   UNL A   1      46.823  29.115  27.567  1.00  0.00    -0.354 N 
ATOM     20  C   UNL A   1      42.863  30.110  29.015  1.00  0.00     0.074 A 
ATOM     21  C   UNL A   1      42.785  31.499  29.419  1.00  0.00     0.031 C 
ATOM     22  C   UNL A   1      48.962  29.514  27.037  1.00  0.00     0.029 A 
ATOM     23  C   UNL A   1      47.933  28.481  27.059  1.00  0.00     0.049 A 
ATOM     24  H   UNL A   1      45.955  28.667  27.691  1.00  0.00     0.167 HD
ATOM     25  C   UNL A   1      41.827  29.237  29.058  1.00  0.00     0.037 A 
ATOM     26  C   UNL A   1      48.114  27.205  26.672  1.00  0.00     0.037 A 
ATOM     27  C   UNL A   1      41.918  27.856  28.651  1.00  0.00     0.049 A 
ATOM     28  C   UNL A   1      46.955  26.254  26.756  1.00  0.00     0.074 A 
ATOM     29  C   UNL A   1      40.927  26.889  28.657  1.00  0.00     0.029 A 
ATOM     30  N   UNL A   1      43.065  27.246  28.162  1.00  0.00    -0.354 N 
ATOM     31  N   UNL A   1      45.728  26.486  27.157  1.00  0.00    -0.248 NA
ATOM     32  C   UNL A   1      47.204  24.870  26.337  1.00  0.00     0.031 C 
ATOM     33  C   UNL A   1      41.484  25.685  28.208  1.00  0.00     0.029 A 
ATOM     34  C   UNL A   1      42.808  25.913  27.875  1.00  0.00     0.049 A 
ATOM     35  H   UNL A   1      43.932  27.692  28.037  1.00  0.00     0.167 HD
ATOM     36  C   UNL A   1      45.054  25.279  27.027  1.00  0.00     0.074 A 
ATOM     37  C   UNL A   1      46.003  24.327  26.484  1.00  0.00     0.031 C 
ATOM     38  C   UNL A   1      43.767  24.982  27.334  1.00  0.00     0.037 A 
BRANCH  25  39
ATOM     39  C   UNL A   1      40.503  29.742  29.567  1.00  0.00     0.058 A 
ATOM     40  C   UNL A   1      40.294  30.010  30.929  1.00  0.00     0.135 A 
ATOM     41  C   UNL A   1      39.448  30.012  28.680  1.00  0.00     0.135 A 
ATOM     42  F   UNL A   1      41.263  29.757  31.825  1.00  0.00    -0.206 F 
ATOM     43  C   UNL A   1      39.081  30.506  31.397  1.00  0.00     0.059 A 
ATOM     44  C   UNL A   1      38.234  30.532  29.123  1.00  0.00     0.059 A 
ATOM     45  F   UNL A   1      39.592  29.776  27.367  1.00  0.00    -0.206 F 
ATOM     46  C   UNL A   1      38.056  30.764  30.486  1.00  0.00     0.060 A 
BRANCH  46  47
ATOM     47  S   UNL A   1      36.491  31.414  31.110  1.00  0.00     0.124 S 
ATOM     48  O   UNL A   1      36.797  32.836  31.238  1.00  0.00    -0.237 OA
ATOM     49  O   UNL A   1      35.559  31.061  30.045  1.00  0.00    -0.237 OA
ATOM     50  O   UNL A   1      36.302  30.698  32.367  1.00  0.00    -0.744 OA
ENDBRANCH  46  47
ENDBRANCH  25  39
BRANCH  26  51
ATOM     51  C   UNL A   1      49.449  26.756  26.196  1.00  0.00     0.058 A 
ATOM     52  C   UNL A   1      50.327  26.056  27.036  1.00  0.00     0.135 A 
ATOM     53  C   UNL A   1      49.869  27.013  24.881  1.00  0.00     0.135 A 
ATOM     54  F   UNL A   1      49.971  25.788  28.302  1.00  0.00    -0.206 F 
ATOM     55  C   UNL A   1      51.583  25.649  26.600  1.00  0.00     0.059 A 
ATOM     56  C   UNL A   1      51.107  26.588  24.412  1.00  0.00     0.059 A 
ATOM     57  F   UNL A   1      49.059  27.661  24.029  1.00  0.00    -0.206 F 
ATOM     58  C   UNL A   1      51.964  25.922  25.285  1.00  0.00     0.060 A 
BRANCH  58  59
ATOM     59  S   UNL A   1      53.586  25.368  24.716  1.00  0.00     0.124 S 
ATOM     60  O   UNL A   1      53.479  25.583  23.279  1.00  0.00    -0.237 OA
ATOM     61  O   UNL A   1      54.487  26.266  25.432  1.00  0.00    -0.237 OA
ATOM     62  O   UNL A   1      53.632  23.974  25.146  1.00  0.00    -0.744 OA
ENDBRANCH  58  59
ENDBRANCH  26  51
BRANCH  38  63
ATOM     63  C   UNL A   1      43.309  23.577  27.060  1.00  0.00     0.058 A 
ATOM     64  C   UNL A   1      43.132  22.645  28.095  1.00  0.00     0.135 A 
ATOM     65  C   UNL A   1      43.025  23.165  25.749  1.00  0.00     0.135 A 
ATOM     66  F   UNL A   1      43.399  22.988  29.366  1.00  0.00    -0.206 F 
ATOM     67  C   UNL A   1      42.720  21.343  27.836  1.00  0.00     0.059 A 
ATOM     68  C   UNL A   1      42.585  21.874  25.469  1.00  0.00     0.059 A 
ATOM     69  F   UNL A   1      43.170  24.020  24.725  1.00  0.00    -0.206 F 
ATOM     70  C   UNL A   1      42.451  20.967  26.519  1.00  0.00     0.060 A 
BRANCH  70  71
ATOM     71  S   UNL A   1      41.900  19.278  26.196  1.00  0.00     0.124 S 
ATOM     72  O   UNL A   1      42.705  18.925  25.031  1.00  0.00    -0.237 OA
ATOM     73  O   UNL A   1      42.247  18.593  27.437  1.00  0.00    -0.237 OA
ATOM     74  O   UNL A   1      40.470  19.429  25.950  1.00  0.00    -0.744 OA
ENDBRANCH  70  71
ENDBRANCH  38  63
ENDBRANCH  12  13
ENDBRANCH   5   7
ENDBRANCH   2   3
ENDBRANCH   1   2
BRANCH   1  75
ATOM     75  C   UNL A   1      44.068  37.989  30.279  1.00  0.00     0.117 C 
BRANCH  75  76
ATOM     76  N   UNL A   1      43.718  38.626  31.542  1.00  0.00    -0.354 N 
ATOM     77  C   UNL A   1      43.504  39.931  31.892  1.00  0.00     0.247 C 
ATOM     78  H   UNL A   1      43.617  37.994  32.289  1.00  0.00     0.163 HD
ATOM     79  O   UNL A   1      42.784  40.091  32.890  1.00  0.00    -0.272 OA
BRANCH  77  80
ATOM     80  C   UNL A   1      43.959  41.173  31.062  1.00  0.00     0.211 C 
BRANCH  80  81
ATOM     81  N   UNL A   1      43.419  41.275  29.673  1.00  0.00    -0.276 N 
ATOM     82  C   UNL A   1      44.250  41.403  28.568  1.00  0.00     0.267 C 
ATOM     83  C   UNL A   1      42.077  41.079  29.385  1.00  0.00     0.149 C 
ATOM     84  O   UNL A   1      45.478  41.401  28.557  1.00  0.00    -0.268 OA
ATOM     85  C   UNL A   1      43.440  41.503  27.313  1.00  0.00     0.084 C 
ATOM     86  S   UNL A   1      41.831  41.011  27.653  1.00  0.00    -0.054 SA
ATOM     87  S   UNL A   1      40.772  40.926  30.415  1.00  0.00    -0.052 S 
ATOM     88  C   UNL A   1      43.925  41.916  26.130  1.00  0.00     0.068 C 
BRANCH  88  89
ATOM     89  C   UNL A   1      43.131  42.002  24.944  1.00  0.00     0.129 A 
ATOM     90  C   UNL A   1      41.922  41.391  24.632  1.00  0.00     0.051 A 
ATOM     91  O   UNL A   1      43.491  42.770  23.852  1.00  0.00    -0.454 OA
ATOM     92  C   UNL A   1      41.578  41.750  23.312  1.00  0.00     0.054 A 
ATOM     93  C   UNL A   1      42.566  42.598  22.851  1.00  0.00     0.163 A 
BRANCH  93  94
ATOM     94  C   UNL A   1      42.632  43.189  21.541  1.00  0.00     0.160 A 
ATOM     95  N   UNL A   1      41.537  43.477  20.867  1.00  0.00    -0.233 NA
ATOM     96  S   UNL A   1      44.108  43.490  20.725  1.00  0.00    -0.111 S 
ATOM     97  C   UNL A   1      41.865  43.937  19.606  1.00  0.00     0.082 A 
ATOM     98  C   UNL A   1      43.231  43.987  19.323  1.00  0.00     0.055 A 
ATOM     99  C   UNL A   1      40.947  44.327  18.610  1.00  0.00     0.030 A 
ATOM    100  C   UNL A   1      43.709  44.392  18.064  1.00  0.00     0.021 A 
ATOM    101  C   UNL A   1      41.411  44.734  17.356  1.00  0.00     0.002 A 
ATOM    102  C   UNL A   1      42.776  44.757  17.087  1.00  0.00     0.002 A 
ENDBRANCH  93  94
ENDBRANCH  88  89
ENDBRANCH  80  81
BRANCH  80 103
ATOM    103  C   UNL A   1      43.964  42.529  31.754  1.00  0.00    -0.016 A 
ATOM    104  C   UNL A   1      42.796  43.274  31.958  1.00  0.00     0.006 A 
ATOM    105  C   UNL A   1      45.196  43.082  32.165  1.00  0.00     0.006 A 
ATOM    106  C   UNL A   1      42.863  44.518  32.596  1.00  0.00     0.000 A 
ATOM    107  C   UNL A   1      45.258  44.316  32.804  1.00  0.00     0.000 A 
ATOM    108  C   UNL A   1      44.088  45.032  33.024  1.00  0.00     0.000 A 
ENDBRANCH  80 103
ENDBRANCH  77  80
ENDBRANCH  75  76
ENDBRANCH   1  75
TORSDOF 17
ENDMDL
