MODEL 1
REMARK VINA RESULT:     -11.8      0.000      0.000
REMARK SMILES O=C(NCCCNC(=O)c1ccc(-n2cccc2)c(F)c1)c1ccc(-c2c3nc(c(-c4c(F)cc(S(=O)(=O)[O-])cc4F)c4ccc([nH]4)c(-c4c(F)cc(S(=O)(=O)[O-])cc4F)c4nc(c(-c5c(F)cc(S(=O)(=O)[O-])cc5F)c5ccc2[nH]5)C=C4)C=C3)cc1
REMARK SMILES IDX 4 1 3 2 1 3 2 4 22 6 23 7 87 8 24 9 86 10 25 11 26 12 27 13
REMARK SMILES IDX 80 14 28 15 85 16 79 17 81 18 29 19 84 20 78 21 77 22 30 24
REMARK SMILES IDX 64 25 43 26 63 27 44 28 47 29 62 30 82 31 45 32 46 33 61 35
REMARK SMILES IDX 83 36 48 37 31 38 32 39 41 40 33 41 34 42 40 43 42 44 35 45
REMARK SMILES IDX 36 46 37 47 38 48 39 49 65 50 66 51 75 52 67 53 68 54 74 55
REMARK SMILES IDX 76 56 69 57 70 58 71 59 72 60 73 61 49 62 50 63 59 64 51 65
REMARK SMILES IDX 52 66 58 67 60 68 53 69 54 70 55 71 56 72 57 73 5 74 6 75
REMARK SMILES IDX 7 76 8 77 9 79 10 80 11 81 21 82 12 83 19 84 13 85 20 86
REMARK SMILES IDX 14 87 15 88 18 89 16 90 17 91
REMARK H PARENT 3 5 81 23 47 34 7 78
REMARK Flexibility Score: inf
ROOT
ATOM      1  C   UNL A   1      33.287  28.552  27.143  1.00  0.00     0.118 C 
ENDROOT
BRANCH   1   2
ATOM      2  N   UNL A   1      33.325  29.961  27.495  1.00  0.00    -0.352 N 
ATOM      3  O   UNL A   1      34.028  31.982  28.110  1.00  0.00    -0.269 OA
ATOM      4  C   UNL A   1      34.321  30.799  27.931  1.00  0.00     0.251 C 
ATOM      5  H   UNL A   1      32.453  30.410  27.403  1.00  0.00     0.163 HD
BRANCH   4   6
ATOM      6  C   UNL A   1      35.696  30.337  28.247  1.00  0.00     0.039 A 
ATOM      7  C   UNL A   1      36.738  30.336  27.318  1.00  0.00     0.014 A 
ATOM      8  C   UNL A   1      35.954  29.928  29.567  1.00  0.00     0.014 A 
ATOM      9  C   UNL A   1      37.994  29.859  27.672  1.00  0.00     0.010 A 
ATOM     10  C   UNL A   1      37.223  29.482  29.939  1.00  0.00     0.010 A 
ATOM     11  C   UNL A   1      38.244  29.448  28.985  1.00  0.00    -0.014 A 
BRANCH  11  12
ATOM     12  C   UNL A   1      39.651  29.145  29.341  1.00  0.00     0.031 A 
ATOM     13  C   UNL A   1      40.435  30.403  29.746  1.00  0.00     0.074 A 
ATOM     14  C   UNL A   1      40.068  27.860  29.152  1.00  0.00     0.049 A 
ATOM     15  N   UNL A   1      41.695  30.685  29.608  1.00  0.00    -0.248 NA
ATOM     16  C   UNL A   1      39.680  31.562  30.297  1.00  0.00     0.031 C 
ATOM     17  C   UNL A   1      39.183  26.753  28.744  1.00  0.00     0.029 A 
ATOM     18  N   UNL A   1      41.288  27.220  29.239  1.00  0.00    -0.354 N 
ATOM     19  C   UNL A   1      41.913  31.951  30.191  1.00  0.00     0.074 A 
ATOM     20  C   UNL A   1      40.622  32.487  30.499  1.00  0.00     0.031 C 
ATOM     21  C   UNL A   1      39.891  25.623  28.545  1.00  0.00     0.029 A 
ATOM     22  C   UNL A   1      41.296  25.868  28.807  1.00  0.00     0.049 A 
ATOM     23  H   UNL A   1      42.097  27.669  29.576  1.00  0.00     0.167 HD
ATOM     24  C   UNL A   1      43.148  32.460  30.472  1.00  0.00     0.037 A 
ATOM     25  C   UNL A   1      42.358  25.022  28.620  1.00  0.00     0.037 A 
ATOM     26  C   UNL A   1      44.170  31.538  30.106  1.00  0.00     0.049 A 
ATOM     27  C   UNL A   1      43.546  25.766  29.085  1.00  0.00     0.074 A 
ATOM     28  C   UNL A   1      44.772  31.237  28.915  1.00  0.00     0.029 A 
ATOM     29  N   UNL A   1      44.509  30.579  31.028  1.00  0.00    -0.354 N 
ATOM     30  N   UNL A   1      43.821  26.049  30.324  1.00  0.00    -0.248 NA
ATOM     31  C   UNL A   1      44.466  26.313  28.078  1.00  0.00     0.031 C 
ATOM     32  C   UNL A   1      45.171  29.891  29.047  1.00  0.00     0.029 A 
ATOM     33  C   UNL A   1      44.869  29.444  30.337  1.00  0.00     0.049 A 
ATOM     34  H   UNL A   1      44.499  30.683  32.007  1.00  0.00     0.167 HD
ATOM     35  C   UNL A   1      44.754  27.054  30.211  1.00  0.00     0.074 A 
ATOM     36  C   UNL A   1      45.307  26.957  28.880  1.00  0.00     0.031 C 
ATOM     37  C   UNL A   1      44.654  28.164  30.982  1.00  0.00     0.037 A 
BRANCH  24  38
ATOM     38  C   UNL A   1      43.572  33.697  31.218  1.00  0.00     0.058 A 
ATOM     39  C   UNL A   1      43.621  34.976  30.646  1.00  0.00     0.135 A 
ATOM     40  C   UNL A   1      43.643  33.643  32.631  1.00  0.00     0.135 A 
ATOM     41  F   UNL A   1      43.558  35.136  29.317  1.00  0.00    -0.206 F 
ATOM     42  C   UNL A   1      43.661  36.135  31.431  1.00  0.00     0.059 A 
ATOM     43  C   UNL A   1      43.650  34.782  33.432  1.00  0.00     0.059 A 
ATOM     44  F   UNL A   1      43.660  32.462  33.273  1.00  0.00    -0.206 F 
ATOM     45  C   UNL A   1      43.636  36.029  32.823  1.00  0.00     0.060 A 
BRANCH  45  46
ATOM     46  S   UNL A   1      43.484  37.524  33.827  1.00  0.00     0.124 S 
ATOM     47  O   UNL A   1      42.137  37.382  34.366  1.00  0.00    -0.237 OA
ATOM     48  O   UNL A   1      44.574  37.369  34.784  1.00  0.00    -0.237 OA
ATOM     49  O   UNL A   1      43.658  38.604  32.858  1.00  0.00    -0.744 OA
ENDBRANCH  45  46
ENDBRANCH  24  38
BRANCH  25  50
ATOM     50  C   UNL A   1      42.611  23.683  27.943  1.00  0.00     0.058 A 
ATOM     51  C   UNL A   1      42.205  23.492  26.590  1.00  0.00     0.135 A 
ATOM     52  C   UNL A   1      43.091  22.516  28.555  1.00  0.00     0.135 A 
ATOM     53  F   UNL A   1      41.903  24.527  25.793  1.00  0.00    -0.206 F 
ATOM     54  C   UNL A   1      42.046  22.242  25.994  1.00  0.00     0.059 A 
ATOM     55  C   UNL A   1      42.990  21.246  27.957  1.00  0.00     0.059 A 
ATOM     56  F   UNL A   1      43.676  22.545  29.755  1.00  0.00    -0.206 F 
ATOM     57  C   UNL A   1      42.387  21.113  26.711  1.00  0.00     0.060 A 
BRANCH  57  58
ATOM     58  S   UNL A   1      42.011  19.495  26.010  1.00  0.00     0.124 S 
ATOM     59  O   UNL A   1      42.857  19.495  24.820  1.00  0.00    -0.237 OA
ATOM     60  O   UNL A   1      42.417  18.579  27.071  1.00  0.00    -0.237 OA
ATOM     61  O   UNL A   1      40.575  19.564  25.761  1.00  0.00    -0.744 OA
ENDBRANCH  57  58
ENDBRANCH  25  50
BRANCH  37  62
ATOM     62  C   UNL A   1      43.929  27.949  32.294  1.00  0.00     0.058 A 
ATOM     63  C   UNL A   1      42.568  28.235  32.487  1.00  0.00     0.135 A 
ATOM     64  C   UNL A   1      44.598  27.360  33.377  1.00  0.00     0.135 A 
ATOM     65  F   UNL A   1      41.839  28.749  31.497  1.00  0.00    -0.206 F 
ATOM     66  C   UNL A   1      41.907  28.001  33.693  1.00  0.00     0.059 A 
ATOM     67  C   UNL A   1      43.959  27.097  34.593  1.00  0.00     0.059 A 
ATOM     68  F   UNL A   1      45.896  27.038  33.265  1.00  0.00    -0.206 F 
ATOM     69  C   UNL A   1      42.613  27.429  34.745  1.00  0.00     0.060 A 
BRANCH  69  70
ATOM     70  S   UNL A   1      41.753  27.155  36.309  1.00  0.00     0.124 S 
ATOM     71  O   UNL A   1      42.856  27.103  37.263  1.00  0.00    -0.237 OA
ATOM     72  O   UNL A   1      40.896  28.334  36.406  1.00  0.00    -0.237 OA
ATOM     73  O   UNL A   1      41.052  25.891  36.099  1.00  0.00    -0.744 OA
ENDBRANCH  69  70
ENDBRANCH  37  62
ENDBRANCH  11  12
ENDBRANCH   4   6
ENDBRANCH   1   2
BRANCH   1  74
ATOM     74  C   UNL A   1      32.103  28.123  26.277  1.00  0.00     0.042 C 
BRANCH  74  75
ATOM     75  C   UNL A   1      31.218  27.059  26.923  1.00  0.00     0.118 C 
BRANCH  75  76
ATOM     76  N   UNL A   1      30.538  26.238  25.932  1.00  0.00    -0.352 N 
ATOM     77  C   UNL A   1      31.043  25.280  25.087  1.00  0.00     0.251 C 
ATOM     78  H   UNL A   1      29.568  26.393  25.856  1.00  0.00     0.163 HD
ATOM     79  O   UNL A   1      30.367  24.829  24.179  1.00  0.00    -0.269 OA
BRANCH  77  80
ATOM     80  C   UNL A   1      32.421  24.793  25.282  1.00  0.00     0.042 A 
ATOM     81  C   UNL A   1      33.451  25.218  24.437  1.00  0.00     0.016 A 
ATOM     82  C   UNL A   1      32.689  23.949  26.358  1.00  0.00     0.055 A 
ATOM     83  C   UNL A   1      34.752  24.748  24.634  1.00  0.00     0.030 A 
ATOM     84  C   UNL A   1      33.981  23.463  26.535  1.00  0.00     0.147 A 
ATOM     85  C   UNL A   1      35.017  23.842  25.673  1.00  0.00     0.081 A 
ATOM     86  F   UNL A   1      34.206  22.674  27.596  1.00  0.00    -0.205 F 
BRANCH  85  87
ATOM     87  N   UNL A   1      36.319  23.298  25.817  1.00  0.00    -0.321 N 
ATOM     88  C   UNL A   1      36.696  21.997  25.552  1.00  0.00     0.091 A 
ATOM     89  C   UNL A   1      37.455  23.989  26.194  1.00  0.00     0.091 A 
ATOM     90  C   UNL A   1      38.057  21.877  25.728  1.00  0.00     0.020 A 
ATOM     91  C   UNL A   1      38.534  23.132  26.160  1.00  0.00     0.020 A 
ENDBRANCH  85  87
ENDBRANCH  77  80
ENDBRANCH  75  76
ENDBRANCH  74  75
ENDBRANCH   1  74
TORSDOF 14
ENDMDL
MODEL 2
REMARK VINA RESULT:     -11.7      2.911      5.532
REMARK SMILES O=C(NCCCNC(=O)c1ccc(-n2cccc2)c(F)c1)c1ccc(-c2c3nc(c(-c4c(F)cc(S(=O)(=O)[O-])cc4F)c4ccc([nH]4)c(-c4c(F)cc(S(=O)(=O)[O-])cc4F)c4nc(c(-c5c(F)cc(S(=O)(=O)[O-])cc5F)c5ccc2[nH]5)C=C4)C=C3)cc1
REMARK SMILES IDX 4 1 3 2 1 3 2 4 22 6 23 7 87 8 24 9 86 10 25 11 26 12 27 13
REMARK SMILES IDX 80 14 28 15 85 16 79 17 81 18 29 19 84 20 78 21 77 22 30 24
REMARK SMILES IDX 64 25 43 26 63 27 44 28 47 29 62 30 82 31 45 32 46 33 61 35
REMARK SMILES IDX 83 36 48 37 31 38 32 39 41 40 33 41 34 42 40 43 42 44 35 45
REMARK SMILES IDX 36 46 37 47 38 48 39 49 65 50 66 51 75 52 67 53 68 54 74 55
REMARK SMILES IDX 76 56 69 57 70 58 71 59 72 60 73 61 49 62 50 63 59 64 51 65
REMARK SMILES IDX 52 66 58 67 60 68 53 69 54 70 55 71 56 72 57 73 5 74 6 75
REMARK SMILES IDX 7 76 8 77 9 79 10 80 11 81 21 82 12 83 19 84 13 85 20 86
REMARK SMILES IDX 14 87 15 88 18 89 16 90 17 91
REMARK H PARENT 3 5 81 23 47 34 7 78
REMARK Flexibility Score: inf
ROOT
ATOM      1  C   UNL A   1      33.921  32.346  28.546  1.00  0.00     0.118 C 
ENDROOT
BRANCH   1   2
ATOM      2  N   UNL A   1      33.664  31.041  27.960  1.00  0.00    -0.352 N 
ATOM      3  O   UNL A   1      33.873  28.921  27.312  1.00  0.00    -0.269 OA
ATOM      4  C   UNL A   1      34.408  29.893  27.848  1.00  0.00     0.251 C 
ATOM      5  H   UNL A   1      32.769  30.965  27.557  1.00  0.00     0.163 HD
BRANCH   4   6
ATOM      6  C   UNL A   1      35.823  29.792  28.284  1.00  0.00     0.039 A 
ATOM      7  C   UNL A   1      36.204  29.476  29.589  1.00  0.00     0.014 A 
ATOM      8  C   UNL A   1      36.816  29.980  27.306  1.00  0.00     0.014 A 
ATOM      9  C   UNL A   1      37.549  29.430  29.936  1.00  0.00     0.010 A 
ATOM     10  C   UNL A   1      38.169  29.899  27.640  1.00  0.00     0.010 A 
ATOM     11  C   UNL A   1      38.533  29.624  28.962  1.00  0.00    -0.014 A 
BRANCH  11  12
ATOM     12  C   UNL A   1      39.937  29.361  29.358  1.00  0.00     0.031 A 
ATOM     13  C   UNL A   1      40.608  30.594  29.983  1.00  0.00     0.074 A 
ATOM     14  C   UNL A   1      40.452  28.145  29.018  1.00  0.00     0.049 A 
ATOM     15  N   UNL A   1      41.851  30.971  29.963  1.00  0.00    -0.248 NA
ATOM     16  C   UNL A   1      39.746  31.614  30.642  1.00  0.00     0.031 C 
ATOM     17  C   UNL A   1      39.669  27.055  28.406  1.00  0.00     0.029 A 
ATOM     18  N   UNL A   1      41.708  27.576  29.090  1.00  0.00    -0.354 N 
ATOM     19  C   UNL A   1      41.948  32.152  30.730  1.00  0.00     0.074 A 
ATOM     20  C   UNL A   1      40.609  32.557  31.029  1.00  0.00     0.031 C 
ATOM     21  C   UNL A   1      40.464  26.011  28.095  1.00  0.00     0.029 A 
ATOM     22  C   UNL A   1      41.833  26.303  28.475  1.00  0.00     0.049 A 
ATOM     23  H   UNL A   1      42.464  28.022  29.536  1.00  0.00     0.167 HD
ATOM     24  C   UNL A   1      43.128  32.691  31.154  1.00  0.00     0.037 A 
ATOM     25  C   UNL A   1      42.960  25.560  28.238  1.00  0.00     0.037 A 
ATOM     26  C   UNL A   1      44.230  31.896  30.727  1.00  0.00     0.049 A 
ATOM     27  C   UNL A   1      44.067  26.302  28.875  1.00  0.00     0.074 A 
ATOM     28  C   UNL A   1      44.913  31.807  29.545  1.00  0.00     0.029 A 
ATOM     29  N   UNL A   1      44.588  30.837  31.526  1.00  0.00    -0.354 N 
ATOM     30  N   UNL A   1      44.257  26.421  30.156  1.00  0.00    -0.248 NA
ATOM     31  C   UNL A   1      44.998  27.044  28.012  1.00  0.00     0.031 C 
ATOM     32  C   UNL A   1      45.399  30.482  29.512  1.00  0.00     0.029 A 
ATOM     33  C   UNL A   1      45.061  29.838  30.706  1.00  0.00     0.049 A 
ATOM     34  H   UNL A   1      44.518  30.800  32.507  1.00  0.00     0.167 HD
ATOM     35  C   UNL A   1      45.121  27.488  30.241  1.00  0.00     0.074 A 
ATOM     36  C   UNL A   1      45.749  27.617  28.947  1.00  0.00     0.031 C 
ATOM     37  C   UNL A   1      44.903  28.468  31.152  1.00  0.00     0.037 A 
BRANCH  24  38
ATOM     38  C   UNL A   1      43.425  33.832  32.090  1.00  0.00     0.058 A 
ATOM     39  C   UNL A   1      43.640  35.152  31.670  1.00  0.00     0.135 A 
ATOM     40  C   UNL A   1      43.190  33.649  33.475  1.00  0.00     0.135 A 
ATOM     41  F   UNL A   1      43.868  35.432  30.378  1.00  0.00    -0.206 F 
ATOM     42  C   UNL A   1      43.550  36.233  32.555  1.00  0.00     0.059 A 
ATOM     43  C   UNL A   1      43.064  34.711  34.366  1.00  0.00     0.059 A 
ATOM     44  F   UNL A   1      43.028  32.417  33.986  1.00  0.00    -0.206 F 
ATOM     45  C   UNL A   1      43.224  36.006  33.893  1.00  0.00     0.060 A 
BRANCH  45  46
ATOM     46  S   UNL A   1      42.912  37.413  34.984  1.00  0.00     0.124 S 
ATOM     47  O   UNL A   1      41.691  36.994  35.664  1.00  0.00    -0.237 OA
ATOM     48  O   UNL A   1      44.119  37.446  35.803  1.00  0.00    -0.237 OA
ATOM     49  O   UNL A   1      42.758  38.534  34.060  1.00  0.00    -0.744 OA
ENDBRANCH  45  46
ENDBRANCH  24  38
BRANCH  25  50
ATOM     50  C   UNL A   1      43.341  24.350  27.398  1.00  0.00     0.058 A 
ATOM     51  C   UNL A   1      44.329  23.443  27.881  1.00  0.00     0.135 A 
ATOM     52  C   UNL A   1      42.924  24.078  26.088  1.00  0.00     0.135 A 
ATOM     53  F   UNL A   1      44.702  23.429  29.169  1.00  0.00    -0.206 F 
ATOM     54  C   UNL A   1      45.013  22.535  27.076  1.00  0.00     0.059 A 
ATOM     55  C   UNL A   1      43.563  23.132  25.265  1.00  0.00     0.059 A 
ATOM     56  F   UNL A   1      41.884  24.712  25.539  1.00  0.00    -0.206 F 
ATOM     57  C   UNL A   1      44.662  22.427  25.745  1.00  0.00     0.060 A 
BRANCH  57  58
ATOM     58  S   UNL A   1      45.665  21.390  24.665  1.00  0.00     0.124 S 
ATOM     59  O   UNL A   1      44.646  20.816  23.790  1.00  0.00    -0.237 OA
ATOM     60  O   UNL A   1      46.565  22.350  24.035  1.00  0.00    -0.237 OA
ATOM     61  O   UNL A   1      46.297  20.456  25.590  1.00  0.00    -0.744 OA
ENDBRANCH  57  58
ENDBRANCH  25  50
BRANCH  37  62
ATOM     62  C   UNL A   1      44.128  28.022  32.374  1.00  0.00     0.058 A 
ATOM     63  C   UNL A   1      42.755  28.256  32.552  1.00  0.00     0.135 A 
ATOM     64  C   UNL A   1      44.762  27.263  33.369  1.00  0.00     0.135 A 
ATOM     65  F   UNL A   1      42.059  28.925  31.633  1.00  0.00    -0.206 F 
ATOM     66  C   UNL A   1      42.048  27.811  33.670  1.00  0.00     0.059 A 
ATOM     67  C   UNL A   1      44.076  26.788  34.491  1.00  0.00     0.059 A 
ATOM     68  F   UNL A   1      46.069  26.979  33.261  1.00  0.00    -0.206 F 
ATOM     69  C   UNL A   1      42.720  27.075  34.639  1.00  0.00     0.060 A 
BRANCH  69  70
ATOM     70  S   UNL A   1      41.799  26.526  36.093  1.00  0.00     0.124 S 
ATOM     71  O   UNL A   1      42.845  25.915  36.906  1.00  0.00    -0.237 OA
ATOM     72  O   UNL A   1      41.255  27.779  36.609  1.00  0.00    -0.237 OA
ATOM     73  O   UNL A   1      40.814  25.598  35.545  1.00  0.00    -0.744 OA
ENDBRANCH  69  70
ENDBRANCH  37  62
ENDBRANCH  11  12
ENDBRANCH   4   6
ENDBRANCH   1   2
BRANCH   1  74
ATOM     74  C   UNL A   1      35.169  33.062  28.031  1.00  0.00     0.042 C 
BRANCH  74  75
ATOM     75  C   UNL A   1      35.693  34.144  28.973  1.00  0.00     0.118 C 
BRANCH  75  76
ATOM     76  N   UNL A   1      34.656  34.643  29.863  1.00  0.00    -0.352 N 
ATOM     77  C   UNL A   1      34.475  34.434  31.208  1.00  0.00     0.251 C 
ATOM     78  H   UNL A   1      33.981  35.220  29.436  1.00  0.00     0.163 HD
ATOM     79  O   UNL A   1      33.439  34.765  31.759  1.00  0.00    -0.269 OA
BRANCH  77  80
ATOM     80  C   UNL A   1      35.548  33.797  31.994  1.00  0.00     0.042 A 
ATOM     81  C   UNL A   1      35.511  32.426  32.267  1.00  0.00     0.016 A 
ATOM     82  C   UNL A   1      36.627  34.574  32.410  1.00  0.00     0.055 A 
ATOM     83  C   UNL A   1      36.535  31.837  33.014  1.00  0.00     0.030 A 
ATOM     84  C   UNL A   1      37.631  33.989  33.175  1.00  0.00     0.147 A 
ATOM     85  C   UNL A   1      37.590  32.627  33.496  1.00  0.00     0.081 A 
ATOM     86  F   UNL A   1      38.667  34.762  33.535  1.00  0.00    -0.205 F 
BRANCH  85  87
ATOM     87  N   UNL A   1      38.582  32.045  34.327  1.00  0.00    -0.321 N 
ATOM     88  C   UNL A   1      39.363  30.950  34.024  1.00  0.00     0.091 A 
ATOM     89  C   UNL A   1      38.982  32.508  35.567  1.00  0.00     0.091 A 
ATOM     90  C   UNL A   1      40.266  30.743  35.043  1.00  0.00     0.020 A 
ATOM     91  C   UNL A   1      40.008  31.714  36.033  1.00  0.00     0.020 A 
ENDBRANCH  85  87
ENDBRANCH  77  80
ENDBRANCH  75  76
ENDBRANCH  74  75
ENDBRANCH   1  74
TORSDOF 14
ENDMDL
MODEL 3
REMARK VINA RESULT:     -11.6      3.216      9.206
REMARK SMILES O=C(NCCCNC(=O)c1ccc(-n2cccc2)c(F)c1)c1ccc(-c2c3nc(c(-c4c(F)cc(S(=O)(=O)[O-])cc4F)c4ccc([nH]4)c(-c4c(F)cc(S(=O)(=O)[O-])cc4F)c4nc(c(-c5c(F)cc(S(=O)(=O)[O-])cc5F)c5ccc2[nH]5)C=C4)C=C3)cc1
REMARK SMILES IDX 4 1 3 2 1 3 2 4 22 6 23 7 87 8 24 9 86 10 25 11 26 12 27 13
REMARK SMILES IDX 80 14 28 15 85 16 79 17 81 18 29 19 84 20 78 21 77 22 30 24
REMARK SMILES IDX 64 25 43 26 63 27 44 28 47 29 62 30 82 31 45 32 46 33 61 35
REMARK SMILES IDX 83 36 48 37 31 38 32 39 41 40 33 41 34 42 40 43 42 44 35 45
REMARK SMILES IDX 36 46 37 47 38 48 39 49 65 50 66 51 75 52 67 53 68 54 74 55
REMARK SMILES IDX 76 56 69 57 70 58 71 59 72 60 73 61 49 62 50 63 59 64 51 65
REMARK SMILES IDX 52 66 58 67 60 68 53 69 54 70 55 71 56 72 57 73 5 74 6 75
REMARK SMILES IDX 7 76 8 77 9 79 10 80 11 81 21 82 12 83 19 84 13 85 20 86
REMARK SMILES IDX 14 87 15 88 18 89 16 90 17 91
REMARK H PARENT 3 5 81 23 47 34 7 78
REMARK Flexibility Score: inf
ROOT
ATOM      1  C   UNL A   1      34.438  28.474  26.657  1.00  0.00     0.118 C 
ENDROOT
BRANCH   1   2
ATOM      2  N   UNL A   1      34.684  29.842  27.083  1.00  0.00    -0.352 N 
ATOM      3  O   UNL A   1      35.668  31.690  27.837  1.00  0.00    -0.269 OA
ATOM      4  C   UNL A   1      35.775  30.484  27.612  1.00  0.00     0.251 C 
ATOM      5  H   UNL A   1      33.903  30.431  26.969  1.00  0.00     0.163 HD
BRANCH   4   6
ATOM      6  C   UNL A   1      37.036  29.788  27.974  1.00  0.00     0.039 A 
ATOM      7  C   UNL A   1      38.207  29.882  27.221  1.00  0.00     0.014 A 
ATOM      8  C   UNL A   1      37.043  29.041  29.165  1.00  0.00     0.014 A 
ATOM      9  C   UNL A   1      39.343  29.178  27.600  1.00  0.00     0.010 A 
ATOM     10  C   UNL A   1      38.192  28.360  29.570  1.00  0.00     0.010 A 
ATOM     11  C   UNL A   1      39.344  28.430  28.781  1.00  0.00    -0.014 A 
BRANCH  11  12
ATOM     12  C   UNL A   1      40.644  27.873  29.227  1.00  0.00     0.031 A 
ATOM     13  C   UNL A   1      41.026  26.597  28.461  1.00  0.00     0.074 A 
ATOM     14  C   UNL A   1      41.238  28.481  30.294  1.00  0.00     0.049 A 
ATOM     15  N   UNL A   1      41.711  25.563  28.846  1.00  0.00    -0.248 NA
ATOM     16  C   UNL A   1      40.474  26.399  27.093  1.00  0.00     0.031 C 
ATOM     17  C   UNL A   1      40.734  29.711  30.933  1.00  0.00     0.029 A 
ATOM     18  N   UNL A   1      42.348  28.204  31.066  1.00  0.00    -0.354 N 
ATOM     19  C   UNL A   1      41.815  24.688  27.743  1.00  0.00     0.074 A 
ATOM     20  C   UNL A   1      40.945  25.203  26.730  1.00  0.00     0.031 C 
ATOM     21  C   UNL A   1      41.470  30.023  32.019  1.00  0.00     0.029 A 
ATOM     22  C   UNL A   1      42.526  29.044  32.196  1.00  0.00     0.049 A 
ATOM     23  H   UNL A   1      42.973  27.475  30.850  1.00  0.00     0.167 HD
ATOM     24  C   UNL A   1      42.678  23.632  27.686  1.00  0.00     0.037 A 
ATOM     25  C   UNL A   1      43.419  28.933  33.229  1.00  0.00     0.037 A 
ATOM     26  C   UNL A   1      43.453  23.547  28.877  1.00  0.00     0.049 A 
ATOM     27  C   UNL A   1      44.290  27.791  32.881  1.00  0.00     0.074 A 
ATOM     28  C   UNL A   1      43.202  23.032  30.119  1.00  0.00     0.029 A 
ATOM     29  N   UNL A   1      44.601  24.300  28.934  1.00  0.00    -0.354 N 
ATOM     30  N   UNL A   1      45.182  27.784  31.936  1.00  0.00    -0.248 NA
ATOM     31  C   UNL A   1      44.093  26.521  33.594  1.00  0.00     0.031 C 
ATOM     32  C   UNL A   1      44.011  23.791  30.991  1.00  0.00     0.029 A 
ATOM     33  C   UNL A   1      44.781  24.686  30.243  1.00  0.00     0.049 A 
ATOM     34  H   UNL A   1      45.188  24.523  28.176  1.00  0.00     0.167 HD
ATOM     35  C   UNL A   1      45.417  26.443  31.744  1.00  0.00     0.074 A 
ATOM     36  C   UNL A   1      44.975  25.769  32.943  1.00  0.00     0.031 C 
ATOM     37  C   UNL A   1      45.475  25.935  30.488  1.00  0.00     0.037 A 
BRANCH  24  38
ATOM     38  C   UNL A   1      43.038  22.698  26.562  1.00  0.00     0.058 A 
ATOM     39  C   UNL A   1      44.036  22.962  25.614  1.00  0.00     0.135 A 
ATOM     40  C   UNL A   1      42.571  21.361  26.619  1.00  0.00     0.135 A 
ATOM     41  F   UNL A   1      44.547  24.195  25.483  1.00  0.00    -0.206 F 
ATOM     42  C   UNL A   1      44.592  21.949  24.824  1.00  0.00     0.059 A 
ATOM     43  C   UNL A   1      43.132  20.333  25.866  1.00  0.00     0.059 A 
ATOM     44  F   UNL A   1      41.577  21.017  27.454  1.00  0.00    -0.206 F 
ATOM     45  C   UNL A   1      44.161  20.632  24.984  1.00  0.00     0.060 A 
BRANCH  45  46
ATOM     46  S   UNL A   1      45.017  19.302  24.110  1.00  0.00     0.124 S 
ATOM     47  O   UNL A   1      44.536  19.487  22.745  1.00  0.00    -0.237 OA
ATOM     48  O   UNL A   1      46.420  19.629  24.341  1.00  0.00    -0.237 OA
ATOM     49  O   UNL A   1      44.544  18.093  24.780  1.00  0.00    -0.744 OA
ENDBRANCH  45  46
ENDBRANCH  24  38
BRANCH  25  50
ATOM     50  C   UNL A   1      43.604  29.537  34.614  1.00  0.00     0.058 A 
ATOM     51  C   UNL A   1      44.714  30.397  34.862  1.00  0.00     0.135 A 
ATOM     52  C   UNL A   1      42.864  29.231  35.764  1.00  0.00     0.135 A 
ATOM     53  F   UNL A   1      45.415  30.948  33.861  1.00  0.00    -0.206 F 
ATOM     54  C   UNL A   1      45.190  30.706  36.134  1.00  0.00     0.059 A 
ATOM     55  C   UNL A   1      43.294  29.573  37.060  1.00  0.00     0.059 A 
ATOM     56  F   UNL A   1      41.696  28.587  35.694  1.00  0.00    -0.206 F 
ATOM     57  C   UNL A   1      44.502  30.237  37.236  1.00  0.00     0.060 A 
BRANCH  57  58
ATOM     58  S   UNL A   1      45.218  30.482  38.872  1.00  0.00     0.124 S 
ATOM     59  O   UNL A   1      44.871  29.223  39.528  1.00  0.00    -0.237 OA
ATOM     60  O   UNL A   1      46.635  30.670  38.583  1.00  0.00    -0.237 OA
ATOM     61  O   UNL A   1      44.520  31.662  39.370  1.00  0.00    -0.744 OA
ENDBRANCH  57  58
ENDBRANCH  25  50
BRANCH  37  62
ATOM     62  C   UNL A   1      45.891  26.935  29.431  1.00  0.00     0.058 A 
ATOM     63  C   UNL A   1      44.987  27.586  28.576  1.00  0.00     0.135 A 
ATOM     64  C   UNL A   1      47.235  27.319  29.318  1.00  0.00     0.135 A 
ATOM     65  F   UNL A   1      43.682  27.323  28.646  1.00  0.00    -0.206 F 
ATOM     66  C   UNL A   1      45.383  28.529  27.627  1.00  0.00     0.059 A 
ATOM     67  C   UNL A   1      47.661  28.274  28.389  1.00  0.00     0.059 A 
ATOM     68  F   UNL A   1      48.159  26.758  30.114  1.00  0.00    -0.206 F 
ATOM     69  C   UNL A   1      46.729  28.868  27.541  1.00  0.00     0.060 A 
BRANCH  69  70
ATOM     70  S   UNL A   1      47.232  30.072  26.291  1.00  0.00     0.124 S 
ATOM     71  O   UNL A   1      46.767  31.328  26.869  1.00  0.00    -0.237 OA
ATOM     72  O   UNL A   1      48.681  29.896  26.255  1.00  0.00    -0.237 OA
ATOM     73  O   UNL A   1      46.522  29.639  25.091  1.00  0.00    -0.744 OA
ENDBRANCH  69  70
ENDBRANCH  37  62
ENDBRANCH  11  12
ENDBRANCH   4   6
ENDBRANCH   1   2
BRANCH   1  74
ATOM     74  C   UNL A   1      32.968  28.098  26.473  1.00  0.00     0.042 C 
BRANCH  74  75
ATOM     75  C   UNL A   1      32.594  27.755  25.033  1.00  0.00     0.118 C 
BRANCH  75  76
ATOM     76  N   UNL A   1      31.552  26.741  24.966  1.00  0.00    -0.352 N 
ATOM     77  C   UNL A   1      31.657  25.378  24.833  1.00  0.00     0.251 C 
ATOM     78  H   UNL A   1      30.630  27.085  25.026  1.00  0.00     0.163 HD
ATOM     79  O   UNL A   1      30.676  24.696  24.592  1.00  0.00    -0.269 OA
BRANCH  77  80
ATOM     80  C   UNL A   1      32.975  24.734  24.980  1.00  0.00     0.042 A 
ATOM     81  C   UNL A   1      33.883  24.722  23.917  1.00  0.00     0.016 A 
ATOM     82  C   UNL A   1      33.322  24.190  26.216  1.00  0.00     0.055 A 
ATOM     83  C   UNL A   1      35.128  24.107  24.073  1.00  0.00     0.030 A 
ATOM     84  C   UNL A   1      34.552  23.557  26.358  1.00  0.00     0.147 A 
ATOM     85  C   UNL A   1      35.458  23.495  25.292  1.00  0.00     0.081 A 
ATOM     86  F   UNL A   1      34.862  23.068  27.568  1.00  0.00    -0.205 F 
BRANCH  85  87
ATOM     87  N   UNL A   1      36.685  22.795  25.419  1.00  0.00    -0.321 N 
ATOM     88  C   UNL A   1      37.851  23.284  25.972  1.00  0.00     0.091 A 
ATOM     89  C   UNL A   1      36.915  21.479  25.065  1.00  0.00     0.091 A 
ATOM     90  C   UNL A   1      38.795  22.281  25.996  1.00  0.00     0.020 A 
ATOM     91  C   UNL A   1      38.211  21.145  25.398  1.00  0.00     0.020 A 
ENDBRANCH  85  87
ENDBRANCH  77  80
ENDBRANCH  75  76
ENDBRANCH  74  75
ENDBRANCH   1  74
TORSDOF 14
ENDMDL
