MODEL 1
REMARK VINA RESULT:     -12.6      0.000      0.000
REMARK SMILES C[C@@H]1[C@@H](C(=O)NCCCNC(=O)c2ccc(-c3c4nc(c(-c5c(F)cc(S(=O)(=O)[O-])cc5F)c5ccc([nH]5)c(-c5c(F)cc(S(=O)(=O)[O-])cc5F)c5nc(c(-c6c(F)cc(S(=O)(=O)[O-])cc6F)c6ccc3[nH]6)C=C5)C=C4)cc2)CCN1C(=O)N1CCC[C@H]2CCC[C@@H]21
REMARK SMILES IDX 8 1 7 2 6 3 4 4 5 5 3 7 1 8 2 9 81 10 79 11 80 12 82 13
REMARK SMILES IDX 83 14 84 15 85 16 92 17 86 18 88 19 91 20 87 21 89 22 90 23
REMARK SMILES IDX 9 24 10 25 11 26 12 28 13 29 14 30 78 31 15 32 77 33 16 34
REMARK SMILES IDX 17 35 18 36 71 37 19 38 76 39 70 40 72 41 20 42 75 43 69 44
REMARK SMILES IDX 68 45 21 47 55 48 34 49 54 50 35 51 38 52 53 53 73 54 36 55
REMARK SMILES IDX 37 56 52 58 74 59 39 60 22 61 23 62 32 63 24 64 25 65 31 66
REMARK SMILES IDX 33 67 26 68 27 69 28 70 29 71 30 72 56 73 57 74 66 75 58 76
REMARK SMILES IDX 59 77 65 78 67 79 60 80 61 81 62 82 63 83 64 84 40 85 41 86
REMARK SMILES IDX 50 87 42 88 43 89 49 90 51 91 44 92 45 93 46 94 47 95 48 96
REMARK H PARENT 6 6 10 27 72 46 38 57
REMARK Flexibility Score: inf
ROOT
ATOM      1  C   UNL A   1      37.494  23.558  25.337  1.00  0.00     0.042 C 
ENDROOT
BRANCH   1   2
ATOM      2  C   UNL A   1      37.088  22.100  25.232  1.00  0.00     0.117 C 
BRANCH   2   3
ATOM      3  N   UNL A   1      36.049  21.711  26.170  1.00  0.00    -0.356 N 
ATOM      4  C   UNL A   1      34.697  21.659  25.988  1.00  0.00     0.225 C 
ATOM      5  O   UNL A   1      34.013  21.247  26.925  1.00  0.00    -0.275 OA
ATOM      6  H   UNL A   1      36.366  21.447  27.064  1.00  0.00     0.163 HD
BRANCH   4   7
ATOM      7  C   UNL A   1      34.099  22.207  24.699  1.00  0.00     0.102 C 
ATOM      8  C   UNL A   1      33.982  24.361  23.453  1.00  0.00     0.032 C 
ATOM      9  C   UNL A   1      33.730  23.705  24.818  1.00  0.00     0.096 C 
ATOM     10  N   UNL A   1      32.303  23.695  25.209  1.00  0.00    -0.321 N 
ATOM     11  C   UNL A   1      32.766  21.577  24.282  1.00  0.00     0.037 C 
ATOM     12  C   UNL A   1      31.737  22.372  25.052  1.00  0.00     0.122 C 
BRANCH  10  13
ATOM     13  C   UNL A   1      31.648  24.540  26.094  1.00  0.00     0.320 C 
ATOM     14  O   UNL A   1      31.581  24.293  27.298  1.00  0.00    -0.248 OA
BRANCH  13  15
ATOM     15  N   UNL A   1      31.191  25.725  25.581  1.00  0.00    -0.321 N 
ATOM     16  C   UNL A   1      29.793  25.914  25.228  1.00  0.00     0.121 C 
ATOM     17  C   UNL A   1      31.896  26.972  25.794  1.00  0.00     0.090 C 
ATOM     18  C   UNL A   1      29.668  26.717  23.930  1.00  0.00     0.022 C 
ATOM     19  C   UNL A   1      31.926  27.698  24.447  1.00  0.00     0.012 C 
ATOM     20  C   UNL A   1      33.373  26.966  26.177  1.00  0.00     0.025 C 
ATOM     21  C   UNL A   1      30.507  28.008  23.970  1.00  0.00     0.007 C 
ATOM     22  C   UNL A   1      32.845  28.877  24.712  1.00  0.00     0.006 C 
ATOM     23  C   UNL A   1      33.889  28.329  25.694  1.00  0.00     0.002 C 
ENDBRANCH  13  15
ENDBRANCH  10  13
ENDBRANCH   4   7
ENDBRANCH   2   3
ENDBRANCH   1   2
BRANCH   1  24
ATOM     24  C   UNL A   1      38.398  23.889  26.514  1.00  0.00     0.118 C 
BRANCH  24  25
ATOM     25  N   UNL A   1      39.817  23.832  26.192  1.00  0.00    -0.352 N 
ATOM     26  C   UNL A   1      40.853  24.663  26.557  1.00  0.00     0.251 C 
ATOM     27  H   UNL A   1      40.078  23.074  25.621  1.00  0.00     0.163 HD
ATOM     28  O   UNL A   1      41.958  24.503  26.056  1.00  0.00    -0.269 OA
BRANCH  26  29
ATOM     29  C   UNL A   1      40.626  25.769  27.517  1.00  0.00     0.039 A 
ATOM     30  C   UNL A   1      39.661  25.611  28.515  1.00  0.00     0.014 A 
ATOM     31  C   UNL A   1      41.360  26.954  27.447  1.00  0.00     0.014 A 
ATOM     32  C   UNL A   1      39.504  26.599  29.493  1.00  0.00     0.010 A 
ATOM     33  C   UNL A   1      41.285  27.879  28.481  1.00  0.00     0.010 A 
ATOM     34  C   UNL A   1      40.354  27.716  29.517  1.00  0.00    -0.014 A 
BRANCH  34  35
ATOM     35  C   UNL A   1      40.285  28.728  30.605  1.00  0.00     0.031 A 
ATOM     36  C   UNL A   1      41.180  28.603  31.811  1.00  0.00     0.074 A 
ATOM     37  C   UNL A   1      39.367  29.716  30.547  1.00  0.00     0.049 A 
ATOM     38  N   UNL A   1      41.205  29.326  32.901  1.00  0.00    -0.248 NA
ATOM     39  C   UNL A   1      42.153  27.497  31.807  1.00  0.00     0.031 C 
ATOM     40  C   UNL A   1      38.406  29.916  29.460  1.00  0.00     0.029 A 
ATOM     41  N   UNL A   1      39.085  30.732  31.426  1.00  0.00    -0.354 N 
ATOM     42  C   UNL A   1      42.178  28.755  33.713  1.00  0.00     0.074 A 
ATOM     43  C   UNL A   1      42.676  27.588  33.019  1.00  0.00     0.031 C 
ATOM     44  C   UNL A   1      37.663  31.003  29.722  1.00  0.00     0.029 A 
ATOM     45  C   UNL A   1      38.061  31.552  31.014  1.00  0.00     0.049 A 
ATOM     46  H   UNL A   1      39.571  30.861  32.272  1.00  0.00     0.167 HD
ATOM     47  C   UNL A   1      42.639  29.180  34.915  1.00  0.00     0.037 A 
ATOM     48  C   UNL A   1      37.498  32.621  31.612  1.00  0.00     0.037 A 
ATOM     49  C   UNL A   1      42.162  30.361  35.586  1.00  0.00     0.049 A 
ATOM     50  C   UNL A   1      38.024  33.073  32.949  1.00  0.00     0.074 A 
ATOM     51  C   UNL A   1      42.602  30.908  36.778  1.00  0.00     0.029 A 
ATOM     52  N   UNL A   1      41.138  31.176  35.125  1.00  0.00    -0.354 N 
ATOM     53  N   UNL A   1      38.987  32.555  33.674  1.00  0.00    -0.248 NA
ATOM     54  C   UNL A   1      37.391  34.257  33.546  1.00  0.00     0.031 C 
ATOM     55  C   UNL A   1      41.814  32.028  37.062  1.00  0.00     0.029 A 
ATOM     56  C   UNL A   1      40.919  32.211  36.019  1.00  0.00     0.049 A 
ATOM     57  H   UNL A   1      40.642  31.041  34.286  1.00  0.00     0.167 HD
ATOM     58  C   UNL A   1      39.096  33.368  34.797  1.00  0.00     0.074 A 
ATOM     59  C   UNL A   1      38.109  34.417  34.650  1.00  0.00     0.031 C 
ATOM     60  C   UNL A   1      39.939  33.256  35.853  1.00  0.00     0.037 A 
BRANCH  47  61
ATOM     61  C   UNL A   1      43.720  28.369  35.575  1.00  0.00     0.058 A 
ATOM     62  C   UNL A   1      45.081  28.598  35.310  1.00  0.00     0.135 A 
ATOM     63  C   UNL A   1      43.397  27.371  36.511  1.00  0.00     0.135 A 
ATOM     64  F   UNL A   1      45.447  29.527  34.413  1.00  0.00    -0.206 F 
ATOM     65  C   UNL A   1      46.079  27.848  35.923  1.00  0.00     0.059 A 
ATOM     66  C   UNL A   1      44.380  26.631  37.160  1.00  0.00     0.059 A 
ATOM     67  F   UNL A   1      42.114  27.109  36.802  1.00  0.00    -0.206 F 
ATOM     68  C   UNL A   1      45.719  26.867  36.848  1.00  0.00     0.060 A 
BRANCH  68  69
ATOM     69  S   UNL A   1      47.028  25.907  37.638  1.00  0.00     0.124 S 
ATOM     70  O   UNL A   1      46.254  24.930  38.396  1.00  0.00    -0.237 OA
ATOM     71  O   UNL A   1      47.763  25.383  36.492  1.00  0.00    -0.237 OA
ATOM     72  O   UNL A   1      47.742  26.898  38.437  1.00  0.00    -0.744 OA
ENDBRANCH  68  69
ENDBRANCH  47  61
BRANCH  48  73
ATOM     73  C   UNL A   1      36.391  33.355  30.941  1.00  0.00     0.058 A 
ATOM     74  C   UNL A   1      36.632  34.145  29.807  1.00  0.00     0.135 A 
ATOM     75  C   UNL A   1      35.070  33.274  31.410  1.00  0.00     0.135 A 
ATOM     76  F   UNL A   1      37.879  34.261  29.323  1.00  0.00    -0.206 F 
ATOM     77  C   UNL A   1      35.611  34.844  29.173  1.00  0.00     0.059 A 
ATOM     78  C   UNL A   1      34.026  33.941  30.776  1.00  0.00     0.059 A 
ATOM     79  F   UNL A   1      34.782  32.517  32.480  1.00  0.00    -0.206 F 
ATOM     80  C   UNL A   1      34.308  34.734  29.664  1.00  0.00     0.060 A 
BRANCH  80  81
ATOM     81  S   UNL A   1      32.981  35.607  28.806  1.00  0.00     0.124 S 
ATOM     82  O   UNL A   1      33.725  36.628  28.079  1.00  0.00    -0.237 OA
ATOM     83  O   UNL A   1      32.392  34.546  27.995  1.00  0.00    -0.237 OA
ATOM     84  O   UNL A   1      32.141  36.093  29.895  1.00  0.00    -0.744 OA
ENDBRANCH  80  81
ENDBRANCH  48  73
BRANCH  60  85
ATOM     85  C   UNL A   1      39.862  34.316  36.918  1.00  0.00     0.058 A 
ATOM     86  C   UNL A   1      40.587  35.513  36.826  1.00  0.00     0.135 A 
ATOM     87  C   UNL A   1      39.003  34.152  38.019  1.00  0.00     0.135 A 
ATOM     88  F   UNL A   1      41.426  35.717  35.797  1.00  0.00    -0.206 F 
ATOM     89  C   UNL A   1      40.485  36.502  37.799  1.00  0.00     0.059 A 
ATOM     90  C   UNL A   1      38.863  35.140  38.988  1.00  0.00     0.059 A 
ATOM     91  F   UNL A   1      38.278  33.031  38.151  1.00  0.00    -0.206 F 
ATOM     92  C   UNL A   1      39.616  36.307  38.875  1.00  0.00     0.060 A 
BRANCH  92  93
ATOM     93  S   UNL A   1      39.465  37.614  40.112  1.00  0.00     0.124 S 
ATOM     94  O   UNL A   1      39.263  36.841  41.333  1.00  0.00    -0.237 OA
ATOM     95  O   UNL A   1      40.750  38.297  40.000  1.00  0.00    -0.237 OA
ATOM     96  O   UNL A   1      38.311  38.382  39.656  1.00  0.00    -0.744 OA
ENDBRANCH  92  93
ENDBRANCH  60  85
ENDBRANCH  34  35
ENDBRANCH  26  29
ENDBRANCH  24  25
ENDBRANCH   1  24
TORSDOF 15
ENDMDL
MODEL 2
REMARK VINA RESULT:     -12.5      6.687     12.166
REMARK SMILES C[C@@H]1[C@@H](C(=O)NCCCNC(=O)c2ccc(-c3c4nc(c(-c5c(F)cc(S(=O)(=O)[O-])cc5F)c5ccc([nH]5)c(-c5c(F)cc(S(=O)(=O)[O-])cc5F)c5nc(c(-c6c(F)cc(S(=O)(=O)[O-])cc6F)c6ccc3[nH]6)C=C5)C=C4)cc2)CCN1C(=O)N1CCC[C@H]2CCC[C@@H]21
REMARK SMILES IDX 8 1 7 2 6 3 4 4 5 5 3 7 1 8 2 9 81 10 79 11 80 12 82 13
REMARK SMILES IDX 83 14 84 15 85 16 92 17 86 18 88 19 91 20 87 21 89 22 90 23
REMARK SMILES IDX 9 24 10 25 11 26 12 28 13 29 14 30 78 31 15 32 77 33 16 34
REMARK SMILES IDX 17 35 18 36 71 37 19 38 76 39 70 40 72 41 20 42 75 43 69 44
REMARK SMILES IDX 68 45 21 47 55 48 34 49 54 50 35 51 38 52 53 53 73 54 36 55
REMARK SMILES IDX 37 56 52 58 74 59 39 60 22 61 23 62 32 63 24 64 25 65 31 66
REMARK SMILES IDX 33 67 26 68 27 69 28 70 29 71 30 72 56 73 57 74 66 75 58 76
REMARK SMILES IDX 59 77 65 78 67 79 60 80 61 81 62 82 63 83 64 84 40 85 41 86
REMARK SMILES IDX 50 87 42 88 43 89 49 90 51 91 44 92 45 93 46 94 47 95 48 96
REMARK H PARENT 6 6 10 27 72 46 38 57
REMARK Flexibility Score: inf
ROOT
ATOM      1  C   UNL A   1      34.308  28.837  26.916  1.00  0.00     0.042 C 
ENDROOT
BRANCH   1   2
ATOM      2  C   UNL A   1      33.232  29.741  26.347  1.00  0.00     0.117 C 
BRANCH   2   3
ATOM      3  N   UNL A   1      33.182  29.753  24.896  1.00  0.00    -0.356 N 
ATOM      4  C   UNL A   1      32.461  28.960  24.050  1.00  0.00     0.225 C 
ATOM      5  O   UNL A   1      32.545  29.192  22.844  1.00  0.00    -0.275 OA
ATOM      6  H   UNL A   1      33.747  30.431  24.461  1.00  0.00     0.163 HD
BRANCH   4   7
ATOM      7  C   UNL A   1      31.688  27.777  24.619  1.00  0.00     0.102 C 
ATOM      8  C   UNL A   1      32.113  25.750  26.003  1.00  0.00     0.032 C 
ATOM      9  C   UNL A   1      32.571  26.514  24.752  1.00  0.00     0.096 C 
ATOM     10  N   UNL A   1      32.334  25.773  23.493  1.00  0.00    -0.321 N 
ATOM     11  C   UNL A   1      30.534  27.275  23.745  1.00  0.00     0.037 C 
ATOM     12  C   UNL A   1      31.203  26.324  22.778  1.00  0.00     0.122 C 
BRANCH  10  13
ATOM     13  C   UNL A   1      33.247  25.054  22.734  1.00  0.00     0.320 C 
ATOM     14  O   UNL A   1      33.938  25.592  21.869  1.00  0.00    -0.248 OA
BRANCH  13  15
ATOM     15  N   UNL A   1      33.431  23.742  23.082  1.00  0.00    -0.321 N 
ATOM     16  C   UNL A   1      32.823  22.659  22.326  1.00  0.00     0.121 C 
ATOM     17  C   UNL A   1      34.568  23.315  23.872  1.00  0.00     0.090 C 
ATOM     18  C   UNL A   1      32.316  21.562  23.265  1.00  0.00     0.022 C 
ATOM     19  C   UNL A   1      34.030  22.348  24.930  1.00  0.00     0.012 C 
ATOM     20  C   UNL A   1      35.333  24.319  24.728  1.00  0.00     0.025 C 
ATOM     21  C   UNL A   1      33.398  21.123  24.271  1.00  0.00     0.007 C 
ATOM     22  C   UNL A   1      35.235  22.114  25.825  1.00  0.00     0.006 C 
ATOM     23  C   UNL A   1      35.969  23.462  25.832  1.00  0.00     0.002 C 
ENDBRANCH  13  15
ENDBRANCH  10  13
ENDBRANCH   4   7
ENDBRANCH   2   3
ENDBRANCH   1   2
BRANCH   1  24
ATOM     24  C   UNL A   1      35.504  29.562  27.514  1.00  0.00     0.118 C 
BRANCH  24  25
ATOM     25  N   UNL A   1      35.361  29.847  28.935  1.00  0.00    -0.352 N 
ATOM     26  C   UNL A   1      36.298  29.865  29.945  1.00  0.00     0.251 C 
ATOM     27  H   UNL A   1      34.444  30.065  29.220  1.00  0.00     0.163 HD
ATOM     28  O   UNL A   1      35.930  29.999  31.104  1.00  0.00    -0.269 OA
BRANCH  26  29
ATOM     29  C   UNL A   1      37.736  29.682  29.639  1.00  0.00     0.039 A 
ATOM     30  C   UNL A   1      38.580  29.176  30.631  1.00  0.00     0.014 A 
ATOM     31  C   UNL A   1      38.257  29.996  28.383  1.00  0.00     0.014 A 
ATOM     32  C   UNL A   1      39.917  28.897  30.330  1.00  0.00     0.010 A 
ATOM     33  C   UNL A   1      39.551  29.612  28.052  1.00  0.00     0.010 A 
ATOM     34  C   UNL A   1      40.400  29.060  29.022  1.00  0.00    -0.014 A 
BRANCH  34  35
ATOM     35  C   UNL A   1      41.785  28.670  28.645  1.00  0.00     0.031 A 
ATOM     36  C   UNL A   1      42.877  29.708  28.599  1.00  0.00     0.074 A 
ATOM     37  C   UNL A   1      42.047  27.400  28.272  1.00  0.00     0.049 A 
ATOM     38  N   UNL A   1      44.119  29.585  28.207  1.00  0.00    -0.248 NA
ATOM     39  C   UNL A   1      42.515  31.074  29.016  1.00  0.00     0.031 C 
ATOM     40  C   UNL A   1      41.067  26.313  28.221  1.00  0.00     0.029 A 
ATOM     41  N   UNL A   1      43.214  26.810  27.853  1.00  0.00    -0.354 N 
ATOM     42  C   UNL A   1      44.678  30.853  28.314  1.00  0.00     0.074 A 
ATOM     43  C   UNL A   1      43.624  31.745  28.745  1.00  0.00     0.031 C 
ATOM     44  C   UNL A   1      41.679  25.184  27.827  1.00  0.00     0.029 A 
ATOM     45  C   UNL A   1      43.083  25.475  27.552  1.00  0.00     0.049 A 
ATOM     46  H   UNL A   1      44.066  27.298  27.777  1.00  0.00     0.167 HD
ATOM     47  C   UNL A   1      45.960  31.238  28.102  1.00  0.00     0.037 A 
ATOM     48  C   UNL A   1      43.986  24.585  27.096  1.00  0.00     0.037 A 
ATOM     49  C   UNL A   1      47.013  30.340  27.704  1.00  0.00     0.049 A 
ATOM     50  C   UNL A   1      45.404  25.035  26.864  1.00  0.00     0.074 A 
ATOM     51  C   UNL A   1      48.355  30.618  27.518  1.00  0.00     0.029 A 
ATOM     52  N   UNL A   1      46.842  28.990  27.429  1.00  0.00    -0.354 N 
ATOM     53  N   UNL A   1      45.928  26.226  27.029  1.00  0.00    -0.248 NA
ATOM     54  C   UNL A   1      46.355  24.019  26.390  1.00  0.00     0.031 C 
ATOM     55  C   UNL A   1      48.988  29.448  27.086  1.00  0.00     0.029 A 
ATOM     56  C   UNL A   1      48.051  28.427  27.056  1.00  0.00     0.049 A 
ATOM     57  H   UNL A   1      45.988  28.504  27.491  1.00  0.00     0.167 HD
ATOM     58  C   UNL A   1      47.275  26.096  26.710  1.00  0.00     0.074 A 
ATOM     59  C   UNL A   1      47.487  24.709  26.352  1.00  0.00     0.031 C 
ATOM     60  C   UNL A   1      48.249  27.040  26.713  1.00  0.00     0.037 A 
BRANCH  47  61
ATOM     61  C   UNL A   1      46.298  32.690  28.308  1.00  0.00     0.058 A 
ATOM     62  C   UNL A   1      46.212  33.622  27.260  1.00  0.00     0.135 A 
ATOM     63  C   UNL A   1      46.680  33.164  29.574  1.00  0.00     0.135 A 
ATOM     64  F   UNL A   1      45.867  33.223  26.026  1.00  0.00    -0.206 F 
ATOM     65  C   UNL A   1      46.522  34.964  27.452  1.00  0.00     0.059 A 
ATOM     66  C   UNL A   1      46.964  34.508  29.796  1.00  0.00     0.059 A 
ATOM     67  F   UNL A   1      46.780  32.318  30.610  1.00  0.00    -0.206 F 
ATOM     68  C   UNL A   1      46.897  35.398  28.725  1.00  0.00     0.060 A 
BRANCH  68  69
ATOM     69  S   UNL A   1      47.290  37.145  28.958  1.00  0.00     0.124 S 
ATOM     70  O   UNL A   1      46.013  37.775  28.639  1.00  0.00    -0.237 OA
ATOM     71  O   UNL A   1      47.686  37.189  30.361  1.00  0.00    -0.237 OA
ATOM     72  O   UNL A   1      48.364  37.383  27.999  1.00  0.00    -0.744 OA
ENDBRANCH  68  69
ENDBRANCH  47  61
BRANCH  48  73
ATOM     73  C   UNL A   1      43.586  23.172  26.855  1.00  0.00     0.058 A 
ATOM     74  C   UNL A   1      43.296  22.310  27.924  1.00  0.00     0.135 A 
ATOM     75  C   UNL A   1      43.474  22.656  25.554  1.00  0.00     0.135 A 
ATOM     76  F   UNL A   1      43.395  22.753  29.187  1.00  0.00    -0.206 F 
ATOM     77  C   UNL A   1      42.930  20.985  27.716  1.00  0.00     0.059 A 
ATOM     78  C   UNL A   1      43.082  21.342  25.319  1.00  0.00     0.059 A 
ATOM     79  F   UNL A   1      43.723  23.442  24.495  1.00  0.00    -0.206 F 
ATOM     80  C   UNL A   1      42.822  20.510  26.407  1.00  0.00     0.060 A 
BRANCH  80  81
ATOM     81  S   UNL A   1      42.299  18.802  26.146  1.00  0.00     0.124 S 
ATOM     82  O   UNL A   1      42.481  18.233  27.476  1.00  0.00    -0.237 OA
ATOM     83  O   UNL A   1      40.918  18.969  25.706  1.00  0.00    -0.237 OA
ATOM     84  O   UNL A   1      43.221  18.321  25.122  1.00  0.00    -0.744 OA
ENDBRANCH  80  81
ENDBRANCH  48  73
BRANCH  60  85
ATOM     85  C   UNL A   1      49.643  26.601  26.358  1.00  0.00     0.058 A 
ATOM     86  C   UNL A   1      50.477  25.959  27.286  1.00  0.00     0.135 A 
ATOM     87  C   UNL A   1      50.129  26.776  25.051  1.00  0.00     0.135 A 
ATOM     88  F   UNL A   1      50.063  25.772  28.550  1.00  0.00    -0.206 F 
ATOM     89  C   UNL A   1      51.753  25.527  26.939  1.00  0.00     0.059 A 
ATOM     90  C   UNL A   1      51.390  26.326  24.674  1.00  0.00     0.059 A 
ATOM     91  F   UNL A   1      49.369  27.375  24.121  1.00  0.00    -0.206 F 
ATOM     92  C   UNL A   1      52.199  25.712  25.628  1.00  0.00     0.060 A 
BRANCH  92  93
ATOM     93  S   UNL A   1      53.843  25.114  25.183  1.00  0.00     0.124 S 
ATOM     94  O   UNL A   1      54.107  25.864  23.959  1.00  0.00    -0.237 OA
ATOM     95  O   UNL A   1      54.639  25.497  26.344  1.00  0.00    -0.237 OA
ATOM     96  O   UNL A   1      53.647  23.678  25.010  1.00  0.00    -0.744 OA
ENDBRANCH  92  93
ENDBRANCH  60  85
ENDBRANCH  34  35
ENDBRANCH  26  29
ENDBRANCH  24  25
ENDBRANCH   1  24
TORSDOF 15
ENDMDL
MODEL 3
REMARK VINA RESULT:     -12.3      0.624      8.295
REMARK SMILES C[C@@H]1[C@@H](C(=O)NCCCNC(=O)c2ccc(-c3c4nc(c(-c5c(F)cc(S(=O)(=O)[O-])cc5F)c5ccc([nH]5)c(-c5c(F)cc(S(=O)(=O)[O-])cc5F)c5nc(c(-c6c(F)cc(S(=O)(=O)[O-])cc6F)c6ccc3[nH]6)C=C5)C=C4)cc2)CCN1C(=O)N1CCC[C@H]2CCC[C@@H]21
REMARK SMILES IDX 8 1 7 2 6 3 4 4 5 5 3 7 1 8 2 9 81 10 79 11 80 12 82 13
REMARK SMILES IDX 83 14 84 15 85 16 92 17 86 18 88 19 91 20 87 21 89 22 90 23
REMARK SMILES IDX 9 24 10 25 11 26 12 28 13 29 14 30 78 31 15 32 77 33 16 34
REMARK SMILES IDX 17 35 18 36 71 37 19 38 76 39 70 40 72 41 20 42 75 43 69 44
REMARK SMILES IDX 68 45 21 47 55 48 34 49 54 50 35 51 38 52 53 53 73 54 36 55
REMARK SMILES IDX 37 56 52 58 74 59 39 60 22 61 23 62 32 63 24 64 25 65 31 66
REMARK SMILES IDX 33 67 26 68 27 69 28 70 29 71 30 72 56 73 57 74 66 75 58 76
REMARK SMILES IDX 59 77 65 78 67 79 60 80 61 81 62 82 63 83 64 84 40 85 41 86
REMARK SMILES IDX 50 87 42 88 43 89 49 90 51 91 44 92 45 93 46 94 47 95 48 96
REMARK H PARENT 6 6 10 27 72 46 38 57
REMARK Flexibility Score: inf
ROOT
ATOM      1  C   UNL A   1      37.333  23.755  26.056  1.00  0.00     0.042 C 
ENDROOT
BRANCH   1   2
ATOM      2  C   UNL A   1      37.035  22.293  25.783  1.00  0.00     0.117 C 
BRANCH   2   3
ATOM      3  N   UNL A   1      35.891  21.780  26.514  1.00  0.00    -0.356 N 
ATOM      4  C   UNL A   1      34.584  21.694  26.125  1.00  0.00     0.225 C 
ATOM      5  O   UNL A   1      33.791  21.172  26.907  1.00  0.00    -0.275 OA
ATOM      6  H   UNL A   1      36.084  21.445  27.419  1.00  0.00     0.163 HD
BRANCH   4   7
ATOM      7  C   UNL A   1      34.158  22.336  24.811  1.00  0.00     0.102 C 
ATOM      8  C   UNL A   1      34.221  24.569  23.707  1.00  0.00     0.032 C 
ATOM      9  C   UNL A   1      33.794  23.831  24.984  1.00  0.00     0.096 C 
ATOM     10  N   UNL A   1      32.329  23.824  25.196  1.00  0.00    -0.321 N 
ATOM     11  C   UNL A   1      32.880  21.761  24.192  1.00  0.00     0.037 C 
ATOM     12  C   UNL A   1      31.772  22.525  24.881  1.00  0.00     0.122 C 
BRANCH  10  13
ATOM     13  C   UNL A   1      31.580  24.621  26.048  1.00  0.00     0.320 C 
ATOM     14  O   UNL A   1      31.419  24.333  27.234  1.00  0.00    -0.248 OA
BRANCH  13  15
ATOM     15  N   UNL A   1      31.134  25.811  25.535  1.00  0.00    -0.321 N 
ATOM     16  C   UNL A   1      29.763  25.980  25.080  1.00  0.00     0.121 C 
ATOM     17  C   UNL A   1      31.790  27.067  25.839  1.00  0.00     0.090 C 
ATOM     18  C   UNL A   1      29.719  26.819  23.800  1.00  0.00     0.022 C 
ATOM     19  C   UNL A   1      31.906  27.834  24.520  1.00  0.00     0.012 C 
ATOM     20  C   UNL A   1      33.233  27.082  26.334  1.00  0.00     0.025 C 
ATOM     21  C   UNL A   1      30.521  28.127  23.943  1.00  0.00     0.007 C 
ATOM     22  C   UNL A   1      32.772  29.025  24.889  1.00  0.00     0.006 C 
ATOM     23  C   UNL A   1      33.751  28.470  25.933  1.00  0.00     0.002 C 
ENDBRANCH  13  15
ENDBRANCH  10  13
ENDBRANCH   4   7
ENDBRANCH   2   3
ENDBRANCH   1   2
BRANCH   1  24
ATOM     24  C   UNL A   1      38.633  24.016  26.801  1.00  0.00     0.118 C 
BRANCH  24  25
ATOM     25  N   UNL A   1      39.710  24.491  25.944  1.00  0.00    -0.352 N 
ATOM     26  C   UNL A   1      40.610  25.519  26.122  1.00  0.00     0.251 C 
ATOM     27  H   UNL A   1      39.812  23.997  25.100  1.00  0.00     0.163 HD
ATOM     28  O   UNL A   1      41.352  25.835  25.202  1.00  0.00    -0.269 OA
BRANCH  26  29
ATOM     29  C   UNL A   1      40.654  26.265  27.401  1.00  0.00     0.039 A 
ATOM     30  C   UNL A   1      41.558  27.323  27.537  1.00  0.00     0.014 A 
ATOM     31  C   UNL A   1      39.809  25.938  28.463  1.00  0.00     0.014 A 
ATOM     32  C   UNL A   1      41.543  28.106  28.696  1.00  0.00     0.010 A 
ATOM     33  C   UNL A   1      39.715  26.785  29.561  1.00  0.00     0.010 A 
ATOM     34  C   UNL A   1      40.583  27.878  29.695  1.00  0.00    -0.014 A 
BRANCH  34  35
ATOM     35  C   UNL A   1      40.470  28.760  30.887  1.00  0.00     0.031 A 
ATOM     36  C   UNL A   1      39.450  29.868  30.914  1.00  0.00     0.074 A 
ATOM     37  C   UNL A   1      41.334  28.615  31.914  1.00  0.00     0.049 A 
ATOM     38  N   UNL A   1      39.260  30.796  31.817  1.00  0.00    -0.248 NA
ATOM     39  C   UNL A   1      38.545  29.969  29.756  1.00  0.00     0.031 C 
ATOM     40  C   UNL A   1      42.403  27.616  31.988  1.00  0.00     0.029 A 
ATOM     41  N   UNL A   1      41.457  29.315  33.089  1.00  0.00    -0.354 N 
ATOM     42  C   UNL A   1      38.231  31.595  31.329  1.00  0.00     0.074 A 
ATOM     43  C   UNL A   1      37.881  31.082  30.023  1.00  0.00     0.031 C 
ATOM     44  C   UNL A   1      43.051  27.747  33.157  1.00  0.00     0.029 A 
ATOM     45  C   UNL A   1      42.476  28.866  33.897  1.00  0.00     0.049 A 
ATOM     46  H   UNL A   1      40.870  30.067  33.331  1.00  0.00     0.167 HD
ATOM     47  C   UNL A   1      37.612  32.642  31.927  1.00  0.00     0.037 A 
ATOM     48  C   UNL A   1      42.908  29.310  35.094  1.00  0.00     0.037 A 
ATOM     49  C   UNL A   1      37.944  33.128  33.241  1.00  0.00     0.049 A 
ATOM     50  C   UNL A   1      42.207  30.477  35.737  1.00  0.00     0.074 A 
ATOM     51  C   UNL A   1      37.340  34.145  33.958  1.00  0.00     0.029 A 
ATOM     52  N   UNL A   1      38.969  32.632  34.034  1.00  0.00    -0.354 N 
ATOM     53  N   UNL A   1      41.196  31.182  35.287  1.00  0.00    -0.248 NA
ATOM     54  C   UNL A   1      42.702  30.907  37.053  1.00  0.00     0.031 C 
ATOM     55  C   UNL A   1      38.028  34.296  35.166  1.00  0.00     0.029 A 
ATOM     56  C   UNL A   1      39.026  33.336  35.226  1.00  0.00     0.049 A 
ATOM     57  H   UNL A   1      39.566  31.889  33.788  1.00  0.00     0.167 HD
ATOM     58  C   UNL A   1      40.914  32.116  36.277  1.00  0.00     0.074 A 
ATOM     59  C   UNL A   1      41.853  31.880  37.353  1.00  0.00     0.031 C 
ATOM     60  C   UNL A   1      39.962  33.082  36.294  1.00  0.00     0.037 A 
BRANCH  47  61
ATOM     61  C   UNL A   1      36.507  33.326  31.168  1.00  0.00     0.058 A 
ATOM     62  C   UNL A   1      35.161  33.193  31.547  1.00  0.00     0.135 A 
ATOM     63  C   UNL A   1      36.797  34.151  30.069  1.00  0.00     0.135 A 
ATOM     64  F   UNL A   1      34.824  32.405  32.580  1.00  0.00    -0.206 F 
ATOM     65  C   UNL A   1      34.141  33.827  30.847  1.00  0.00     0.059 A 
ATOM     66  C   UNL A   1      35.796  34.820  29.373  1.00  0.00     0.059 A 
ATOM     67  F   UNL A   1      38.065  34.313  29.662  1.00  0.00    -0.206 F 
ATOM     68  C   UNL A   1      34.468  34.640  29.760  1.00  0.00     0.060 A 
BRANCH  68  69
ATOM     69  S   UNL A   1      33.132  35.461  28.866  1.00  0.00     0.124 S 
ATOM     70  O   UNL A   1      33.873  36.413  28.045  1.00  0.00    -0.237 OA
ATOM     71  O   UNL A   1      32.513  34.352  28.146  1.00  0.00    -0.237 OA
ATOM     72  O   UNL A   1      32.320  36.046  29.927  1.00  0.00    -0.744 OA
ENDBRANCH  68  69
ENDBRANCH  47  61
BRANCH  48  73
ATOM     73  C   UNL A   1      44.044  28.633  35.776  1.00  0.00     0.058 A 
ATOM     74  C   UNL A   1      43.821  27.585  36.682  1.00  0.00     0.135 A 
ATOM     75  C   UNL A   1      45.374  29.009  35.530  1.00  0.00     0.135 A 
ATOM     76  F   UNL A   1      42.568  27.192  36.957  1.00  0.00    -0.206 F 
ATOM     77  C   UNL A   1      44.871  26.948  37.335  1.00  0.00     0.059 A 
ATOM     78  C   UNL A   1      46.443  28.368  36.148  1.00  0.00     0.059 A 
ATOM     79  F   UNL A   1      45.644  29.994  34.657  1.00  0.00    -0.206 F 
ATOM     80  C   UNL A   1      46.181  27.345  37.059  1.00  0.00     0.060 A 
BRANCH  80  81
ATOM     81  S   UNL A   1      47.539  26.480  37.875  1.00  0.00     0.124 S 
ATOM     82  O   UNL A   1      47.108  26.505  39.268  1.00  0.00    -0.237 OA
ATOM     83  O   UNL A   1      47.508  25.176  37.219  1.00  0.00    -0.237 OA
ATOM     84  O   UNL A   1      48.700  27.305  37.558  1.00  0.00    -0.744 OA
ENDBRANCH  80  81
ENDBRANCH  48  73
BRANCH  60  85
ATOM     85  C   UNL A   1      39.857  33.933  37.529  1.00  0.00     0.058 A 
ATOM     86  C   UNL A   1      40.557  35.142  37.658  1.00  0.00     0.135 A 
ATOM     87  C   UNL A   1      38.997  33.558  38.577  1.00  0.00     0.135 A 
ATOM     88  F   UNL A   1      41.396  35.544  36.689  1.00  0.00    -0.206 F 
ATOM     89  C   UNL A   1      40.429  35.939  38.791  1.00  0.00     0.059 A 
ATOM     90  C   UNL A   1      38.831  34.354  39.705  1.00  0.00     0.059 A 
ATOM     91  F   UNL A   1      38.296  32.416  38.500  1.00  0.00    -0.206 F 
ATOM     92  C   UNL A   1      39.559  35.538  39.809  1.00  0.00     0.060 A 
BRANCH  92  93
ATOM     93  S   UNL A   1      39.375  36.599  41.257  1.00  0.00     0.124 S 
ATOM     94  O   UNL A   1      38.418  35.842  42.057  1.00  0.00    -0.237 OA
ATOM     95  O   UNL A   1      40.737  36.651  41.780  1.00  0.00    -0.237 OA
ATOM     96  O   UNL A   1      38.876  37.853  40.699  1.00  0.00    -0.744 OA
ENDBRANCH  92  93
ENDBRANCH  60  85
ENDBRANCH  34  35
ENDBRANCH  26  29
ENDBRANCH  24  25
ENDBRANCH   1  24
TORSDOF 15
ENDMDL
