MODEL 1
REMARK VINA RESULT:     -12.2      0.000      0.000
REMARK SMILES C[C@@H](Nc1ccc(C(=O)NCCCNC(=O)c2ccc(-c3c4nc(c(-c5c(F)cc(S(=O)(=O)[O-])cc5F)c5ccc([nH]5)c(-c5c(F)cc(S(=O)(=O)[O-])cc5F)c5nc(c(-c6c(F)cc(S(=O)(=O)[O-])cc6F)c6ccc3[nH]6)C=C5)C=C4)cc2)cc1)C1CC[NH+](C)CC1
REMARK SMILES IDX 12 1 11 2 10 3 8 4 9 5 7 7 4 8 5 9 84 10 6 11 83 12 3 13
REMARK SMILES IDX 2 15 1 16 85 17 86 18 91 19 87 20 90 21 88 22 89 23 13 25
REMARK SMILES IDX 14 26 15 27 16 29 17 30 18 31 82 32 19 33 81 34 20 35 21 36
REMARK SMILES IDX 22 37 75 38 23 39 80 40 74 41 76 42 24 43 79 44 73 45 72 46
REMARK SMILES IDX 25 48 59 49 38 50 58 51 39 52 42 53 57 54 77 55 40 56 41 57
REMARK SMILES IDX 56 59 78 60 43 61 26 62 27 63 36 64 28 65 29 66 35 67 37 68
REMARK SMILES IDX 30 69 31 70 32 71 33 72 34 73 60 74 61 75 70 76 62 77 63 78
REMARK SMILES IDX 69 79 71 80 64 81 65 82 66 83 67 84 68 85 44 86 45 87 54 88
REMARK SMILES IDX 46 89 47 90 53 91 55 92 48 93 49 94 50 95 51 96 52 97
REMARK H PARENT 10 6 3 14 88 24 14 28 76 47 42 58
REMARK Flexibility Score: inf
ROOT
ATOM      1  C   UNL A   1      34.154  30.306  26.926  1.00  0.00     0.042 C 
ENDROOT
BRANCH   1   2
ATOM      2  C   UNL A   1      33.443  29.310  26.025  1.00  0.00     0.118 C 
BRANCH   2   3
ATOM      3  N   UNL A   1      32.267  29.890  25.413  1.00  0.00    -0.352 N 
ATOM      4  C   UNL A   1      31.401  29.348  24.505  1.00  0.00     0.251 C 
ATOM      5  O   UNL A   1      30.377  29.957  24.204  1.00  0.00    -0.269 OA
ATOM      6  H   UNL A   1      32.061  30.811  25.692  1.00  0.00     0.163 HD
BRANCH   4   7
ATOM      7  C   UNL A   1      31.618  28.014  23.934  1.00  0.00     0.039 A 
ATOM      8  C   UNL A   1      31.981  24.577  22.809  1.00  0.00     0.034 A 
ATOM      9  C   UNL A   1      30.515  25.060  23.778  1.00  0.00     0.026 A 
ATOM     10  C   UNL A   1      33.182  25.827  22.263  1.00  0.00     0.026 A 
ATOM     11  C   UNL A   1      30.348  26.782  24.355  1.00  0.00     0.016 A 
ATOM     12  C   UNL A   1      32.991  27.573  22.835  1.00  0.00     0.016 A 
BRANCH   8  13
ATOM     13  N   UNL A   1      32.282  23.223  22.767  1.00  0.00    -0.382 N 
ATOM     14  H   UNL A   1      31.880  22.641  22.082  1.00  0.00     0.160 HD
BRANCH  13  15
ATOM     15  C   UNL A   1      33.212  22.672  23.762  1.00  0.00     0.079 C 
ATOM     16  C   UNL A   1      32.881  21.182  23.936  1.00  0.00     0.031 C 
BRANCH  15  17
ATOM     17  C   UNL A   1      33.368  23.353  25.161  1.00  0.00     0.022 C 
ATOM     18  C   UNL A   1      34.568  24.272  25.421  1.00  0.00     0.067 C 
ATOM     19  C   UNL A   1      33.203  22.403  26.339  1.00  0.00     0.067 C 
ATOM     20  C   UNL A   1      35.890  23.595  25.853  1.00  0.00     0.262 C 
ATOM     21  C   UNL A   1      34.536  22.030  27.006  1.00  0.00     0.262 C 
ATOM     22  N   UNL A   1      35.828  22.018  26.039  1.00  0.00    -0.337 N 
ATOM     23  C   UNL A   1      36.861  20.459  25.116  1.00  0.00     0.332 C 
ATOM     24  H   UNL A   1      36.565  21.320  25.933  1.00  0.00     0.347 HD
ENDBRANCH  15  17
ENDBRANCH  13  15
ENDBRANCH   8  13
ENDBRANCH   4   7
ENDBRANCH   2   3
ENDBRANCH   1   2
BRANCH   1  25
ATOM     25  C   UNL A   1      35.220  29.664  27.798  1.00  0.00     0.118 C 
BRANCH  25  26
ATOM     26  N   UNL A   1      35.246  30.230  29.138  1.00  0.00    -0.352 N 
ATOM     27  C   UNL A   1      36.260  30.234  30.060  1.00  0.00     0.251 C 
ATOM     28  H   UNL A   1      34.414  30.673  29.424  1.00  0.00     0.163 HD
ATOM     29  O   UNL A   1      36.016  30.529  31.227  1.00  0.00    -0.269 OA
BRANCH  27  30
ATOM     30  C   UNL A   1      37.635  29.880  29.649  1.00  0.00     0.039 A 
ATOM     31  C   UNL A   1      38.505  29.330  30.591  1.00  0.00     0.014 A 
ATOM     32  C   UNL A   1      38.071  30.112  28.340  1.00  0.00     0.014 A 
ATOM     33  C   UNL A   1      39.801  28.984  30.209  1.00  0.00     0.010 A 
ATOM     34  C   UNL A   1      39.323  29.666  27.936  1.00  0.00     0.010 A 
ATOM     35  C   UNL A   1      40.212  29.127  28.874  1.00  0.00    -0.014 A 
BRANCH  35  36
ATOM     36  C   UNL A   1      41.582  28.750  28.450  1.00  0.00     0.031 A 
ATOM     37  C   UNL A   1      42.674  29.787  28.424  1.00  0.00     0.074 A 
ATOM     38  C   UNL A   1      41.830  27.487  28.055  1.00  0.00     0.049 A 
ATOM     39  N   UNL A   1      43.930  29.656  28.086  1.00  0.00    -0.248 NA
ATOM     40  C   UNL A   1      42.298  31.161  28.798  1.00  0.00     0.031 C 
ATOM     41  C   UNL A   1      40.836  26.413  27.987  1.00  0.00     0.029 A 
ATOM     42  N   UNL A   1      42.994  26.889  27.643  1.00  0.00    -0.354 N 
ATOM     43  C   UNL A   1      44.487  30.924  28.198  1.00  0.00     0.074 A 
ATOM     44  C   UNL A   1      43.417  31.825  28.559  1.00  0.00     0.031 C 
ATOM     45  C   UNL A   1      41.442  25.278  27.606  1.00  0.00     0.029 A 
ATOM     46  C   UNL A   1      42.854  25.550  27.363  1.00  0.00     0.049 A 
ATOM     47  H   UNL A   1      43.847  27.372  27.557  1.00  0.00     0.167 HD
ATOM     48  C   UNL A   1      45.781  31.299  28.047  1.00  0.00     0.037 A 
ATOM     49  C   UNL A   1      43.767  24.645  26.962  1.00  0.00     0.037 A 
ATOM     50  C   UNL A   1      46.838  30.386  27.697  1.00  0.00     0.049 A 
ATOM     51  C   UNL A   1      45.195  25.083  26.787  1.00  0.00     0.074 A 
ATOM     52  C   UNL A   1      48.190  30.644  27.564  1.00  0.00     0.029 A 
ATOM     53  N   UNL A   1      46.657  29.039  27.417  1.00  0.00    -0.354 N 
ATOM     54  N   UNL A   1      45.721  26.272  26.966  1.00  0.00    -0.248 NA
ATOM     55  C   UNL A   1      46.155  24.056  26.362  1.00  0.00     0.031 C 
ATOM     56  C   UNL A   1      48.818  29.466  27.148  1.00  0.00     0.029 A 
ATOM     57  C   UNL A   1      47.870  28.456  27.085  1.00  0.00     0.049 A 
ATOM     58  H   UNL A   1      45.795  28.565  27.450  1.00  0.00     0.167 HD
ATOM     59  C   UNL A   1      47.080  26.130  26.707  1.00  0.00     0.074 A 
ATOM     60  C   UNL A   1      47.293  24.737  26.367  1.00  0.00     0.031 C 
ATOM     61  C   UNL A   1      48.061  27.065  26.750  1.00  0.00     0.037 A 
BRANCH  48  62
ATOM     62  C   UNL A   1      46.110  32.755  28.255  1.00  0.00     0.058 A 
ATOM     63  C   UNL A   1      46.469  33.261  29.517  1.00  0.00     0.135 A 
ATOM     64  C   UNL A   1      46.061  33.660  27.183  1.00  0.00     0.135 A 
ATOM     65  F   UNL A   1      46.520  32.447  30.583  1.00  0.00    -0.206 F 
ATOM     66  C   UNL A   1      46.714  34.615  29.718  1.00  0.00     0.059 A 
ATOM     67  C   UNL A   1      46.339  35.014  27.353  1.00  0.00     0.059 A 
ATOM     68  F   UNL A   1      45.728  33.236  25.953  1.00  0.00    -0.206 F 
ATOM     69  C   UNL A   1      46.641  35.486  28.630  1.00  0.00     0.060 A 
BRANCH  69  70
ATOM     70  S   UNL A   1      46.935  37.244  28.913  1.00  0.00     0.124 S 
ATOM     71  O   UNL A   1      46.984  37.300  30.371  1.00  0.00    -0.237 OA
ATOM     72  O   UNL A   1      48.205  37.462  28.228  1.00  0.00    -0.237 OA
ATOM     73  O   UNL A   1      45.777  37.887  28.300  1.00  0.00    -0.744 OA
ENDBRANCH  69  70
ENDBRANCH  48  62
BRANCH  49  74
ATOM     74  C   UNL A   1      43.358  23.230  26.755  1.00  0.00     0.058 A 
ATOM     75  C   UNL A   1      43.310  22.678  25.466  1.00  0.00     0.135 A 
ATOM     76  C   UNL A   1      43.055  22.390  27.838  1.00  0.00     0.135 A 
ATOM     77  F   UNL A   1      43.586  23.441  24.398  1.00  0.00    -0.206 F 
ATOM     78  C   UNL A   1      42.972  21.345  25.256  1.00  0.00     0.059 A 
ATOM     79  C   UNL A   1      42.741  21.046  27.655  1.00  0.00     0.059 A 
ATOM     80  F   UNL A   1      43.105  22.864  29.092  1.00  0.00    -0.206 F 
ATOM     81  C   UNL A   1      42.697  20.534  26.359  1.00  0.00     0.060 A 
BRANCH  81  82
ATOM     82  S   UNL A   1      42.332  18.788  26.078  1.00  0.00     0.124 S 
ATOM     83  O   UNL A   1      40.921  18.836  25.715  1.00  0.00    -0.237 OA
ATOM     84  O   UNL A   1      43.259  18.454  25.001  1.00  0.00    -0.237 OA
ATOM     85  O   UNL A   1      42.632  18.170  27.367  1.00  0.00    -0.744 OA
ENDBRANCH  81  82
ENDBRANCH  49  74
BRANCH  61  86
ATOM     86  C   UNL A   1      49.465  26.609  26.458  1.00  0.00     0.058 A 
ATOM     87  C   UNL A   1      50.271  26.014  27.440  1.00  0.00     0.135 A 
ATOM     88  C   UNL A   1      49.988  26.719  25.158  1.00  0.00     0.135 A 
ATOM     89  F   UNL A   1      49.823  25.891  28.700  1.00  0.00    -0.206 F 
ATOM     90  C   UNL A   1      51.556  25.567  27.151  1.00  0.00     0.059 A 
ATOM     91  C   UNL A   1      51.257  26.249  24.839  1.00  0.00     0.059 A 
ATOM     92  F   UNL A   1      49.254  27.270  24.178  1.00  0.00    -0.206 F 
ATOM     93  C   UNL A   1      52.038  25.685  25.846  1.00  0.00     0.060 A 
BRANCH  93  94
ATOM     94  S   UNL A   1      53.694  25.068  25.477  1.00  0.00     0.124 S 
ATOM     95  O   UNL A   1      54.436  25.487  26.662  1.00  0.00    -0.237 OA
ATOM     96  O   UNL A   1      53.469  23.631  25.346  1.00  0.00    -0.237 OA
ATOM     97  O   UNL A   1      54.048  25.757  24.239  1.00  0.00    -0.744 OA
ENDBRANCH  93  94
ENDBRANCH  61  86
ENDBRANCH  35  36
ENDBRANCH  27  30
ENDBRANCH  25  26
ENDBRANCH   1  25
TORSDOF 16
ENDMDL
MODEL 2
REMARK VINA RESULT:     -12.2      6.606     12.561
REMARK SMILES C[C@@H](Nc1ccc(C(=O)NCCCNC(=O)c2ccc(-c3c4nc(c(-c5c(F)cc(S(=O)(=O)[O-])cc5F)c5ccc([nH]5)c(-c5c(F)cc(S(=O)(=O)[O-])cc5F)c5nc(c(-c6c(F)cc(S(=O)(=O)[O-])cc6F)c6ccc3[nH]6)C=C5)C=C4)cc2)cc1)C1CC[NH+](C)CC1
REMARK SMILES IDX 12 1 11 2 10 3 8 4 9 5 7 7 4 8 5 9 84 10 6 11 83 12 3 13
REMARK SMILES IDX 2 15 1 16 85 17 86 18 91 19 87 20 90 21 88 22 89 23 13 25
REMARK SMILES IDX 14 26 15 27 16 29 17 30 18 31 82 32 19 33 81 34 20 35 21 36
REMARK SMILES IDX 22 37 75 38 23 39 80 40 74 41 76 42 24 43 79 44 73 45 72 46
REMARK SMILES IDX 25 48 59 49 38 50 58 51 39 52 42 53 57 54 77 55 40 56 41 57
REMARK SMILES IDX 56 59 78 60 43 61 26 62 27 63 36 64 28 65 29 66 35 67 37 68
REMARK SMILES IDX 30 69 31 70 32 71 33 72 34 73 60 74 61 75 70 76 62 77 63 78
REMARK SMILES IDX 69 79 71 80 64 81 65 82 66 83 67 84 68 85 44 86 45 87 54 88
REMARK SMILES IDX 46 89 47 90 53 91 55 92 48 93 49 94 50 95 51 96 52 97
REMARK H PARENT 10 6 3 14 88 24 14 28 76 47 42 58
REMARK Flexibility Score: inf
ROOT
ATOM      1  C   UNL A   1      44.350  22.847  26.880  1.00  0.00     0.042 C 
ENDROOT
BRANCH   1   2
ATOM      2  C   UNL A   1      43.375  21.924  26.169  1.00  0.00     0.118 C 
BRANCH   2   3
ATOM      3  N   UNL A   1      43.025  20.785  26.988  1.00  0.00    -0.352 N 
ATOM      4  C   UNL A   1      41.799  20.232  27.233  1.00  0.00     0.251 C 
ATOM      5  O   UNL A   1      41.722  19.176  27.856  1.00  0.00    -0.269 OA
ATOM      6  H   UNL A   1      43.782  20.342  27.435  1.00  0.00     0.163 HD
BRANCH   4   7
ATOM      7  C   UNL A   1      40.567  20.825  26.703  1.00  0.00     0.039 A 
ATOM      8  C   UNL A   1      37.538  22.057  25.114  1.00  0.00     0.034 A 
ATOM      9  C   UNL A   1      37.995  20.300  24.947  1.00  0.00     0.026 A 
ATOM     10  C   UNL A   1      38.492  23.162  26.197  1.00  0.00     0.026 A 
ATOM     11  C   UNL A   1      39.525  19.692  25.732  1.00  0.00     0.016 A 
ATOM     12  C   UNL A   1      40.029  22.530  27.004  1.00  0.00     0.016 A 
BRANCH   8  13
ATOM     13  N   UNL A   1      36.645  22.560  24.179  1.00  0.00    -0.382 N 
ATOM     14  H   UNL A   1      36.955  22.826  23.283  1.00  0.00     0.160 HD
BRANCH  13  15
ATOM     15  C   UNL A   1      35.229  22.689  24.547  1.00  0.00     0.079 C 
ATOM     16  C   UNL A   1      34.960  24.168  24.860  1.00  0.00     0.031 C 
BRANCH  15  17
ATOM     17  C   UNL A   1      34.617  21.784  25.666  1.00  0.00     0.022 C 
ATOM     18  C   UNL A   1      33.704  20.615  25.274  1.00  0.00     0.067 C 
ATOM     19  C   UNL A   1      33.976  22.556  26.811  1.00  0.00     0.067 C 
ATOM     20  C   UNL A   1      32.212  20.940  25.034  1.00  0.00     0.262 C 
ATOM     21  C   UNL A   1      32.440  22.548  26.759  1.00  0.00     0.262 C 
ATOM     22  N   UNL A   1      31.786  22.451  25.287  1.00  0.00    -0.337 N 
ATOM     23  C   UNL A   1      30.947  23.895  24.038  1.00  0.00     0.332 C 
ATOM     24  H   UNL A   1      31.035  22.996  24.862  1.00  0.00     0.347 HD
ENDBRANCH  15  17
ENDBRANCH  13  15
ENDBRANCH   8  13
ENDBRANCH   4   7
ENDBRANCH   2   3
ENDBRANCH   1   2
BRANCH   1  25
ATOM     25  C   UNL A   1      43.799  24.247  27.094  1.00  0.00     0.118 C 
BRANCH  25  26
ATOM     26  N   UNL A   1      42.939  24.670  26.000  1.00  0.00    -0.352 N 
ATOM     27  C   UNL A   1      41.865  25.521  26.018  1.00  0.00     0.251 C 
ATOM     28  H   UNL A   1      43.161  24.290  25.118  1.00  0.00     0.163 HD
ATOM     29  O   UNL A   1      41.106  25.559  25.053  1.00  0.00    -0.269 OA
BRANCH  27  30
ATOM     30  C   UNL A   1      41.622  26.380  27.196  1.00  0.00     0.039 A 
ATOM     31  C   UNL A   1      42.310  27.589  27.308  1.00  0.00     0.014 A 
ATOM     32  C   UNL A   1      40.734  25.980  28.200  1.00  0.00     0.014 A 
ATOM     33  C   UNL A   1      42.080  28.410  28.412  1.00  0.00     0.010 A 
ATOM     34  C   UNL A   1      40.425  26.848  29.240  1.00  0.00     0.010 A 
ATOM     35  C   UNL A   1      41.118  28.058  29.374  1.00  0.00    -0.014 A 
BRANCH  35  36
ATOM     36  C   UNL A   1      40.853  28.927  30.545  1.00  0.00     0.031 A 
ATOM     37  C   UNL A   1      41.691  28.790  31.789  1.00  0.00     0.074 A 
ATOM     38  C   UNL A   1      39.838  29.810  30.499  1.00  0.00     0.049 A 
ATOM     39  N   UNL A   1      41.616  29.455  32.912  1.00  0.00    -0.248 NA
ATOM     40  C   UNL A   1      42.731  27.747  31.782  1.00  0.00     0.031 C 
ATOM     41  C   UNL A   1      38.926  29.989  29.366  1.00  0.00     0.029 A 
ATOM     42  N   UNL A   1      39.403  30.726  31.423  1.00  0.00    -0.354 N 
ATOM     43  C   UNL A   1      42.587  28.907  33.743  1.00  0.00     0.074 A 
ATOM     44  C   UNL A   1      43.184  27.806  33.024  1.00  0.00     0.031 C 
ATOM     45  C   UNL A   1      38.073  30.988  29.644  1.00  0.00     0.029 A 
ATOM     46  C   UNL A   1      38.348  31.491  30.985  1.00  0.00     0.049 A 
ATOM     47  H   UNL A   1      39.809  30.826  32.314  1.00  0.00     0.167 HD
ATOM     48  C   UNL A   1      42.970  29.307  34.980  1.00  0.00     0.037 A 
ATOM     49  C   UNL A   1      37.684  32.490  31.596  1.00  0.00     0.037 A 
ATOM     50  C   UNL A   1      42.370  30.414  35.678  1.00  0.00     0.049 A 
ATOM     51  C   UNL A   1      38.115  32.911  32.974  1.00  0.00     0.074 A 
ATOM     52  C   UNL A   1      42.708  30.938  36.912  1.00  0.00     0.029 A 
ATOM     53  N   UNL A   1      41.301  31.162  35.204  1.00  0.00    -0.354 N 
ATOM     54  N   UNL A   1      39.083  32.430  33.718  1.00  0.00    -0.248 NA
ATOM     55  C   UNL A   1      37.369  34.014  33.593  1.00  0.00     0.031 C 
ATOM     56  C   UNL A   1      41.808  31.967  37.210  1.00  0.00     0.029 A 
ATOM     57  C   UNL A   1      40.949  32.128  36.133  1.00  0.00     0.049 A 
ATOM     58  H   UNL A   1      40.859  31.028  34.335  1.00  0.00     0.167 HD
ATOM     59  C   UNL A   1      39.084  33.192  34.881  1.00  0.00     0.074 A 
ATOM     60  C   UNL A   1      38.025  34.171  34.735  1.00  0.00     0.031 C 
ATOM     61  C   UNL A   1      39.890  33.094  35.968  1.00  0.00     0.037 A 
BRANCH  48  62
ATOM     62  C   UNL A   1      44.080  28.536  35.645  1.00  0.00     0.058 A 
ATOM     63  C   UNL A   1      45.434  28.855  35.436  1.00  0.00     0.135 A 
ATOM     64  C   UNL A   1      43.792  27.459  36.499  1.00  0.00     0.135 A 
ATOM     65  F   UNL A   1      45.772  29.865  34.620  1.00  0.00    -0.206 F 
ATOM     66  C   UNL A   1      46.458  28.104  36.004  1.00  0.00     0.059 A 
ATOM     67  C   UNL A   1      44.800  26.716  37.108  1.00  0.00     0.059 A 
ATOM     68  F   UNL A   1      42.519  27.108  36.740  1.00  0.00    -0.206 F 
ATOM     69  C   UNL A   1      46.130  27.032  36.835  1.00  0.00     0.060 A 
BRANCH  69  70
ATOM     70  S   UNL A   1      47.469  26.051  37.543  1.00  0.00     0.124 S 
ATOM     71  O   UNL A   1      48.400  25.977  36.420  1.00  0.00    -0.237 OA
ATOM     72  O   UNL A   1      47.900  26.876  38.667  1.00  0.00    -0.237 OA
ATOM     73  O   UNL A   1      46.820  24.795  37.902  1.00  0.00    -0.744 OA
ENDBRANCH  69  70
ENDBRANCH  48  62
BRANCH  49  74
ATOM     74  C   UNL A   1      36.583  33.187  30.880  1.00  0.00     0.058 A 
ATOM     75  C   UNL A   1      35.241  32.907  31.180  1.00  0.00     0.135 A 
ATOM     76  C   UNL A   1      36.845  34.178  29.921  1.00  0.00     0.135 A 
ATOM     77  F   UNL A   1      34.939  31.965  32.086  1.00  0.00    -0.206 F 
ATOM     78  C   UNL A   1      34.198  33.580  30.553  1.00  0.00     0.059 A 
ATOM     79  C   UNL A   1      35.818  34.884  29.300  1.00  0.00     0.059 A 
ATOM     80  F   UNL A   1      38.111  34.497  29.612  1.00  0.00    -0.206 F 
ATOM     81  C   UNL A   1      34.497  34.574  29.619  1.00  0.00     0.060 A 
BRANCH  81  82
ATOM     82  S   UNL A   1      33.136  35.491  28.866  1.00  0.00     0.124 S 
ATOM     83  O   UNL A   1      33.851  36.467  28.054  1.00  0.00    -0.237 OA
ATOM     84  O   UNL A   1      32.432  34.442  28.134  1.00  0.00    -0.237 OA
ATOM     85  O   UNL A   1      32.417  36.031  30.018  1.00  0.00    -0.744 OA
ENDBRANCH  81  82
ENDBRANCH  49  74
BRANCH  61  86
ATOM     86  C   UNL A   1      39.684  34.094  37.074  1.00  0.00     0.058 A 
ATOM     87  C   UNL A   1      39.006  33.762  38.257  1.00  0.00     0.135 A 
ATOM     88  C   UNL A   1      40.224  35.387  36.968  1.00  0.00     0.135 A 
ATOM     89  F   UNL A   1      38.464  32.543  38.407  1.00  0.00    -0.206 F 
ATOM     90  C   UNL A   1      38.848  34.685  39.286  1.00  0.00     0.059 A 
ATOM     91  C   UNL A   1      40.108  36.314  37.998  1.00  0.00     0.059 A 
ATOM     92  F   UNL A   1      40.893  35.752  35.862  1.00  0.00    -0.206 F 
ATOM     93  C   UNL A   1      39.407  35.957  39.148  1.00  0.00     0.060 A 
BRANCH  93  94
ATOM     94  S   UNL A   1      39.226  37.132  40.507  1.00  0.00     0.124 S 
ATOM     95  O   UNL A   1      38.515  38.227  39.857  1.00  0.00    -0.237 OA
ATOM     96  O   UNL A   1      38.455  36.364  41.481  1.00  0.00    -0.237 OA
ATOM     97  O   UNL A   1      40.604  37.420  40.894  1.00  0.00    -0.744 OA
ENDBRANCH  93  94
ENDBRANCH  61  86
ENDBRANCH  35  36
ENDBRANCH  27  30
ENDBRANCH  25  26
ENDBRANCH   1  25
TORSDOF 16
ENDMDL
MODEL 3
REMARK VINA RESULT:     -12.1      6.598     12.320
REMARK SMILES C[C@@H](Nc1ccc(C(=O)NCCCNC(=O)c2ccc(-c3c4nc(c(-c5c(F)cc(S(=O)(=O)[O-])cc5F)c5ccc([nH]5)c(-c5c(F)cc(S(=O)(=O)[O-])cc5F)c5nc(c(-c6c(F)cc(S(=O)(=O)[O-])cc6F)c6ccc3[nH]6)C=C5)C=C4)cc2)cc1)C1CC[NH+](C)CC1
REMARK SMILES IDX 12 1 11 2 10 3 8 4 9 5 7 7 4 8 5 9 84 10 6 11 83 12 3 13
REMARK SMILES IDX 2 15 1 16 85 17 86 18 91 19 87 20 90 21 88 22 89 23 13 25
REMARK SMILES IDX 14 26 15 27 16 29 17 30 18 31 82 32 19 33 81 34 20 35 21 36
REMARK SMILES IDX 22 37 75 38 23 39 80 40 74 41 76 42 24 43 79 44 73 45 72 46
REMARK SMILES IDX 25 48 59 49 38 50 58 51 39 52 42 53 57 54 77 55 40 56 41 57
REMARK SMILES IDX 56 59 78 60 43 61 26 62 27 63 36 64 28 65 29 66 35 67 37 68
REMARK SMILES IDX 30 69 31 70 32 71 33 72 34 73 60 74 61 75 70 76 62 77 63 78
REMARK SMILES IDX 69 79 71 80 64 81 65 82 66 83 67 84 68 85 44 86 45 87 54 88
REMARK SMILES IDX 46 89 47 90 53 91 55 92 48 93 49 94 50 95 51 96 52 97
REMARK H PARENT 10 6 3 14 88 24 14 28 76 47 42 58
REMARK Flexibility Score: inf
ROOT
ATOM      1  C   UNL A   1      39.902  21.950  26.727  1.00  0.00     0.042 C 
ENDROOT
BRANCH   1   2
ATOM      2  C   UNL A   1      38.656  22.155  25.882  1.00  0.00     0.118 C 
BRANCH   2   3
ATOM      3  N   UNL A   1      38.024  20.897  25.550  1.00  0.00    -0.352 N 
ATOM      4  C   UNL A   1      36.732  20.640  25.184  1.00  0.00     0.251 C 
ATOM      5  O   UNL A   1      36.419  19.513  24.809  1.00  0.00    -0.269 OA
ATOM      6  H   UNL A   1      38.612  20.108  25.593  1.00  0.00     0.163 HD
BRANCH   4   7
ATOM      7  C   UNL A   1      35.717  21.698  25.151  1.00  0.00     0.039 A 
ATOM      8  C   UNL A   1      33.424  24.502  24.844  1.00  0.00     0.034 A 
ATOM      9  C   UNL A   1      34.508  24.064  23.445  1.00  0.00     0.026 A 
ATOM     10  C   UNL A   1      33.362  23.456  26.328  1.00  0.00     0.026 A 
ATOM     11  C   UNL A   1      35.669  22.668  23.611  1.00  0.00     0.016 A 
ATOM     12  C   UNL A   1      34.528  22.031  26.478  1.00  0.00     0.016 A 
BRANCH   8  13
ATOM     13  N   UNL A   1      32.895  25.785  24.844  1.00  0.00    -0.382 N 
ATOM     14  H   UNL A   1      33.479  26.568  24.971  1.00  0.00     0.160 HD
BRANCH  13  15
ATOM     15  C   UNL A   1      31.449  25.956  24.650  1.00  0.00     0.079 C 
ATOM     16  C   UNL A   1      31.104  25.460  23.237  1.00  0.00     0.031 C 
BRANCH  15  17
ATOM     17  C   UNL A   1      30.774  27.342  24.912  1.00  0.00     0.022 C 
ATOM     18  C   UNL A   1      30.097  28.081  23.750  1.00  0.00     0.067 C 
ATOM     19  C   UNL A   1      31.643  28.321  25.688  1.00  0.00     0.067 C 
ATOM     20  C   UNL A   1      31.005  28.946  22.846  1.00  0.00     0.262 C 
ATOM     21  C   UNL A   1      32.248  29.424  24.805  1.00  0.00     0.262 C 
ATOM     22  N   UNL A   1      32.536  29.017  23.270  1.00  0.00    -0.337 N 
ATOM     23  C   UNL A   1      34.288  28.477  22.277  1.00  0.00     0.332 C 
ATOM     24  H   UNL A   1      33.365  29.163  22.694  1.00  0.00     0.347 HD
ENDBRANCH  15  17
ENDBRANCH  13  15
ENDBRANCH   8  13
ENDBRANCH   4   7
ENDBRANCH   2   3
ENDBRANCH   1   2
BRANCH   1  25
ATOM     25  C   UNL A   1      40.493  23.251  27.242  1.00  0.00     0.118 C 
BRANCH  25  26
ATOM     26  N   UNL A   1      41.224  23.968  26.209  1.00  0.00    -0.352 N 
ATOM     27  C   UNL A   1      41.496  25.307  26.107  1.00  0.00     0.251 C 
ATOM     28  H   UNL A   1      41.574  23.410  25.476  1.00  0.00     0.163 HD
ATOM     29  O   UNL A   1      41.900  25.764  25.041  1.00  0.00    -0.269 OA
BRANCH  27  30
ATOM     30  C   UNL A   1      41.296  26.193  27.273  1.00  0.00     0.039 A 
ATOM     31  C   UNL A   1      42.186  27.247  27.485  1.00  0.00     0.014 A 
ATOM     32  C   UNL A   1      40.246  25.968  28.169  1.00  0.00     0.014 A 
ATOM     33  C   UNL A   1      41.999  28.093  28.578  1.00  0.00     0.010 A 
ATOM     34  C   UNL A   1      39.999  26.876  29.191  1.00  0.00     0.010 A 
ATOM     35  C   UNL A   1      40.891  27.929  29.426  1.00  0.00    -0.014 A 
BRANCH  35  36
ATOM     36  C   UNL A   1      40.672  28.829  30.583  1.00  0.00     0.031 A 
ATOM     37  C   UNL A   1      41.530  28.697  31.813  1.00  0.00     0.074 A 
ATOM     38  C   UNL A   1      39.678  29.737  30.538  1.00  0.00     0.049 A 
ATOM     39  N   UNL A   1      41.495  29.386  32.923  1.00  0.00    -0.248 NA
ATOM     40  C   UNL A   1      42.543  27.627  31.808  1.00  0.00     0.031 C 
ATOM     41  C   UNL A   1      38.749  29.917  29.420  1.00  0.00     0.029 A 
ATOM     42  N   UNL A   1      39.287  30.683  31.450  1.00  0.00    -0.354 N 
ATOM     43  C   UNL A   1      42.468  28.831  33.746  1.00  0.00     0.074 A 
ATOM     44  C   UNL A   1      43.023  27.700  33.039  1.00  0.00     0.031 C 
ATOM     45  C   UNL A   1      37.928  30.943  29.693  1.00  0.00     0.029 A 
ATOM     46  C   UNL A   1      38.243  31.466  31.017  1.00  0.00     0.049 A 
ATOM     47  H   UNL A   1      39.713  30.791  32.331  1.00  0.00     0.167 HD
ATOM     48  C   UNL A   1      42.887  29.247  34.966  1.00  0.00     0.037 A 
ATOM     49  C   UNL A   1      37.617  32.495  31.620  1.00  0.00     0.037 A 
ATOM     50  C   UNL A   1      42.330  30.383  35.652  1.00  0.00     0.049 A 
ATOM     51  C   UNL A   1      38.086  32.933  32.980  1.00  0.00     0.074 A 
ATOM     52  C   UNL A   1      42.706  30.924  36.868  1.00  0.00     0.029 A 
ATOM     53  N   UNL A   1      41.271  31.149  35.184  1.00  0.00    -0.354 N 
ATOM     54  N   UNL A   1      39.057  32.442  33.715  1.00  0.00    -0.248 NA
ATOM     55  C   UNL A   1      37.382  34.068  33.590  1.00  0.00     0.031 C 
ATOM     56  C   UNL A   1      41.839  31.981  37.161  1.00  0.00     0.029 A 
ATOM     57  C   UNL A   1      40.962  32.142  36.099  1.00  0.00     0.049 A 
ATOM     58  H   UNL A   1      40.808  31.008  34.326  1.00  0.00     0.167 HD
ATOM     59  C   UNL A   1      39.100  33.229  34.861  1.00  0.00     0.074 A 
ATOM     60  C   UNL A   1      38.063  34.231  34.714  1.00  0.00     0.031 C 
ATOM     61  C   UNL A   1      39.925  33.133  35.934  1.00  0.00     0.037 A 
BRANCH  48  62
ATOM     62  C   UNL A   1      43.990  28.461  35.625  1.00  0.00     0.058 A 
ATOM     63  C   UNL A   1      45.347  28.749  35.394  1.00  0.00     0.135 A 
ATOM     64  C   UNL A   1      43.692  27.401  36.497  1.00  0.00     0.135 A 
ATOM     65  F   UNL A   1      45.694  29.742  34.561  1.00  0.00    -0.206 F 
ATOM     66  C   UNL A   1      46.363  27.985  35.958  1.00  0.00     0.059 A 
ATOM     67  C   UNL A   1      44.693  26.645  37.102  1.00  0.00     0.059 A 
ATOM     68  F   UNL A   1      42.415  27.079  36.760  1.00  0.00    -0.206 F 
ATOM     69  C   UNL A   1      46.025  26.930  36.807  1.00  0.00     0.060 A 
BRANCH  69  70
ATOM     70  S   UNL A   1      47.354  25.930  37.508  1.00  0.00     0.124 S 
ATOM     71  O   UNL A   1      47.525  26.552  38.819  1.00  0.00    -0.237 OA
ATOM     72  O   UNL A   1      46.770  24.593  37.513  1.00  0.00    -0.237 OA
ATOM     73  O   UNL A   1      48.458  26.126  36.574  1.00  0.00    -0.744 OA
ENDBRANCH  69  70
ENDBRANCH  48  62
BRANCH  49  74
ATOM     74  C   UNL A   1      36.519  33.205  30.911  1.00  0.00     0.058 A 
ATOM     75  C   UNL A   1      35.181  33.011  31.282  1.00  0.00     0.135 A 
ATOM     76  C   UNL A   1      36.786  34.126  29.886  1.00  0.00     0.135 A 
ATOM     77  F   UNL A   1      34.874  32.138  32.254  1.00  0.00    -0.206 F 
ATOM     78  C   UNL A   1      34.144  33.699  30.661  1.00  0.00     0.059 A 
ATOM     79  C   UNL A   1      35.768  34.847  29.268  1.00  0.00     0.059 A 
ATOM     80  F   UNL A   1      38.051  34.363  29.506  1.00  0.00    -0.206 F 
ATOM     81  C   UNL A   1      34.449  34.622  29.659  1.00  0.00     0.060 A 
BRANCH  81  82
ATOM     82  S   UNL A   1      33.100  35.563  28.912  1.00  0.00     0.124 S 
ATOM     83  O   UNL A   1      33.829  36.521  28.090  1.00  0.00    -0.237 OA
ATOM     84  O   UNL A   1      32.371  34.525  28.190  1.00  0.00    -0.237 OA
ATOM     85  O   UNL A   1      32.401  36.123  30.065  1.00  0.00    -0.744 OA
ENDBRANCH  81  82
ENDBRANCH  49  74
BRANCH  61  86
ATOM     86  C   UNL A   1      39.767  34.160  37.022  1.00  0.00     0.058 A 
ATOM     87  C   UNL A   1      38.995  33.914  38.167  1.00  0.00     0.135 A 
ATOM     88  C   UNL A   1      40.447  35.387  36.939  1.00  0.00     0.135 A 
ATOM     89  F   UNL A   1      38.319  32.761  38.293  1.00  0.00    -0.206 F 
ATOM     90  C   UNL A   1      38.881  34.859  39.182  1.00  0.00     0.059 A 
ATOM     91  C   UNL A   1      40.375  36.333  37.957  1.00  0.00     0.059 A 
ATOM     92  F   UNL A   1      41.209  35.668  35.870  1.00  0.00    -0.206 F 
ATOM     93  C   UNL A   1      39.579  36.064  39.069  1.00  0.00     0.060 A 
BRANCH  93  94
ATOM     94  S   UNL A   1      39.450  37.266  40.410  1.00  0.00     0.124 S 
ATOM     95  O   UNL A   1      40.692  38.016  40.253  1.00  0.00    -0.237 OA
ATOM     96  O   UNL A   1      38.227  37.985  40.067  1.00  0.00    -0.237 OA
ATOM     97  O   UNL A   1      39.367  36.433  41.607  1.00  0.00    -0.744 OA
ENDBRANCH  93  94
ENDBRANCH  61  86
ENDBRANCH  35  36
ENDBRANCH  27  30
ENDBRANCH  25  26
ENDBRANCH   1  25
TORSDOF 16
ENDMDL
