MODEL 1
REMARK VINA RESULT:     -13.2      0.000      0.000
REMARK SMILES Cc1cc(C(=O)NCCCNC(=O)c2ccc(-c3c4nc(c(-c5c(F)cc(S(=O)(=O)[O-])cc5F)c5ccc([nH]5)c(-c5c(F)cc(S(=O)(=O)[O-])cc5F)c5nc(c(-c6c(F)cc(S(=O)(=O)[O-])cc6F)c6ccc3[nH]6)C=C5)C=C4)cc2)ccc1NS(=O)(=O)c1ccc(C#N)cc1C
REMARK SMILES IDX 8 1 7 2 5 3 6 4 4 6 1 7 2 8 3 9 82 10 81 11 80 12 83 13
REMARK SMILES IDX 84 15 85 16 86 17 87 18 88 19 94 20 89 21 93 22 95 23 90 24
REMARK SMILES IDX 91 25 92 26 9 27 10 28 11 29 12 30 13 32 14 33 15 34 79 35
REMARK SMILES IDX 16 36 78 37 17 38 18 39 19 40 72 41 20 42 77 43 71 44 73 45
REMARK SMILES IDX 21 46 76 47 70 48 69 49 22 51 56 52 35 53 55 54 36 55 39 56
REMARK SMILES IDX 54 57 74 58 37 59 38 60 53 62 75 63 40 64 23 65 24 66 33 67
REMARK SMILES IDX 25 68 26 69 32 70 34 71 27 72 28 73 29 74 30 75 31 76 57 77
REMARK SMILES IDX 58 78 67 79 59 80 60 81 66 82 68 83 61 84 62 85 63 86 64 87
REMARK SMILES IDX 65 88 41 89 42 90 51 91 43 92 44 93 50 94 52 95 45 96 46 97
REMARK SMILES IDX 47 98 48 99 49 100
REMARK H PARENT 7 5 83 14 11 31 73 50 39 61
REMARK Flexibility Score: inf
ROOT
ATOM      1  C   UNL A   1      33.795  21.485  24.828  1.00  0.00     0.118 C 
ENDROOT
BRANCH   1   2
ATOM      2  N   UNL A   1      32.940  20.969  23.728  1.00  0.00    -0.352 N 
ATOM      3  C   UNL A   1      32.132  21.648  22.826  1.00  0.00     0.251 C 
ATOM      4  O   UNL A   1      31.716  21.123  21.798  1.00  0.00    -0.269 OA
ATOM      5  H   UNL A   1      32.948  19.990  23.622  1.00  0.00     0.163 HD
BRANCH   3   6
ATOM      6  C   UNL A   1      31.869  23.085  23.057  1.00  0.00     0.040 A 
ATOM      7  C   UNL A   1      33.582  26.394  22.497  1.00  0.00     0.046 C 
ATOM      8  C   UNL A   1      32.754  25.327  23.161  1.00  0.00    -0.026 A 
ATOM      9  C   UNL A   1      32.773  24.041  22.598  1.00  0.00     0.019 A 
ATOM     10  C   UNL A   1      31.901  25.574  24.259  1.00  0.00     0.052 A 
ATOM     11  C   UNL A   1      30.824  24.717  24.473  1.00  0.00     0.028 A 
ATOM     12  C   UNL A   1      30.790  23.478  23.840  1.00  0.00     0.016 A 
BRANCH  10  13
ATOM     13  N   UNL A   1      32.419  26.377  25.327  1.00  0.00    -0.279 N 
ATOM     14  H   UNL A   1      33.258  26.062  25.734  1.00  0.00     0.180 HD
BRANCH  13  15
ATOM     15  S   UNL A   1      31.778  27.782  25.972  1.00  0.00     0.262 S 
ATOM     16  O   UNL A   1      31.123  28.427  24.850  1.00  0.00    -0.201 OA
ATOM     17  O   UNL A   1      31.033  27.418  27.157  1.00  0.00    -0.201 OA
BRANCH  15  18
ATOM     18  C   UNL A   1      33.065  28.926  26.486  1.00  0.00     0.090 A 
ATOM     19  C   UNL A   1      34.388  28.520  26.630  1.00  0.00     0.024 A 
ATOM     20  C   UNL A   1      32.724  30.258  26.814  1.00  0.00    -0.029 A 
ATOM     21  C   UNL A   1      35.324  29.399  27.198  1.00  0.00     0.021 A 
ATOM     22  C   UNL A   1      33.648  31.068  27.505  1.00  0.00     0.024 A 
ATOM     23  C   UNL A   1      31.480  30.946  26.330  1.00  0.00     0.046 C 
ATOM     24  C   UNL A   1      34.939  30.623  27.742  1.00  0.00     0.052 A 
BRANCH  24  25
ATOM     25  C   UNL A   1      35.861  31.455  28.496  1.00  0.00     0.099 C 
ATOM     26  N   UNL A   1      36.571  32.147  29.054  1.00  0.00    -0.192 NA
ENDBRANCH  24  25
ENDBRANCH  15  18
ENDBRANCH  13  15
ENDBRANCH  10  13
ENDBRANCH   3   6
ENDBRANCH   1   2
BRANCH   1  27
ATOM     27  C   UNL A   1      35.290  21.973  24.456  1.00  0.00     0.042 C 
BRANCH  27  28
ATOM     28  C   UNL A   1      36.171  22.057  25.765  1.00  0.00     0.118 C 
BRANCH  28  29
ATOM     29  N   UNL A   1      37.250  23.154  26.542  1.00  0.00    -0.352 N 
ATOM     30  C   UNL A   1      38.746  23.708  26.784  1.00  0.00     0.251 C 
ATOM     31  H   UNL A   1      36.676  23.714  27.113  1.00  0.00     0.163 HD
ATOM     32  O   UNL A   1      38.712  24.963  26.798  1.00  0.00    -0.269 OA
BRANCH  30  33
ATOM     33  C   UNL A   1      40.424  23.138  26.909  1.00  0.00     0.039 A 
ATOM     34  C   UNL A   1      41.146  23.086  28.156  1.00  0.00     0.014 A 
ATOM     35  C   UNL A   1      41.369  22.963  25.896  1.00  0.00     0.014 A 
ATOM     36  C   UNL A   1      42.537  23.618  28.264  1.00  0.00     0.010 A 
ATOM     37  C   UNL A   1      42.650  23.608  25.968  1.00  0.00     0.010 A 
ATOM     38  C   UNL A   1      43.136  24.197  27.128  1.00  0.00    -0.014 A 
BRANCH  38  39
ATOM     39  C   UNL A   1      43.952  25.518  26.982  1.00  0.00     0.031 A 
ATOM     40  C   UNL A   1      45.391  25.296  27.030  1.00  0.00     0.074 A 
ATOM     41  C   UNL A   1      43.597  26.813  26.647  1.00  0.00     0.049 A 
ATOM     42  N   UNL A   1      46.198  25.640  27.975  1.00  0.00    -0.248 NA
ATOM     43  C   UNL A   1      45.994  24.459  25.995  1.00  0.00     0.031 C 
ATOM     44  C   UNL A   1      44.332  28.097  26.506  1.00  0.00     0.029 A 
ATOM     45  N   UNL A   1      42.335  27.333  26.420  1.00  0.00    -0.354 N 
ATOM     46  C   UNL A   1      47.446  25.408  27.430  1.00  0.00     0.074 A 
ATOM     47  C   UNL A   1      47.228  24.352  26.479  1.00  0.00     0.031 C 
ATOM     48  C   UNL A   1      43.489  29.141  26.748  1.00  0.00     0.029 A 
ATOM     49  C   UNL A   1      42.186  28.583  27.035  1.00  0.00     0.049 A 
ATOM     50  H   UNL A   1      41.634  26.884  25.894  1.00  0.00     0.167 HD
ATOM     51  C   UNL A   1      48.383  26.408  27.379  1.00  0.00     0.037 A 
ATOM     52  C   UNL A   1      41.437  28.644  28.190  1.00  0.00     0.037 A 
ATOM     53  C   UNL A   1      47.808  27.682  27.869  1.00  0.00     0.049 A 
ATOM     54  C   UNL A   1      42.364  28.737  29.399  1.00  0.00     0.074 A 
ATOM     55  C   UNL A   1      47.524  28.918  27.305  1.00  0.00     0.029 A 
ATOM     56  N   UNL A   1      47.122  27.681  29.072  1.00  0.00    -0.354 N 
ATOM     57  N   UNL A   1      43.661  28.738  29.268  1.00  0.00    -0.248 NA
ATOM     58  C   UNL A   1      41.972  28.809  30.807  1.00  0.00     0.031 C 
ATOM     59  C   UNL A   1      46.646  29.632  28.190  1.00  0.00     0.029 A 
ATOM     60  C   UNL A   1      46.407  28.838  29.297  1.00  0.00     0.049 A 
ATOM     61  H   UNL A   1      47.143  26.928  29.706  1.00  0.00     0.167 HD
ATOM     62  C   UNL A   1      44.285  28.835  30.468  1.00  0.00     0.074 A 
ATOM     63  C   UNL A   1      43.177  28.823  31.417  1.00  0.00     0.031 C 
ATOM     64  C   UNL A   1      45.650  28.936  30.546  1.00  0.00     0.037 A 
BRANCH  51  65
ATOM     65  C   UNL A   1      49.715  26.295  26.637  1.00  0.00     0.058 A 
ATOM     66  C   UNL A   1      50.823  25.664  27.241  1.00  0.00     0.135 A 
ATOM     67  C   UNL A   1      49.961  26.706  25.302  1.00  0.00     0.135 A 
ATOM     68  F   UNL A   1      50.737  25.129  28.466  1.00  0.00    -0.206 F 
ATOM     69  C   UNL A   1      52.061  25.502  26.601  1.00  0.00     0.059 A 
ATOM     70  C   UNL A   1      51.199  26.608  24.663  1.00  0.00     0.059 A 
ATOM     71  F   UNL A   1      48.993  27.139  24.490  1.00  0.00    -0.206 F 
ATOM     72  C   UNL A   1      52.245  25.987  25.314  1.00  0.00     0.060 A 
BRANCH  72  73
ATOM     73  S   UNL A   1      53.813  25.717  24.472  1.00  0.00     0.124 S 
ATOM     74  O   UNL A   1      53.435  25.857  23.069  1.00  0.00    -0.237 OA
ATOM     75  O   UNL A   1      54.640  26.788  25.018  1.00  0.00    -0.237 OA
ATOM     76  O   UNL A   1      54.197  24.368  24.879  1.00  0.00    -0.744 OA
ENDBRANCH  72  73
ENDBRANCH  51  65
BRANCH  52  77
ATOM     77  C   UNL A   1      40.162  27.782  28.101  1.00  0.00     0.058 A 
ATOM     78  C   UNL A   1      39.989  26.844  29.122  1.00  0.00     0.135 A 
ATOM     79  C   UNL A   1      39.021  28.518  27.936  1.00  0.00     0.135 A 
ATOM     80  F   UNL A   1      40.698  25.707  29.112  1.00  0.00    -0.206 F 
ATOM     81  C   UNL A   1      39.113  27.051  30.222  1.00  0.00     0.059 A 
ATOM     82  C   UNL A   1      38.292  28.810  29.118  1.00  0.00     0.059 A 
ATOM     83  F   UNL A   1      38.906  29.316  26.864  1.00  0.00    -0.206 F 
ATOM     84  C   UNL A   1      38.372  28.228  30.352  1.00  0.00     0.060 A 
BRANCH  84  85
ATOM     85  S   UNL A   1      37.580  29.326  32.060  1.00  0.00     0.124 S 
ATOM     86  O   UNL A   1      37.444  28.412  33.179  1.00  0.00    -0.237 OA
ATOM     87  O   UNL A   1      38.637  30.276  32.339  1.00  0.00    -0.237 OA
ATOM     88  O   UNL A   1      36.276  29.879  31.701  1.00  0.00    -0.744 OA
ENDBRANCH  84  85
ENDBRANCH  52  77
BRANCH  64  89
ATOM     89  C   UNL A   1      46.421  29.084  31.832  1.00  0.00     0.058 A 
ATOM     90  C   UNL A   1      46.575  28.043  32.755  1.00  0.00     0.135 A 
ATOM     91  C   UNL A   1      46.980  30.327  32.227  1.00  0.00     0.135 A 
ATOM     92  F   UNL A   1      45.903  26.890  32.623  1.00  0.00    -0.206 F 
ATOM     93  C   UNL A   1      47.381  28.169  33.884  1.00  0.00     0.059 A 
ATOM     94  C   UNL A   1      47.745  30.490  33.367  1.00  0.00     0.059 A 
ATOM     95  F   UNL A   1      46.810  31.460  31.538  1.00  0.00    -0.206 F 
ATOM     96  C   UNL A   1      47.981  29.393  34.167  1.00  0.00     0.060 A 
BRANCH  96  97
ATOM     97  S   UNL A   1      49.013  29.557  35.622  1.00  0.00     0.124 S 
ATOM     98  O   UNL A   1      50.353  29.582  35.043  1.00  0.00    -0.237 OA
ATOM     99  O   UNL A   1      48.535  30.819  36.176  1.00  0.00    -0.237 OA
ATOM    100  O   UNL A   1      48.697  28.366  36.405  1.00  0.00    -0.744 OA
ENDBRANCH  96  97
ENDBRANCH  64  89
ENDBRANCH  38  39
ENDBRANCH  30  33
ENDBRANCH  28  29
ENDBRANCH  27  28
ENDBRANCH   1  27
TORSDOF 17
ENDMDL
MODEL 2
REMARK VINA RESULT:     -13.1      3.706      7.883
REMARK SMILES Cc1cc(C(=O)NCCCNC(=O)c2ccc(-c3c4nc(c(-c5c(F)cc(S(=O)(=O)[O-])cc5F)c5ccc([nH]5)c(-c5c(F)cc(S(=O)(=O)[O-])cc5F)c5nc(c(-c6c(F)cc(S(=O)(=O)[O-])cc6F)c6ccc3[nH]6)C=C5)C=C4)cc2)ccc1NS(=O)(=O)c1ccc(C#N)cc1C
REMARK SMILES IDX 8 1 7 2 5 3 6 4 4 6 1 7 2 8 3 9 82 10 81 11 80 12 83 13
REMARK SMILES IDX 84 15 85 16 86 17 87 18 88 19 94 20 89 21 93 22 95 23 90 24
REMARK SMILES IDX 91 25 92 26 9 27 10 28 11 29 12 30 13 32 14 33 15 34 79 35
REMARK SMILES IDX 16 36 78 37 17 38 18 39 19 40 72 41 20 42 77 43 71 44 73 45
REMARK SMILES IDX 21 46 76 47 70 48 69 49 22 51 56 52 35 53 55 54 36 55 39 56
REMARK SMILES IDX 54 57 74 58 37 59 38 60 53 62 75 63 40 64 23 65 24 66 33 67
REMARK SMILES IDX 25 68 26 69 32 70 34 71 27 72 28 73 29 74 30 75 31 76 57 77
REMARK SMILES IDX 58 78 67 79 59 80 60 81 66 82 68 83 61 84 62 85 63 86 64 87
REMARK SMILES IDX 65 88 41 89 42 90 51 91 43 92 44 93 50 94 52 95 45 96 46 97
REMARK SMILES IDX 47 98 48 99 49 100
REMARK H PARENT 7 5 83 14 11 31 73 50 39 61
REMARK Flexibility Score: inf
ROOT
ATOM      1  C   UNL A   1      36.030  22.339  25.184  1.00  0.00     0.118 C 
ENDROOT
BRANCH   1   2
ATOM      2  N   UNL A   1      35.380  21.930  26.456  1.00  0.00    -0.352 N 
ATOM      3  C   UNL A   1      34.050  21.640  26.731  1.00  0.00     0.251 C 
ATOM      4  O   UNL A   1      33.709  21.039  27.745  1.00  0.00    -0.269 OA
ATOM      5  H   UNL A   1      35.989  21.852  27.226  1.00  0.00     0.163 HD
BRANCH   3   6
ATOM      6  C   UNL A   1      33.032  21.959  25.707  1.00  0.00     0.040 A 
ATOM      7  C   UNL A   1      32.051  20.824  22.251  1.00  0.00     0.046 C 
ATOM      8  C   UNL A   1      32.308  21.741  23.415  1.00  0.00    -0.026 A 
ATOM      9  C   UNL A   1      32.958  21.204  24.538  1.00  0.00     0.019 A 
ATOM     10  C   UNL A   1      31.855  23.078  23.470  1.00  0.00     0.052 A 
ATOM     11  C   UNL A   1      31.670  23.670  24.717  1.00  0.00     0.028 A 
ATOM     12  C   UNL A   1      32.232  23.087  25.849  1.00  0.00     0.016 A 
BRANCH  10  13
ATOM     13  N   UNL A   1      32.042  23.883  22.300  1.00  0.00    -0.279 N 
ATOM     14  H   UNL A   1      31.619  23.549  21.476  1.00  0.00     0.180 HD
BRANCH  13  15
ATOM     15  S   UNL A   1      32.888  25.319  22.154  1.00  0.00     0.262 S 
ATOM     16  O   UNL A   1      33.986  25.186  23.094  1.00  0.00    -0.201 OA
ATOM     17  O   UNL A   1      33.139  25.539  20.747  1.00  0.00    -0.201 OA
BRANCH  15  18
ATOM     18  C   UNL A   1      31.931  26.720  22.747  1.00  0.00     0.090 A 
ATOM     19  C   UNL A   1      30.647  26.563  23.258  1.00  0.00     0.024 A 
ATOM     20  C   UNL A   1      32.463  28.025  22.636  1.00  0.00    -0.029 A 
ATOM     21  C   UNL A   1      29.872  27.697  23.547  1.00  0.00     0.021 A 
ATOM     22  C   UNL A   1      31.619  29.142  22.803  1.00  0.00     0.024 A 
ATOM     23  C   UNL A   1      33.929  28.323  22.510  1.00  0.00     0.046 C 
ATOM     24  C   UNL A   1      30.305  28.980  23.213  1.00  0.00     0.052 A 
BRANCH  24  25
ATOM     25  C   UNL A   1      29.439  30.140  23.333  1.00  0.00     0.099 C 
ATOM     26  N   UNL A   1      28.722  31.017  23.449  1.00  0.00    -0.192 NA
ENDBRANCH  24  25
ENDBRANCH  15  18
ENDBRANCH  13  15
ENDBRANCH  10  13
ENDBRANCH   3   6
ENDBRANCH   1   2
BRANCH   1  27
ATOM     27  C   UNL A   1      36.759  23.780  25.138  1.00  0.00     0.042 C 
BRANCH  27  28
ATOM     28  C   UNL A   1      38.071  23.748  26.017  1.00  0.00     0.118 C 
BRANCH  28  29
ATOM     29  N   UNL A   1      38.872  24.715  27.199  1.00  0.00    -0.352 N 
ATOM     30  C   UNL A   1      39.518  26.123  27.649  1.00  0.00     0.251 C 
ATOM     31  H   UNL A   1      38.992  24.120  27.975  1.00  0.00     0.163 HD
ATOM     32  O   UNL A   1      39.170  26.365  28.830  1.00  0.00    -0.269 OA
BRANCH  30  33
ATOM     33  C   UNL A   1      40.446  27.488  26.990  1.00  0.00     0.039 A 
ATOM     34  C   UNL A   1      41.205  27.407  25.767  1.00  0.00     0.014 A 
ATOM     35  C   UNL A   1      40.842  28.667  27.625  1.00  0.00     0.014 A 
ATOM     36  C   UNL A   1      42.606  27.918  25.694  1.00  0.00     0.010 A 
ATOM     37  C   UNL A   1      42.224  29.055  27.655  1.00  0.00     0.010 A 
ATOM     38  C   UNL A   1      43.192  28.468  26.851  1.00  0.00    -0.014 A 
BRANCH  38  39
ATOM     39  C   UNL A   1      44.607  28.243  27.467  1.00  0.00     0.031 A 
ATOM     40  C   UNL A   1      45.442  29.434  27.404  1.00  0.00     0.074 A 
ATOM     41  C   UNL A   1      45.159  27.212  28.208  1.00  0.00     0.049 A 
ATOM     42  N   UNL A   1      46.482  29.614  26.663  1.00  0.00    -0.248 NA
ATOM     43  C   UNL A   1      44.994  30.630  28.117  1.00  0.00     0.031 C 
ATOM     44  C   UNL A   1      46.495  26.951  28.804  1.00  0.00     0.029 A 
ATOM     45  N   UNL A   1      44.599  25.993  28.547  1.00  0.00    -0.354 N 
ATOM     46  C   UNL A   1      47.019  30.792  27.146  1.00  0.00     0.074 A 
ATOM     47  C   UNL A   1      45.889  31.507  27.674  1.00  0.00     0.031 C 
ATOM     48  C   UNL A   1      46.704  25.606  28.897  1.00  0.00     0.029 A 
ATOM     49  C   UNL A   1      45.521  24.951  28.387  1.00  0.00     0.049 A 
ATOM     50  H   UNL A   1      43.673  25.875  28.862  1.00  0.00     0.167 HD
ATOM     51  C   UNL A   1      48.322  30.844  27.569  1.00  0.00     0.037 A 
ATOM     52  C   UNL A   1      45.372  24.127  27.293  1.00  0.00     0.037 A 
ATOM     53  C   UNL A   1      48.938  29.499  27.518  1.00  0.00     0.049 A 
ATOM     54  C   UNL A   1      46.395  24.503  26.224  1.00  0.00     0.074 A 
ATOM     55  C   UNL A   1      49.436  28.605  28.456  1.00  0.00     0.029 A 
ATOM     56  N   UNL A   1      48.804  28.751  26.360  1.00  0.00    -0.354 N 
ATOM     57  N   UNL A   1      47.237  25.483  26.398  1.00  0.00    -0.248 NA
ATOM     58  C   UNL A   1      46.565  23.884  24.909  1.00  0.00     0.031 C 
ATOM     59  C   UNL A   1      49.572  27.318  27.831  1.00  0.00     0.029 A 
ATOM     60  C   UNL A   1      49.172  27.432  26.512  1.00  0.00     0.049 A 
ATOM     61  H   UNL A   1      48.477  29.126  25.510  1.00  0.00     0.167 HD
ATOM     62  C   UNL A   1      48.055  25.636  25.327  1.00  0.00     0.074 A 
ATOM     63  C   UNL A   1      47.557  24.638  24.388  1.00  0.00     0.031 C 
ATOM     64  C   UNL A   1      49.069  26.558  25.342  1.00  0.00     0.037 A 
BRANCH  51  65
ATOM     65  C   UNL A   1      48.943  32.047  28.281  1.00  0.00     0.058 A 
ATOM     66  C   UNL A   1      48.945  32.127  29.690  1.00  0.00     0.135 A 
ATOM     67  C   UNL A   1      49.629  33.120  27.657  1.00  0.00     0.135 A 
ATOM     68  F   UNL A   1      48.425  31.148  30.443  1.00  0.00    -0.206 F 
ATOM     69  C   UNL A   1      49.525  33.187  30.401  1.00  0.00     0.059 A 
ATOM     70  C   UNL A   1      50.165  34.216  28.339  1.00  0.00     0.059 A 
ATOM     71  F   UNL A   1      49.915  33.133  26.353  1.00  0.00    -0.206 F 
ATOM     72  C   UNL A   1      50.125  34.235  29.717  1.00  0.00     0.060 A 
BRANCH  72  73
ATOM     73  S   UNL A   1      50.927  35.559  30.635  1.00  0.00     0.124 S 
ATOM     74  O   UNL A   1      49.865  36.556  30.726  1.00  0.00    -0.237 OA
ATOM     75  O   UNL A   1      51.283  34.893  31.883  1.00  0.00    -0.237 OA
ATOM     76  O   UNL A   1      52.057  35.933  29.788  1.00  0.00    -0.744 OA
ENDBRANCH  72  73
ENDBRANCH  51  65
BRANCH  52  77
ATOM     77  C   UNL A   1      43.896  23.765  27.034  1.00  0.00     0.058 A 
ATOM     78  C   UNL A   1      43.505  23.722  25.693  1.00  0.00     0.135 A 
ATOM     79  C   UNL A   1      43.495  22.628  27.681  1.00  0.00     0.135 A 
ATOM     80  F   UNL A   1      43.292  24.862  25.022  1.00  0.00    -0.206 F 
ATOM     81  C   UNL A   1      43.361  22.507  24.969  1.00  0.00     0.059 A 
ATOM     82  C   UNL A   1      43.534  21.433  26.919  1.00  0.00     0.059 A 
ATOM     83  F   UNL A   1      43.577  22.573  29.018  1.00  0.00    -0.206 F 
ATOM     84  C   UNL A   1      43.615  21.269  25.564  1.00  0.00     0.060 A 
BRANCH  84  85
ATOM     85  S   UNL A   1      44.281  19.341  24.798  1.00  0.00     0.124 S 
ATOM     86  O   UNL A   1      45.523  18.982  25.457  1.00  0.00    -0.237 OA
ATOM     87  O   UNL A   1      43.227  18.449  25.237  1.00  0.00    -0.237 OA
ATOM     88  O   UNL A   1      44.490  19.452  23.356  1.00  0.00    -0.744 OA
ENDBRANCH  84  85
ENDBRANCH  52  77
BRANCH  64  89
ATOM     89  C   UNL A   1      50.045  26.770  24.213  1.00  0.00     0.058 A 
ATOM     90  C   UNL A   1      51.425  26.578  24.349  1.00  0.00     0.135 A 
ATOM     91  C   UNL A   1      49.627  27.258  22.949  1.00  0.00     0.135 A 
ATOM     92  F   UNL A   1      51.981  26.347  25.548  1.00  0.00    -0.206 F 
ATOM     93  C   UNL A   1      52.295  26.676  23.267  1.00  0.00     0.059 A 
ATOM     94  C   UNL A   1      50.479  27.409  21.870  1.00  0.00     0.059 A 
ATOM     95  F   UNL A   1      48.370  27.629  22.684  1.00  0.00    -0.206 F 
ATOM     96  C   UNL A   1      51.806  27.068  22.024  1.00  0.00     0.060 A 
BRANCH  96  97
ATOM     97  S   UNL A   1      52.926  27.198  20.633  1.00  0.00     0.124 S 
ATOM     98  O   UNL A   1      52.197  26.486  19.588  1.00  0.00    -0.237 OA
ATOM     99  O   UNL A   1      53.019  28.645  20.469  1.00  0.00    -0.237 OA
ATOM    100  O   UNL A   1      54.141  26.540  21.104  1.00  0.00    -0.744 OA
ENDBRANCH  96  97
ENDBRANCH  64  89
ENDBRANCH  38  39
ENDBRANCH  30  33
ENDBRANCH  28  29
ENDBRANCH  27  28
ENDBRANCH   1  27
TORSDOF 17
ENDMDL
MODEL 3
REMARK VINA RESULT:     -12.8      5.266     10.671
REMARK SMILES Cc1cc(C(=O)NCCCNC(=O)c2ccc(-c3c4nc(c(-c5c(F)cc(S(=O)(=O)[O-])cc5F)c5ccc([nH]5)c(-c5c(F)cc(S(=O)(=O)[O-])cc5F)c5nc(c(-c6c(F)cc(S(=O)(=O)[O-])cc6F)c6ccc3[nH]6)C=C5)C=C4)cc2)ccc1NS(=O)(=O)c1ccc(C#N)cc1C
REMARK SMILES IDX 8 1 7 2 5 3 6 4 4 6 1 7 2 8 3 9 82 10 81 11 80 12 83 13
REMARK SMILES IDX 84 15 85 16 86 17 87 18 88 19 94 20 89 21 93 22 95 23 90 24
REMARK SMILES IDX 91 25 92 26 9 27 10 28 11 29 12 30 13 32 14 33 15 34 79 35
REMARK SMILES IDX 16 36 78 37 17 38 18 39 19 40 72 41 20 42 77 43 71 44 73 45
REMARK SMILES IDX 21 46 76 47 70 48 69 49 22 51 56 52 35 53 55 54 36 55 39 56
REMARK SMILES IDX 54 57 74 58 37 59 38 60 53 62 75 63 40 64 23 65 24 66 33 67
REMARK SMILES IDX 25 68 26 69 32 70 34 71 27 72 28 73 29 74 30 75 31 76 57 77
REMARK SMILES IDX 58 78 67 79 59 80 60 81 66 82 68 83 61 84 62 85 63 86 64 87
REMARK SMILES IDX 65 88 41 89 42 90 51 91 43 92 44 93 50 94 52 95 45 96 46 97
REMARK SMILES IDX 47 98 48 99 49 100
REMARK H PARENT 7 5 83 14 11 31 73 50 39 61
REMARK Flexibility Score: inf
ROOT
ATOM      1  C   UNL A   1      32.873  28.151  23.487  1.00  0.00     0.118 C 
ENDROOT
BRANCH   1   2
ATOM      2  N   UNL A   1      32.369  27.720  22.157  1.00  0.00    -0.352 N 
ATOM      3  C   UNL A   1      31.919  26.479  21.728  1.00  0.00     0.251 C 
ATOM      4  O   UNL A   1      31.265  26.342  20.698  1.00  0.00    -0.269 OA
ATOM      5  H   UNL A   1      32.350  28.427  21.472  1.00  0.00     0.163 HD
BRANCH   3   6
ATOM      6  C   UNL A   1      32.132  25.308  22.605  1.00  0.00     0.040 A 
ATOM      7  C   UNL A   1      30.808  23.938  25.856  1.00  0.00     0.046 C 
ATOM      8  C   UNL A   1      31.782  24.290  24.765  1.00  0.00    -0.026 A 
ATOM      9  C   UNL A   1      31.332  25.126  23.731  1.00  0.00     0.019 A 
ATOM     10  C   UNL A   1      33.088  23.757  24.685  1.00  0.00     0.052 A 
ATOM     11  C   UNL A   1      33.712  23.706  23.441  1.00  0.00     0.028 A 
ATOM     12  C   UNL A   1      33.211  24.459  22.383  1.00  0.00     0.016 A 
BRANCH  10  13
ATOM     13  N   UNL A   1      33.859  23.722  25.891  1.00  0.00    -0.279 N 
ATOM     14  H   UNL A   1      33.912  24.569  26.392  1.00  0.00     0.180 HD
BRANCH  13  15
ATOM     15  S   UNL A   1      34.685  22.429  26.557  1.00  0.00     0.262 S 
ATOM     16  O   UNL A   1      36.084  22.799  26.445  1.00  0.00    -0.201 OA
ATOM     17  O   UNL A   1      34.093  22.149  27.847  1.00  0.00    -0.201 OA
BRANCH  15  18
ATOM     18  C   UNL A   1      34.512  20.943  25.561  1.00  0.00     0.090 A 
ATOM     19  C   UNL A   1      33.265  20.398  25.274  1.00  0.00     0.024 A 
ATOM     20  C   UNL A   1      35.668  20.270  25.106  1.00  0.00    -0.029 A 
ATOM     21  C   UNL A   1      33.184  19.147  24.643  1.00  0.00     0.021 A 
ATOM     22  C   UNL A   1      35.562  18.958  24.599  1.00  0.00     0.024 A 
ATOM     23  C   UNL A   1      37.015  20.920  24.968  1.00  0.00     0.046 C 
ATOM     24  C   UNL A   1      34.320  18.372  24.411  1.00  0.00     0.052 A 
BRANCH  24  25
ATOM     25  C   UNL A   1      34.234  17.004  23.931  1.00  0.00     0.099 C 
ATOM     26  N   UNL A   1      34.149  15.950  23.509  1.00  0.00    -0.192 NA
ENDBRANCH  24  25
ENDBRANCH  15  18
ENDBRANCH  13  15
ENDBRANCH  10  13
ENDBRANCH   3   6
ENDBRANCH   1   2
BRANCH   1  27
ATOM     27  C   UNL A   1      31.792  28.656  24.576  1.00  0.00     0.042 C 
BRANCH  27  28
ATOM     28  C   UNL A   1      32.533  29.335  25.795  1.00  0.00     0.118 C 
BRANCH  28  29
ATOM     29  N   UNL A   1      34.131  29.499  26.422  1.00  0.00    -0.352 N 
ATOM     30  C   UNL A   1      35.147  30.106  27.518  1.00  0.00     0.251 C 
ATOM     31  H   UNL A   1      34.696  28.961  25.821  1.00  0.00     0.163 HD
ATOM     32  O   UNL A   1      35.949  29.205  27.864  1.00  0.00    -0.269 OA
BRANCH  30  33
ATOM     33  C   UNL A   1      35.423  31.576  28.479  1.00  0.00     0.039 A 
ATOM     34  C   UNL A   1      36.555  32.445  28.278  1.00  0.00     0.014 A 
ATOM     35  C   UNL A   1      34.843  31.952  29.692  1.00  0.00     0.014 A 
ATOM     36  C   UNL A   1      37.369  32.930  29.432  1.00  0.00     0.010 A 
ATOM     37  C   UNL A   1      35.662  32.276  30.826  1.00  0.00     0.010 A 
ATOM     38  C   UNL A   1      37.028  32.507  30.732  1.00  0.00    -0.014 A 
BRANCH  38  39
ATOM     39  C   UNL A   1      37.932  31.987  31.892  1.00  0.00     0.031 A 
ATOM     40  C   UNL A   1      38.230  33.018  32.876  1.00  0.00     0.074 A 
ATOM     41  C   UNL A   1      38.356  30.722  32.261  1.00  0.00     0.049 A 
ATOM     42  N   UNL A   1      39.369  33.586  33.083  1.00  0.00    -0.248 NA
ATOM     43  C   UNL A   1      37.116  33.612  33.612  1.00  0.00     0.031 C 
ATOM     44  C   UNL A   1      39.219  30.182  33.344  1.00  0.00     0.029 A 
ATOM     45  N   UNL A   1      38.151  29.516  31.614  1.00  0.00    -0.354 N 
ATOM     46  C   UNL A   1      39.163  34.300  34.248  1.00  0.00     0.074 A 
ATOM     47  C   UNL A   1      37.755  34.594  34.240  1.00  0.00     0.031 C 
ATOM     48  C   UNL A   1      39.794  29.015  32.937  1.00  0.00     0.029 A 
ATOM     49  C   UNL A   1      39.320  28.745  31.597  1.00  0.00     0.049 A 
ATOM     50  H   UNL A   1      37.294  29.237  31.217  1.00  0.00     0.167 HD
ATOM     51  C   UNL A   1      39.979  34.117  35.334  1.00  0.00     0.037 A 
ATOM     52  C   UNL A   1      40.020  28.668  30.414  1.00  0.00     0.037 A 
ATOM     53  C   UNL A   1      40.952  33.032  35.073  1.00  0.00     0.049 A 
ATOM     54  C   UNL A   1      41.241  29.582  30.479  1.00  0.00     0.074 A 
ATOM     55  C   UNL A   1      41.188  31.770  35.603  1.00  0.00     0.029 A 
ATOM     56  N   UNL A   1      41.670  33.053  33.889  1.00  0.00    -0.354 N 
ATOM     57  N   UNL A   1      41.499  30.306  31.532  1.00  0.00    -0.248 NA
ATOM     58  C   UNL A   1      42.237  29.799  29.429  1.00  0.00     0.031 C 
ATOM     59  C   UNL A   1      42.041  31.049  34.698  1.00  0.00     0.029 A 
ATOM     60  C   UNL A   1      42.335  31.874  33.628  1.00  0.00     0.049 A 
ATOM     61  H   UNL A   1      41.702  33.835  33.292  1.00  0.00     0.167 HD
ATOM     62  C   UNL A   1      42.632  31.033  31.374  1.00  0.00     0.074 A 
ATOM     63  C   UNL A   1      43.035  30.723  30.008  1.00  0.00     0.031 C 
ATOM     64  C   UNL A   1      43.125  31.799  32.399  1.00  0.00     0.037 A 
BRANCH  51  65
ATOM     65  C   UNL A   1      39.718  34.725  36.713  1.00  0.00     0.058 A 
ATOM     66  C   UNL A   1      39.066  33.978  37.717  1.00  0.00     0.135 A 
ATOM     67  C   UNL A   1      40.151  36.002  37.154  1.00  0.00     0.135 A 
ATOM     68  F   UNL A   1      38.676  32.715  37.501  1.00  0.00    -0.206 F 
ATOM     69  C   UNL A   1      38.826  34.468  39.008  1.00  0.00     0.059 A 
ATOM     70  C   UNL A   1      39.875  36.535  38.416  1.00  0.00     0.059 A 
ATOM     71  F   UNL A   1      40.957  36.782  36.429  1.00  0.00    -0.206 F 
ATOM     72  C   UNL A   1      39.224  35.753  39.348  1.00  0.00     0.060 A 
BRANCH  72  73
ATOM     73  S   UNL A   1      38.974  36.352  41.027  1.00  0.00     0.124 S 
ATOM     74  O   UNL A   1      38.792  37.785  40.816  1.00  0.00    -0.237 OA
ATOM     75  O   UNL A   1      37.786  35.614  41.441  1.00  0.00    -0.237 OA
ATOM     76  O   UNL A   1      40.208  35.979  41.715  1.00  0.00    -0.744 OA
ENDBRANCH  72  73
ENDBRANCH  51  65
BRANCH  52  77
ATOM     77  C   UNL A   1      39.088  28.501  29.197  1.00  0.00     0.058 A 
ATOM     78  C   UNL A   1      39.269  29.421  28.161  1.00  0.00     0.135 A 
ATOM     79  C   UNL A   1      39.068  27.227  28.701  1.00  0.00     0.135 A 
ATOM     80  F   UNL A   1      38.800  30.670  28.286  1.00  0.00    -0.206 F 
ATOM     81  C   UNL A   1      39.979  29.112  26.969  1.00  0.00     0.059 A 
ATOM     82  C   UNL A   1      39.931  26.972  27.604  1.00  0.00     0.059 A 
ATOM     83  F   UNL A   1      38.685  26.219  29.499  1.00  0.00    -0.206 F 
ATOM     84  C   UNL A   1      40.554  27.856  26.767  1.00  0.00     0.060 A 
BRANCH  84  85
ATOM     85  S   UNL A   1      42.269  27.152  25.621  1.00  0.00     0.124 S 
ATOM     86  O   UNL A   1      41.926  25.887  24.999  1.00  0.00    -0.237 OA
ATOM     87  O   UNL A   1      42.402  28.171  24.600  1.00  0.00    -0.237 OA
ATOM     88  O   UNL A   1      43.402  26.977  26.527  1.00  0.00    -0.744 OA
ENDBRANCH  84  85
ENDBRANCH  52  77
BRANCH  64  89
ATOM     89  C   UNL A   1      44.394  32.609  32.323  1.00  0.00     0.058 A 
ATOM     90  C   UNL A   1      45.620  32.159  32.829  1.00  0.00     0.135 A 
ATOM     91  C   UNL A   1      44.406  33.926  31.797  1.00  0.00     0.135 A 
ATOM     92  F   UNL A   1      45.702  31.038  33.561  1.00  0.00    -0.206 F 
ATOM     93  C   UNL A   1      46.800  32.877  32.653  1.00  0.00     0.059 A 
ATOM     94  C   UNL A   1      45.558  34.679  31.654  1.00  0.00     0.059 A 
ATOM     95  F   UNL A   1      43.303  34.567  31.399  1.00  0.00    -0.206 F 
ATOM     96  C   UNL A   1      46.760  34.127  32.041  1.00  0.00     0.060 A 
BRANCH  96  97
ATOM     97  S   UNL A   1      48.277  35.052  31.819  1.00  0.00     0.124 S 
ATOM     98  O   UNL A   1      49.289  34.074  32.204  1.00  0.00    -0.237 OA
ATOM     99  O   UNL A   1      48.214  35.377  30.397  1.00  0.00    -0.237 OA
ATOM    100  O   UNL A   1      48.128  36.184  32.729  1.00  0.00    -0.744 OA
ENDBRANCH  96  97
ENDBRANCH  64  89
ENDBRANCH  38  39
ENDBRANCH  30  33
ENDBRANCH  28  29
ENDBRANCH  27  28
ENDBRANCH   1  27
TORSDOF 17
ENDMDL
