MODEL 1
REMARK VINA RESULT:     -10.8      0.000      0.000
REMARK SMILES CC(C)[C@@H]([NH2+][C@@H]1CSCC(C)(C)C1)C(=O)NCCCNC(=O)c1ccc(-c2c3nc(c(-c4c(F)cc(S(=O)(=O)[O-])cc4F)c4ccc([nH]4)c(-c4c(F)cc(S(=O)(=O)[O-])cc4F)c4nc(c(-c5c(F)cc(S(=O)(=O)[O-])cc5F)c5ccc2[nH]5)C=C4)C=C3)cc1
REMARK SMILES IDX 18 1 17 2 16 3 14 4 15 5 4 7 2 8 1 9 3 10 5 11 6 14 7 15
REMARK SMILES IDX 13 16 8 17 10 18 9 19 11 20 12 21 19 22 20 23 21 24 22 26
REMARK SMILES IDX 23 27 24 28 88 29 25 30 87 31 26 32 27 33 28 34 81 35 29 36
REMARK SMILES IDX 86 37 80 38 82 39 30 40 85 41 79 42 78 43 31 45 65 46 44 47
REMARK SMILES IDX 64 48 45 49 48 50 63 51 83 52 46 53 47 54 62 56 84 57 49 58
REMARK SMILES IDX 32 59 33 60 42 61 34 62 35 63 41 64 43 65 36 66 37 67 38 68
REMARK SMILES IDX 39 69 40 70 66 71 67 72 76 73 68 74 69 75 75 76 77 77 70 78
REMARK SMILES IDX 71 79 72 80 73 81 74 82 50 83 51 84 60 85 52 86 53 87 59 88
REMARK SMILES IDX 61 89 54 90 55 91 56 92 57 93 58 94
REMARK H PARENT 16 6 5 12 5 13 20 25 82 44 48 55
REMARK Flexibility Score: inf
ROOT
ATOM      1  C   UNL A   1      34.049  28.249  25.875  1.00  0.00     0.042 C 
ENDROOT
BRANCH   1   2
ATOM      2  C   UNL A   1      33.014  27.695  24.921  1.00  0.00     0.118 C 
BRANCH   2   3
ATOM      3  N   UNL A   1      33.531  27.455  23.589  1.00  0.00    -0.351 N 
ATOM      4  C   UNL A   1      33.496  26.288  22.875  1.00  0.00     0.278 C 
ATOM      5  O   UNL A   1      33.832  26.314  21.686  1.00  0.00    -0.268 OA
ATOM      6  H   UNL A   1      33.959  28.222  23.146  1.00  0.00     0.163 HD
BRANCH   4   7
ATOM      7  C   UNL A   1      33.133  24.946  23.557  1.00  0.00     0.275 C 
BRANCH   7   8
ATOM      8  C   UNL A   1      32.122  24.176  22.639  1.00  0.00     0.051 C 
ATOM      9  C   UNL A   1      32.637  22.794  22.227  1.00  0.00     0.014 C 
ATOM     10  C   UNL A   1      30.745  24.006  23.307  1.00  0.00     0.014 C 
ENDBRANCH   7   8
BRANCH   7  11
ATOM     11  N   UNL A   1      34.355  24.156  23.880  1.00  0.00    -0.333 N 
ATOM     12  H   UNL A   1      35.040  24.338  23.147  1.00  0.00     0.347 HD
ATOM     13  H   UNL A   1      34.030  23.191  23.943  1.00  0.00     0.347 HD
BRANCH  11  14
ATOM     14  C   UNL A   1      35.014  24.417  25.176  1.00  0.00     0.193 C 
ATOM     15  C   UNL A   1      36.409  23.826  25.438  1.00  0.00     0.134 C 
ATOM     16  C   UNL A   1      34.087  24.007  26.355  1.00  0.00     0.073 C 
ATOM     17  S   UNL A   1      36.463  22.015  25.417  1.00  0.00    -0.155 SA
ATOM     18  C   UNL A   1      33.824  22.492  26.576  1.00  0.00    -0.021 C 
ATOM     19  C   UNL A   1      35.096  21.609  26.530  1.00  0.00     0.076 C 
ATOM     20  C   UNL A   1      32.733  21.983  25.611  1.00  0.00     0.012 C 
ATOM     21  C   UNL A   1      33.222  22.297  27.993  1.00  0.00     0.012 C 
ENDBRANCH  11  14
ENDBRANCH   7  11
ENDBRANCH   4   7
ENDBRANCH   2   3
ENDBRANCH   1   2
BRANCH   1  22
ATOM     22  C   UNL A   1      33.478  28.539  27.252  1.00  0.00     0.118 C 
BRANCH  22  23
ATOM     23  N   UNL A   1      33.513  29.958  27.594  1.00  0.00    -0.352 N 
ATOM     24  C   UNL A   1      34.520  30.704  28.167  1.00  0.00     0.251 C 
ATOM     25  H   UNL A   1      32.692  30.459  27.383  1.00  0.00     0.163 HD
ATOM     26  O   UNL A   1      34.304  31.853  28.527  1.00  0.00    -0.269 OA
BRANCH  24  27
ATOM     27  C   UNL A   1      35.853  30.092  28.373  1.00  0.00     0.039 A 
ATOM     28  C   UNL A   1      36.786  30.121  27.335  1.00  0.00     0.014 A 
ATOM     29  C   UNL A   1      36.191  29.531  29.605  1.00  0.00     0.014 A 
ATOM     30  C   UNL A   1      38.090  29.675  27.568  1.00  0.00     0.010 A 
ATOM     31  C   UNL A   1      37.512  29.189  29.867  1.00  0.00     0.010 A 
ATOM     32  C   UNL A   1      38.477  29.258  28.852  1.00  0.00    -0.014 A 
BRANCH  32  33
ATOM     33  C   UNL A   1      39.884  28.896  29.169  1.00  0.00     0.031 A 
ATOM     34  C   UNL A   1      40.814  29.933  29.743  1.00  0.00     0.074 A 
ATOM     35  C   UNL A   1      40.351  27.675  28.835  1.00  0.00     0.049 A 
ATOM     36  N   UNL A   1      42.101  29.858  29.957  1.00  0.00    -0.248 NA
ATOM     37  C   UNL A   1      40.227  31.241  30.082  1.00  0.00     0.031 C 
ATOM     38  C   UNL A   1      39.571  26.611  28.196  1.00  0.00     0.029 A 
ATOM     39  N   UNL A   1      41.604  27.128  28.965  1.00  0.00    -0.354 N 
ATOM     40  C   UNL A   1      42.483  31.117  30.410  1.00  0.00     0.074 A 
ATOM     41  C   UNL A   1      41.300  31.947  30.406  1.00  0.00     0.031 C 
ATOM     42  C   UNL A   1      40.358  25.541  28.001  1.00  0.00     0.029 A 
ATOM     43  C   UNL A   1      41.706  25.850  28.466  1.00  0.00     0.049 A 
ATOM     44  H   UNL A   1      42.360  27.607  29.376  1.00  0.00     0.167 HD
ATOM     45  C   UNL A   1      43.706  31.532  30.816  1.00  0.00     0.037 A 
ATOM     46  C   UNL A   1      42.768  25.025  28.381  1.00  0.00     0.037 A 
ATOM     47  C   UNL A   1      44.861  30.679  30.889  1.00  0.00     0.049 A 
ATOM     48  C   UNL A   1      44.098  25.491  28.909  1.00  0.00     0.074 A 
ATOM     49  C   UNL A   1      46.114  30.973  31.398  1.00  0.00     0.029 A 
ATOM     50  N   UNL A   1      44.903  29.365  30.451  1.00  0.00    -0.354 N 
ATOM     51  N   UNL A   1      44.417  26.655  29.423  1.00  0.00    -0.248 NA
ATOM     52  C   UNL A   1      45.209  24.530  28.856  1.00  0.00     0.031 C 
ATOM     53  C   UNL A   1      46.925  29.846  31.236  1.00  0.00     0.029 A 
ATOM     54  C   UNL A   1      46.165  28.838  30.662  1.00  0.00     0.049 A 
ATOM     55  H   UNL A   1      44.147  28.878  30.049  1.00  0.00     0.167 HD
ATOM     56  C   UNL A   1      45.759  26.559  29.774  1.00  0.00     0.074 A 
ATOM     57  C   UNL A   1      46.188  25.219  29.430  1.00  0.00     0.031 C 
ATOM     58  C   UNL A   1      46.566  27.496  30.327  1.00  0.00     0.037 A 
BRANCH  45  59
ATOM     59  C   UNL A   1      43.861  32.967  31.236  1.00  0.00     0.058 A 
ATOM     60  C   UNL A   1      44.260  33.962  30.330  1.00  0.00     0.135 A 
ATOM     61  C   UNL A   1      43.537  33.363  32.545  1.00  0.00     0.135 A 
ATOM     62  F   UNL A   1      44.598  33.635  29.072  1.00  0.00    -0.206 F 
ATOM     63  C   UNL A   1      44.345  35.297  30.708  1.00  0.00     0.059 A 
ATOM     64  C   UNL A   1      43.590  34.697  32.938  1.00  0.00     0.059 A 
ATOM     65  F   UNL A   1      43.154  32.450  33.452  1.00  0.00    -0.206 F 
ATOM     66  C   UNL A   1      44.003  35.656  32.014  1.00  0.00     0.060 A 
BRANCH  66  67
ATOM     67  S   UNL A   1      44.074  37.400  32.475  1.00  0.00     0.124 S 
ATOM     68  O   UNL A   1      43.055  37.465  33.519  1.00  0.00    -0.237 OA
ATOM     69  O   UNL A   1      45.454  37.547  32.929  1.00  0.00    -0.237 OA
ATOM     70  O   UNL A   1      43.748  38.094  31.234  1.00  0.00    -0.744 OA
ENDBRANCH  66  67
ENDBRANCH  45  59
BRANCH  46  71
ATOM     71  C   UNL A   1      42.622  23.673  27.781  1.00  0.00     0.058 A 
ATOM     72  C   UNL A   1      42.455  22.538  28.588  1.00  0.00     0.135 A 
ATOM     73  C   UNL A   1      42.658  23.485  26.390  1.00  0.00     0.135 A 
ATOM     74  F   UNL A   1      42.416  22.665  29.923  1.00  0.00    -0.206 F 
ATOM     75  C   UNL A   1      42.361  21.261  28.042  1.00  0.00     0.059 A 
ATOM     76  C   UNL A   1      42.542  22.221  25.819  1.00  0.00     0.059 A 
ATOM     77  F   UNL A   1      42.795  24.540  25.573  1.00  0.00    -0.206 F 
ATOM     78  C   UNL A   1      42.409  21.113  26.655  1.00  0.00     0.060 A 
BRANCH  78  79
ATOM     79  S   UNL A   1      42.263  19.456  25.952  1.00  0.00     0.124 S 
ATOM     80  O   UNL A   1      43.133  19.555  24.785  1.00  0.00    -0.237 OA
ATOM     81  O   UNL A   1      42.749  18.613  27.040  1.00  0.00    -0.237 OA
ATOM     82  O   UNL A   1      40.835  19.338  25.669  1.00  0.00    -0.744 OA
ENDBRANCH  78  79
ENDBRANCH  46  71
BRANCH  58  83
ATOM     83  C   UNL A   1      47.983  27.099  30.628  1.00  0.00     0.058 A 
ATOM     84  C   UNL A   1      48.997  27.210  29.665  1.00  0.00     0.135 A 
ATOM     85  C   UNL A   1      48.338  26.658  31.913  1.00  0.00     0.135 A 
ATOM     86  F   UNL A   1      48.705  27.622  28.420  1.00  0.00    -0.206 F 
ATOM     87  C   UNL A   1      50.315  26.880  29.960  1.00  0.00     0.059 A 
ATOM     88  C   UNL A   1      49.655  26.346  32.237  1.00  0.00     0.059 A 
ATOM     89  F   UNL A   1      47.406  26.546  32.871  1.00  0.00    -0.206 F 
ATOM     90  C   UNL A   1      50.634  26.450  31.250  1.00  0.00     0.060 A 
BRANCH  90  91
ATOM     91  S   UNL A   1      52.354  26.060  31.633  1.00  0.00     0.124 S 
ATOM     92  O   UNL A   1      52.298  24.611  31.791  1.00  0.00    -0.237 OA
ATOM     93  O   UNL A   1      53.058  26.541  30.447  1.00  0.00    -0.237 OA
ATOM     94  O   UNL A   1      52.609  26.816  32.855  1.00  0.00    -0.744 OA
ENDBRANCH  90  91
ENDBRANCH  58  83
ENDBRANCH  32  33
ENDBRANCH  24  27
ENDBRANCH  22  23
ENDBRANCH   1  22
TORSDOF 16
ENDMDL
MODEL 2
REMARK VINA RESULT:     -10.4      3.538      9.222
REMARK SMILES CC(C)[C@@H]([NH2+][C@@H]1CSCC(C)(C)C1)C(=O)NCCCNC(=O)c1ccc(-c2c3nc(c(-c4c(F)cc(S(=O)(=O)[O-])cc4F)c4ccc([nH]4)c(-c4c(F)cc(S(=O)(=O)[O-])cc4F)c4nc(c(-c5c(F)cc(S(=O)(=O)[O-])cc5F)c5ccc2[nH]5)C=C4)C=C3)cc1
REMARK SMILES IDX 18 1 17 2 16 3 14 4 15 5 4 7 2 8 1 9 3 10 5 11 6 14 7 15
REMARK SMILES IDX 13 16 8 17 10 18 9 19 11 20 12 21 19 22 20 23 21 24 22 26
REMARK SMILES IDX 23 27 24 28 88 29 25 30 87 31 26 32 27 33 28 34 81 35 29 36
REMARK SMILES IDX 86 37 80 38 82 39 30 40 85 41 79 42 78 43 31 45 65 46 44 47
REMARK SMILES IDX 64 48 45 49 48 50 63 51 83 52 46 53 47 54 62 56 84 57 49 58
REMARK SMILES IDX 32 59 33 60 42 61 34 62 35 63 41 64 43 65 36 66 37 67 38 68
REMARK SMILES IDX 39 69 40 70 66 71 67 72 76 73 68 74 69 75 75 76 77 77 70 78
REMARK SMILES IDX 71 79 72 80 73 81 74 82 50 83 51 84 60 85 52 86 53 87 59 88
REMARK SMILES IDX 61 89 54 90 55 91 56 92 57 93 58 94
REMARK H PARENT 16 6 5 12 5 13 20 25 82 44 48 55
REMARK Flexibility Score: inf
ROOT
ATOM      1  C   UNL A   1      38.178  20.401  25.093  1.00  0.00     0.042 C 
ENDROOT
BRANCH   1   2
ATOM      2  C   UNL A   1      37.252  21.594  24.997  1.00  0.00     0.118 C 
BRANCH   2   3
ATOM      3  N   UNL A   1      36.377  21.736  26.144  1.00  0.00    -0.351 N 
ATOM      4  C   UNL A   1      35.010  21.679  26.167  1.00  0.00     0.278 C 
ATOM      5  O   UNL A   1      34.440  21.649  27.263  1.00  0.00    -0.268 OA
ATOM      6  H   UNL A   1      36.819  21.892  27.009  1.00  0.00     0.163 HD
BRANCH   4   7
ATOM      7  C   UNL A   1      34.188  21.741  24.857  1.00  0.00     0.275 C 
BRANCH   7   8
ATOM      8  C   UNL A   1      33.316  20.443  24.751  1.00  0.00     0.051 C 
ATOM      9  C   UNL A   1      32.350  20.478  23.564  1.00  0.00     0.014 C 
ATOM     10  C   UNL A   1      34.179  19.172  24.641  1.00  0.00     0.014 C 
ENDBRANCH   7   8
BRANCH   7  11
ATOM     11  N   UNL A   1      33.386  22.996  24.781  1.00  0.00    -0.333 N 
ATOM     12  H   UNL A   1      33.029  23.188  25.717  1.00  0.00     0.347 HD
ATOM     13  H   UNL A   1      32.675  22.808  24.074  1.00  0.00     0.347 HD
BRANCH  11  14
ATOM     14  C   UNL A   1      34.072  24.217  24.310  1.00  0.00     0.193 C 
ATOM     15  C   UNL A   1      34.298  25.375  25.295  1.00  0.00     0.134 C 
ATOM     16  C   UNL A   1      33.368  24.788  23.047  1.00  0.00     0.073 C 
ATOM     17  S   UNL A   1      32.771  26.104  25.947  1.00  0.00    -0.155 SA
ATOM     18  C   UNL A   1      31.958  25.417  23.226  1.00  0.00    -0.021 C 
ATOM     19  C   UNL A   1      31.842  26.394  24.423  1.00  0.00     0.076 C 
ATOM     20  C   UNL A   1      30.875  24.320  23.269  1.00  0.00     0.012 C 
ATOM     21  C   UNL A   1      31.626  26.253  21.962  1.00  0.00     0.012 C 
ENDBRANCH  11  14
ENDBRANCH   7  11
ENDBRANCH   4   7
ENDBRANCH   2   3
ENDBRANCH   1   2
BRANCH   1  22
ATOM     22  C   UNL A   1      39.309  20.620  26.082  1.00  0.00     0.118 C 
BRANCH  22  23
ATOM     23  N   UNL A   1      40.256  19.508  26.117  1.00  0.00    -0.352 N 
ATOM     24  C   UNL A   1      41.632  19.520  26.160  1.00  0.00     0.251 C 
ATOM     25  H   UNL A   1      39.847  18.612  26.109  1.00  0.00     0.163 HD
ATOM     26  O   UNL A   1      42.260  18.480  26.020  1.00  0.00    -0.269 OA
BRANCH  24  27
ATOM     27  C   UNL A   1      42.344  20.806  26.342  1.00  0.00     0.039 A 
ATOM     28  C   UNL A   1      42.757  21.523  25.218  1.00  0.00     0.014 A 
ATOM     29  C   UNL A   1      42.564  21.319  27.621  1.00  0.00     0.014 A 
ATOM     30  C   UNL A   1      43.301  22.801  25.377  1.00  0.00     0.010 A 
ATOM     31  C   UNL A   1      43.003  22.629  27.772  1.00  0.00     0.010 A 
ATOM     32  C   UNL A   1      43.375  23.386  26.652  1.00  0.00    -0.014 A 
BRANCH  32  33
ATOM     33  C   UNL A   1      43.831  24.787  26.848  1.00  0.00     0.031 A 
ATOM     34  C   UNL A   1      45.281  25.140  26.641  1.00  0.00     0.074 A 
ATOM     35  C   UNL A   1      42.968  25.710  27.321  1.00  0.00     0.049 A 
ATOM     36  N   UNL A   1      45.901  26.262  26.893  1.00  0.00    -0.248 NA
ATOM     37  C   UNL A   1      46.158  24.076  26.121  1.00  0.00     0.031 C 
ATOM     38  C   UNL A   1      41.558  25.471  27.643  1.00  0.00     0.029 A 
ATOM     39  N   UNL A   1      43.156  27.033  27.638  1.00  0.00    -0.354 N 
ATOM     40  C   UNL A   1      47.241  26.027  26.606  1.00  0.00     0.074 A 
ATOM     41  C   UNL A   1      47.352  24.645  26.197  1.00  0.00     0.031 C 
ATOM     42  C   UNL A   1      41.009  26.609  28.098  1.00  0.00     0.029 A 
ATOM     43  C   UNL A   1      42.031  27.649  28.137  1.00  0.00     0.049 A 
ATOM     44  H   UNL A   1      44.016  27.498  27.521  1.00  0.00     0.167 HD
ATOM     45  C   UNL A   1      48.280  26.893  26.657  1.00  0.00     0.037 A 
ATOM     46  C   UNL A   1      41.848  28.906  28.588  1.00  0.00     0.037 A 
ATOM     47  C   UNL A   1      48.149  28.286  26.991  1.00  0.00     0.049 A 
ATOM     48  C   UNL A   1      43.005  29.867  28.561  1.00  0.00     0.074 A 
ATOM     49  C   UNL A   1      49.119  29.272  26.956  1.00  0.00     0.029 A 
ATOM     50  N   UNL A   1      46.976  28.892  27.412  1.00  0.00    -0.354 N 
ATOM     51  N   UNL A   1      44.246  29.650  28.196  1.00  0.00    -0.248 NA
ATOM     52  C   UNL A   1      42.738  31.244  28.998  1.00  0.00     0.031 C 
ATOM     53  C   UNL A   1      48.540  30.469  27.389  1.00  0.00     0.029 A 
ATOM     54  C   UNL A   1      47.200  30.235  27.656  1.00  0.00     0.049 A 
ATOM     55  H   UNL A   1      46.110  28.434  27.522  1.00  0.00     0.167 HD
ATOM     56  C   UNL A   1      44.901  30.868  28.338  1.00  0.00     0.074 A 
ATOM     57  C   UNL A   1      43.917  31.821  28.807  1.00  0.00     0.031 C 
ATOM     58  C   UNL A   1      46.202  31.170  28.107  1.00  0.00     0.037 A 
BRANCH  45  59
ATOM     59  C   UNL A   1      49.650  26.375  26.322  1.00  0.00     0.058 A 
ATOM     60  C   UNL A   1      50.203  26.527  25.040  1.00  0.00     0.135 A 
ATOM     61  C   UNL A   1      50.448  25.781  27.314  1.00  0.00     0.135 A 
ATOM     62  F   UNL A   1      49.477  27.071  24.051  1.00  0.00    -0.206 F 
ATOM     63  C   UNL A   1      51.494  26.099  24.751  1.00  0.00     0.059 A 
ATOM     64  C   UNL A   1      51.751  25.369  27.054  1.00  0.00     0.059 A 
ATOM     65  F   UNL A   1      49.965  25.608  28.555  1.00  0.00    -0.206 F 
ATOM     66  C   UNL A   1      52.263  25.525  25.766  1.00  0.00     0.060 A 
BRANCH  66  67
ATOM     67  S   UNL A   1      53.952  25.017  25.385  1.00  0.00     0.124 S 
ATOM     68  O   UNL A   1      53.822  23.563  25.372  1.00  0.00    -0.237 OA
ATOM     69  O   UNL A   1      54.181  25.643  24.086  1.00  0.00    -0.237 OA
ATOM     70  O   UNL A   1      54.731  25.569  26.489  1.00  0.00    -0.744 OA
ENDBRANCH  66  67
ENDBRANCH  45  59
BRANCH  46  71
ATOM     71  C   UNL A   1      40.517  29.335  29.094  1.00  0.00     0.058 A 
ATOM     72  C   UNL A   1      39.466  29.624  28.211  1.00  0.00     0.135 A 
ATOM     73  C   UNL A   1      40.272  29.477  30.469  1.00  0.00     0.135 A 
ATOM     74  F   UNL A   1      39.652  29.505  26.887  1.00  0.00    -0.206 F 
ATOM     75  C   UNL A   1      38.230  30.068  28.668  1.00  0.00     0.059 A 
ATOM     76  C   UNL A   1      39.036  29.896  30.952  1.00  0.00     0.059 A 
ATOM     77  F   UNL A   1      41.237  29.193  31.356  1.00  0.00    -0.206 F 
ATOM     78  C   UNL A   1      38.026  30.205  30.042  1.00  0.00     0.060 A 
BRANCH  78  79
ATOM     79  S   UNL A   1      36.411  30.761  30.631  1.00  0.00     0.124 S 
ATOM     80  O   UNL A   1      36.061  29.700  31.570  1.00  0.00    -0.237 OA
ATOM     81  O   UNL A   1      36.725  32.058  31.221  1.00  0.00    -0.237 OA
ATOM     82  O   UNL A   1      35.611  30.814  29.410  1.00  0.00    -0.744 OA
ENDBRANCH  78  79
ENDBRANCH  46  71
BRANCH  58  83
ATOM     83  C   UNL A   1      46.630  32.594  28.321  1.00  0.00     0.058 A 
ATOM     84  C   UNL A   1      47.196  33.016  29.533  1.00  0.00     0.135 A 
ATOM     85  C   UNL A   1      46.527  33.530  27.280  1.00  0.00     0.135 A 
ATOM     86  F   UNL A   1      47.310  32.158  30.561  1.00  0.00    -0.206 F 
ATOM     87  C   UNL A   1      47.629  34.324  29.714  1.00  0.00     0.059 A 
ATOM     88  C   UNL A   1      46.976  34.838  27.430  1.00  0.00     0.059 A 
ATOM     89  F   UNL A   1      46.003  33.172  26.097  1.00  0.00    -0.206 F 
ATOM     90  C   UNL A   1      47.515  35.228  28.655  1.00  0.00     0.060 A 
BRANCH  90  91
ATOM     91  S   UNL A   1      48.114  36.915  28.887  1.00  0.00     0.124 S 
ATOM     92  O   UNL A   1      49.541  36.758  28.629  1.00  0.00    -0.237 OA
ATOM     93  O   UNL A   1      47.365  37.657  27.877  1.00  0.00    -0.237 OA
ATOM     94  O   UNL A   1      47.755  37.215  30.270  1.00  0.00    -0.744 OA
ENDBRANCH  90  91
ENDBRANCH  58  83
ENDBRANCH  32  33
ENDBRANCH  24  27
ENDBRANCH  22  23
ENDBRANCH   1  22
TORSDOF 16
ENDMDL
MODEL 3
REMARK VINA RESULT:     -10.3      4.895     10.523
REMARK SMILES CC(C)[C@@H]([NH2+][C@@H]1CSCC(C)(C)C1)C(=O)NCCCNC(=O)c1ccc(-c2c3nc(c(-c4c(F)cc(S(=O)(=O)[O-])cc4F)c4ccc([nH]4)c(-c4c(F)cc(S(=O)(=O)[O-])cc4F)c4nc(c(-c5c(F)cc(S(=O)(=O)[O-])cc5F)c5ccc2[nH]5)C=C4)C=C3)cc1
REMARK SMILES IDX 18 1 17 2 16 3 14 4 15 5 4 7 2 8 1 9 3 10 5 11 6 14 7 15
REMARK SMILES IDX 13 16 8 17 10 18 9 19 11 20 12 21 19 22 20 23 21 24 22 26
REMARK SMILES IDX 23 27 24 28 88 29 25 30 87 31 26 32 27 33 28 34 81 35 29 36
REMARK SMILES IDX 86 37 80 38 82 39 30 40 85 41 79 42 78 43 31 45 65 46 44 47
REMARK SMILES IDX 64 48 45 49 48 50 63 51 83 52 46 53 47 54 62 56 84 57 49 58
REMARK SMILES IDX 32 59 33 60 42 61 34 62 35 63 41 64 43 65 36 66 37 67 38 68
REMARK SMILES IDX 39 69 40 70 66 71 67 72 76 73 68 74 69 75 75 76 77 77 70 78
REMARK SMILES IDX 71 79 72 80 73 81 74 82 50 83 51 84 60 85 52 86 53 87 59 88
REMARK SMILES IDX 61 89 54 90 55 91 56 92 57 93 58 94
REMARK H PARENT 16 6 5 12 5 13 20 25 82 44 48 55
REMARK Flexibility Score: inf
ROOT
ATOM      1  C   UNL A   1      37.303  23.016  25.899  1.00  0.00     0.042 C 
ENDROOT
BRANCH   1   2
ATOM      2  C   UNL A   1      35.941  23.436  25.393  1.00  0.00     0.118 C 
BRANCH   2   3
ATOM      3  N   UNL A   1      34.859  23.070  26.285  1.00  0.00    -0.351 N 
ATOM      4  C   UNL A   1      33.513  23.156  26.050  1.00  0.00     0.278 C 
ATOM      5  O   UNL A   1      32.739  22.636  26.861  1.00  0.00    -0.268 OA
ATOM      6  H   UNL A   1      35.123  22.718  27.165  1.00  0.00     0.163 HD
BRANCH   4   7
ATOM      7  C   UNL A   1      32.965  23.962  24.848  1.00  0.00     0.275 C 
BRANCH   7   8
ATOM      8  C   UNL A   1      31.951  23.060  24.063  1.00  0.00     0.051 C 
ATOM      9  C   UNL A   1      30.719  23.836  23.588  1.00  0.00     0.014 C 
ATOM     10  C   UNL A   1      32.601  22.382  22.843  1.00  0.00     0.014 C 
ENDBRANCH   7   8
BRANCH   7  11
ATOM     11  N   UNL A   1      32.379  25.260  25.288  1.00  0.00    -0.333 N 
ATOM     12  H   UNL A   1      31.770  25.067  26.083  1.00  0.00     0.347 HD
ATOM     13  H   UNL A   1      31.911  25.628  24.460  1.00  0.00     0.347 HD
BRANCH  11  14
ATOM     14  C   UNL A   1      33.315  26.327  25.698  1.00  0.00     0.193 C 
ATOM     15  C   UNL A   1      32.794  27.489  26.560  1.00  0.00     0.134 C 
ATOM     16  C   UNL A   1      34.035  26.930  24.459  1.00  0.00     0.073 C 
ATOM     17  S   UNL A   1      31.509  28.487  25.760  1.00  0.00    -0.155 SA
ATOM     18  C   UNL A   1      33.189  27.785  23.475  1.00  0.00    -0.021 C 
ATOM     19  C   UNL A   1      32.278  28.834  24.161  1.00  0.00     0.076 C 
ATOM     20  C   UNL A   1      32.399  26.878  22.509  1.00  0.00     0.012 C 
ATOM     21  C   UNL A   1      34.154  28.589  22.565  1.00  0.00     0.012 C 
ENDBRANCH  11  14
ENDBRANCH   7  11
ENDBRANCH   4   7
ENDBRANCH   2   3
ENDBRANCH   1   2
BRANCH   1  22
ATOM     22  C   UNL A   1      38.199  24.201  26.212  1.00  0.00     0.118 C 
BRANCH  22  23
ATOM     23  N   UNL A   1      39.621  23.871  26.144  1.00  0.00    -0.352 N 
ATOM     24  C   UNL A   1      40.707  24.530  26.676  1.00  0.00     0.251 C 
ATOM     25  H   UNL A   1      39.835  23.052  25.642  1.00  0.00     0.163 HD
ATOM     26  O   UNL A   1      41.842  24.186  26.375  1.00  0.00    -0.269 OA
BRANCH  24  27
ATOM     27  C   UNL A   1      40.490  25.678  27.586  1.00  0.00     0.039 A 
ATOM     28  C   UNL A   1      39.554  25.565  28.617  1.00  0.00     0.014 A 
ATOM     29  C   UNL A   1      41.240  26.846  27.445  1.00  0.00     0.014 A 
ATOM     30  C   UNL A   1      39.446  26.587  29.564  1.00  0.00     0.010 A 
ATOM     31  C   UNL A   1      41.208  27.810  28.445  1.00  0.00     0.010 A 
ATOM     32  C   UNL A   1      40.312  27.692  29.516  1.00  0.00    -0.014 A 
BRANCH  32  33
ATOM     33  C   UNL A   1      40.311  28.737  30.574  1.00  0.00     0.031 A 
ATOM     34  C   UNL A   1      41.204  28.584  31.778  1.00  0.00     0.074 A 
ATOM     35  C   UNL A   1      39.428  29.755  30.507  1.00  0.00     0.049 A 
ATOM     36  N   UNL A   1      41.250  29.305  32.867  1.00  0.00    -0.248 NA
ATOM     37  C   UNL A   1      42.140  27.446  31.774  1.00  0.00     0.031 C 
ATOM     38  C   UNL A   1      38.452  29.966  29.435  1.00  0.00     0.029 A 
ATOM     39  N   UNL A   1      39.192  30.795  31.373  1.00  0.00    -0.354 N 
ATOM     40  C   UNL A   1      42.182  28.685  33.692  1.00  0.00     0.074 A 
ATOM     41  C   UNL A   1      42.650  27.509  32.995  1.00  0.00     0.031 C 
ATOM     42  C   UNL A   1      37.734  31.069  29.700  1.00  0.00     0.029 A 
ATOM     43  C   UNL A   1      38.169  31.625  30.977  1.00  0.00     0.049 A 
ATOM     44  H   UNL A   1      39.706  30.932  32.201  1.00  0.00     0.167 HD
ATOM     45  C   UNL A   1      42.623  29.076  34.911  1.00  0.00     0.037 A 
ATOM     46  C   UNL A   1      37.633  32.704  31.580  1.00  0.00     0.037 A 
ATOM     47  C   UNL A   1      42.209  30.288  35.564  1.00  0.00     0.049 A 
ATOM     48  C   UNL A   1      38.197  33.157  32.900  1.00  0.00     0.074 A 
ATOM     49  C   UNL A   1      42.684  30.834  36.744  1.00  0.00     0.029 A 
ATOM     50  N   UNL A   1      41.228  31.147  35.091  1.00  0.00    -0.354 N 
ATOM     51  N   UNL A   1      39.146  32.610  33.621  1.00  0.00    -0.248 NA
ATOM     52  C   UNL A   1      37.626  34.379  33.484  1.00  0.00     0.031 C 
ATOM     53  C   UNL A   1      41.967  32.006  37.002  1.00  0.00     0.029 A 
ATOM     54  C   UNL A   1      41.073  32.210  35.963  1.00  0.00     0.049 A 
ATOM     55  H   UNL A   1      40.718  31.019  34.258  1.00  0.00     0.167 HD
ATOM     56  C   UNL A   1      39.300  33.431  34.732  1.00  0.00     0.074 A 
ATOM     57  C   UNL A   1      38.359  34.521  34.581  1.00  0.00     0.031 C 
ATOM     58  C   UNL A   1      40.141  33.294  35.785  1.00  0.00     0.037 A 
BRANCH  45  59
ATOM     59  C   UNL A   1      43.624  28.203  35.614  1.00  0.00     0.058 A 
ATOM     60  C   UNL A   1      43.226  27.208  36.521  1.00  0.00     0.135 A 
ATOM     61  C   UNL A   1      44.994  28.315  35.323  1.00  0.00     0.135 A 
ATOM     62  F   UNL A   1      41.931  27.070  36.848  1.00  0.00    -0.206 F 
ATOM     63  C   UNL A   1      44.151  26.364  37.124  1.00  0.00     0.059 A 
ATOM     64  C   UNL A   1      45.934  27.464  35.895  1.00  0.00     0.059 A 
ATOM     65  F   UNL A   1      45.428  29.253  34.466  1.00  0.00    -0.206 F 
ATOM     66  C   UNL A   1      45.503  26.495  36.801  1.00  0.00     0.060 A 
BRANCH  66  67
ATOM     67  S   UNL A   1      46.685  25.360  37.558  1.00  0.00     0.124 S 
ATOM     68  O   UNL A   1      47.819  26.245  37.806  1.00  0.00    -0.237 OA
ATOM     69  O   UNL A   1      45.966  24.906  38.745  1.00  0.00    -0.237 OA
ATOM     70  O   UNL A   1      46.891  24.347  36.528  1.00  0.00    -0.744 OA
ENDBRANCH  66  67
ENDBRANCH  45  59
BRANCH  46  71
ATOM     71  C   UNL A   1      36.509  33.439  30.943  1.00  0.00     0.058 A 
ATOM     72  C   UNL A   1      35.207  33.358  31.461  1.00  0.00     0.135 A 
ATOM     73  C   UNL A   1      36.708  34.226  29.799  1.00  0.00     0.135 A 
ATOM     74  F   UNL A   1      34.965  32.616  32.553  1.00  0.00    -0.206 F 
ATOM     75  C   UNL A   1      34.137  34.004  30.850  1.00  0.00     0.059 A 
ATOM     76  C   UNL A   1      35.658  34.902  29.183  1.00  0.00     0.059 A 
ATOM     77  F   UNL A   1      37.937  34.354  29.276  1.00  0.00    -0.206 F 
ATOM     78  C   UNL A   1      34.373  34.771  29.708  1.00  0.00     0.060 A 
BRANCH  78  79
ATOM     79  S   UNL A   1      32.984  35.627  28.933  1.00  0.00     0.124 S 
ATOM     80  O   UNL A   1      32.205  36.036  30.096  1.00  0.00    -0.237 OA
ATOM     81  O   UNL A   1      33.649  36.700  28.201  1.00  0.00    -0.237 OA
ATOM     82  O   UNL A   1      32.378  34.592  28.098  1.00  0.00    -0.744 OA
ENDBRANCH  78  79
ENDBRANCH  46  71
BRANCH  58  83
ATOM     83  C   UNL A   1      40.110  34.363  36.840  1.00  0.00     0.058 A 
ATOM     84  C   UNL A   1      40.932  35.496  36.760  1.00  0.00     0.135 A 
ATOM     85  C   UNL A   1      39.205  34.278  37.909  1.00  0.00     0.135 A 
ATOM     86  F   UNL A   1      41.819  35.620  35.759  1.00  0.00    -0.206 F 
ATOM     87  C   UNL A   1      40.872  36.504  37.716  1.00  0.00     0.059 A 
ATOM     88  C   UNL A   1      39.110  35.286  38.864  1.00  0.00     0.059 A 
ATOM     89  F   UNL A   1      38.390  33.218  38.023  1.00  0.00    -0.206 F 
ATOM     90  C   UNL A   1      39.955  36.389  38.764  1.00  0.00     0.060 A 
BRANCH  90  91
ATOM     91  S   UNL A   1      39.858  37.720  39.980  1.00  0.00     0.124 S 
ATOM     92  O   UNL A   1      38.639  38.406  39.568  1.00  0.00    -0.237 OA
ATOM     93  O   UNL A   1      39.778  36.989  41.242  1.00  0.00    -0.237 OA
ATOM     94  O   UNL A   1      41.098  38.461  39.771  1.00  0.00    -0.744 OA
ENDBRANCH  90  91
ENDBRANCH  58  83
ENDBRANCH  32  33
ENDBRANCH  24  27
ENDBRANCH  22  23
ENDBRANCH   1  22
TORSDOF 16
ENDMDL
