MODEL 1
REMARK VINA RESULT:     -11.3      0.000      0.000
REMARK SMILES C[C@H](O)[C@@H](NC(=O)c1ccc(Cl)c(S(C)(=O)=O)c1)C(=O)NCCCNC(=O)c1ccc(-c2c3nc(c(-c4c(F)cc(S(=O)(=O)[O-])cc4F)c4ccc([nH]4)c(-c4c(F)cc(S(=O)(=O)[O-])cc4F)c4nc(c(-c5c(F)cc(S(=O)(=O)[O-])cc5F)c5ccc2[nH]5)C=C4)C=C3)cc1
REMARK SMILES IDX 23 1 22 2 21 3 19 4 20 5 4 7 2 8 1 9 3 10 5 12 6 13 7 15
REMARK SMILES IDX 8 16 9 17 18 18 10 19 13 20 11 21 12 22 14 23 15 24 16 25
REMARK SMILES IDX 17 26 24 27 25 28 26 29 27 31 28 32 29 33 93 34 30 35 92 36
REMARK SMILES IDX 31 37 32 38 33 39 86 40 34 41 91 42 85 43 87 44 35 45 90 46
REMARK SMILES IDX 84 47 83 48 36 50 70 51 49 52 69 53 50 54 53 55 68 56 88 57
REMARK SMILES IDX 51 58 52 59 67 61 89 62 54 63 37 64 38 65 47 66 39 67 40 68
REMARK SMILES IDX 46 69 48 70 41 71 42 72 43 73 44 74 45 75 71 76 72 77 81 78
REMARK SMILES IDX 73 79 74 80 80 81 82 82 75 83 76 84 77 85 78 86 79 87 55 88
REMARK SMILES IDX 56 89 65 90 57 91 58 92 64 93 66 94 59 95 60 96 61 97 62 98
REMARK SMILES IDX 63 99
REMARK H PARENT 21 6 3 11 5 14 25 30 87 49 53 60
REMARK Flexibility Score: inf
ROOT
ATOM      1  C   UNL A   1      33.685  28.453  25.526  1.00  0.00     0.042 C 
ENDROOT
BRANCH   1   2
ATOM      2  C   UNL A   1      32.837  29.516  24.855  1.00  0.00     0.117 C 
BRANCH   2   3
ATOM      3  N   UNL A   1      32.494  29.134  23.495  1.00  0.00    -0.354 N 
ATOM      4  C   UNL A   1      31.274  28.958  22.923  1.00  0.00     0.245 C 
ATOM      5  O   UNL A   1      31.236  28.533  21.765  1.00  0.00    -0.273 OA
ATOM      6  H   UNL A   1      33.262  28.980  22.899  1.00  0.00     0.163 HD
BRANCH   4   7
ATOM      7  C   UNL A   1      29.976  29.160  23.719  1.00  0.00     0.200 C 
BRANCH   7   8
ATOM      8  C   UNL A   1      29.419  30.575  23.398  1.00  0.00     0.143 C 
ATOM      9  C   UNL A   1      27.896  30.642  23.331  1.00  0.00     0.041 C 
BRANCH   8  10
ATOM     10  O   UNL A   1      29.955  31.008  22.137  1.00  0.00    -0.391 OA
ATOM     11  H   UNL A   1      30.919  31.090  22.207  1.00  0.00     0.211 HD
ENDBRANCH   8  10
ENDBRANCH   7   8
BRANCH   7  12
ATOM     12  N   UNL A   1      28.922  28.143  23.488  1.00  0.00    -0.338 N 
ATOM     13  C   UNL A   1      28.803  26.848  23.926  1.00  0.00     0.252 C 
ATOM     14  H   UNL A   1      28.179  28.451  22.920  1.00  0.00     0.164 HD
ATOM     15  O   UNL A   1      27.754  26.228  23.776  1.00  0.00    -0.269 OA
BRANCH  13  16
ATOM     16  C   UNL A   1      29.981  26.119  24.434  1.00  0.00     0.041 A 
ATOM     17  C   UNL A   1      30.314  26.093  25.782  1.00  0.00     0.015 A 
ATOM     18  C   UNL A   1      30.816  25.504  23.493  1.00  0.00     0.035 A 
ATOM     19  C   UNL A   1      31.534  25.530  26.172  1.00  0.00     0.023 A 
ATOM     20  C   UNL A   1      32.047  24.945  23.886  1.00  0.00     0.086 A 
ATOM     21  C   UNL A   1      32.419  24.976  25.231  1.00  0.00     0.059 A 
ATOM     22  Cl  UNL A   1      33.921  24.422  25.864  1.00  0.00    -0.083 Cl
BRANCH  20  23
ATOM     23  S   UNL A   1      33.117  24.437  22.561  1.00  0.00     0.177 S 
ATOM     24  C   UNL A   1      32.583  25.369  21.150  1.00  0.00     0.164 C 
ATOM     25  O   UNL A   1      34.426  24.928  22.955  1.00  0.00    -0.224 OA
ATOM     26  O   UNL A   1      32.910  23.045  22.241  1.00  0.00    -0.224 OA
ENDBRANCH  20  23
ENDBRANCH  13  16
ENDBRANCH   7  12
ENDBRANCH   4   7
ENDBRANCH   2   3
ENDBRANCH   1   2
BRANCH   1  27
ATOM     27  C   UNL A   1      33.663  28.549  27.044  1.00  0.00     0.118 C 
BRANCH  27  28
ATOM     28  N   UNL A   1      33.592  29.922  27.526  1.00  0.00    -0.352 N 
ATOM     29  C   UNL A   1      34.524  30.634  28.241  1.00  0.00     0.251 C 
ATOM     30  H   UNL A   1      32.762  30.406  27.308  1.00  0.00     0.163 HD
ATOM     31  O   UNL A   1      34.250  31.712  28.755  1.00  0.00    -0.269 OA
BRANCH  29  32
ATOM     32  C   UNL A   1      35.870  30.057  28.391  1.00  0.00     0.039 A 
ATOM     33  C   UNL A   1      36.756  30.114  27.316  1.00  0.00     0.014 A 
ATOM     34  C   UNL A   1      36.263  29.523  29.622  1.00  0.00     0.014 A 
ATOM     35  C   UNL A   1      38.075  29.714  27.509  1.00  0.00     0.010 A 
ATOM     36  C   UNL A   1      37.597  29.223  29.839  1.00  0.00     0.010 A 
ATOM     37  C   UNL A   1      38.514  29.317  28.783  1.00  0.00    -0.014 A 
BRANCH  37  38
ATOM     38  C   UNL A   1      39.935  28.997  29.036  1.00  0.00     0.031 A 
ATOM     39  C   UNL A   1      40.835  30.043  29.631  1.00  0.00     0.074 A 
ATOM     40  C   UNL A   1      40.412  27.793  28.669  1.00  0.00     0.049 A 
ATOM     41  N   UNL A   1      42.120  29.988  29.860  1.00  0.00    -0.248 NA
ATOM     42  C   UNL A   1      40.217  31.333  29.981  1.00  0.00     0.031 C 
ATOM     43  C   UNL A   1      39.632  26.731  28.026  1.00  0.00     0.029 A 
ATOM     44  N   UNL A   1      41.668  27.255  28.781  1.00  0.00    -0.354 N 
ATOM     45  C   UNL A   1      42.463  31.234  30.372  1.00  0.00     0.074 A 
ATOM     46  C   UNL A   1      41.267  32.046  30.356  1.00  0.00     0.031 C 
ATOM     47  C   UNL A   1      40.418  25.657  27.838  1.00  0.00     0.029 A 
ATOM     48  C   UNL A   1      41.761  25.967  28.311  1.00  0.00     0.049 A 
ATOM     49  H   UNL A   1      42.432  27.747  29.161  1.00  0.00     0.167 HD
ATOM     50  C   UNL A   1      43.661  31.648  30.846  1.00  0.00     0.037 A 
ATOM     51  C   UNL A   1      42.817  25.132  28.274  1.00  0.00     0.037 A 
ATOM     52  C   UNL A   1      44.831  30.816  30.885  1.00  0.00     0.049 A 
ATOM     53  C   UNL A   1      44.133  25.614  28.822  1.00  0.00     0.074 A 
ATOM     54  C   UNL A   1      46.091  31.120  31.367  1.00  0.00     0.029 A 
ATOM     55  N   UNL A   1      44.878  29.504  30.433  1.00  0.00    -0.354 N 
ATOM     56  N   UNL A   1      44.430  26.782  29.339  1.00  0.00    -0.248 NA
ATOM     57  C   UNL A   1      45.253  24.665  28.787  1.00  0.00     0.031 C 
ATOM     58  C   UNL A   1      46.907  29.996  31.189  1.00  0.00     0.029 A 
ATOM     59  C   UNL A   1      46.145  28.983  30.626  1.00  0.00     0.049 A 
ATOM     60  H   UNL A   1      44.122  29.016  30.034  1.00  0.00     0.167 HD
ATOM     61  C   UNL A   1      45.764  26.699  29.720  1.00  0.00     0.074 A 
ATOM     62  C   UNL A   1      46.212  25.363  29.381  1.00  0.00     0.031 C 
ATOM     63  C   UNL A   1      46.550  27.641  30.296  1.00  0.00     0.037 A 
BRANCH  50  64
ATOM     64  C   UNL A   1      43.745  33.050  31.381  1.00  0.00     0.058 A 
ATOM     65  C   UNL A   1      44.048  34.134  30.541  1.00  0.00     0.135 A 
ATOM     66  C   UNL A   1      43.507  33.320  32.738  1.00  0.00     0.135 A 
ATOM     67  F   UNL A   1      44.306  33.929  29.239  1.00  0.00    -0.206 F 
ATOM     68  C   UNL A   1      44.139  35.432  31.031  1.00  0.00     0.059 A 
ATOM     69  C   UNL A   1      43.567  34.614  33.245  1.00  0.00     0.059 A 
ATOM     70  F   UNL A   1      43.219  32.319  33.586  1.00  0.00    -0.206 F 
ATOM     71  C   UNL A   1      43.897  35.662  32.386  1.00  0.00     0.060 A 
BRANCH  71  72
ATOM     72  S   UNL A   1      44.008  37.354  33.005  1.00  0.00     0.124 S 
ATOM     73  O   UNL A   1      45.315  37.341  33.655  1.00  0.00    -0.237 OA
ATOM     74  O   UNL A   1      43.917  38.143  31.780  1.00  0.00    -0.237 OA
ATOM     75  O   UNL A   1      42.861  37.463  33.902  1.00  0.00    -0.744 OA
ENDBRANCH  71  72
ENDBRANCH  50  64
BRANCH  51  76
ATOM     76  C   UNL A   1      42.668  23.754  27.735  1.00  0.00     0.058 A 
ATOM     77  C   UNL A   1      42.733  23.512  26.355  1.00  0.00     0.135 A 
ATOM     78  C   UNL A   1      42.454  22.656  28.582  1.00  0.00     0.135 A 
ATOM     79  F   UNL A   1      42.939  24.530  25.505  1.00  0.00    -0.206 F 
ATOM     80  C   UNL A   1      42.561  22.236  25.829  1.00  0.00     0.059 A 
ATOM     81  C   UNL A   1      42.301  21.367  28.081  1.00  0.00     0.059 A 
ATOM     82  F   UNL A   1      42.408  22.830  29.912  1.00  0.00    -0.206 F 
ATOM     83  C   UNL A   1      42.340  21.169  26.702  1.00  0.00     0.060 A 
BRANCH  83  84
ATOM     84  S   UNL A   1      42.134  19.512  26.014  1.00  0.00     0.124 S 
ATOM     85  O   UNL A   1      42.643  18.681  27.097  1.00  0.00    -0.237 OA
ATOM     86  O   UNL A   1      40.694  19.450  25.782  1.00  0.00    -0.237 OA
ATOM     87  O   UNL A   1      42.953  19.549  24.806  1.00  0.00    -0.744 OA
ENDBRANCH  83  84
ENDBRANCH  51  76
BRANCH  63  88
ATOM     88  C   UNL A   1      47.957  27.242  30.634  1.00  0.00     0.058 A 
ATOM     89  C   UNL A   1      48.273  26.631  31.856  1.00  0.00     0.135 A 
ATOM     90  C   UNL A   1      48.987  27.422  29.698  1.00  0.00     0.135 A 
ATOM     91  F   UNL A   1      47.322  26.445  32.785  1.00  0.00    -0.206 F 
ATOM     92  C   UNL A   1      49.570  26.228  32.148  1.00  0.00     0.059 A 
ATOM     93  C   UNL A   1      50.287  27.005  29.959  1.00  0.00     0.059 A 
ATOM     94  F   UNL A   1      48.730  27.994  28.510  1.00  0.00    -0.206 F 
ATOM     95  C   UNL A   1      50.570  26.418  31.192  1.00  0.00     0.060 A 
BRANCH  95  96
ATOM     96  S   UNL A   1      52.243  25.851  31.565  1.00  0.00     0.124 S 
ATOM     97  O   UNL A   1      52.897  25.996  30.268  1.00  0.00    -0.237 OA
ATOM     98  O   UNL A   1      52.669  26.789  32.598  1.00  0.00    -0.237 OA
ATOM     99  O   UNL A   1      52.042  24.478  32.018  1.00  0.00    -0.744 OA
ENDBRANCH  95  96
ENDBRANCH  63  88
ENDBRANCH  37  38
ENDBRANCH  29  32
ENDBRANCH  27  28
ENDBRANCH   1  27
TORSDOF 18
ENDMDL
MODEL 2
REMARK VINA RESULT:     -11.3      4.907     10.454
REMARK SMILES C[C@H](O)[C@@H](NC(=O)c1ccc(Cl)c(S(C)(=O)=O)c1)C(=O)NCCCNC(=O)c1ccc(-c2c3nc(c(-c4c(F)cc(S(=O)(=O)[O-])cc4F)c4ccc([nH]4)c(-c4c(F)cc(S(=O)(=O)[O-])cc4F)c4nc(c(-c5c(F)cc(S(=O)(=O)[O-])cc5F)c5ccc2[nH]5)C=C4)C=C3)cc1
REMARK SMILES IDX 23 1 22 2 21 3 19 4 20 5 4 7 2 8 1 9 3 10 5 12 6 13 7 15
REMARK SMILES IDX 8 16 9 17 18 18 10 19 13 20 11 21 12 22 14 23 15 24 16 25
REMARK SMILES IDX 17 26 24 27 25 28 26 29 27 31 28 32 29 33 93 34 30 35 92 36
REMARK SMILES IDX 31 37 32 38 33 39 86 40 34 41 91 42 85 43 87 44 35 45 90 46
REMARK SMILES IDX 84 47 83 48 36 50 70 51 49 52 69 53 50 54 53 55 68 56 88 57
REMARK SMILES IDX 51 58 52 59 67 61 89 62 54 63 37 64 38 65 47 66 39 67 40 68
REMARK SMILES IDX 46 69 48 70 41 71 42 72 43 73 44 74 45 75 71 76 72 77 81 78
REMARK SMILES IDX 73 79 74 80 80 81 82 82 75 83 76 84 77 85 78 86 79 87 55 88
REMARK SMILES IDX 56 89 65 90 57 91 58 92 64 93 66 94 59 95 60 96 61 97 62 98
REMARK SMILES IDX 63 99
REMARK H PARENT 21 6 3 11 5 14 25 30 87 49 53 60
REMARK Flexibility Score: inf
ROOT
ATOM      1  C   UNL A   1      37.402  23.562  25.309  1.00  0.00     0.042 C 
ENDROOT
BRANCH   1   2
ATOM      2  C   UNL A   1      35.919  23.641  25.616  1.00  0.00     0.117 C 
BRANCH   2   3
ATOM      3  N   UNL A   1      35.551  22.717  26.675  1.00  0.00    -0.354 N 
ATOM      4  C   UNL A   1      34.344  22.161  26.963  1.00  0.00     0.245 C 
ATOM      5  O   UNL A   1      34.256  21.472  27.984  1.00  0.00    -0.273 OA
ATOM      6  H   UNL A   1      36.287  22.455  27.274  1.00  0.00     0.163 HD
BRANCH   4   7
ATOM      7  C   UNL A   1      33.096  22.468  26.123  1.00  0.00     0.200 C 
BRANCH   7   8
ATOM      8  C   UNL A   1      32.888  21.307  25.111  1.00  0.00     0.143 C 
ATOM      9  C   UNL A   1      32.675  21.769  23.672  1.00  0.00     0.041 C 
BRANCH   8  10
ATOM     10  O   UNL A   1      31.747  20.535  25.521  1.00  0.00    -0.391 OA
ATOM     11  H   UNL A   1      31.971  19.592  25.499  1.00  0.00     0.211 HD
ENDBRANCH   8  10
ENDBRANCH   7   8
BRANCH   7  12
ATOM     12  N   UNL A   1      31.849  22.690  26.893  1.00  0.00    -0.338 N 
ATOM     13  C   UNL A   1      30.752  23.472  26.632  1.00  0.00     0.252 C 
ATOM     14  H   UNL A   1      31.800  22.189  27.739  1.00  0.00     0.164 HD
ATOM     15  O   UNL A   1      29.734  23.373  27.310  1.00  0.00    -0.269 OA
BRANCH  13  16
ATOM     16  C   UNL A   1      30.830  24.563  25.641  1.00  0.00     0.041 A 
ATOM     17  C   UNL A   1      30.632  24.349  24.283  1.00  0.00     0.015 A 
ATOM     18  C   UNL A   1      31.192  25.834  26.105  1.00  0.00     0.035 A 
ATOM     19  C   UNL A   1      30.891  25.389  23.385  1.00  0.00     0.023 A 
ATOM     20  C   UNL A   1      31.459  26.877  25.199  1.00  0.00     0.086 A 
ATOM     21  C   UNL A   1      31.328  26.649  23.828  1.00  0.00     0.059 A 
ATOM     22  Cl  UNL A   1      31.701  27.783  22.587  1.00  0.00    -0.083 Cl
BRANCH  20  23
ATOM     23  S   UNL A   1      32.158  28.349  25.908  1.00  0.00     0.177 S 
ATOM     24  C   UNL A   1      31.803  28.243  27.642  1.00  0.00     0.164 C 
ATOM     25  O   UNL A   1      33.590  28.182  25.732  1.00  0.00    -0.224 OA
ATOM     26  O   UNL A   1      31.480  29.525  25.418  1.00  0.00    -0.224 OA
ENDBRANCH  20  23
ENDBRANCH  13  16
ENDBRANCH   7  12
ENDBRANCH   4   7
ENDBRANCH   2   3
ENDBRANCH   1   2
BRANCH   1  27
ATOM     27  C   UNL A   1      38.270  24.093  26.440  1.00  0.00     0.118 C 
BRANCH  27  28
ATOM     28  N   UNL A   1      39.695  23.924  26.191  1.00  0.00    -0.352 N 
ATOM     29  C   UNL A   1      40.737  24.738  26.563  1.00  0.00     0.251 C 
ATOM     30  H   UNL A   1      39.945  23.114  25.689  1.00  0.00     0.163 HD
ATOM     31  O   UNL A   1      41.866  24.579  26.112  1.00  0.00    -0.269 OA
BRANCH  29  32
ATOM     32  C   UNL A   1      40.461  25.828  27.512  1.00  0.00     0.039 A 
ATOM     33  C   UNL A   1      39.524  25.624  28.524  1.00  0.00     0.014 A 
ATOM     34  C   UNL A   1      41.184  27.022  27.428  1.00  0.00     0.014 A 
ATOM     35  C   UNL A   1      39.379  26.593  29.514  1.00  0.00     0.010 A 
ATOM     36  C   UNL A   1      41.112  27.935  28.467  1.00  0.00     0.010 A 
ATOM     37  C   UNL A   1      40.209  27.726  29.518  1.00  0.00    -0.014 A 
BRANCH  37  38
ATOM     38  C   UNL A   1      40.152  28.711  30.620  1.00  0.00     0.031 A 
ATOM     39  C   UNL A   1      41.072  28.559  31.798  1.00  0.00     0.074 A 
ATOM     40  C   UNL A   1      39.229  29.690  30.577  1.00  0.00     0.049 A 
ATOM     41  N   UNL A   1      41.128  29.266  32.895  1.00  0.00    -0.248 NA
ATOM     42  C   UNL A   1      42.033  27.443  31.753  1.00  0.00     0.031 C 
ATOM     43  C   UNL A   1      38.246  29.885  29.506  1.00  0.00     0.029 A 
ATOM     44  N   UNL A   1      38.962  30.707  31.456  1.00  0.00    -0.354 N 
ATOM     45  C   UNL A   1      42.120  28.678  33.670  1.00  0.00     0.074 A 
ATOM     46  C   UNL A   1      42.592  27.517  32.951  1.00  0.00     0.031 C 
ATOM     47  C   UNL A   1      37.513  30.978  29.773  1.00  0.00     0.029 A 
ATOM     48  C   UNL A   1      37.946  31.538  31.047  1.00  0.00     0.049 A 
ATOM     49  H   UNL A   1      39.451  30.830  32.302  1.00  0.00     0.167 HD
ATOM     50  C   UNL A   1      42.616  29.093  34.858  1.00  0.00     0.037 A 
ATOM     51  C   UNL A   1      37.430  32.632  31.638  1.00  0.00     0.037 A 
ATOM     52  C   UNL A   1      42.157  30.270  35.544  1.00  0.00     0.049 A 
ATOM     53  C   UNL A   1      38.011  33.080  32.952  1.00  0.00     0.074 A 
ATOM     54  C   UNL A   1      42.603  30.802  36.739  1.00  0.00     0.029 A 
ATOM     55  N   UNL A   1      41.151  31.107  35.081  1.00  0.00    -0.354 N 
ATOM     56  N   UNL A   1      38.976  32.535  33.653  1.00  0.00    -0.248 NA
ATOM     57  C   UNL A   1      37.438  34.292  33.551  1.00  0.00     0.031 C 
ATOM     58  C   UNL A   1      41.853  31.952  37.010  1.00  0.00     0.029 A 
ATOM     59  C   UNL A   1      40.962  32.153  35.966  1.00  0.00     0.049 A 
ATOM     60  H   UNL A   1      40.645  30.976  34.246  1.00  0.00     0.167 HD
ATOM     61  C   UNL A   1      39.149  33.355  34.762  1.00  0.00     0.074 A 
ATOM     62  C   UNL A   1      38.193  34.437  34.632  1.00  0.00     0.031 C 
ATOM     63  C   UNL A   1      40.015  33.225  35.795  1.00  0.00     0.037 A 
BRANCH  50  64
ATOM     64  C   UNL A   1      43.724  28.282  35.467  1.00  0.00     0.058 A 
ATOM     65  C   UNL A   1      45.072  28.581  35.210  1.00  0.00     0.135 A 
ATOM     66  C   UNL A   1      43.444  27.206  36.324  1.00  0.00     0.135 A 
ATOM     67  F   UNL A   1      45.395  29.586  34.380  1.00  0.00    -0.206 F 
ATOM     68  C   UNL A   1      46.103  27.828  35.760  1.00  0.00     0.059 A 
ATOM     69  C   UNL A   1      44.461  26.455  36.906  1.00  0.00     0.059 A 
ATOM     70  F   UNL A   1      42.173  26.873  36.598  1.00  0.00    -0.206 F 
ATOM     71  C   UNL A   1      45.787  26.765  36.607  1.00  0.00     0.060 A 
BRANCH  71  72
ATOM     72  S   UNL A   1      47.137  25.803  37.322  1.00  0.00     0.124 S 
ATOM     73  O   UNL A   1      46.495  25.232  38.502  1.00  0.00    -0.237 OA
ATOM     74  O   UNL A   1      47.450  24.860  36.253  1.00  0.00    -0.237 OA
ATOM     75  O   UNL A   1      48.164  26.806  37.589  1.00  0.00    -0.744 OA
ENDBRANCH  71  72
ENDBRANCH  50  64
BRANCH  51  76
ATOM     76  C   UNL A   1      36.335  33.396  30.983  1.00  0.00     0.058 A 
ATOM     77  C   UNL A   1      36.580  34.156  29.830  1.00  0.00     0.135 A 
ATOM     78  C   UNL A   1      35.028  33.387  31.493  1.00  0.00     0.135 A 
ATOM     79  F   UNL A   1      37.814  34.194  29.302  1.00  0.00    -0.206 F 
ATOM     80  C   UNL A   1      35.579  34.905  29.222  1.00  0.00     0.059 A 
ATOM     81  C   UNL A   1      34.004  34.111  30.891  1.00  0.00     0.059 A 
ATOM     82  F   UNL A   1      34.735  32.657  32.580  1.00  0.00    -0.206 F 
ATOM     83  C   UNL A   1      34.293  34.881  29.765  1.00  0.00     0.060 A 
BRANCH  83  84
ATOM     84  S   UNL A   1      32.992  35.843  28.962  1.00  0.00     0.124 S 
ATOM     85  O   UNL A   1      32.213  36.295  30.109  1.00  0.00    -0.237 OA
ATOM     86  O   UNL A   1      33.755  36.872  28.262  1.00  0.00    -0.237 OA
ATOM     87  O   UNL A   1      32.339  34.864  28.099  1.00  0.00    -0.744 OA
ENDBRANCH  83  84
ENDBRANCH  51  76
BRANCH  63  88
ATOM     88  C   UNL A   1      39.998  34.303  36.839  1.00  0.00     0.058 A 
ATOM     89  C   UNL A   1      40.739  35.483  36.688  1.00  0.00     0.135 A 
ATOM     90  C   UNL A   1      39.184  34.173  37.975  1.00  0.00     0.135 A 
ATOM     91  F   UNL A   1      41.537  35.649  35.622  1.00  0.00    -0.206 F 
ATOM     92  C   UNL A   1      40.688  36.495  37.639  1.00  0.00     0.059 A 
ATOM     93  C   UNL A   1      39.099  35.183  38.928  1.00  0.00     0.059 A 
ATOM     94  F   UNL A   1      38.448  33.064  38.158  1.00  0.00    -0.206 F 
ATOM     95  C   UNL A   1      39.863  36.336  38.755  1.00  0.00     0.060 A 
BRANCH  95  96
ATOM     96  S   UNL A   1      39.772  37.674  39.962  1.00  0.00     0.124 S 
ATOM     97  O   UNL A   1      41.015  38.392  39.698  1.00  0.00    -0.237 OA
ATOM     98  O   UNL A   1      38.546  38.365  39.574  1.00  0.00    -0.237 OA
ATOM     99  O   UNL A   1      39.710  36.974  41.241  1.00  0.00    -0.744 OA
ENDBRANCH  95  96
ENDBRANCH  63  88
ENDBRANCH  37  38
ENDBRANCH  29  32
ENDBRANCH  27  28
ENDBRANCH   1  27
TORSDOF 18
ENDMDL
MODEL 3
REMARK VINA RESULT:     -11.2      1.580      3.144
REMARK SMILES C[C@H](O)[C@@H](NC(=O)c1ccc(Cl)c(S(C)(=O)=O)c1)C(=O)NCCCNC(=O)c1ccc(-c2c3nc(c(-c4c(F)cc(S(=O)(=O)[O-])cc4F)c4ccc([nH]4)c(-c4c(F)cc(S(=O)(=O)[O-])cc4F)c4nc(c(-c5c(F)cc(S(=O)(=O)[O-])cc5F)c5ccc2[nH]5)C=C4)C=C3)cc1
REMARK SMILES IDX 23 1 22 2 21 3 19 4 20 5 4 7 2 8 1 9 3 10 5 12 6 13 7 15
REMARK SMILES IDX 8 16 9 17 18 18 10 19 13 20 11 21 12 22 14 23 15 24 16 25
REMARK SMILES IDX 17 26 24 27 25 28 26 29 27 31 28 32 29 33 93 34 30 35 92 36
REMARK SMILES IDX 31 37 32 38 33 39 86 40 34 41 91 42 85 43 87 44 35 45 90 46
REMARK SMILES IDX 84 47 83 48 36 50 70 51 49 52 69 53 50 54 53 55 68 56 88 57
REMARK SMILES IDX 51 58 52 59 67 61 89 62 54 63 37 64 38 65 47 66 39 67 40 68
REMARK SMILES IDX 46 69 48 70 41 71 42 72 43 73 44 74 45 75 71 76 72 77 81 78
REMARK SMILES IDX 73 79 74 80 80 81 82 82 75 83 76 84 77 85 78 86 79 87 55 88
REMARK SMILES IDX 56 89 65 90 57 91 58 92 64 93 66 94 59 95 60 96 61 97 62 98
REMARK SMILES IDX 63 99
REMARK H PARENT 21 6 3 11 5 14 25 30 87 49 53 60
REMARK Flexibility Score: inf
ROOT
ATOM      1  C   UNL A   1      32.501  27.745  27.112  1.00  0.00     0.042 C 
ENDROOT
BRANCH   1   2
ATOM      2  C   UNL A   1      32.513  26.408  26.395  1.00  0.00     0.117 C 
BRANCH   2   3
ATOM      3  N   UNL A   1      31.431  25.555  26.856  1.00  0.00    -0.354 N 
ATOM      4  C   UNL A   1      31.276  24.209  26.742  1.00  0.00     0.245 C 
ATOM      5  O   UNL A   1      30.214  23.716  27.131  1.00  0.00    -0.273 OA
ATOM      6  H   UNL A   1      30.699  26.023  27.320  1.00  0.00     0.163 HD
BRANCH   4   7
ATOM      7  C   UNL A   1      32.329  23.335  26.045  1.00  0.00     0.200 C 
BRANCH   7   8
ATOM      8  C   UNL A   1      32.841  22.278  27.063  1.00  0.00     0.143 C 
ATOM      9  C   UNL A   1      34.284  22.496  27.511  1.00  0.00     0.041 C 
BRANCH   8  10
ATOM     10  O   UNL A   1      32.735  20.974  26.469  1.00  0.00    -0.391 OA
ATOM     11  H   UNL A   1      33.582  20.735  26.062  1.00  0.00     0.211 HD
ENDBRANCH   8  10
ENDBRANCH   7   8
BRANCH   7  12
ATOM     12  N   UNL A   1      31.876  22.658  24.807  1.00  0.00    -0.338 N 
ATOM     13  C   UNL A   1      32.014  23.002  23.485  1.00  0.00     0.252 C 
ATOM     14  H   UNL A   1      31.391  21.815  24.959  1.00  0.00     0.164 HD
ATOM     15  O   UNL A   1      31.729  22.206  22.595  1.00  0.00    -0.269 OA
BRANCH  13  16
ATOM     16  C   UNL A   1      32.348  24.389  23.104  1.00  0.00     0.041 A 
ATOM     17  C   UNL A   1      33.648  24.792  22.832  1.00  0.00     0.015 A 
ATOM     18  C   UNL A   1      31.307  25.326  23.098  1.00  0.00     0.035 A 
ATOM     19  C   UNL A   1      33.915  26.153  22.648  1.00  0.00     0.023 A 
ATOM     20  C   UNL A   1      31.578  26.695  22.920  1.00  0.00     0.086 A 
ATOM     21  C   UNL A   1      32.893  27.116  22.714  1.00  0.00     0.059 A 
ATOM     22  Cl  UNL A   1      33.408  28.752  22.570  1.00  0.00    -0.083 Cl
BRANCH  20  23
ATOM     23  S   UNL A   1      30.207  27.792  23.197  1.00  0.00     0.177 S 
ATOM     24  C   UNL A   1      28.890  26.753  23.769  1.00  0.00     0.164 C 
ATOM     25  O   UNL A   1      30.638  28.624  24.308  1.00  0.00    -0.224 OA
ATOM     26  O   UNL A   1      29.763  28.379  21.956  1.00  0.00    -0.224 OA
ENDBRANCH  20  23
ENDBRANCH  13  16
ENDBRANCH   7  12
ENDBRANCH   4   7
ENDBRANCH   2   3
ENDBRANCH   1   2
BRANCH   1  27
ATOM     27  C   UNL A   1      33.778  28.543  26.896  1.00  0.00     0.118 C 
BRANCH  27  28
ATOM     28  N   UNL A   1      33.702  29.894  27.437  1.00  0.00    -0.352 N 
ATOM     29  C   UNL A   1      34.631  30.576  28.185  1.00  0.00     0.251 C 
ATOM     30  H   UNL A   1      32.872  30.385  27.238  1.00  0.00     0.163 HD
ATOM     31  O   UNL A   1      34.353  31.630  28.745  1.00  0.00    -0.269 OA
BRANCH  29  32
ATOM     32  C   UNL A   1      35.977  29.995  28.315  1.00  0.00     0.039 A 
ATOM     33  C   UNL A   1      36.864  30.093  27.244  1.00  0.00     0.014 A 
ATOM     34  C   UNL A   1      36.370  29.416  29.526  1.00  0.00     0.014 A 
ATOM     35  C   UNL A   1      38.184  29.688  27.423  1.00  0.00     0.010 A 
ATOM     36  C   UNL A   1      37.704  29.110  29.733  1.00  0.00     0.010 A 
ATOM     37  C   UNL A   1      38.621  29.245  28.682  1.00  0.00    -0.014 A 
BRANCH  37  38
ATOM     38  C   UNL A   1      40.043  28.917  28.925  1.00  0.00     0.031 A 
ATOM     39  C   UNL A   1      40.956  29.964  29.499  1.00  0.00     0.074 A 
ATOM     40  C   UNL A   1      40.508  27.706  28.565  1.00  0.00     0.049 A 
ATOM     41  N   UNL A   1      42.243  29.902  29.716  1.00  0.00    -0.248 NA
ATOM     42  C   UNL A   1      40.351  31.262  29.842  1.00  0.00     0.031 C 
ATOM     43  C   UNL A   1      39.714  26.643  27.941  1.00  0.00     0.029 A 
ATOM     44  N   UNL A   1      41.761  27.161  28.670  1.00  0.00    -0.354 N 
ATOM     45  C   UNL A   1      42.599  31.150  30.211  1.00  0.00     0.074 A 
ATOM     46  C   UNL A   1      41.409  31.971  30.198  1.00  0.00     0.031 C 
ATOM     47  C   UNL A   1      40.491  25.562  27.757  1.00  0.00     0.029 A 
ATOM     48  C   UNL A   1      41.840  25.867  28.214  1.00  0.00     0.049 A 
ATOM     49  H   UNL A   1      42.532  27.652  29.038  1.00  0.00     0.167 HD
ATOM     50  C   UNL A   1      43.805  31.561  30.669  1.00  0.00     0.037 A 
ATOM     51  C   UNL A   1      42.890  25.024  28.175  1.00  0.00     0.037 A 
ATOM     52  C   UNL A   1      44.970  30.721  30.705  1.00  0.00     0.049 A 
ATOM     53  C   UNL A   1      44.214  25.502  28.704  1.00  0.00     0.074 A 
ATOM     54  C   UNL A   1      46.237  31.021  31.171  1.00  0.00     0.029 A 
ATOM     55  N   UNL A   1      45.003  29.404  30.266  1.00  0.00    -0.354 N 
ATOM     56  N   UNL A   1      44.525  26.674  29.206  1.00  0.00    -0.248 NA
ATOM     57  C   UNL A   1      45.328  24.546  28.669  1.00  0.00     0.031 C 
ATOM     58  C   UNL A   1      47.043  29.890  30.997  1.00  0.00     0.029 A 
ATOM     59  C   UNL A   1      46.268  28.876  30.453  1.00  0.00     0.049 A 
ATOM     60  H   UNL A   1      44.240  28.917  29.880  1.00  0.00     0.167 HD
ATOM     61  C   UNL A   1      45.862  26.585  29.575  1.00  0.00     0.074 A 
ATOM     62  C   UNL A   1      46.297  25.243  29.246  1.00  0.00     0.031 C 
ATOM     63  C   UNL A   1      46.661  27.528  30.133  1.00  0.00     0.037 A 
BRANCH  50  64
ATOM     64  C   UNL A   1      43.904  32.968  31.188  1.00  0.00     0.058 A 
ATOM     65  C   UNL A   1      44.312  34.024  30.357  1.00  0.00     0.135 A 
ATOM     66  C   UNL A   1      43.576  33.270  32.519  1.00  0.00     0.135 A 
ATOM     67  F   UNL A   1      44.659  33.786  29.083  1.00  0.00    -0.206 F 
ATOM     68  C   UNL A   1      44.417  35.326  30.834  1.00  0.00     0.059 A 
ATOM     69  C   UNL A   1      43.649  34.570  33.010  1.00  0.00     0.059 A 
ATOM     70  F   UNL A   1      43.185  32.296  33.357  1.00  0.00    -0.206 F 
ATOM     71  C   UNL A   1      44.084  35.589  32.163  1.00  0.00     0.060 A 
BRANCH  71  72
ATOM     72  S   UNL A   1      44.215  37.286  32.764  1.00  0.00     0.124 S 
ATOM     73  O   UNL A   1      45.620  37.349  33.158  1.00  0.00    -0.237 OA
ATOM     74  O   UNL A   1      43.853  38.066  31.585  1.00  0.00    -0.237 OA
ATOM     75  O   UNL A   1      43.253  37.333  33.861  1.00  0.00    -0.744 OA
ENDBRANCH  71  72
ENDBRANCH  50  64
BRANCH  51  76
ATOM     76  C   UNL A   1      42.726  23.642  27.652  1.00  0.00     0.058 A 
ATOM     77  C   UNL A   1      42.838  23.375  26.280  1.00  0.00     0.135 A 
ATOM     78  C   UNL A   1      42.452  22.563  28.507  1.00  0.00     0.135 A 
ATOM     79  F   UNL A   1      43.102  24.374  25.423  1.00  0.00    -0.206 F 
ATOM     80  C   UNL A   1      42.653  22.096  25.767  1.00  0.00     0.059 A 
ATOM     81  C   UNL A   1      42.284  21.271  28.021  1.00  0.00     0.059 A 
ATOM     82  F   UNL A   1      42.358  22.761  29.832  1.00  0.00    -0.206 F 
ATOM     83  C   UNL A   1      42.371  21.050  26.647  1.00  0.00     0.060 A 
BRANCH  83  84
ATOM     84  S   UNL A   1      42.148  19.387  25.978  1.00  0.00     0.124 S 
ATOM     85  O   UNL A   1      40.705  19.346  25.770  1.00  0.00    -0.237 OA
ATOM     86  O   UNL A   1      42.967  19.427  24.770  1.00  0.00    -0.237 OA
ATOM     87  O   UNL A   1      42.659  18.529  27.042  1.00  0.00    -0.744 OA
ENDBRANCH  83  84
ENDBRANCH  51  76
BRANCH  63  88
ATOM     88  C   UNL A   1      48.068  27.123  30.461  1.00  0.00     0.058 A 
ATOM     89  C   UNL A   1      49.107  27.264  29.531  1.00  0.00     0.135 A 
ATOM     90  C   UNL A   1      48.385  26.644  31.741  1.00  0.00     0.135 A 
ATOM     91  F   UNL A   1      48.851  27.711  28.292  1.00  0.00    -0.206 F 
ATOM     92  C   UNL A   1      50.416  26.925  29.854  1.00  0.00     0.059 A 
ATOM     93  C   UNL A   1      49.691  26.320  32.094  1.00  0.00     0.059 A 
ATOM     94  F   UNL A   1      47.423  26.501  32.669  1.00  0.00    -0.206 F 
ATOM     95  C   UNL A   1      50.697  26.455  31.139  1.00  0.00     0.060 A 
BRANCH  95  96
ATOM     96  S   UNL A   1      52.407  26.058  31.560  1.00  0.00     0.124 S 
ATOM     97  O   UNL A   1      53.077  26.249  30.277  1.00  0.00    -0.237 OA
ATOM     98  O   UNL A   1      52.714  27.046  32.589  1.00  0.00    -0.237 OA
ATOM     99  O   UNL A   1      52.329  24.678  32.030  1.00  0.00    -0.744 OA
ENDBRANCH  95  96
ENDBRANCH  63  88
ENDBRANCH  37  38
ENDBRANCH  29  32
ENDBRANCH  27  28
ENDBRANCH   1  27
TORSDOF 18
ENDMDL
