MODEL 1
REMARK VINA RESULT:     -13.9      0.000      0.000
REMARK SMILES C[C@]12c3ccccc3[C@](C)(c3ccccc31)[C@@H]1C(=O)N(c3ccc(C(=O)NCCCNC(=O)c4ccc(-c5c6nc(c(-c7c(F)cc(S(=O)(=O)[O-])cc7F)c7ccc([nH]7)c(-c7c(F)cc(S(=O)(=O)[O-])cc7F)c7nc(c(-c8c(F)cc(S(=O)(=O)[O-])cc8F)c8ccc5[nH]8)C=C7)C=C6)cc4)cc3)C(=O)[C@H]12
REMARK SMILES IDX 30 1 29 2 28 3 27 4 25 5 26 6 24 8 21 9 22 10 101 11 23 12
REMARK SMILES IDX 100 13 20 14 1 15 2 16 16 17 3 18 104 19 15 20 11 21 8 22
REMARK SMILES IDX 4 23 17 24 102 25 14 26 12 27 9 28 7 29 5 30 18 31 103 32
REMARK SMILES IDX 13 33 10 34 6 35 19 36 31 37 32 38 33 40 34 41 35 42 99 43
REMARK SMILES IDX 36 44 98 45 37 46 38 47 39 48 92 49 40 50 97 51 91 52 93 53
REMARK SMILES IDX 41 54 96 55 90 56 89 57 42 59 76 60 55 61 75 62 56 63 59 64
REMARK SMILES IDX 74 65 94 66 57 67 58 68 73 70 95 71 60 72 43 73 44 74 53 75
REMARK SMILES IDX 45 76 46 77 52 78 54 79 47 80 48 81 49 82 50 83 51 84 77 85
REMARK SMILES IDX 78 86 87 87 79 88 80 89 86 90 88 91 81 92 82 93 83 94 84 95
REMARK SMILES IDX 85 96 61 97 62 98 71 99 63 100 64 101 70 102 72 103 65 104
REMARK SMILES IDX 66 105 67 106 68 107 69 108
REMARK H PARENT 27 7 31 39 93 58 59 69
REMARK Flexibility Score: inf
ROOT
ATOM      1  C   UNL A   1      43.694  24.675  27.398  1.00  0.00     0.118 C 
ENDROOT
BRANCH   1   2
ATOM      2  C   UNL A   1      43.876  23.193  27.676  1.00  0.00     0.042 C 
BRANCH   2   3
ATOM      3  C   UNL A   1      43.295  22.279  26.611  1.00  0.00     0.118 C 
BRANCH   3   4
ATOM      4  N   UNL A   1      42.875  20.979  27.122  1.00  0.00    -0.352 N 
ATOM      5  C   UNL A   1      41.650  20.363  27.168  1.00  0.00     0.251 C 
ATOM      6  O   UNL A   1      41.558  19.267  27.717  1.00  0.00    -0.269 OA
ATOM      7  H   UNL A   1      43.608  20.445  27.506  1.00  0.00     0.163 HD
BRANCH   5   8
ATOM      8  C   UNL A   1      40.429  21.002  26.625  1.00  0.00     0.039 A 
ATOM      9  C   UNL A   1      37.956  22.024  25.752  1.00  0.00     0.052 A 
ATOM     10  C   UNL A   1      38.366  20.737  25.380  1.00  0.00     0.027 A 
ATOM     11  C   UNL A   1      38.847  22.828  26.474  1.00  0.00     0.027 A 
ATOM     12  C   UNL A   1      39.599  20.234  25.803  1.00  0.00     0.016 A 
ATOM     13  C   UNL A   1      40.084  22.327  26.889  1.00  0.00     0.016 A 
BRANCH   9  14
ATOM     14  N   UNL A   1      36.654  22.488  25.461  1.00  0.00    -0.250 N 
ATOM     15  C   UNL A   1      34.051  26.163  25.869  1.00  0.00     0.022 C 
ATOM     16  C   UNL A   1      33.729  24.869  25.127  1.00  0.00     0.030 C 
ATOM     17  C   UNL A   1      33.506  25.024  23.599  1.00  0.00    -0.033 A 
ATOM     18  C   UNL A   1      32.444  24.129  25.621  1.00  0.00    -0.033 A 
ATOM     19  C   UNL A   1      34.752  23.750  25.436  1.00  0.00     0.108 C 
ATOM     20  C   UNL A   1      33.564  26.213  22.877  1.00  0.00     0.005 A 
ATOM     21  C   UNL A   1      33.150  23.805  22.925  1.00  0.00    -0.033 A 
ATOM     22  C   UNL A   1      32.246  22.850  24.992  1.00  0.00    -0.033 A 
ATOM     23  C   UNL A   1      31.582  24.567  26.622  1.00  0.00     0.005 A 
ATOM     24  C   UNL A   1      34.701  22.712  24.315  1.00  0.00     0.108 C 
ATOM     25  C   UNL A   1      36.228  23.810  25.660  1.00  0.00     0.238 C 
ATOM     26  C   UNL A   1      33.264  26.198  21.511  1.00  0.00     0.000 A 
ATOM     27  C   UNL A   1      32.840  23.808  21.567  1.00  0.00     0.005 A 
ATOM     28  C   UNL A   1      33.238  22.545  23.841  1.00  0.00     0.030 C 
ATOM     29  C   UNL A   1      31.192  22.040  25.400  1.00  0.00     0.005 A 
ATOM     30  C   UNL A   1      30.530  23.739  27.014  1.00  0.00     0.000 A 
ATOM     31  C   UNL A   1      35.656  21.708  24.862  1.00  0.00     0.238 C 
ATOM     32  O   UNL A   1      36.850  24.788  26.037  1.00  0.00    -0.274 OA
ATOM     33  C   UNL A   1      32.898  25.011  20.866  1.00  0.00     0.000 A 
ATOM     34  C   UNL A   1      33.021  21.216  23.121  1.00  0.00     0.022 C 
ATOM     35  C   UNL A   1      30.341  22.487  26.415  1.00  0.00     0.000 A 
ATOM     36  O   UNL A   1      35.593  20.498  24.711  1.00  0.00    -0.274 OA
ENDBRANCH   9  14
ENDBRANCH   5   8
ENDBRANCH   3   4
ENDBRANCH   2   3
ENDBRANCH   1   2
BRANCH   1  37
ATOM     37  N   UNL A   1      42.889  24.949  26.210  1.00  0.00    -0.352 N 
ATOM     38  C   UNL A   1      41.773  25.739  26.034  1.00  0.00     0.251 C 
ATOM     39  H   UNL A   1      43.197  24.492  25.394  1.00  0.00     0.163 HD
ATOM     40  O   UNL A   1      41.166  25.699  24.967  1.00  0.00    -0.269 OA
BRANCH  38  41
ATOM     41  C   UNL A   1      41.283  26.601  27.133  1.00  0.00     0.039 A 
ATOM     42  C   UNL A   1      41.724  27.915  27.248  1.00  0.00     0.014 A 
ATOM     43  C   UNL A   1      40.389  26.086  28.078  1.00  0.00     0.014 A 
ATOM     44  C   UNL A   1      41.497  28.613  28.425  1.00  0.00     0.010 A 
ATOM     45  C   UNL A   1      40.038  26.855  29.196  1.00  0.00     0.010 A 
ATOM     46  C   UNL A   1      40.642  28.101  29.415  1.00  0.00    -0.014 A 
BRANCH  46  47
ATOM     47  C   UNL A   1      40.408  28.910  30.644  1.00  0.00     0.031 A 
ATOM     48  C   UNL A   1      41.318  28.792  31.841  1.00  0.00     0.074 A 
ATOM     49  C   UNL A   1      39.420  29.829  30.636  1.00  0.00     0.049 A 
ATOM     50  N   UNL A   1      41.293  29.470  32.960  1.00  0.00    -0.248 NA
ATOM     51  C   UNL A   1      42.392  27.785  31.783  1.00  0.00     0.031 C 
ATOM     52  C   UNL A   1      38.480  30.043  29.532  1.00  0.00     0.029 A 
ATOM     53  N   UNL A   1      39.069  30.788  31.553  1.00  0.00    -0.354 N 
ATOM     54  C   UNL A   1      42.330  28.969  33.740  1.00  0.00     0.074 A 
ATOM     55  C   UNL A   1      42.944  27.901  32.983  1.00  0.00     0.031 C 
ATOM     56  C   UNL A   1      37.724  31.118  29.794  1.00  0.00     0.029 A 
ATOM     57  C   UNL A   1      38.056  31.616  31.124  1.00  0.00     0.049 A 
ATOM     58  H   UNL A   1      39.498  30.874  32.435  1.00  0.00     0.167 HD
ATOM     59  C   UNL A   1      42.743  29.375  34.965  1.00  0.00     0.037 A 
ATOM     60  C   UNL A   1      37.449  32.653  31.731  1.00  0.00     0.037 A 
ATOM     61  C   UNL A   1      42.141  30.458  35.700  1.00  0.00     0.049 A 
ATOM     62  C   UNL A   1      37.890  33.044  33.111  1.00  0.00     0.074 A 
ATOM     63  C   UNL A   1      42.492  30.948  36.946  1.00  0.00     0.029 A 
ATOM     64  N   UNL A   1      41.069  31.221  35.258  1.00  0.00    -0.354 N 
ATOM     65  N   UNL A   1      38.871  32.553  33.829  1.00  0.00    -0.248 NA
ATOM     66  C   UNL A   1      37.136  34.117  33.772  1.00  0.00     0.031 C 
ATOM     67  C   UNL A   1      41.604  31.973  37.279  1.00  0.00     0.029 A 
ATOM     68  C   UNL A   1      40.734  32.163  36.217  1.00  0.00     0.049 A 
ATOM     69  H   UNL A   1      40.615  31.110  34.393  1.00  0.00     0.167 HD
ATOM     70  C   UNL A   1      38.864  33.269  35.019  1.00  0.00     0.074 A 
ATOM     71  C   UNL A   1      37.791  34.237  34.919  1.00  0.00     0.031 C 
ATOM     72  C   UNL A   1      39.673  33.132  36.097  1.00  0.00     0.037 A 
BRANCH  59  73
ATOM     73  C   UNL A   1      43.905  28.657  35.601  1.00  0.00     0.058 A 
ATOM     74  C   UNL A   1      45.229  29.075  35.397  1.00  0.00     0.135 A 
ATOM     75  C   UNL A   1      43.686  27.595  36.495  1.00  0.00     0.135 A 
ATOM     76  F   UNL A   1      45.500  30.074  34.542  1.00  0.00    -0.206 F 
ATOM     77  C   UNL A   1      46.295  28.459  36.048  1.00  0.00     0.059 A 
ATOM     78  C   UNL A   1      44.733  26.983  37.177  1.00  0.00     0.059 A 
ATOM     79  F   UNL A   1      42.439  27.155  36.728  1.00  0.00    -0.206 F 
ATOM     80  C   UNL A   1      46.036  27.418  36.942  1.00  0.00     0.060 A 
BRANCH  80  81
ATOM     81  S   UNL A   1      47.432  26.653  37.794  1.00  0.00     0.124 S 
ATOM     82  O   UNL A   1      48.342  27.785  37.941  1.00  0.00    -0.237 OA
ATOM     83  O   UNL A   1      46.816  26.171  39.025  1.00  0.00    -0.237 OA
ATOM     84  O   UNL A   1      47.872  25.614  36.866  1.00  0.00    -0.744 OA
ENDBRANCH  80  81
ENDBRANCH  59  73
BRANCH  60  85
ATOM     85  C   UNL A   1      36.353  33.380  31.033  1.00  0.00     0.058 A 
ATOM     86  C   UNL A   1      35.025  33.286  31.475  1.00  0.00     0.135 A 
ATOM     87  C   UNL A   1      36.617  34.208  29.929  1.00  0.00     0.135 A 
ATOM     88  F   UNL A   1      34.720  32.504  32.523  1.00  0.00    -0.206 F 
ATOM     89  C   UNL A   1      33.997  33.977  30.843  1.00  0.00     0.059 A 
ATOM     90  C   UNL A   1      35.610  34.934  29.301  1.00  0.00     0.059 A 
ATOM     91  F   UNL A   1      37.872  34.346  29.474  1.00  0.00    -0.206 F 
ATOM     92  C   UNL A   1      34.301  34.804  29.760  1.00  0.00     0.060 A 
BRANCH  92  93
ATOM     93  S   UNL A   1      32.964  35.731  28.977  1.00  0.00     0.124 S 
ATOM     94  O   UNL A   1      32.357  34.709  28.131  1.00  0.00    -0.237 OA
ATOM     95  O   UNL A   1      32.177  36.160  30.128  1.00  0.00    -0.237 OA
ATOM     96  O   UNL A   1      33.665  36.799  28.271  1.00  0.00    -0.744 OA
ENDBRANCH  92  93
ENDBRANCH  60  85
BRANCH  72  97
ATOM     97  C   UNL A   1      39.459  34.064  37.256  1.00  0.00     0.058 A 
ATOM     98  C   UNL A   1      38.749  33.665  38.397  1.00  0.00     0.135 A 
ATOM     99  C   UNL A   1      40.063  35.332  37.266  1.00  0.00     0.135 A 
ATOM    100  F   UNL A   1      38.144  32.467  38.433  1.00  0.00    -0.206 F 
ATOM    101  C   UNL A   1      38.646  34.491  39.512  1.00  0.00     0.059 A 
ATOM    102  C   UNL A   1      39.997  36.163  38.379  1.00  0.00     0.059 A 
ATOM    103  F   UNL A   1      40.761  35.758  36.200  1.00  0.00    -0.206 F 
ATOM    104  C   UNL A   1      39.285  35.732  39.498  1.00  0.00     0.060 A 
BRANCH 104 105
ATOM    105  S   UNL A   1      39.208  36.755  40.983  1.00  0.00     0.124 S 
ATOM    106  O   UNL A   1      38.768  38.036  40.439  1.00  0.00    -0.237 OA
ATOM    107  O   UNL A   1      38.229  36.043  41.799  1.00  0.00    -0.237 OA
ATOM    108  O   UNL A   1      40.577  36.727  41.489  1.00  0.00    -0.744 OA
ENDBRANCH 104 105
ENDBRANCH  72  97
ENDBRANCH  46  47
ENDBRANCH  38  41
ENDBRANCH   1  37
TORSDOF 14
ENDMDL
MODEL 2
REMARK VINA RESULT:     -13.8      5.327     12.703
REMARK SMILES C[C@]12c3ccccc3[C@](C)(c3ccccc31)[C@@H]1C(=O)N(c3ccc(C(=O)NCCCNC(=O)c4ccc(-c5c6nc(c(-c7c(F)cc(S(=O)(=O)[O-])cc7F)c7ccc([nH]7)c(-c7c(F)cc(S(=O)(=O)[O-])cc7F)c7nc(c(-c8c(F)cc(S(=O)(=O)[O-])cc8F)c8ccc5[nH]8)C=C7)C=C6)cc4)cc3)C(=O)[C@H]12
REMARK SMILES IDX 30 1 29 2 28 3 27 4 25 5 26 6 24 8 21 9 22 10 101 11 23 12
REMARK SMILES IDX 100 13 20 14 1 15 2 16 16 17 3 18 104 19 15 20 11 21 8 22
REMARK SMILES IDX 4 23 17 24 102 25 14 26 12 27 9 28 7 29 5 30 18 31 103 32
REMARK SMILES IDX 13 33 10 34 6 35 19 36 31 37 32 38 33 40 34 41 35 42 99 43
REMARK SMILES IDX 36 44 98 45 37 46 38 47 39 48 92 49 40 50 97 51 91 52 93 53
REMARK SMILES IDX 41 54 96 55 90 56 89 57 42 59 76 60 55 61 75 62 56 63 59 64
REMARK SMILES IDX 74 65 94 66 57 67 58 68 73 70 95 71 60 72 43 73 44 74 53 75
REMARK SMILES IDX 45 76 46 77 52 78 54 79 47 80 48 81 49 82 50 83 51 84 77 85
REMARK SMILES IDX 78 86 87 87 79 88 80 89 86 90 88 91 81 92 82 93 83 94 84 95
REMARK SMILES IDX 85 96 61 97 62 98 71 99 63 100 64 101 70 102 72 103 65 104
REMARK SMILES IDX 66 105 67 106 68 107 69 108
REMARK H PARENT 27 7 31 39 93 58 59 69
REMARK Flexibility Score: inf
ROOT
ATOM      1  C   UNL A   1      35.316  32.698  29.753  1.00  0.00     0.118 C 
ENDROOT
BRANCH   1   2
ATOM      2  C   UNL A   1      35.384  32.479  31.256  1.00  0.00     0.042 C 
BRANCH   2   3
ATOM      3  C   UNL A   1      36.585  33.118  31.929  1.00  0.00     0.118 C 
BRANCH   3   4
ATOM      4  N   UNL A   1      36.426  33.290  33.368  1.00  0.00    -0.352 N 
ATOM      5  C   UNL A   1      37.095  32.749  34.438  1.00  0.00     0.251 C 
ATOM      6  O   UNL A   1      36.714  33.021  35.574  1.00  0.00    -0.269 OA
ATOM      7  H   UNL A   1      35.702  33.909  33.619  1.00  0.00     0.163 HD
BRANCH   5   8
ATOM      8  C   UNL A   1      38.226  31.807  34.262  1.00  0.00     0.039 A 
ATOM      9  C   UNL A   1      40.386  30.005  34.220  1.00  0.00     0.052 A 
ATOM     10  C   UNL A   1      40.555  31.307  34.707  1.00  0.00     0.027 A 
ATOM     11  C   UNL A   1      39.153  29.656  33.655  1.00  0.00     0.027 A 
ATOM     12  C   UNL A   1      39.485  32.207  34.717  1.00  0.00     0.016 A 
ATOM     13  C   UNL A   1      38.086  30.559  33.657  1.00  0.00     0.016 A 
BRANCH   9  14
ATOM     14  N   UNL A   1      41.412  29.042  34.342  1.00  0.00    -0.250 N 
ATOM     15  C   UNL A   1      44.866  27.261  32.029  1.00  0.00     0.022 C 
ATOM     16  C   UNL A   1      44.492  27.012  33.488  1.00  0.00     0.030 C 
ATOM     17  C   UNL A   1      45.561  27.443  34.526  1.00  0.00    -0.033 A 
ATOM     18  C   UNL A   1      44.201  25.518  33.846  1.00  0.00    -0.033 A 
ATOM     19  C   UNL A   1      43.100  27.589  33.840  1.00  0.00     0.108 C 
ATOM     20  C   UNL A   1      46.800  28.011  34.242  1.00  0.00     0.005 A 
ATOM     21  C   UNL A   1      45.215  27.150  35.891  1.00  0.00    -0.033 A 
ATOM     22  C   UNL A   1      43.723  25.337  35.191  1.00  0.00    -0.033 A 
ATOM     23  C   UNL A   1      44.295  24.435  32.977  1.00  0.00     0.005 A 
ATOM     24  C   UNL A   1      43.014  27.782  35.354  1.00  0.00     0.108 C 
ATOM     25  C   UNL A   1      42.418  28.839  33.385  1.00  0.00     0.238 C 
ATOM     26  C   UNL A   1      47.687  28.277  35.289  1.00  0.00     0.000 A 
ATOM     27  C   UNL A   1      46.115  27.407  36.923  1.00  0.00     0.005 A 
ATOM     28  C   UNL A   1      43.757  26.622  36.058  1.00  0.00     0.030 C 
ATOM     29  C   UNL A   1      43.338  24.072  35.619  1.00  0.00     0.005 A 
ATOM     30  C   UNL A   1      43.905  23.174  33.428  1.00  0.00     0.000 A 
ATOM     31  C   UNL A   1      41.597  28.228  35.467  1.00  0.00     0.238 C 
ATOM     32  O   UNL A   1      42.653  29.440  32.352  1.00  0.00    -0.274 OA
ATOM     33  C   UNL A   1      47.352  27.970  36.613  1.00  0.00     0.000 A 
ATOM     34  C   UNL A   1      43.302  26.451  37.506  1.00  0.00     0.022 C 
ATOM     35  C   UNL A   1      43.426  22.996  34.732  1.00  0.00     0.000 A 
ATOM     36  O   UNL A   1      40.842  27.995  36.398  1.00  0.00    -0.274 OA
ENDBRANCH   9  14
ENDBRANCH   5   8
ENDBRANCH   3   4
ENDBRANCH   2   3
ENDBRANCH   1   2
BRANCH   1  37
ATOM     37  N   UNL A   1      34.452  31.742  29.065  1.00  0.00    -0.352 N 
ATOM     38  C   UNL A   1      34.744  30.561  28.417  1.00  0.00     0.251 C 
ATOM     39  H   UNL A   1      33.497  31.981  29.065  1.00  0.00     0.163 HD
ATOM     40  O   UNL A   1      33.867  29.992  27.771  1.00  0.00    -0.269 OA
BRANCH  38  41
ATOM     41  C   UNL A   1      36.113  29.999  28.461  1.00  0.00     0.039 A 
ATOM     42  C   UNL A   1      36.592  29.402  29.623  1.00  0.00     0.014 A 
ATOM     43  C   UNL A   1      36.942  30.090  27.338  1.00  0.00     0.014 A 
ATOM     44  C   UNL A   1      37.949  29.148  29.752  1.00  0.00     0.010 A 
ATOM     45  C   UNL A   1      38.281  29.688  27.426  1.00  0.00     0.010 A 
ATOM     46  C   UNL A   1      38.816  29.275  28.655  1.00  0.00    -0.014 A 
BRANCH  46  47
ATOM     47  C   UNL A   1      40.259  28.957  28.844  1.00  0.00     0.031 A 
ATOM     48  C   UNL A   1      40.816  27.607  28.469  1.00  0.00     0.074 A 
ATOM     49  C   UNL A   1      41.088  29.935  29.266  1.00  0.00     0.049 A 
ATOM     50  N   UNL A   1      42.058  27.192  28.509  1.00  0.00    -0.248 NA
ATOM     51  C   UNL A   1      39.866  26.586  27.994  1.00  0.00     0.031 C 
ATOM     52  C   UNL A   1      40.667  31.286  29.649  1.00  0.00     0.029 A 
ATOM     53  N   UNL A   1      42.453  29.970  29.397  1.00  0.00    -0.354 N 
ATOM     54  C   UNL A   1      42.038  25.870  28.079  1.00  0.00     0.074 A 
ATOM     55  C   UNL A   1      40.655  25.534  27.820  1.00  0.00     0.031 C 
ATOM     56  C   UNL A   1      41.750  32.039  29.883  1.00  0.00     0.029 A 
ATOM     57  C   UNL A   1      42.940  31.206  29.760  1.00  0.00     0.049 A 
ATOM     58  H   UNL A   1      43.030  29.186  29.248  1.00  0.00     0.167 HD
ATOM     59  C   UNL A   1      43.078  25.020  27.899  1.00  0.00     0.037 A 
ATOM     60  C   UNL A   1      44.200  31.625  29.984  1.00  0.00     0.037 A 
ATOM     61  C   UNL A   1      44.455  25.372  28.135  1.00  0.00     0.049 A 
ATOM     62  C   UNL A   1      45.327  30.647  29.832  1.00  0.00     0.074 A 
ATOM     63  C   UNL A   1      45.581  24.582  27.976  1.00  0.00     0.029 A 
ATOM     64  N   UNL A   1      44.896  26.612  28.574  1.00  0.00    -0.354 N 
ATOM     65  N   UNL A   1      45.283  29.400  29.427  1.00  0.00    -0.248 NA
ATOM     66  C   UNL A   1      46.673  31.121  30.179  1.00  0.00     0.031 C 
ATOM     67  C   UNL A   1      46.696  25.328  28.364  1.00  0.00     0.029 A 
ATOM     68  C   UNL A   1      46.274  26.602  28.710  1.00  0.00     0.049 A 
ATOM     69  H   UNL A   1      44.315  27.385  28.759  1.00  0.00     0.167 HD
ATOM     70  C   UNL A   1      46.596  28.947  29.454  1.00  0.00     0.074 A 
ATOM     71  C   UNL A   1      47.413  30.056  29.900  1.00  0.00     0.031 C 
ATOM     72  C   UNL A   1      47.077  27.720  29.141  1.00  0.00     0.037 A 
BRANCH  59  73
ATOM     73  C   UNL A   1      42.784  23.622  27.420  1.00  0.00     0.058 A 
ATOM     74  C   UNL A   1      42.857  23.280  26.061  1.00  0.00     0.135 A 
ATOM     75  C   UNL A   1      42.515  22.594  28.339  1.00  0.00     0.135 A 
ATOM     76  F   UNL A   1      43.095  24.223  25.136  1.00  0.00    -0.206 F 
ATOM     77  C   UNL A   1      42.661  21.970  25.629  1.00  0.00     0.059 A 
ATOM     78  C   UNL A   1      42.343  21.274  27.932  1.00  0.00     0.059 A 
ATOM     79  F   UNL A   1      42.435  22.865  29.651  1.00  0.00    -0.206 F 
ATOM     80  C   UNL A   1      42.413  20.973  26.573  1.00  0.00     0.060 A 
BRANCH  80  81
ATOM     81  S   UNL A   1      42.189  19.278  25.991  1.00  0.00     0.124 S 
ATOM     82  O   UNL A   1      42.656  18.510  27.141  1.00  0.00    -0.237 OA
ATOM     83  O   UNL A   1      40.753  19.226  25.736  1.00  0.00    -0.237 OA
ATOM     84  O   UNL A   1      43.039  19.208  24.806  1.00  0.00    -0.744 OA
ENDBRANCH  80  81
ENDBRANCH  59  73
BRANCH  60  85
ATOM     85  C   UNL A   1      44.449  33.037  30.386  1.00  0.00     0.058 A 
ATOM     86  C   UNL A   1      44.751  34.018  29.430  1.00  0.00     0.135 A 
ATOM     87  C   UNL A   1      44.360  33.438  31.729  1.00  0.00     0.135 A 
ATOM     88  F   UNL A   1      44.853  33.685  28.134  1.00  0.00    -0.206 F 
ATOM     89  C   UNL A   1      44.966  35.344  29.792  1.00  0.00     0.059 A 
ATOM     90  C   UNL A   1      44.539  34.763  32.111  1.00  0.00     0.059 A 
ATOM     91  F   UNL A   1      44.059  32.542  32.681  1.00  0.00    -0.206 F 
ATOM     92  C   UNL A   1      44.851  35.708  31.136  1.00  0.00     0.060 A 
BRANCH  92  93
ATOM     93  S   UNL A   1      45.088  37.440  31.586  1.00  0.00     0.124 S 
ATOM     94  O   UNL A   1      45.616  37.320  32.940  1.00  0.00    -0.237 OA
ATOM     95  O   UNL A   1      46.030  37.892  30.569  1.00  0.00    -0.237 OA
ATOM     96  O   UNL A   1      43.744  38.001  31.481  1.00  0.00    -0.744 OA
ENDBRANCH  92  93
ENDBRANCH  60  85
BRANCH  72  97
ATOM     97  C   UNL A   1      48.561  27.504  29.236  1.00  0.00     0.058 A 
ATOM     98  C   UNL A   1      49.423  27.867  28.192  1.00  0.00     0.135 A 
ATOM     99  C   UNL A   1      49.133  27.028  30.427  1.00  0.00     0.135 A 
ATOM    100  F   UNL A   1      48.926  28.317  27.029  1.00  0.00    -0.206 F 
ATOM    101  C   UNL A   1      50.804  27.767  28.325  1.00  0.00     0.059 A 
ATOM    102  C   UNL A   1      50.512  26.946  30.593  1.00  0.00     0.059 A 
ATOM    103  F   UNL A   1      48.350  26.674  31.460  1.00  0.00    -0.206 F 
ATOM    104  C   UNL A   1      51.339  27.318  29.534  1.00  0.00     0.060 A 
BRANCH 104 105
ATOM    105  S   UNL A   1      53.134  27.273  29.716  1.00  0.00     0.124 S 
ATOM    106  O   UNL A   1      53.338  25.955  30.308  1.00  0.00    -0.237 OA
ATOM    107  O   UNL A   1      53.589  27.426  28.337  1.00  0.00    -0.237 OA
ATOM    108  O   UNL A   1      53.418  28.405  30.593  1.00  0.00    -0.744 OA
ENDBRANCH 104 105
ENDBRANCH  72  97
ENDBRANCH  46  47
ENDBRANCH  38  41
ENDBRANCH   1  37
TORSDOF 14
ENDMDL
MODEL 3
REMARK VINA RESULT:     -13.7      5.309     12.723
REMARK SMILES C[C@]12c3ccccc3[C@](C)(c3ccccc31)[C@@H]1C(=O)N(c3ccc(C(=O)NCCCNC(=O)c4ccc(-c5c6nc(c(-c7c(F)cc(S(=O)(=O)[O-])cc7F)c7ccc([nH]7)c(-c7c(F)cc(S(=O)(=O)[O-])cc7F)c7nc(c(-c8c(F)cc(S(=O)(=O)[O-])cc8F)c8ccc5[nH]8)C=C7)C=C6)cc4)cc3)C(=O)[C@H]12
REMARK SMILES IDX 30 1 29 2 28 3 27 4 25 5 26 6 24 8 21 9 22 10 101 11 23 12
REMARK SMILES IDX 100 13 20 14 1 15 2 16 16 17 3 18 104 19 15 20 11 21 8 22
REMARK SMILES IDX 4 23 17 24 102 25 14 26 12 27 9 28 7 29 5 30 18 31 103 32
REMARK SMILES IDX 13 33 10 34 6 35 19 36 31 37 32 38 33 40 34 41 35 42 99 43
REMARK SMILES IDX 36 44 98 45 37 46 38 47 39 48 92 49 40 50 97 51 91 52 93 53
REMARK SMILES IDX 41 54 96 55 90 56 89 57 42 59 76 60 55 61 75 62 56 63 59 64
REMARK SMILES IDX 74 65 94 66 57 67 58 68 73 70 95 71 60 72 43 73 44 74 53 75
REMARK SMILES IDX 45 76 46 77 52 78 54 79 47 80 48 81 49 82 50 83 51 84 77 85
REMARK SMILES IDX 78 86 87 87 79 88 80 89 86 90 88 91 81 92 82 93 83 94 84 95
REMARK SMILES IDX 85 96 61 97 62 98 71 99 63 100 64 101 70 102 72 103 65 104
REMARK SMILES IDX 66 105 67 106 68 107 69 108
REMARK H PARENT 27 7 31 39 93 58 59 69
REMARK Flexibility Score: inf
ROOT
ATOM      1  C   UNL A   1      35.279  32.564  29.944  1.00  0.00     0.118 C 
ENDROOT
BRANCH   1   2
ATOM      2  C   UNL A   1      35.134  32.342  31.440  1.00  0.00     0.042 C 
BRANCH   2   3
ATOM      3  C   UNL A   1      36.450  32.191  32.183  1.00  0.00     0.118 C 
BRANCH   3   4
ATOM      4  N   UNL A   1      36.390  32.626  33.573  1.00  0.00    -0.352 N 
ATOM      5  C   UNL A   1      37.209  32.384  34.648  1.00  0.00     0.251 C 
ATOM      6  O   UNL A   1      36.892  32.832  35.747  1.00  0.00    -0.269 OA
ATOM      7  H   UNL A   1      35.616  33.199  33.779  1.00  0.00     0.163 HD
BRANCH   5   8
ATOM      8  C   UNL A   1      38.432  31.556  34.532  1.00  0.00     0.039 A 
ATOM      9  C   UNL A   1      40.714  29.911  34.592  1.00  0.00     0.052 A 
ATOM     10  C   UNL A   1      40.670  31.094  35.341  1.00  0.00     0.027 A 
ATOM     11  C   UNL A   1      39.647  29.622  33.732  1.00  0.00     0.027 A 
ATOM     12  C   UNL A   1      39.541  31.917  35.302  1.00  0.00     0.016 A 
ATOM     13  C   UNL A   1      38.523  30.451  33.686  1.00  0.00     0.016 A 
BRANCH   9  14
ATOM     14  N   UNL A   1      41.780  28.996  34.737  1.00  0.00    -0.250 N 
ATOM     15  C   UNL A   1      43.411  25.913  37.617  1.00  0.00     0.022 C 
ATOM     16  C   UNL A   1      43.901  26.223  36.205  1.00  0.00     0.030 C 
ATOM     17  C   UNL A   1      43.788  25.050  35.195  1.00  0.00    -0.033 A 
ATOM     18  C   UNL A   1      45.400  26.659  36.109  1.00  0.00    -0.033 A 
ATOM     19  C   UNL A   1      43.268  27.517  35.639  1.00  0.00     0.108 C 
ATOM     20  C   UNL A   1      43.301  23.775  35.470  1.00  0.00     0.005 A 
ATOM     21  C   UNL A   1      44.305  25.342  33.886  1.00  0.00    -0.033 A 
ATOM     22  C   UNL A   1      45.790  27.070  34.787  1.00  0.00    -0.033 A 
ATOM     23  C   UNL A   1      46.296  26.741  37.171  1.00  0.00     0.005 A 
ATOM     24  C   UNL A   1      43.365  27.486  34.113  1.00  0.00     0.108 C 
ATOM     25  C   UNL A   1      41.892  28.079  35.794  1.00  0.00     0.238 C 
ATOM     26  C   UNL A   1      43.333  22.801  34.468  1.00  0.00     0.000 A 
ATOM     27  C   UNL A   1      44.344  24.357  32.902  1.00  0.00     0.005 A 
ATOM     28  C   UNL A   1      44.708  26.838  33.702  1.00  0.00     0.030 C 
ATOM     29  C   UNL A   1      47.070  27.569  34.573  1.00  0.00     0.005 A 
ATOM     30  C   UNL A   1      47.576  27.243  36.932  1.00  0.00     0.000 A 
ATOM     31  C   UNL A   1      42.811  28.834  33.802  1.00  0.00     0.238 C 
ATOM     32  O   UNL A   1      41.127  27.842  36.713  1.00  0.00    -0.274 OA
ATOM     33  C   UNL A   1      43.857  23.086  33.201  1.00  0.00     0.000 A 
ATOM     34  C   UNL A   1      45.111  27.220  32.279  1.00  0.00     0.022 C 
ATOM     35  C   UNL A   1      47.956  27.658  35.650  1.00  0.00     0.000 A 
ATOM     36  O   UNL A   1      43.145  29.552  32.873  1.00  0.00    -0.274 OA
ENDBRANCH   9  14
ENDBRANCH   5   8
ENDBRANCH   3   4
ENDBRANCH   2   3
ENDBRANCH   1   2
BRANCH   1  37
ATOM     37  N   UNL A   1      34.452  31.667  29.140  1.00  0.00    -0.352 N 
ATOM     38  C   UNL A   1      34.778  30.543  28.413  1.00  0.00     0.251 C 
ATOM     39  H   UNL A   1      33.498  31.907  29.113  1.00  0.00     0.163 HD
ATOM     40  O   UNL A   1      33.935  30.029  27.682  1.00  0.00    -0.269 OA
BRANCH  38  41
ATOM     41  C   UNL A   1      36.145  29.978  28.476  1.00  0.00     0.039 A 
ATOM     42  C   UNL A   1      36.599  29.362  29.638  1.00  0.00     0.014 A 
ATOM     43  C   UNL A   1      36.997  30.085  27.372  1.00  0.00     0.014 A 
ATOM     44  C   UNL A   1      37.953  29.103  29.791  1.00  0.00     0.010 A 
ATOM     45  C   UNL A   1      38.334  29.680  27.481  1.00  0.00     0.010 A 
ATOM     46  C   UNL A   1      38.843  29.247  28.714  1.00  0.00    -0.014 A 
BRANCH  46  47
ATOM     47  C   UNL A   1      40.281  28.923  28.928  1.00  0.00     0.031 A 
ATOM     48  C   UNL A   1      40.844  27.578  28.546  1.00  0.00     0.074 A 
ATOM     49  C   UNL A   1      41.103  29.894  29.380  1.00  0.00     0.049 A 
ATOM     50  N   UNL A   1      42.084  27.160  28.605  1.00  0.00    -0.248 NA
ATOM     51  C   UNL A   1      39.902  26.565  28.038  1.00  0.00     0.031 C 
ATOM     52  C   UNL A   1      40.676  31.240  29.773  1.00  0.00     0.029 A 
ATOM     53  N   UNL A   1      42.465  29.925  29.540  1.00  0.00    -0.354 N 
ATOM     54  C   UNL A   1      42.070  25.844  28.156  1.00  0.00     0.074 A 
ATOM     55  C   UNL A   1      40.693  25.514  27.865  1.00  0.00     0.031 C 
ATOM     56  C   UNL A   1      41.756  31.988  30.040  1.00  0.00     0.029 A 
ATOM     57  C   UNL A   1      42.947  31.154  29.929  1.00  0.00     0.049 A 
ATOM     58  H   UNL A   1      43.044  29.142  29.391  1.00  0.00     0.167 HD
ATOM     59  C   UNL A   1      43.113  24.995  27.985  1.00  0.00     0.037 A 
ATOM     60  C   UNL A   1      44.202  31.569  30.185  1.00  0.00     0.037 A 
ATOM     61  C   UNL A   1      44.486  25.341  28.254  1.00  0.00     0.049 A 
ATOM     62  C   UNL A   1      45.331  30.590  30.042  1.00  0.00     0.074 A 
ATOM     63  C   UNL A   1      45.613  24.552  28.107  1.00  0.00     0.029 A 
ATOM     64  N   UNL A   1      44.919  26.574  28.719  1.00  0.00    -0.354 N 
ATOM     65  N   UNL A   1      45.293  29.349  29.619  1.00  0.00    -0.248 NA
ATOM     66  C   UNL A   1      46.671  31.057  30.423  1.00  0.00     0.031 C 
ATOM     67  C   UNL A   1      46.722  25.290  28.528  1.00  0.00     0.029 A 
ATOM     68  C   UNL A   1      46.295  26.560  28.883  1.00  0.00     0.049 A 
ATOM     69  H   UNL A   1      44.336  27.346  28.904  1.00  0.00     0.167 HD
ATOM     70  C   UNL A   1      46.604  28.893  29.666  1.00  0.00     0.074 A 
ATOM     71  C   UNL A   1      47.414  29.995  30.144  1.00  0.00     0.031 C 
ATOM     72  C   UNL A   1      47.090  27.670  29.345  1.00  0.00     0.037 A 
BRANCH  59  73
ATOM     73  C   UNL A   1      42.826  23.605  27.481  1.00  0.00     0.058 A 
ATOM     74  C   UNL A   1      42.929  23.280  26.120  1.00  0.00     0.135 A 
ATOM     75  C   UNL A   1      42.534  22.564  28.380  1.00  0.00     0.135 A 
ATOM     76  F   UNL A   1      43.191  24.235  25.213  1.00  0.00    -0.206 F 
ATOM     77  C   UNL A   1      42.740  21.977  25.666  1.00  0.00     0.059 A 
ATOM     78  C   UNL A   1      42.368  21.251  27.951  1.00  0.00     0.059 A 
ATOM     79  F   UNL A   1      42.425  22.818  29.693  1.00  0.00    -0.206 F 
ATOM     80  C   UNL A   1      42.468  20.968  26.590  1.00  0.00     0.060 A 
BRANCH  80  81
ATOM     81  S   UNL A   1      42.253  19.282  25.981  1.00  0.00     0.124 S 
ATOM     82  O   UNL A   1      43.098  19.291  24.790  1.00  0.00    -0.237 OA
ATOM     83  O   UNL A   1      42.745  18.484  27.099  1.00  0.00    -0.237 OA
ATOM     84  O   UNL A   1      40.818  19.188  25.728  1.00  0.00    -0.744 OA
ENDBRANCH  80  81
ENDBRANCH  59  73
BRANCH  60  85
ATOM     85  C   UNL A   1      44.446  32.974  30.611  1.00  0.00     0.058 A 
ATOM     86  C   UNL A   1      44.517  33.317  31.969  1.00  0.00     0.135 A 
ATOM     87  C   UNL A   1      44.642  33.997  29.668  1.00  0.00     0.135 A 
ATOM     88  F   UNL A   1      44.331  32.377  32.909  1.00  0.00    -0.206 F 
ATOM     89  C   UNL A   1      44.764  34.623  32.378  1.00  0.00     0.059 A 
ATOM     90  C   UNL A   1      44.922  35.303  30.053  1.00  0.00     0.059 A 
ATOM     91  F   UNL A   1      44.599  33.720  28.356  1.00  0.00    -0.206 F 
ATOM     92  C   UNL A   1      44.972  35.609  31.411  1.00  0.00     0.060 A 
BRANCH  92  93
ATOM     93  S   UNL A   1      45.335  37.291  31.955  1.00  0.00     0.124 S 
ATOM     94  O   UNL A   1      46.593  37.102  32.670  1.00  0.00    -0.237 OA
ATOM     95  O   UNL A   1      45.422  38.008  30.688  1.00  0.00    -0.237 OA
ATOM     96  O   UNL A   1      44.184  37.632  32.784  1.00  0.00    -0.744 OA
ENDBRANCH  92  93
ENDBRANCH  60  85
BRANCH  72  97
ATOM     97  C   UNL A   1      48.571  27.450  29.468  1.00  0.00     0.058 A 
ATOM     98  C   UNL A   1      49.458  27.850  28.458  1.00  0.00     0.135 A 
ATOM     99  C   UNL A   1      49.115  26.930  30.654  1.00  0.00     0.135 A 
ATOM    100  F   UNL A   1      48.987  28.343  27.301  1.00  0.00    -0.206 F 
ATOM    101  C   UNL A   1      50.836  27.745  28.619  1.00  0.00     0.059 A 
ATOM    102  C   UNL A   1      50.490  26.842  30.849  1.00  0.00     0.059 A 
ATOM    103  F   UNL A   1      48.308  26.540  31.654  1.00  0.00    -0.206 F 
ATOM    104  C   UNL A   1      51.341  27.252  29.824  1.00  0.00     0.060 A 
BRANCH 104 105
ATOM    105  S   UNL A   1      53.132  27.200  30.046  1.00  0.00     0.124 S 
ATOM    106  O   UNL A   1      53.490  28.606  29.896  1.00  0.00    -0.237 OA
ATOM    107  O   UNL A   1      53.260  26.652  31.394  1.00  0.00    -0.237 OA
ATOM    108  O   UNL A   1      53.584  26.320  28.973  1.00  0.00    -0.744 OA
ENDBRANCH 104 105
ENDBRANCH  72  97
ENDBRANCH  46  47
ENDBRANCH  38  41
ENDBRANCH   1  37
TORSDOF 14
ENDMDL
