MODEL 1
REMARK VINA RESULT:     -12.7      0.000      0.000
REMARK SMILES Cc1cccc(CC(=O)N2CCCC[C@@H]2C(=O)NCCCNC(=O)c2ccc(-c3c4nc(c(-c5c(F)cc(S(=O)(=O)[O-])cc5F)c5ccc([nH]5)c(-c5c(F)cc(S(=O)(=O)[O-])cc5F)c5nc(c(-c6c(F)cc(S(=O)(=O)[O-])cc6F)c6ccc3[nH]6)C=C5)C=C4)cc2)c1
REMARK SMILES IDX 20 1 19 2 18 3 16 4 17 5 15 7 10 8 11 9 12 10 14 11 13 12
REMARK SMILES IDX 8 13 9 14 7 15 6 16 1 17 2 18 3 19 91 20 4 21 5 22 21 23
REMARK SMILES IDX 22 24 23 25 24 27 25 28 26 29 90 30 27 31 89 32 28 33 29 34
REMARK SMILES IDX 30 35 83 36 31 37 88 38 82 39 84 40 32 41 87 42 81 43 80 44
REMARK SMILES IDX 33 46 67 47 46 48 66 49 47 50 50 51 65 52 85 53 48 54 49 55
REMARK SMILES IDX 64 57 86 58 51 59 34 60 35 61 44 62 36 63 37 64 43 65 45 66
REMARK SMILES IDX 38 67 39 68 40 69 41 70 42 71 68 72 69 73 78 74 70 75 71 76
REMARK SMILES IDX 77 77 79 78 72 79 73 80 74 81 75 82 76 83 52 84 53 85 62 86
REMARK SMILES IDX 54 87 55 88 61 89 63 90 56 91 57 92 58 93 59 94 60 95
REMARK H PARENT 18 6 22 26 84 45 50 56
REMARK Flexibility Score: inf
ROOT
ATOM      1  C   UNL A   1      35.883  30.693  31.545  1.00  0.00     0.042 C 
ENDROOT
BRANCH   1   2
ATOM      2  C   UNL A   1      35.647  31.848  32.503  1.00  0.00     0.117 C 
BRANCH   2   3
ATOM      3  N   UNL A   1      36.363  33.045  32.090  1.00  0.00    -0.354 N 
ATOM      4  C   UNL A   1      35.944  34.074  31.303  1.00  0.00     0.242 C 
ATOM      5  O   UNL A   1      36.787  34.855  30.849  1.00  0.00    -0.273 OA
ATOM      6  H   UNL A   1      37.284  33.122  32.429  1.00  0.00     0.163 HD
BRANCH   4   7
ATOM      7  C   UNL A   1      34.513  34.079  30.753  1.00  0.00     0.174 C 
ATOM      8  N   UNL A   1      34.350  34.096  29.274  1.00  0.00    -0.330 N 
ATOM      9  C   UNL A   1      33.128  34.726  28.773  1.00  0.00     0.120 C 
ATOM     10  C   UNL A   1      32.904  36.120  29.323  1.00  0.00     0.022 C 
ATOM     11  C   UNL A   1      33.976  35.375  31.452  1.00  0.00     0.035 C 
ATOM     12  C   UNL A   1      32.772  36.053  30.832  1.00  0.00     0.004 C 
BRANCH   8  13
ATOM     13  C   UNL A   1      35.060  33.360  28.319  1.00  0.00     0.227 C 
ATOM     14  O   UNL A   1      35.471  33.943  27.303  1.00  0.00    -0.275 OA
BRANCH  13  15
ATOM     15  C   UNL A   1      35.164  31.841  28.336  1.00  0.00     0.135 C 
BRANCH  15  16
ATOM     16  C   UNL A   1      34.136  30.994  27.646  1.00  0.00    -0.038 A 
ATOM     17  C   UNL A   1      33.892  27.433  26.302  1.00  0.00     0.044 C 
ATOM     18  C   UNL A   1      33.518  28.832  26.684  1.00  0.00    -0.051 A 
ATOM     19  C   UNL A   1      32.309  29.381  26.255  1.00  0.00     0.003 A 
ATOM     20  C   UNL A   1      34.421  29.645  27.381  1.00  0.00     0.007 A 
ATOM     21  C   UNL A   1      31.995  30.702  26.566  1.00  0.00     0.001 A 
ATOM     22  C   UNL A   1      32.883  31.500  27.286  1.00  0.00     0.004 A 
ENDBRANCH  15  16
ENDBRANCH  13  15
ENDBRANCH   8  13
ENDBRANCH   4   7
ENDBRANCH   2   3
ENDBRANCH   1   2
BRANCH   1  23
ATOM     23  C   UNL A   1      37.231  30.045  31.745  1.00  0.00     0.118 C 
BRANCH  23  24
ATOM     24  N   UNL A   1      38.247  30.798  31.061  1.00  0.00    -0.352 N 
ATOM     25  C   UNL A   1      38.786  30.656  29.823  1.00  0.00     0.251 C 
ATOM     26  H   UNL A   1      38.616  31.548  31.581  1.00  0.00     0.163 HD
ATOM     27  O   UNL A   1      39.675  31.457  29.535  1.00  0.00    -0.269 OA
BRANCH  25  28
ATOM     28  C   UNL A   1      38.095  29.779  28.775  1.00  0.00     0.039 A 
ATOM     29  C   UNL A   1      37.786  28.557  29.382  1.00  0.00     0.014 A 
ATOM     30  C   UNL A   1      38.917  29.700  27.649  1.00  0.00     0.014 A 
ATOM     31  C   UNL A   1      38.820  27.639  29.492  1.00  0.00     0.010 A 
ATOM     32  C   UNL A   1      40.018  28.903  27.794  1.00  0.00     0.010 A 
ATOM     33  C   UNL A   1      39.994  27.952  28.817  1.00  0.00    -0.014 A 
BRANCH  33  34
ATOM     34  C   UNL A   1      41.285  27.397  29.135  1.00  0.00     0.031 A 
ATOM     35  C   UNL A   1      41.464  25.991  28.779  1.00  0.00     0.074 A 
ATOM     36  C   UNL A   1      42.237  28.254  29.558  1.00  0.00     0.049 A 
ATOM     37  N   UNL A   1      42.407  25.234  29.192  1.00  0.00    -0.248 NA
ATOM     38  C   UNL A   1      40.471  25.290  27.964  1.00  0.00     0.031 C 
ATOM     39  C   UNL A   1      43.682  28.071  29.631  1.00  0.00     0.029 A 
ATOM     40  N   UNL A   1      42.028  29.467  30.221  1.00  0.00    -0.354 N 
ATOM     41  C   UNL A   1      42.334  24.066  28.460  1.00  0.00     0.074 A 
ATOM     42  C   UNL A   1      41.036  24.091  27.846  1.00  0.00     0.031 C 
ATOM     43  C   UNL A   1      44.173  28.932  30.545  1.00  0.00     0.029 A 
ATOM     44  C   UNL A   1      43.026  29.566  31.191  1.00  0.00     0.049 A 
ATOM     45  H   UNL A   1      41.316  30.122  30.039  1.00  0.00     0.167 HD
ATOM     46  C   UNL A   1      43.473  23.329  28.332  1.00  0.00     0.037 A 
ATOM     47  C   UNL A   1      42.744  29.493  32.526  1.00  0.00     0.037 A 
ATOM     48  C   UNL A   1      44.480  23.856  29.265  1.00  0.00     0.049 A 
ATOM     49  C   UNL A   1      43.381  28.233  33.095  1.00  0.00     0.074 A 
ATOM     50  C   UNL A   1      45.523  24.754  29.098  1.00  0.00     0.029 A 
ATOM     51  N   UNL A   1      44.205  23.833  30.635  1.00  0.00    -0.354 N 
ATOM     52  N   UNL A   1      43.585  27.131  32.412  1.00  0.00    -0.248 NA
ATOM     53  C   UNL A   1      43.933  28.166  34.445  1.00  0.00     0.031 C 
ATOM     54  C   UNL A   1      45.763  25.379  30.357  1.00  0.00     0.029 A 
ATOM     55  C   UNL A   1      44.897  24.837  31.296  1.00  0.00     0.049 A 
ATOM     56  H   UNL A   1      43.600  23.192  31.073  1.00  0.00     0.167 HD
ATOM     57  C   UNL A   1      44.310  26.251  33.174  1.00  0.00     0.074 A 
ATOM     58  C   UNL A   1      44.488  26.942  34.442  1.00  0.00     0.031 C 
ATOM     59  C   UNL A   1      44.741  25.028  32.736  1.00  0.00     0.037 A 
BRANCH  46  60
ATOM     60  C   UNL A   1      43.762  22.393  27.163  1.00  0.00     0.058 A 
ATOM     61  C   UNL A   1      42.983  21.230  26.982  1.00  0.00     0.135 A 
ATOM     62  C   UNL A   1      44.830  22.509  26.240  1.00  0.00     0.135 A 
ATOM     63  F   UNL A   1      41.906  20.991  27.744  1.00  0.00    -0.206 F 
ATOM     64  C   UNL A   1      43.273  20.250  26.021  1.00  0.00     0.059 A 
ATOM     65  C   UNL A   1      45.156  21.534  25.294  1.00  0.00     0.059 A 
ATOM     66  F   UNL A   1      45.608  23.587  26.166  1.00  0.00    -0.206 F 
ATOM     67  C   UNL A   1      44.374  20.402  25.191  1.00  0.00     0.060 A 
BRANCH  67  68
ATOM     68  S   UNL A   1      44.750  19.142  23.960  1.00  0.00     0.124 S 
ATOM     69  O   UNL A   1      46.160  18.870  24.222  1.00  0.00    -0.237 OA
ATOM     70  O   UNL A   1      43.817  18.079  24.319  1.00  0.00    -0.237 OA
ATOM     71  O   UNL A   1      44.474  19.809  22.690  1.00  0.00    -0.744 OA
ENDBRANCH  67  68
ENDBRANCH  46  60
BRANCH  47  72
ATOM     72  C   UNL A   1      41.417  30.079  32.920  1.00  0.00     0.058 A 
ATOM     73  C   UNL A   1      40.458  29.241  33.536  1.00  0.00     0.135 A 
ATOM     74  C   UNL A   1      41.212  31.459  33.051  1.00  0.00     0.135 A 
ATOM     75  F   UNL A   1      40.575  27.906  33.431  1.00  0.00    -0.206 F 
ATOM     76  C   UNL A   1      39.433  29.741  34.350  1.00  0.00     0.059 A 
ATOM     77  C   UNL A   1      40.191  31.982  33.859  1.00  0.00     0.059 A 
ATOM     78  F   UNL A   1      42.077  32.323  32.500  1.00  0.00    -0.206 F 
ATOM     79  C   UNL A   1      39.340  31.115  34.551  1.00  0.00     0.060 A 
BRANCH  79  80
ATOM     80  S   UNL A   1      38.225  31.747  35.847  1.00  0.00     0.124 S 
ATOM     81  O   UNL A   1      37.926  30.538  36.607  1.00  0.00    -0.237 OA
ATOM     82  O   UNL A   1      39.027  32.742  36.552  1.00  0.00    -0.237 OA
ATOM     83  O   UNL A   1      37.102  32.298  35.090  1.00  0.00    -0.744 OA
ENDBRANCH  79  80
ENDBRANCH  47  72
BRANCH  59  84
ATOM     84  C   UNL A   1      45.138  23.900  33.661  1.00  0.00     0.058 A 
ATOM     85  C   UNL A   1      44.233  22.923  34.114  1.00  0.00     0.135 A 
ATOM     86  C   UNL A   1      46.500  23.658  33.967  1.00  0.00     0.135 A 
ATOM     87  F   UNL A   1      42.933  22.965  33.790  1.00  0.00    -0.206 F 
ATOM     88  C   UNL A   1      44.633  21.831  34.880  1.00  0.00     0.059 A 
ATOM     89  C   UNL A   1      46.929  22.534  34.665  1.00  0.00     0.059 A 
ATOM     90  F   UNL A   1      47.469  24.498  33.574  1.00  0.00    -0.206 F 
ATOM     91  C   UNL A   1      45.985  21.643  35.148  1.00  0.00     0.060 A 
BRANCH  91  92
ATOM     92  S   UNL A   1      46.501  20.205  36.095  1.00  0.00     0.124 S 
ATOM     93  O   UNL A   1      46.081  19.118  35.218  1.00  0.00    -0.237 OA
ATOM     94  O   UNL A   1      47.941  20.399  36.218  1.00  0.00    -0.237 OA
ATOM     95  O   UNL A   1      45.750  20.338  37.343  1.00  0.00    -0.744 OA
ENDBRANCH  91  92
ENDBRANCH  59  84
ENDBRANCH  33  34
ENDBRANCH  25  28
ENDBRANCH  23  24
ENDBRANCH   1  23
TORSDOF 16
ENDMDL
MODEL 2
REMARK VINA RESULT:     -11.4      4.834     13.136
REMARK SMILES Cc1cccc(CC(=O)N2CCCC[C@@H]2C(=O)NCCCNC(=O)c2ccc(-c3c4nc(c(-c5c(F)cc(S(=O)(=O)[O-])cc5F)c5ccc([nH]5)c(-c5c(F)cc(S(=O)(=O)[O-])cc5F)c5nc(c(-c6c(F)cc(S(=O)(=O)[O-])cc6F)c6ccc3[nH]6)C=C5)C=C4)cc2)c1
REMARK SMILES IDX 20 1 19 2 18 3 16 4 17 5 15 7 10 8 11 9 12 10 14 11 13 12
REMARK SMILES IDX 8 13 9 14 7 15 6 16 1 17 2 18 3 19 91 20 4 21 5 22 21 23
REMARK SMILES IDX 22 24 23 25 24 27 25 28 26 29 90 30 27 31 89 32 28 33 29 34
REMARK SMILES IDX 30 35 83 36 31 37 88 38 82 39 84 40 32 41 87 42 81 43 80 44
REMARK SMILES IDX 33 46 67 47 46 48 66 49 47 50 50 51 65 52 85 53 48 54 49 55
REMARK SMILES IDX 64 57 86 58 51 59 34 60 35 61 44 62 36 63 37 64 43 65 45 66
REMARK SMILES IDX 38 67 39 68 40 69 41 70 42 71 68 72 69 73 78 74 70 75 71 76
REMARK SMILES IDX 77 77 79 78 72 79 73 80 74 81 75 82 76 83 52 84 53 85 62 86
REMARK SMILES IDX 54 87 55 88 61 89 63 90 56 91 57 92 58 93 59 94 60 95
REMARK H PARENT 18 6 22 26 84 45 50 56
REMARK Flexibility Score: inf
ROOT
ATOM      1  C   UNL A   1      42.355  25.046  25.383  1.00  0.00     0.042 C 
ENDROOT
BRANCH   1   2
ATOM      2  C   UNL A   1      43.459  24.327  24.627  1.00  0.00     0.117 C 
BRANCH   2   3
ATOM      3  N   UNL A   1      44.541  23.921  25.512  1.00  0.00    -0.354 N 
ATOM      4  C   UNL A   1      44.994  22.671  25.806  1.00  0.00     0.242 C 
ATOM      5  O   UNL A   1      45.734  22.523  26.784  1.00  0.00    -0.273 OA
ATOM      6  H   UNL A   1      45.014  24.657  25.963  1.00  0.00     0.163 HD
BRANCH   4   7
ATOM      7  C   UNL A   1      44.357  21.451  25.129  1.00  0.00     0.174 C 
ATOM      8  N   UNL A   1      43.257  20.763  25.857  1.00  0.00    -0.330 N 
ATOM      9  C   UNL A   1      43.103  19.335  25.581  1.00  0.00     0.120 C 
ATOM     10  C   UNL A   1      44.388  18.550  25.749  1.00  0.00     0.022 C 
ATOM     11  C   UNL A   1      45.636  20.562  24.953  1.00  0.00     0.035 C 
ATOM     12  C   UNL A   1      45.429  19.072  24.778  1.00  0.00     0.004 C 
BRANCH   8  13
ATOM     13  C   UNL A   1      42.188  21.341  26.551  1.00  0.00     0.227 C 
ATOM     14  O   UNL A   1      42.433  22.182  27.430  1.00  0.00    -0.275 OA
BRANCH  13  15
ATOM     15  C   UNL A   1      40.754  20.837  26.456  1.00  0.00     0.135 C 
BRANCH  15  16
ATOM     16  C   UNL A   1      39.617  21.794  26.250  1.00  0.00    -0.038 A 
ATOM     17  C   UNL A   1      36.338  21.859  24.303  1.00  0.00     0.044 C 
ATOM     18  C   UNL A   1      37.451  22.268  25.217  1.00  0.00    -0.051 A 
ATOM     19  C   UNL A   1      37.509  23.568  25.721  1.00  0.00     0.003 A 
ATOM     20  C   UNL A   1      38.507  21.390  25.490  1.00  0.00     0.007 A 
ATOM     21  C   UNL A   1      38.579  23.958  26.523  1.00  0.00     0.001 A 
ATOM     22  C   UNL A   1      39.614  23.071  26.819  1.00  0.00     0.004 A 
ENDBRANCH  15  16
ENDBRANCH  13  15
ENDBRANCH   8  13
ENDBRANCH   4   7
ENDBRANCH   2   3
ENDBRANCH   1   2
BRANCH   1  23
ATOM     23  C   UNL A   1      42.866  26.241  26.150  1.00  0.00     0.118 C 
BRANCH  23  24
ATOM     24  N   UNL A   1      41.850  27.257  26.214  1.00  0.00    -0.352 N 
ATOM     25  C   UNL A   1      40.715  27.343  26.953  1.00  0.00     0.251 C 
ATOM     26  H   UNL A   1      42.006  28.025  25.618  1.00  0.00     0.163 HD
ATOM     27  O   UNL A   1      40.027  28.344  26.755  1.00  0.00    -0.269 OA
BRANCH  25  28
ATOM     28  C   UNL A   1      40.507  26.424  28.160  1.00  0.00     0.039 A 
ATOM     29  C   UNL A   1      39.286  26.768  28.749  1.00  0.00     0.014 A 
ATOM     30  C   UNL A   1      41.624  26.523  28.992  1.00  0.00     0.014 A 
ATOM     31  C   UNL A   1      39.286  27.881  29.576  1.00  0.00     0.010 A 
ATOM     32  C   UNL A   1      41.706  27.682  29.712  1.00  0.00     0.010 A 
ATOM     33  C   UNL A   1      40.531  28.417  29.885  1.00  0.00    -0.014 A 
BRANCH  33  34
ATOM     34  C   UNL A   1      40.743  29.767  30.339  1.00  0.00     0.031 A 
ATOM     35  C   UNL A   1      39.646  30.695  30.071  1.00  0.00     0.074 A 
ATOM     36  C   UNL A   1      41.831  29.997  31.104  1.00  0.00     0.049 A 
ATOM     37  N   UNL A   1      39.715  31.969  30.145  1.00  0.00    -0.248 NA
ATOM     38  C   UNL A   1      38.356  30.211  29.578  1.00  0.00     0.031 C 
ATOM     39  C   UNL A   1      42.133  31.133  31.967  1.00  0.00     0.029 A 
ATOM     40  N   UNL A   1      43.026  29.273  31.086  1.00  0.00    -0.354 N 
ATOM     41  C   UNL A   1      38.426  32.449  30.030  1.00  0.00     0.074 A 
ATOM     42  C   UNL A   1      37.662  31.344  29.520  1.00  0.00     0.031 C 
ATOM     43  C   UNL A   1      43.470  31.199  32.127  1.00  0.00     0.029 A 
ATOM     44  C   UNL A   1      44.056  30.202  31.233  1.00  0.00     0.049 A 
ATOM     45  H   UNL A   1      43.122  28.298  30.989  1.00  0.00     0.167 HD
ATOM     46  C   UNL A   1      38.156  33.671  30.567  1.00  0.00     0.037 A 
ATOM     47  C   UNL A   1      44.926  30.482  30.218  1.00  0.00     0.037 A 
ATOM     48  C   UNL A   1      39.428  34.316  30.925  1.00  0.00     0.049 A 
ATOM     49  C   UNL A   1      44.718  31.924  29.775  1.00  0.00     0.074 A 
ATOM     50  C   UNL A   1      40.129  34.393  32.120  1.00  0.00     0.029 A 
ATOM     51  N   UNL A   1      40.358  34.579  29.915  1.00  0.00    -0.354 N 
ATOM     52  N   UNL A   1      43.576  32.566  29.849  1.00  0.00    -0.248 NA
ATOM     53  C   UNL A   1      45.813  32.777  29.322  1.00  0.00     0.031 C 
ATOM     54  C   UNL A   1      41.510  34.551  31.804  1.00  0.00     0.029 A 
ATOM     55  C   UNL A   1      41.647  34.610  30.424  1.00  0.00     0.049 A 
ATOM     56  H   UNL A   1      40.129  34.721  28.968  1.00  0.00     0.167 HD
ATOM     57  C   UNL A   1      43.771  33.882  29.514  1.00  0.00     0.074 A 
ATOM     58  C   UNL A   1      45.185  33.957  29.178  1.00  0.00     0.031 C 
ATOM     59  C   UNL A   1      42.792  34.837  29.545  1.00  0.00     0.037 A 
BRANCH  46  60
ATOM     60  C   UNL A   1      36.780  34.108  31.058  1.00  0.00     0.058 A 
ATOM     61  C   UNL A   1      35.732  34.308  30.133  1.00  0.00     0.135 A 
ATOM     62  C   UNL A   1      36.431  34.441  32.389  1.00  0.00     0.135 A 
ATOM     63  F   UNL A   1      35.883  33.998  28.837  1.00  0.00    -0.206 F 
ATOM     64  C   UNL A   1      34.484  34.843  30.485  1.00  0.00     0.059 A 
ATOM     65  C   UNL A   1      35.207  35.003  32.760  1.00  0.00     0.059 A 
ATOM     66  F   UNL A   1      37.236  34.215  33.426  1.00  0.00    -0.206 F 
ATOM     67  C   UNL A   1      34.235  35.204  31.801  1.00  0.00     0.060 A 
BRANCH  67  68
ATOM     68  S   UNL A   1      32.636  35.896  32.254  1.00  0.00     0.124 S 
ATOM     69  O   UNL A   1      31.920  34.721  32.740  1.00  0.00    -0.237 OA
ATOM     70  O   UNL A   1      33.006  36.882  33.264  1.00  0.00    -0.237 OA
ATOM     71  O   UNL A   1      32.134  36.451  30.999  1.00  0.00    -0.744 OA
ENDBRANCH  67  68
ENDBRANCH  46  60
BRANCH  47  72
ATOM     72  C   UNL A   1      45.250  29.314  29.330  1.00  0.00     0.058 A 
ATOM     73  C   UNL A   1      44.597  29.206  28.080  1.00  0.00     0.135 A 
ATOM     74  C   UNL A   1      46.406  28.540  29.496  1.00  0.00     0.135 A 
ATOM     75  F   UNL A   1      43.467  29.899  27.856  1.00  0.00    -0.206 F 
ATOM     76  C   UNL A   1      45.134  28.480  27.009  1.00  0.00     0.059 A 
ATOM     77  C   UNL A   1      46.962  27.803  28.438  1.00  0.00     0.059 A 
ATOM     78  F   UNL A   1      47.088  28.587  30.649  1.00  0.00    -0.206 F 
ATOM     79  C   UNL A   1      46.351  27.824  27.181  1.00  0.00     0.060 A 
BRANCH  79  80
ATOM     80  S   UNL A   1      47.209  27.152  25.720  1.00  0.00     0.124 S 
ATOM     81  O   UNL A   1      46.096  26.664  24.912  1.00  0.00    -0.237 OA
ATOM     82  O   UNL A   1      47.921  28.300  25.167  1.00  0.00    -0.237 OA
ATOM     83  O   UNL A   1      48.072  26.113  26.280  1.00  0.00    -0.744 OA
ENDBRANCH  79  80
ENDBRANCH  47  72
BRANCH  59  84
ATOM     84  C   UNL A   1      42.869  36.141  28.784  1.00  0.00     0.058 A 
ATOM     85  C   UNL A   1      42.289  36.327  27.517  1.00  0.00     0.135 A 
ATOM     86  C   UNL A   1      43.373  37.312  29.402  1.00  0.00     0.135 A 
ATOM     87  F   UNL A   1      41.667  35.328  26.875  1.00  0.00    -0.206 F 
ATOM     88  C   UNL A   1      42.278  37.562  26.873  1.00  0.00     0.059 A 
ATOM     89  C   UNL A   1      43.303  38.568  28.809  1.00  0.00     0.059 A 
ATOM     90  F   UNL A   1      43.932  37.280  30.621  1.00  0.00    -0.206 F 
ATOM     91  C   UNL A   1      42.785  38.679  27.529  1.00  0.00     0.060 A 
BRANCH  91  92
ATOM     92  S   UNL A   1      42.723  40.280  26.715  1.00  0.00     0.124 S 
ATOM     93  O   UNL A   1      43.809  40.154  25.751  1.00  0.00    -0.237 OA
ATOM     94  O   UNL A   1      41.377  40.306  26.154  1.00  0.00    -0.237 OA
ATOM     95  O   UNL A   1      42.954  41.222  27.810  1.00  0.00    -0.744 OA
ENDBRANCH  91  92
ENDBRANCH  59  84
ENDBRANCH  33  34
ENDBRANCH  25  28
ENDBRANCH  23  24
ENDBRANCH   1  23
TORSDOF 16
ENDMDL
MODEL 3
REMARK VINA RESULT:     -10.5      6.635     11.373
REMARK SMILES Cc1cccc(CC(=O)N2CCCC[C@@H]2C(=O)NCCCNC(=O)c2ccc(-c3c4nc(c(-c5c(F)cc(S(=O)(=O)[O-])cc5F)c5ccc([nH]5)c(-c5c(F)cc(S(=O)(=O)[O-])cc5F)c5nc(c(-c6c(F)cc(S(=O)(=O)[O-])cc6F)c6ccc3[nH]6)C=C5)C=C4)cc2)c1
REMARK SMILES IDX 20 1 19 2 18 3 16 4 17 5 15 7 10 8 11 9 12 10 14 11 13 12
REMARK SMILES IDX 8 13 9 14 7 15 6 16 1 17 2 18 3 19 91 20 4 21 5 22 21 23
REMARK SMILES IDX 22 24 23 25 24 27 25 28 26 29 90 30 27 31 89 32 28 33 29 34
REMARK SMILES IDX 30 35 83 36 31 37 88 38 82 39 84 40 32 41 87 42 81 43 80 44
REMARK SMILES IDX 33 46 67 47 46 48 66 49 47 50 50 51 65 52 85 53 48 54 49 55
REMARK SMILES IDX 64 57 86 58 51 59 34 60 35 61 44 62 36 63 37 64 43 65 45 66
REMARK SMILES IDX 38 67 39 68 40 69 41 70 42 71 68 72 69 73 78 74 70 75 71 76
REMARK SMILES IDX 77 77 79 78 72 79 73 80 74 81 75 82 76 83 52 84 53 85 62 86
REMARK SMILES IDX 54 87 55 88 61 89 63 90 56 91 57 92 58 93 59 94 60 95
REMARK H PARENT 18 6 22 26 84 45 50 56
REMARK Flexibility Score: inf
ROOT
ATOM      1  C   UNL A   1      38.943  23.913  26.743  1.00  0.00     0.042 C 
ENDROOT
BRANCH   1   2
ATOM      2  C   UNL A   1      37.541  24.084  26.184  1.00  0.00     0.117 C 
BRANCH   2   3
ATOM      3  N   UNL A   1      37.444  23.598  24.816  1.00  0.00    -0.354 N 
ATOM      4  C   UNL A   1      36.337  23.392  24.049  1.00  0.00     0.242 C 
ATOM      5  O   UNL A   1      36.447  22.720  23.019  1.00  0.00    -0.273 OA
ATOM      6  H   UNL A   1      38.302  23.386  24.383  1.00  0.00     0.163 HD
BRANCH   4   7
ATOM      7  C   UNL A   1      34.949  23.728  24.607  1.00  0.00     0.174 C 
ATOM      8  N   UNL A   1      34.076  22.587  24.995  1.00  0.00    -0.330 N 
ATOM      9  C   UNL A   1      32.636  22.825  24.902  1.00  0.00     0.120 C 
ATOM     10  C   UNL A   1      32.202  23.359  23.551  1.00  0.00     0.022 C 
ATOM     11  C   UNL A   1      34.386  24.561  23.406  1.00  0.00     0.035 C 
ATOM     12  C   UNL A   1      32.881  24.689  23.292  1.00  0.00     0.004 C 
BRANCH   8  13
ATOM     13  C   UNL A   1      34.431  21.425  25.688  1.00  0.00     0.227 C 
ATOM     14  O   UNL A   1      35.608  21.287  26.057  1.00  0.00    -0.275 OA
BRANCH  13  15
ATOM     15  C   UNL A   1      33.517  20.214  25.823  1.00  0.00     0.135 C 
BRANCH  15  16
ATOM     16  C   UNL A   1      33.517  19.135  24.781  1.00  0.00    -0.038 A 
ATOM     17  C   UNL A   1      32.026  18.598  21.313  1.00  0.00     0.044 C 
ATOM     18  C   UNL A   1      32.807  18.370  22.569  1.00  0.00    -0.051 A 
ATOM     19  C   UNL A   1      33.373  17.122  22.832  1.00  0.00     0.003 A 
ATOM     20  C   UNL A   1      32.888  19.369  23.548  1.00  0.00     0.007 A 
ATOM     21  C   UNL A   1      34.049  16.901  24.030  1.00  0.00     0.001 A 
ATOM     22  C   UNL A   1      34.154  17.907  24.989  1.00  0.00     0.004 A 
ENDBRANCH  15  16
ENDBRANCH  13  15
ENDBRANCH   8  13
ENDBRANCH   4   7
ENDBRANCH   2   3
ENDBRANCH   1   2
BRANCH   1  23
ATOM     23  C   UNL A   1      39.785  25.154  26.577  1.00  0.00     0.118 C 
BRANCH  23  24
ATOM     24  N   UNL A   1      40.355  25.537  27.840  1.00  0.00    -0.352 N 
ATOM     25  C   UNL A   1      40.684  26.754  28.343  1.00  0.00     0.251 C 
ATOM     26  H   UNL A   1      40.537  24.784  28.448  1.00  0.00     0.163 HD
ATOM     27  O   UNL A   1      41.190  26.747  29.465  1.00  0.00    -0.269 OA
BRANCH  25  28
ATOM     28  C   UNL A   1      40.153  28.031  27.686  1.00  0.00     0.039 A 
ATOM     29  C   UNL A   1      40.771  28.153  26.436  1.00  0.00     0.014 A 
ATOM     30  C   UNL A   1      40.354  29.099  28.563  1.00  0.00     0.014 A 
ATOM     31  C   UNL A   1      42.060  28.665  26.428  1.00  0.00     0.010 A 
ATOM     32  C   UNL A   1      41.649  29.524  28.666  1.00  0.00     0.010 A 
ATOM     33  C   UNL A   1      42.524  29.182  27.632  1.00  0.00    -0.014 A 
BRANCH  33  34
ATOM     34  C   UNL A   1      43.916  29.351  27.959  1.00  0.00     0.031 A 
ATOM     35  C   UNL A   1      44.591  30.446  27.266  1.00  0.00     0.074 A 
ATOM     36  C   UNL A   1      44.405  28.612  28.977  1.00  0.00     0.049 A 
ATOM     37  N   UNL A   1      45.856  30.617  27.200  1.00  0.00    -0.248 NA
ATOM     38  C   UNL A   1      43.832  31.417  26.476  1.00  0.00     0.031 C 
ATOM     39  C   UNL A   1      45.632  28.790  29.745  1.00  0.00     0.029 A 
ATOM     40  N   UNL A   1      43.930  27.369  29.404  1.00  0.00    -0.354 N 
ATOM     41  C   UNL A   1      46.065  31.866  26.649  1.00  0.00     0.074 A 
ATOM     42  C   UNL A   1      44.801  32.236  26.076  1.00  0.00     0.031 C 
ATOM     43  C   UNL A   1      45.970  27.602  30.285  1.00  0.00     0.029 A 
ATOM     44  C   UNL A   1      45.051  26.608  29.735  1.00  0.00     0.049 A 
ATOM     45  H   UNL A   1      42.989  27.087  29.460  1.00  0.00     0.167 HD
ATOM     46  C   UNL A   1      47.243  32.491  26.928  1.00  0.00     0.037 A 
ATOM     47  C   UNL A   1      45.429  25.522  28.997  1.00  0.00     0.037 A 
ATOM     48  C   UNL A   1      48.148  31.521  27.565  1.00  0.00     0.049 A 
ATOM     49  C   UNL A   1      46.770  25.817  28.338  1.00  0.00     0.074 A 
ATOM     50  C   UNL A   1      48.439  31.255  28.895  1.00  0.00     0.029 A 
ATOM     51  N   UNL A   1      48.520  30.379  26.852  1.00  0.00    -0.354 N 
ATOM     52  N   UNL A   1      47.179  27.015  27.990  1.00  0.00    -0.248 NA
ATOM     53  C   UNL A   1      47.790  24.794  28.129  1.00  0.00     0.031 C 
ATOM     54  C   UNL A   1      48.844  29.891  28.986  1.00  0.00     0.029 A 
ATOM     55  C   UNL A   1      48.838  29.339  27.712  1.00  0.00     0.049 A 
ATOM     56  H   UNL A   1      48.553  30.319  25.870  1.00  0.00     0.167 HD
ATOM     57  C   UNL A   1      48.482  26.946  27.570  1.00  0.00     0.074 A 
ATOM     58  C   UNL A   1      48.812  25.532  27.662  1.00  0.00     0.031 C 
ATOM     59  C   UNL A   1      49.226  28.031  27.191  1.00  0.00     0.037 A 
BRANCH  46  60
ATOM     60  C   UNL A   1      47.433  34.003  26.932  1.00  0.00     0.058 A 
ATOM     61  C   UNL A   1      48.482  34.584  26.186  1.00  0.00     0.135 A 
ATOM     62  C   UNL A   1      46.701  34.939  27.702  1.00  0.00     0.135 A 
ATOM     63  F   UNL A   1      49.243  33.843  25.368  1.00  0.00    -0.206 F 
ATOM     64  C   UNL A   1      48.810  35.946  26.248  1.00  0.00     0.059 A 
ATOM     65  C   UNL A   1      47.026  36.294  27.803  1.00  0.00     0.059 A 
ATOM     66  F   UNL A   1      45.603  34.615  28.382  1.00  0.00    -0.206 F 
ATOM     67  C   UNL A   1      48.085  36.793  27.074  1.00  0.00     0.060 A 
BRANCH  67  68
ATOM     68  S   UNL A   1      48.509  38.542  27.159  1.00  0.00     0.124 S 
ATOM     69  O   UNL A   1      47.956  39.052  25.909  1.00  0.00    -0.237 OA
ATOM     70  O   UNL A   1      47.824  38.961  28.378  1.00  0.00    -0.237 OA
ATOM     71  O   UNL A   1      49.968  38.538  27.236  1.00  0.00    -0.744 OA
ENDBRANCH  67  68
ENDBRANCH  46  60
BRANCH  47  72
ATOM     72  C   UNL A   1      44.292  24.746  28.395  1.00  0.00     0.058 A 
ATOM     73  C   UNL A   1      44.123  24.760  26.991  1.00  0.00     0.135 A 
ATOM     74  C   UNL A   1      43.624  23.729  29.090  1.00  0.00     0.135 A 
ATOM     75  F   UNL A   1      44.714  25.722  26.259  1.00  0.00    -0.206 F 
ATOM     76  C   UNL A   1      43.444  23.747  26.302  1.00  0.00     0.059 A 
ATOM     77  C   UNL A   1      42.936  22.704  28.422  1.00  0.00     0.059 A 
ATOM     78  F   UNL A   1      43.734  23.641  30.424  1.00  0.00    -0.206 F 
ATOM     79  C   UNL A   1      42.899  22.688  27.025  1.00  0.00     0.060 A 
BRANCH  79  80
ATOM     80  S   UNL A   1      42.301  21.219  26.128  1.00  0.00     0.124 S 
ATOM     81  O   UNL A   1      43.372  20.996  25.162  1.00  0.00    -0.237 OA
ATOM     82  O   UNL A   1      42.176  20.198  27.163  1.00  0.00    -0.237 OA
ATOM     83  O   UNL A   1      41.031  21.662  25.556  1.00  0.00    -0.744 OA
ENDBRANCH  79  80
ENDBRANCH  47  72
BRANCH  59  84
ATOM     84  C   UNL A   1      50.468  27.936  26.333  1.00  0.00     0.058 A 
ATOM     85  C   UNL A   1      51.768  27.864  26.864  1.00  0.00     0.135 A 
ATOM     86  C   UNL A   1      50.367  27.718  24.936  1.00  0.00     0.135 A 
ATOM     87  F   UNL A   1      51.991  27.931  28.185  1.00  0.00    -0.206 F 
ATOM     88  C   UNL A   1      52.892  27.672  26.067  1.00  0.00     0.059 A 
ATOM     89  C   UNL A   1      51.471  27.448  24.133  1.00  0.00     0.059 A 
ATOM     90  F   UNL A   1      49.185  27.735  24.304  1.00  0.00    -0.206 F 
ATOM     91  C   UNL A   1      52.734  27.462  24.702  1.00  0.00     0.060 A 
BRANCH  91  92
ATOM     92  S   UNL A   1      54.186  27.164  23.684  1.00  0.00     0.124 S 
ATOM     93  O   UNL A   1      55.153  26.727  24.684  1.00  0.00    -0.237 OA
ATOM     94  O   UNL A   1      53.725  26.137  22.757  1.00  0.00    -0.237 OA
ATOM     95  O   UNL A   1      54.445  28.471  23.080  1.00  0.00    -0.744 OA
ENDBRANCH  91  92
ENDBRANCH  59  84
ENDBRANCH  33  34
ENDBRANCH  25  28
ENDBRANCH  23  24
ENDBRANCH   1  23
TORSDOF 16
ENDMDL
