MODEL 1
REMARK VINA RESULT:     -11.9      0.000      0.000
REMARK SMILES O=C(NCCCNC(=O)[C@H]1[NH2+]CC[C@@H]1c1cc(Br)ccc1F)c1ccc(-c2c3nc(c(-c4c(F)cc(S(=O)(=O)[O-])cc4F)c4ccc([nH]4)c(-c4c(F)cc(S(=O)(=O)[O-])cc4F)c4nc(c(-c5c(F)cc(S(=O)(=O)[O-])cc5F)c5ccc2[nH]5)C=C4)C=C3)cc1
REMARK SMILES IDX 4 1 3 2 1 3 2 4 23 6 24 7 88 8 25 9 87 10 26 11 27 12 28 13
REMARK SMILES IDX 81 14 29 15 86 16 80 17 82 18 30 19 85 20 79 21 78 22 31 24
REMARK SMILES IDX 65 25 44 26 64 27 45 28 48 29 63 30 83 31 46 32 47 33 62 35
REMARK SMILES IDX 84 36 49 37 32 38 33 39 42 40 34 41 35 42 41 43 43 44 36 45
REMARK SMILES IDX 37 46 38 47 39 48 40 49 66 50 67 51 76 52 68 53 69 54 75 55
REMARK SMILES IDX 77 56 70 57 71 58 72 59 73 60 74 61 50 62 51 63 60 64 52 65
REMARK SMILES IDX 53 66 59 67 61 68 54 69 55 70 56 71 57 72 58 73 5 74 6 75
REMARK SMILES IDX 7 76 8 77 9 79 10 80 11 81 14 82 12 83 13 86 15 87 16 88
REMARK SMILES IDX 21 89 17 90 20 91 22 92 18 93 19 94
REMARK H PARENT 3 5 82 23 48 34 7 78 11 84 11 85
REMARK Flexibility Score: inf
ROOT
ATOM      1  C   UNL A   1      35.272  29.322  27.750  1.00  0.00     0.118 C 
ENDROOT
BRANCH   1   2
ATOM      2  N   UNL A   1      35.274  30.060  29.004  1.00  0.00    -0.352 N 
ATOM      3  O   UNL A   1      36.056  30.717  31.007  1.00  0.00    -0.269 OA
ATOM      4  C   UNL A   1      36.301  30.262  29.895  1.00  0.00     0.251 C 
ATOM      5  H   UNL A   1      34.415  30.473  29.251  1.00  0.00     0.163 HD
BRANCH   4   6
ATOM      6  C   UNL A   1      37.688  29.921  29.515  1.00  0.00     0.039 A 
ATOM      7  C   UNL A   1      38.604  29.487  30.478  1.00  0.00     0.014 A 
ATOM      8  C   UNL A   1      38.071  30.004  28.173  1.00  0.00     0.014 A 
ATOM      9  C   UNL A   1      39.929  29.268  30.124  1.00  0.00     0.010 A 
ATOM     10  C   UNL A   1      39.384  29.692  27.805  1.00  0.00     0.010 A 
ATOM     11  C   UNL A   1      40.330  29.342  28.781  1.00  0.00    -0.014 A 
BRANCH  11  12
ATOM     12  C   UNL A   1      41.719  28.965  28.415  1.00  0.00     0.031 A 
ATOM     13  C   UNL A   1      42.831  29.977  28.428  1.00  0.00     0.074 A 
ATOM     14  C   UNL A   1      41.970  27.682  28.088  1.00  0.00     0.049 A 
ATOM     15  N   UNL A   1      44.097  29.810  28.140  1.00  0.00    -0.248 NA
ATOM     16  C   UNL A   1      42.480  31.355  28.804  1.00  0.00     0.031 C 
ATOM     17  C   UNL A   1      40.965  26.616  28.034  1.00  0.00     0.029 A 
ATOM     18  N   UNL A   1      43.140  27.049  27.755  1.00  0.00    -0.354 N 
ATOM     19  C   UNL A   1      44.691  31.058  28.288  1.00  0.00     0.074 A 
ATOM     20  C   UNL A   1      43.641  31.981  28.661  1.00  0.00     0.031 C 
ATOM     21  C   UNL A   1      41.566  25.457  27.733  1.00  0.00     0.029 A 
ATOM     22  C   UNL A   1      42.985  25.705  27.506  1.00  0.00     0.049 A 
ATOM     23  H   UNL A   1      44.007  27.511  27.700  1.00  0.00     0.167 HD
ATOM     24  C   UNL A   1      45.995  31.395  28.135  1.00  0.00     0.037 A 
ATOM     25  C   UNL A   1      43.878  24.778  27.114  1.00  0.00     0.037 A 
ATOM     26  C   UNL A   1      47.032  30.462  27.766  1.00  0.00     0.049 A 
ATOM     27  C   UNL A   1      45.308  25.189  26.911  1.00  0.00     0.074 A 
ATOM     28  C   UNL A   1      48.387  30.699  27.610  1.00  0.00     0.029 A 
ATOM     29  N   UNL A   1      46.830  29.117  27.489  1.00  0.00    -0.354 N 
ATOM     30  N   UNL A   1      45.857  26.367  27.084  1.00  0.00    -0.248 NA
ATOM     31  C   UNL A   1      46.239  24.148  26.459  1.00  0.00     0.031 C 
ATOM     32  C   UNL A   1      48.995  29.513  27.188  1.00  0.00     0.029 A 
ATOM     33  C   UNL A   1      48.031  28.519  27.139  1.00  0.00     0.049 A 
ATOM     34  H   UNL A   1      45.962  28.655  27.535  1.00  0.00     0.167 HD
ATOM     35  C   UNL A   1      47.204  26.205  26.784  1.00  0.00     0.074 A 
ATOM     36  C   UNL A   1      47.387  24.810  26.435  1.00  0.00     0.031 C 
ATOM     37  C   UNL A   1      48.198  27.127  26.796  1.00  0.00     0.037 A 
BRANCH  24  38
ATOM     38  C   UNL A   1      46.380  32.836  28.347  1.00  0.00     0.058 A 
ATOM     39  C   UNL A   1      46.804  33.314  29.597  1.00  0.00     0.135 A 
ATOM     40  C   UNL A   1      46.375  33.741  27.272  1.00  0.00     0.135 A 
ATOM     41  F   UNL A   1      46.817  32.498  30.664  1.00  0.00    -0.206 F 
ATOM     42  C   UNL A   1      47.185  34.640  29.780  1.00  0.00     0.059 A 
ATOM     43  C   UNL A   1      46.779  35.065  27.425  1.00  0.00     0.059 A 
ATOM     44  F   UNL A   1      45.980  33.341  26.053  1.00  0.00    -0.206 F 
ATOM     45  C   UNL A   1      47.169  35.509  28.687  1.00  0.00     0.060 A 
BRANCH  45  46
ATOM     46  S   UNL A   1      47.670  37.225  28.943  1.00  0.00     0.124 S 
ATOM     47  O   UNL A   1      46.602  37.713  29.811  1.00  0.00    -0.237 OA
ATOM     48  O   UNL A   1      48.979  37.077  29.572  1.00  0.00    -0.237 OA
ATOM     49  O   UNL A   1      47.684  37.781  27.594  1.00  0.00    -0.744 OA
ENDBRANCH  45  46
ENDBRANCH  24  38
BRANCH  25  50
ATOM     50  C   UNL A   1      43.437  23.377  26.884  1.00  0.00     0.058 A 
ATOM     51  C   UNL A   1      43.302  22.863  25.587  1.00  0.00     0.135 A 
ATOM     52  C   UNL A   1      43.166  22.515  27.960  1.00  0.00     0.135 A 
ATOM     53  F   UNL A   1      43.546  23.647  24.526  1.00  0.00    -0.206 F 
ATOM     54  C   UNL A   1      42.899  21.551  25.361  1.00  0.00     0.059 A 
ATOM     55  C   UNL A   1      42.792  21.191  27.761  1.00  0.00     0.059 A 
ATOM     56  F   UNL A   1      43.300  22.952  29.223  1.00  0.00    -0.206 F 
ATOM     57  C   UNL A   1      42.649  20.721  26.457  1.00  0.00     0.060 A 
BRANCH  57  58
ATOM     58  S   UNL A   1      42.170  19.008  26.153  1.00  0.00     0.124 S 
ATOM     59  O   UNL A   1      42.458  18.390  27.442  1.00  0.00    -0.237 OA
ATOM     60  O   UNL A   1      40.758  19.140  25.809  1.00  0.00    -0.237 OA
ATOM     61  O   UNL A   1      43.040  18.606  25.052  1.00  0.00    -0.744 OA
ENDBRANCH  57  58
ENDBRANCH  25  50
BRANCH  37  62
ATOM     62  C   UNL A   1      49.583  26.649  26.454  1.00  0.00     0.058 A 
ATOM     63  C   UNL A   1      50.390  25.988  27.392  1.00  0.00     0.135 A 
ATOM     64  C   UNL A   1      50.092  26.822  25.156  1.00  0.00     0.135 A 
ATOM     65  F   UNL A   1      49.955  25.805  28.649  1.00  0.00    -0.206 F 
ATOM     66  C   UNL A   1      51.664  25.536  27.064  1.00  0.00     0.059 A 
ATOM     67  C   UNL A   1      51.351  26.351  24.797  1.00  0.00     0.059 A 
ATOM     68  F   UNL A   1      49.358  27.441  24.219  1.00  0.00    -0.206 F 
ATOM     69  C   UNL A   1      52.134  25.720  25.762  1.00  0.00     0.060 A 
BRANCH  69  70
ATOM     70  S   UNL A   1      53.777  25.099  25.341  1.00  0.00     0.124 S 
ATOM     71  O   UNL A   1      54.596  25.701  26.387  1.00  0.00    -0.237 OA
ATOM     72  O   UNL A   1      53.595  23.653  25.430  1.00  0.00    -0.237 OA
ATOM     73  O   UNL A   1      53.999  25.615  23.993  1.00  0.00    -0.744 OA
ENDBRANCH  69  70
ENDBRANCH  37  62
ENDBRANCH  11  12
ENDBRANCH   4   6
ENDBRANCH   1   2
BRANCH   1  74
ATOM     74  C   UNL A   1      33.865  28.908  27.325  1.00  0.00     0.042 C 
BRANCH  74  75
ATOM     75  C   UNL A   1      33.101  30.016  26.602  1.00  0.00     0.118 C 
BRANCH  75  76
ATOM     76  N   UNL A   1      33.300  29.928  25.171  1.00  0.00    -0.351 N 
ATOM     77  C   UNL A   1      32.687  29.189  24.207  1.00  0.00     0.278 C 
ATOM     78  H   UNL A   1      34.016  30.513  24.831  1.00  0.00     0.163 HD
ATOM     79  O   UNL A   1      33.272  29.147  23.119  1.00  0.00    -0.268 OA
BRANCH  77  80
ATOM     80  C   UNL A   1      31.303  28.543  24.391  1.00  0.00     0.280 C 
ATOM     81  N   UNL A   1      30.190  29.248  23.711  1.00  0.00    -0.335 N 
ATOM     82  C   UNL A   1      31.279  27.084  23.912  1.00  0.00     0.096 C 
ATOM     83  C   UNL A   1      29.398  28.263  22.983  1.00  0.00     0.262 C 
ATOM     84  H   UNL A   1      30.566  29.936  23.060  1.00  0.00     0.346 HD
ATOM     85  H   UNL A   1      29.609  29.726  24.398  1.00  0.00     0.346 HD
ATOM     86  C   UNL A   1      29.809  26.906  23.526  1.00  0.00     0.076 C 
BRANCH  82  87
ATOM     87  C   UNL A   1      31.766  25.983  24.842  1.00  0.00    -0.001 A 
ATOM     88  C   UNL A   1      30.817  25.101  25.395  1.00  0.00     0.023 A 
ATOM     89  C   UNL A   1      33.110  25.764  25.176  1.00  0.00     0.127 A 
ATOM     90  C   UNL A   1      31.208  24.066  26.252  1.00  0.00     0.018 A 
ATOM     91  C   UNL A   1      33.502  24.725  26.020  1.00  0.00     0.041 A 
ATOM     92  F   UNL A   1      34.083  26.554  24.712  1.00  0.00    -0.207 F 
ATOM     93  Br  UNL A   1      29.902  22.920  26.997  1.00  0.00    -0.051 Br
ATOM     94  C   UNL A   1      32.549  23.872  26.565  1.00  0.00     0.019 A 
ENDBRANCH  82  87
ENDBRANCH  77  80
ENDBRANCH  75  76
ENDBRANCH  74  75
ENDBRANCH   1  74
TORSDOF 14
ENDMDL
MODEL 2
REMARK VINA RESULT:     -11.9      1.803      2.691
REMARK SMILES O=C(NCCCNC(=O)[C@H]1[NH2+]CC[C@@H]1c1cc(Br)ccc1F)c1ccc(-c2c3nc(c(-c4c(F)cc(S(=O)(=O)[O-])cc4F)c4ccc([nH]4)c(-c4c(F)cc(S(=O)(=O)[O-])cc4F)c4nc(c(-c5c(F)cc(S(=O)(=O)[O-])cc5F)c5ccc2[nH]5)C=C4)C=C3)cc1
REMARK SMILES IDX 4 1 3 2 1 3 2 4 23 6 24 7 88 8 25 9 87 10 26 11 27 12 28 13
REMARK SMILES IDX 81 14 29 15 86 16 80 17 82 18 30 19 85 20 79 21 78 22 31 24
REMARK SMILES IDX 65 25 44 26 64 27 45 28 48 29 63 30 83 31 46 32 47 33 62 35
REMARK SMILES IDX 84 36 49 37 32 38 33 39 42 40 34 41 35 42 41 43 43 44 36 45
REMARK SMILES IDX 37 46 38 47 39 48 40 49 66 50 67 51 76 52 68 53 69 54 75 55
REMARK SMILES IDX 77 56 70 57 71 58 72 59 73 60 74 61 50 62 51 63 60 64 52 65
REMARK SMILES IDX 53 66 59 67 61 68 54 69 55 70 56 71 57 72 58 73 5 74 6 75
REMARK SMILES IDX 7 76 8 77 9 79 10 80 11 81 14 82 12 83 13 86 15 87 16 88
REMARK SMILES IDX 21 89 17 90 20 91 22 92 18 93 19 94
REMARK H PARENT 3 5 82 23 48 34 7 78 11 84 11 85
REMARK Flexibility Score: inf
ROOT
ATOM      1  C   UNL A   1      35.449  29.704  28.155  1.00  0.00     0.118 C 
ENDROOT
BRANCH   1   2
ATOM      2  N   UNL A   1      35.476  30.029  29.573  1.00  0.00    -0.352 N 
ATOM      3  O   UNL A   1      36.266  30.006  31.678  1.00  0.00    -0.269 OA
ATOM      4  C   UNL A   1      36.500  29.894  30.479  1.00  0.00     0.251 C 
ATOM      5  H   UNL A   1      34.639  30.399  29.936  1.00  0.00     0.163 HD
BRANCH   4   6
ATOM      6  C   UNL A   1      37.871  29.602  30.009  1.00  0.00     0.039 A 
ATOM      7  C   UNL A   1      38.815  29.039  30.872  1.00  0.00     0.014 A 
ATOM      8  C   UNL A   1      38.209  29.864  28.678  1.00  0.00     0.014 A 
ATOM      9  C   UNL A   1      40.126  28.866  30.446  1.00  0.00     0.010 A 
ATOM     10  C   UNL A   1      39.506  29.601  28.225  1.00  0.00     0.010 A 
ATOM     11  C   UNL A   1      40.482  29.119  29.112  1.00  0.00    -0.014 A 
BRANCH  11  12
ATOM     12  C   UNL A   1      41.855  28.791  28.650  1.00  0.00     0.031 A 
ATOM     13  C   UNL A   1      42.938  29.833  28.621  1.00  0.00     0.074 A 
ATOM     14  C   UNL A   1      42.118  27.524  28.274  1.00  0.00     0.049 A 
ATOM     15  N   UNL A   1      44.187  29.708  28.251  1.00  0.00    -0.248 NA
ATOM     16  C   UNL A   1      42.575  31.190  29.056  1.00  0.00     0.031 C 
ATOM     17  C   UNL A   1      41.140  26.432  28.252  1.00  0.00     0.029 A 
ATOM     18  N   UNL A   1      43.280  26.933  27.851  1.00  0.00    -0.354 N 
ATOM     19  C   UNL A   1      44.757  30.968  28.396  1.00  0.00     0.074 A 
ATOM     20  C   UNL A   1      43.708  31.852  28.859  1.00  0.00     0.031 C 
ATOM     21  C   UNL A   1      41.751  25.298  27.884  1.00  0.00     0.029 A 
ATOM     22  C   UNL A   1      43.145  25.592  27.575  1.00  0.00     0.049 A 
ATOM     23  H   UNL A   1      44.130  27.420  27.755  1.00  0.00     0.167 HD
ATOM     24  C   UNL A   1      46.039  31.345  28.171  1.00  0.00     0.037 A 
ATOM     25  C   UNL A   1      44.036  24.700  27.104  1.00  0.00     0.037 A 
ATOM     26  C   UNL A   1      47.075  30.451  27.714  1.00  0.00     0.049 A 
ATOM     27  C   UNL A   1      45.439  25.155  26.824  1.00  0.00     0.074 A 
ATOM     28  C   UNL A   1      48.411  30.730  27.480  1.00  0.00     0.029 A 
ATOM     29  N   UNL A   1      46.892  29.109  27.413  1.00  0.00    -0.354 N 
ATOM     30  N   UNL A   1      45.967  26.344  26.995  1.00  0.00    -0.248 NA
ATOM     31  C   UNL A   1      46.367  24.153  26.287  1.00  0.00     0.031 C 
ATOM     32  C   UNL A   1      49.022  29.572  26.989  1.00  0.00     0.029 A 
ATOM     33  C   UNL A   1      48.083  28.553  26.973  1.00  0.00     0.049 A 
ATOM     34  H   UNL A   1      46.040  28.621  27.500  1.00  0.00     0.167 HD
ATOM     35  C   UNL A   1      47.296  26.227  26.607  1.00  0.00     0.074 A 
ATOM     36  C   UNL A   1      47.493  24.847  26.209  1.00  0.00     0.031 C 
ATOM     37  C   UNL A   1      48.264  27.176  26.582  1.00  0.00     0.037 A 
BRANCH  24  38
ATOM     38  C   UNL A   1      46.399  32.790  28.398  1.00  0.00     0.058 A 
ATOM     39  C   UNL A   1      46.888  33.247  29.632  1.00  0.00     0.135 A 
ATOM     40  C   UNL A   1      46.302  33.722  27.351  1.00  0.00     0.135 A 
ATOM     41  F   UNL A   1      46.991  32.406  30.673  1.00  0.00    -0.206 F 
ATOM     42  C   UNL A   1      47.245  34.579  29.827  1.00  0.00     0.059 A 
ATOM     43  C   UNL A   1      46.679  35.052  27.515  1.00  0.00     0.059 A 
ATOM     44  F   UNL A   1      45.841  33.343  26.149  1.00  0.00    -0.206 F 
ATOM     45  C   UNL A   1      47.138  35.474  28.762  1.00  0.00     0.060 A 
BRANCH  45  46
ATOM     46  S   UNL A   1      47.609  37.197  29.033  1.00  0.00     0.124 S 
ATOM     47  O   UNL A   1      46.697  37.892  28.129  1.00  0.00    -0.237 OA
ATOM     48  O   UNL A   1      47.345  37.371  30.457  1.00  0.00    -0.237 OA
ATOM     49  O   UNL A   1      49.016  37.230  28.649  1.00  0.00    -0.744 OA
ENDBRANCH  45  46
ENDBRANCH  24  38
BRANCH  25  50
ATOM     50  C   UNL A   1      43.618  23.294  26.864  1.00  0.00     0.058 A 
ATOM     51  C   UNL A   1      43.387  22.414  27.931  1.00  0.00     0.135 A 
ATOM     52  C   UNL A   1      43.417  22.808  25.561  1.00  0.00     0.135 A 
ATOM     53  F   UNL A   1      43.569  22.829  29.193  1.00  0.00    -0.206 F 
ATOM     54  C   UNL A   1      42.987  21.099  27.717  1.00  0.00     0.059 A 
ATOM     55  C   UNL A   1      42.988  21.507  25.322  1.00  0.00     0.059 A 
ATOM     56  F   UNL A   1      43.606  23.615  24.505  1.00  0.00    -0.206 F 
ATOM     57  C   UNL A   1      42.788  20.656  26.407  1.00  0.00     0.060 A 
BRANCH  57  58
ATOM     58  S   UNL A   1      42.227  18.961  26.144  1.00  0.00     0.124 S 
ATOM     59  O   UNL A   1      42.434  18.375  27.463  1.00  0.00    -0.237 OA
ATOM     60  O   UNL A   1      40.837  19.156  25.742  1.00  0.00    -0.237 OA
ATOM     61  O   UNL A   1      43.113  18.474  25.091  1.00  0.00    -0.744 OA
ENDBRANCH  57  58
ENDBRANCH  25  50
BRANCH  37  62
ATOM     62  C   UNL A   1      49.637  26.746  26.142  1.00  0.00     0.058 A 
ATOM     63  C   UNL A   1      50.102  26.976  24.838  1.00  0.00     0.135 A 
ATOM     64  C   UNL A   1      50.513  26.129  27.052  1.00  0.00     0.135 A 
ATOM     65  F   UNL A   1      49.303  27.552  23.926  1.00  0.00    -0.206 F 
ATOM     66  C   UNL A   1      51.378  26.588  24.443  1.00  0.00     0.059 A 
ATOM     67  C   UNL A   1      51.803  25.760  26.687  1.00  0.00     0.059 A 
ATOM     68  F   UNL A   1      50.120  25.893  28.313  1.00  0.00    -0.206 F 
ATOM     69  C   UNL A   1      52.223  25.983  25.377  1.00  0.00     0.060 A 
BRANCH  69  70
ATOM     70  S   UNL A   1      53.888  25.514  24.859  1.00  0.00     0.124 S 
ATOM     71  O   UNL A   1      53.910  25.983  23.478  1.00  0.00    -0.237 OA
ATOM     72  O   UNL A   1      54.726  26.259  25.795  1.00  0.00    -0.237 OA
ATOM     73  O   UNL A   1      53.902  24.065  25.032  1.00  0.00    -0.744 OA
ENDBRANCH  69  70
ENDBRANCH  37  62
ENDBRANCH  11  12
ENDBRANCH   4   6
ENDBRANCH   1   2
BRANCH   1  74
ATOM     74  C   UNL A   1      34.816  30.813  27.319  1.00  0.00     0.042 C 
BRANCH  74  75
ATOM     75  C   UNL A   1      33.298  30.891  27.466  1.00  0.00     0.118 C 
BRANCH  75  76
ATOM     76  N   UNL A   1      32.706  29.573  27.387  1.00  0.00    -0.351 N 
ATOM     77  C   UNL A   1      32.175  28.871  26.349  1.00  0.00     0.278 C 
ATOM     78  H   UNL A   1      32.681  29.094  28.247  1.00  0.00     0.163 HD
ATOM     79  O   UNL A   1      31.509  27.878  26.666  1.00  0.00    -0.268 OA
BRANCH  77  80
ATOM     80  C   UNL A   1      32.468  29.193  24.874  1.00  0.00     0.280 C 
ATOM     81  N   UNL A   1      33.889  29.050  24.474  1.00  0.00    -0.335 N 
ATOM     82  C   UNL A   1      31.636  28.326  23.917  1.00  0.00     0.096 C 
ATOM     83  C   UNL A   1      33.943  28.284  23.234  1.00  0.00     0.262 C 
ATOM     84  H   UNL A   1      34.404  28.559  25.204  1.00  0.00     0.346 HD
ATOM     85  H   UNL A   1      34.307  29.969  24.337  1.00  0.00     0.346 HD
ATOM     86  C   UNL A   1      32.531  28.282  22.677  1.00  0.00     0.076 C 
BRANCH  82  87
ATOM     87  C   UNL A   1      30.210  28.737  23.584  1.00  0.00    -0.001 A 
ATOM     88  C   UNL A   1      29.929  30.107  23.408  1.00  0.00     0.023 A 
ATOM     89  C   UNL A   1      29.145  27.842  23.414  1.00  0.00     0.127 A 
ATOM     90  C   UNL A   1      28.637  30.543  23.094  1.00  0.00     0.018 A 
ATOM     91  C   UNL A   1      27.860  28.274  23.089  1.00  0.00     0.041 A 
ATOM     92  F   UNL A   1      29.308  26.525  23.572  1.00  0.00    -0.207 F 
ATOM     93  Br  UNL A   1      28.294  32.391  22.893  1.00  0.00    -0.051 Br
ATOM     94  C   UNL A   1      27.600  29.631  22.930  1.00  0.00     0.019 A 
ENDBRANCH  82  87
ENDBRANCH  77  80
ENDBRANCH  75  76
ENDBRANCH  74  75
ENDBRANCH   1  74
TORSDOF 14
ENDMDL
MODEL 3
REMARK VINA RESULT:     -11.9      3.285      4.094
REMARK SMILES O=C(NCCCNC(=O)[C@H]1[NH2+]CC[C@@H]1c1cc(Br)ccc1F)c1ccc(-c2c3nc(c(-c4c(F)cc(S(=O)(=O)[O-])cc4F)c4ccc([nH]4)c(-c4c(F)cc(S(=O)(=O)[O-])cc4F)c4nc(c(-c5c(F)cc(S(=O)(=O)[O-])cc5F)c5ccc2[nH]5)C=C4)C=C3)cc1
REMARK SMILES IDX 4 1 3 2 1 3 2 4 23 6 24 7 88 8 25 9 87 10 26 11 27 12 28 13
REMARK SMILES IDX 81 14 29 15 86 16 80 17 82 18 30 19 85 20 79 21 78 22 31 24
REMARK SMILES IDX 65 25 44 26 64 27 45 28 48 29 63 30 83 31 46 32 47 33 62 35
REMARK SMILES IDX 84 36 49 37 32 38 33 39 42 40 34 41 35 42 41 43 43 44 36 45
REMARK SMILES IDX 37 46 38 47 39 48 40 49 66 50 67 51 76 52 68 53 69 54 75 55
REMARK SMILES IDX 77 56 70 57 71 58 72 59 73 60 74 61 50 62 51 63 60 64 52 65
REMARK SMILES IDX 53 66 59 67 61 68 54 69 55 70 56 71 57 72 58 73 5 74 6 75
REMARK SMILES IDX 7 76 8 77 9 79 10 80 11 81 14 82 12 83 13 86 15 87 16 88
REMARK SMILES IDX 21 89 17 90 20 91 22 92 18 93 19 94
REMARK H PARENT 3 5 82 23 48 34 7 78 11 84 11 85
REMARK Flexibility Score: inf
ROOT
ATOM      1  C   UNL A   1      33.649  27.929  27.017  1.00  0.00     0.118 C 
ENDROOT
BRANCH   1   2
ATOM      2  N   UNL A   1      33.392  29.343  27.241  1.00  0.00    -0.352 N 
ATOM      3  O   UNL A   1      33.707  31.377  28.146  1.00  0.00    -0.269 OA
ATOM      4  C   UNL A   1      34.185  30.288  27.845  1.00  0.00     0.251 C 
ATOM      5  H   UNL A   1      32.523  29.670  26.913  1.00  0.00     0.163 HD
BRANCH   4   6
ATOM      6  C   UNL A   1      35.603  29.987  28.139  1.00  0.00     0.039 A 
ATOM      7  C   UNL A   1      36.577  30.105  27.144  1.00  0.00     0.014 A 
ATOM      8  C   UNL A   1      35.968  29.612  29.435  1.00  0.00     0.014 A 
ATOM      9  C   UNL A   1      37.886  29.721  27.407  1.00  0.00     0.010 A 
ATOM     10  C   UNL A   1      37.305  29.315  29.722  1.00  0.00     0.010 A 
ATOM     11  C   UNL A   1      38.272  29.347  28.704  1.00  0.00    -0.014 A 
BRANCH  11  12
ATOM     12  C   UNL A   1      39.704  29.077  28.987  1.00  0.00     0.031 A 
ATOM     13  C   UNL A   1      40.580  30.113  29.635  1.00  0.00     0.074 A 
ATOM     14  C   UNL A   1      40.204  27.867  28.667  1.00  0.00     0.049 A 
ATOM     15  N   UNL A   1      41.847  30.035  29.954  1.00  0.00    -0.248 NA
ATOM     16  C   UNL A   1      39.960  31.406  29.963  1.00  0.00     0.031 C 
ATOM     17  C   UNL A   1      39.448  26.787  28.026  1.00  0.00     0.029 A 
ATOM     18  N   UNL A   1      41.454  27.332  28.846  1.00  0.00    -0.354 N 
ATOM     19  C   UNL A   1      42.180  31.266  30.507  1.00  0.00     0.074 A 
ATOM     20  C   UNL A   1      40.988  32.086  30.453  1.00  0.00     0.031 C 
ATOM     21  C   UNL A   1      40.232  25.708  27.907  1.00  0.00     0.029 A 
ATOM     22  C   UNL A   1      41.565  26.036  28.398  1.00  0.00     0.049 A 
ATOM     23  H   UNL A   1      42.199  27.827  29.257  1.00  0.00     0.167 HD
ATOM     24  C   UNL A   1      43.368  31.667  31.020  1.00  0.00     0.037 A 
ATOM     25  C   UNL A   1      42.626  25.210  28.362  1.00  0.00     0.037 A 
ATOM     26  C   UNL A   1      44.547  30.836  31.071  1.00  0.00     0.049 A 
ATOM     27  C   UNL A   1      43.942  25.695  28.899  1.00  0.00     0.074 A 
ATOM     28  C   UNL A   1      45.792  31.140  31.594  1.00  0.00     0.029 A 
ATOM     29  N   UNL A   1      44.630  29.542  30.576  1.00  0.00    -0.354 N 
ATOM     30  N   UNL A   1      44.230  26.853  29.446  1.00  0.00    -0.248 NA
ATOM     31  C   UNL A   1      45.076  24.767  28.815  1.00  0.00     0.031 C 
ATOM     32  C   UNL A   1      46.641  30.052  31.368  1.00  0.00     0.029 A 
ATOM     33  C   UNL A   1      45.911  29.044  30.759  1.00  0.00     0.049 A 
ATOM     34  H   UNL A   1      43.887  29.049  30.158  1.00  0.00     0.167 HD
ATOM     35  C   UNL A   1      45.574  26.784  29.791  1.00  0.00     0.074 A 
ATOM     36  C   UNL A   1      46.035  25.464  29.407  1.00  0.00     0.031 C 
ATOM     37  C   UNL A   1      46.355  27.727  30.373  1.00  0.00     0.037 A 
BRANCH  24  38
ATOM     38  C   UNL A   1      43.468  33.072  31.555  1.00  0.00     0.058 A 
ATOM     39  C   UNL A   1      43.288  33.361  32.917  1.00  0.00     0.135 A 
ATOM     40  C   UNL A   1      43.798  34.138  30.701  1.00  0.00     0.135 A 
ATOM     41  F   UNL A   1      42.959  32.385  33.778  1.00  0.00    -0.206 F 
ATOM     42  C   UNL A   1      43.409  34.658  33.408  1.00  0.00     0.059 A 
ATOM     43  C   UNL A   1      43.951  35.438  31.175  1.00  0.00     0.059 A 
ATOM     44  F   UNL A   1      43.981  33.921  29.389  1.00  0.00    -0.206 F 
ATOM     45  C   UNL A   1      43.741  35.690  32.530  1.00  0.00     0.060 A 
BRANCH  45  46
ATOM     46  S   UNL A   1      43.896  37.365  33.187  1.00  0.00     0.124 S 
ATOM     47  O   UNL A   1      45.209  37.307  33.824  1.00  0.00    -0.237 OA
ATOM     48  O   UNL A   1      43.814  38.182  31.981  1.00  0.00    -0.237 OA
ATOM     49  O   UNL A   1      42.763  37.481  34.098  1.00  0.00    -0.744 OA
ENDBRANCH  45  46
ENDBRANCH  24  38
BRANCH  25  50
ATOM     50  C   UNL A   1      42.482  23.845  27.791  1.00  0.00     0.058 A 
ATOM     51  C   UNL A   1      42.505  23.633  26.405  1.00  0.00     0.135 A 
ATOM     52  C   UNL A   1      42.345  22.721  28.622  1.00  0.00     0.135 A 
ATOM     53  F   UNL A   1      42.630  24.675  25.569  1.00  0.00    -0.206 F 
ATOM     54  C   UNL A   1      42.379  22.359  25.861  1.00  0.00     0.059 A 
ATOM     55  C   UNL A   1      42.249  21.434  28.103  1.00  0.00     0.059 A 
ATOM     56  F   UNL A   1      42.337  22.867  29.956  1.00  0.00    -0.206 F 
ATOM     57  C   UNL A   1      42.255  21.265  26.720  1.00  0.00     0.060 A 
BRANCH  57  58
ATOM     58  S   UNL A   1      42.138  19.612  26.004  1.00  0.00     0.124 S 
ATOM     59  O   UNL A   1      43.025  19.728  24.852  1.00  0.00    -0.237 OA
ATOM     60  O   UNL A   1      42.616  18.769  27.096  1.00  0.00    -0.237 OA
ATOM     61  O   UNL A   1      40.717  19.480  25.696  1.00  0.00    -0.744 OA
ENDBRANCH  57  58
ENDBRANCH  25  50
BRANCH  37  62
ATOM     62  C   UNL A   1      47.783  27.354  30.663  1.00  0.00     0.058 A 
ATOM     63  C   UNL A   1      48.141  26.633  31.813  1.00  0.00     0.135 A 
ATOM     64  C   UNL A   1      48.802  27.689  29.755  1.00  0.00     0.135 A 
ATOM     65  F   UNL A   1      47.208  26.297  32.718  1.00  0.00    -0.206 F 
ATOM     66  C   UNL A   1      49.462  26.280  32.067  1.00  0.00     0.059 A 
ATOM     67  C   UNL A   1      50.125  27.318  29.974  1.00  0.00     0.059 A 
ATOM     68  F   UNL A   1      48.513  28.370  28.636  1.00  0.00    -0.206 F 
ATOM     69  C   UNL A   1      50.447  26.624  31.138  1.00  0.00     0.060 A 
BRANCH  69  70
ATOM     70  S   UNL A   1      52.153  26.130  31.464  1.00  0.00     0.124 S 
ATOM     71  O   UNL A   1      52.621  27.226  32.306  1.00  0.00    -0.237 OA
ATOM     72  O   UNL A   1      51.981  24.844  32.134  1.00  0.00    -0.237 OA
ATOM     73  O   UNL A   1      52.747  26.062  30.132  1.00  0.00    -0.744 OA
ENDBRANCH  69  70
ENDBRANCH  37  62
ENDBRANCH  11  12
ENDBRANCH   4   6
ENDBRANCH   1   2
BRANCH   1  74
ATOM     74  C   UNL A   1      32.922  27.396  25.785  1.00  0.00     0.042 C 
BRANCH  74  75
ATOM     75  C   UNL A   1      31.482  26.972  26.067  1.00  0.00     0.118 C 
BRANCH  75  76
ATOM     76  N   UNL A   1      31.448  25.733  26.814  1.00  0.00    -0.351 N 
ATOM     77  C   UNL A   1      31.206  24.448  26.439  1.00  0.00     0.278 C 
ATOM     78  H   UNL A   1      31.635  25.841  27.775  1.00  0.00     0.163 HD
ATOM     79  O   UNL A   1      30.987  23.658  27.365  1.00  0.00    -0.268 OA
BRANCH  77  80
ATOM     80  C   UNL A   1      31.311  23.958  24.985  1.00  0.00     0.280 C 
ATOM     81  N   UNL A   1      30.303  24.528  24.060  1.00  0.00    -0.335 N 
ATOM     82  C   UNL A   1      32.695  24.238  24.380  1.00  0.00     0.096 C 
ATOM     83  C   UNL A   1      30.989  24.984  22.856  1.00  0.00     0.262 C 
ATOM     84  H   UNL A   1      29.832  25.314  24.506  1.00  0.00     0.346 HD
ATOM     85  H   UNL A   1      29.610  23.820  23.820  1.00  0.00     0.346 HD
ATOM     86  C   UNL A   1      32.368  24.350  22.890  1.00  0.00     0.076 C 
BRANCH  82  87
ATOM     87  C   UNL A   1      33.838  23.270  24.647  1.00  0.00    -0.001 A 
ATOM     88  C   UNL A   1      35.068  23.791  25.098  1.00  0.00     0.023 A 
ATOM     89  C   UNL A   1      33.752  21.879  24.497  1.00  0.00     0.127 A 
ATOM     90  C   UNL A   1      36.152  22.948  25.366  1.00  0.00     0.018 A 
ATOM     91  C   UNL A   1      34.829  21.037  24.776  1.00  0.00     0.041 A 
ATOM     92  F   UNL A   1      32.633  21.292  24.063  1.00  0.00    -0.207 F 
ATOM     93  Br  UNL A   1      37.794  23.686  25.943  1.00  0.00    -0.051 Br
ATOM     94  C   UNL A   1      36.037  21.571  25.209  1.00  0.00     0.019 A 
ENDBRANCH  82  87
ENDBRANCH  77  80
ENDBRANCH  75  76
ENDBRANCH  74  75
ENDBRANCH   1  74
TORSDOF 14
ENDMDL
