MODEL 1
REMARK VINA RESULT:     -13.5      0.000      0.000
REMARK SMILES Cc1ccccc1O[C@@H](C)C(=O)Oc1ccccc1C(=O)NCCCNC(=O)c1ccc(-c2c3nc(c(-c4c(F)cc(S(=O)(=O)[O-])cc4F)c4ccc([nH]4)c(-c4c(F)cc(S(=O)(=O)[O-])cc4F)c4nc(c(-c5c(F)cc(S(=O)(=O)[O-])cc5F)c5ccc2[nH]5)C=C4)C=C3)cc1
REMARK SMILES IDX 23 1 22 2 20 3 21 4 19 6 14 7 15 8 16 9 18 10 17 11 13 12
REMARK SMILES IDX 11 13 12 14 9 15 10 16 8 17 7 18 1 19 2 20 3 21 4 22 6 23
REMARK SMILES IDX 5 24 24 25 25 26 26 27 27 28 28 30 29 31 30 32 94 33 31 34
REMARK SMILES IDX 93 35 32 36 33 37 34 38 87 39 35 40 92 41 86 42 88 43 36 44
REMARK SMILES IDX 91 45 85 46 84 47 37 49 71 50 50 51 70 52 51 53 54 54 69 55
REMARK SMILES IDX 89 56 52 57 53 58 68 60 90 61 55 62 38 63 39 64 48 65 40 66
REMARK SMILES IDX 41 67 47 68 49 69 42 70 43 71 44 72 45 73 46 74 72 75 73 76
REMARK SMILES IDX 82 77 74 78 75 79 81 80 83 81 76 82 77 83 78 84 79 85 80 86
REMARK SMILES IDX 56 87 57 88 66 89 58 90 59 91 65 92 67 93 60 94 61 95 62 96
REMARK SMILES IDX 63 97 64 98
REMARK H PARENT 22 5 26 29 88 48 54 59
REMARK Flexibility Score: inf
ROOT
ATOM      1  C   UNL A   1      36.911  21.296  25.445  1.00  0.00     0.118 C 
ENDROOT
BRANCH   1   2
ATOM      2  N   UNL A   1      35.765  21.536  26.319  1.00  0.00    -0.352 N 
ATOM      3  C   UNL A   1      34.427  21.218  26.292  1.00  0.00     0.255 C 
ATOM      4  O   UNL A   1      33.806  21.418  27.339  1.00  0.00    -0.269 OA
ATOM      5  H   UNL A   1      36.010  22.049  27.122  1.00  0.00     0.163 HD
BRANCH   3   6
ATOM      6  C   UNL A   1      33.695  20.659  25.111  1.00  0.00     0.082 A 
ATOM      7  C   UNL A   1      33.179  21.516  24.116  1.00  0.00     0.143 A 
ATOM      8  C   UNL A   1      32.400  21.039  23.050  1.00  0.00     0.048 A 
ATOM      9  C   UNL A   1      32.121  19.683  22.949  1.00  0.00     0.004 A 
ATOM     10  C   UNL A   1      33.383  19.299  24.984  1.00  0.00     0.018 A 
ATOM     11  C   UNL A   1      32.612  18.815  23.915  1.00  0.00     0.001 A 
BRANCH   7  12
ATOM     12  O   UNL A   1      33.188  22.924  24.210  1.00  0.00    -0.423 OA
BRANCH  12  13
ATOM     13  C   UNL A   1      34.221  23.681  23.686  1.00  0.00     0.352 C 
ATOM     14  O   UNL A   1      34.865  23.386  22.683  1.00  0.00    -0.247 OA
BRANCH  13  15
ATOM     15  C   UNL A   1      34.453  24.971  24.531  1.00  0.00     0.280 C 
ATOM     16  C   UNL A   1      33.999  24.782  25.983  1.00  0.00     0.066 C 
BRANCH  15  17
ATOM     17  O   UNL A   1      34.170  26.328  24.207  1.00  0.00    -0.479 OA
BRANCH  17  18
ATOM     18  C   UNL A   1      32.923  26.766  23.887  1.00  0.00     0.123 A 
ATOM     19  C   UNL A   1      32.943  26.067  21.402  1.00  0.00     0.048 C 
ATOM     20  C   UNL A   1      32.301  26.637  22.635  1.00  0.00    -0.009 A 
ATOM     21  C   UNL A   1      30.937  26.976  22.522  1.00  0.00     0.007 A 
ATOM     22  C   UNL A   1      30.194  27.392  23.625  1.00  0.00     0.001 A 
ATOM     23  C   UNL A   1      32.161  27.172  24.994  1.00  0.00     0.047 A 
ATOM     24  C   UNL A   1      30.806  27.483  24.867  1.00  0.00     0.004 A 
ENDBRANCH  17  18
ENDBRANCH  15  17
ENDBRANCH  13  15
ENDBRANCH  12  13
ENDBRANCH   7  12
ENDBRANCH   3   6
ENDBRANCH   1   2
BRANCH   1  25
ATOM     25  C   UNL A   1      37.628  22.567  25.000  1.00  0.00     0.042 C 
BRANCH  25  26
ATOM     26  C   UNL A   1      37.889  23.521  26.160  1.00  0.00     0.118 C 
BRANCH  26  27
ATOM     27  N   UNL A   1      39.039  23.148  26.978  1.00  0.00    -0.352 N 
ATOM     28  C   UNL A   1      39.938  23.998  27.602  1.00  0.00     0.251 C 
ATOM     29  H   UNL A   1      39.193  22.184  27.100  1.00  0.00     0.163 HD
ATOM     30  O   UNL A   1      41.004  23.617  28.050  1.00  0.00    -0.269 OA
BRANCH  28  31
ATOM     31  C   UNL A   1      39.475  25.382  27.828  1.00  0.00     0.039 A 
ATOM     32  C   UNL A   1      39.942  26.351  26.931  1.00  0.00     0.014 A 
ATOM     33  C   UNL A   1      38.896  25.734  29.044  1.00  0.00     0.014 A 
ATOM     34  C   UNL A   1      40.005  27.679  27.338  1.00  0.00     0.010 A 
ATOM     35  C   UNL A   1      39.026  27.041  29.472  1.00  0.00     0.010 A 
ATOM     36  C   UNL A   1      39.635  27.998  28.642  1.00  0.00    -0.014 A 
BRANCH  36  37
ATOM     37  C   UNL A   1      39.937  29.278  29.270  1.00  0.00     0.031 A 
ATOM     38  C   UNL A   1      38.983  30.401  29.151  1.00  0.00     0.074 A 
ATOM     39  C   UNL A   1      41.031  29.393  30.057  1.00  0.00     0.049 A 
ATOM     40  N   UNL A   1      39.236  31.611  29.520  1.00  0.00    -0.248 NA
ATOM     41  C   UNL A   1      37.673  30.264  28.513  1.00  0.00     0.031 C 
ATOM     42  C   UNL A   1      41.285  30.412  31.071  1.00  0.00     0.029 A 
ATOM     43  N   UNL A   1      42.250  28.718  29.930  1.00  0.00    -0.354 N 
ATOM     44  C   UNL A   1      38.054  32.310  29.480  1.00  0.00     0.074 A 
ATOM     45  C   UNL A   1      37.163  31.484  28.710  1.00  0.00     0.031 C 
ATOM     46  C   UNL A   1      42.605  30.479  31.302  1.00  0.00     0.029 A 
ATOM     47  C   UNL A   1      43.256  29.627  30.325  1.00  0.00     0.049 A 
ATOM     48  H   UNL A   1      42.381  27.791  29.626  1.00  0.00     0.167 HD
ATOM     49  C   UNL A   1      37.932  33.428  30.248  1.00  0.00     0.037 A 
ATOM     50  C   UNL A   1      44.207  30.057  29.444  1.00  0.00     0.037 A 
ATOM     51  C   UNL A   1      39.253  33.921  30.648  1.00  0.00     0.049 A 
ATOM     52  C   UNL A   1      44.189  31.548  29.186  1.00  0.00     0.074 A 
ATOM     53  C   UNL A   1      39.956  33.934  31.839  1.00  0.00     0.029 A 
ATOM     54  N   UNL A   1      40.165  34.272  29.652  1.00  0.00    -0.354 N 
ATOM     55  N   UNL A   1      43.209  32.338  29.531  1.00  0.00    -0.248 NA
ATOM     56  C   UNL A   1      45.265  32.269  28.509  1.00  0.00     0.031 C 
ATOM     57  C   UNL A   1      41.327  34.163  31.531  1.00  0.00     0.029 A 
ATOM     58  C   UNL A   1      41.446  34.348  30.162  1.00  0.00     0.049 A 
ATOM     59  H   UNL A   1      39.927  34.444  28.712  1.00  0.00     0.167 HD
ATOM     60  C   UNL A   1      43.470  33.616  29.111  1.00  0.00     0.074 A 
ATOM     61  C   UNL A   1      44.786  33.528  28.507  1.00  0.00     0.031 C 
ATOM     62  C   UNL A   1      42.574  34.636  29.283  1.00  0.00     0.037 A 
BRANCH  49  63
ATOM     63  C   UNL A   1      36.617  33.948  30.814  1.00  0.00     0.058 A 
ATOM     64  C   UNL A   1      35.535  34.248  29.954  1.00  0.00     0.135 A 
ATOM     65  C   UNL A   1      36.400  34.321  32.162  1.00  0.00     0.135 A 
ATOM     66  F   UNL A   1      35.598  33.971  28.642  1.00  0.00    -0.206 F 
ATOM     67  C   UNL A   1      34.359  34.877  30.390  1.00  0.00     0.059 A 
ATOM     68  C   UNL A   1      35.220  34.906  32.627  1.00  0.00     0.059 A 
ATOM     69  F   UNL A   1      37.343  34.211  33.102  1.00  0.00    -0.206 F 
ATOM     70  C   UNL A   1      34.213  35.207  31.731  1.00  0.00     0.060 A 
BRANCH  70  71
ATOM     71  S   UNL A   1      32.728  36.057  32.300  1.00  0.00     0.124 S 
ATOM     72  O   UNL A   1      31.820  34.941  32.550  1.00  0.00    -0.237 OA
ATOM     73  O   UNL A   1      33.205  36.769  33.481  1.00  0.00    -0.237 OA
ATOM     74  O   UNL A   1      32.369  36.909  31.169  1.00  0.00    -0.744 OA
ENDBRANCH  70  71
ENDBRANCH  49  63
BRANCH  50  75
ATOM     75  C   UNL A   1      44.633  28.996  28.489  1.00  0.00     0.058 A 
ATOM     76  C   UNL A   1      44.070  29.033  27.198  1.00  0.00     0.135 A 
ATOM     77  C   UNL A   1      45.852  28.321  28.644  1.00  0.00     0.135 A 
ATOM     78  F   UNL A   1      42.890  29.645  26.999  1.00  0.00    -0.206 F 
ATOM     79  C   UNL A   1      44.770  28.594  26.081  1.00  0.00     0.059 A 
ATOM     80  C   UNL A   1      46.569  27.862  27.535  1.00  0.00     0.059 A 
ATOM     81  F   UNL A   1      46.431  28.242  29.852  1.00  0.00    -0.206 F 
ATOM     82  C   UNL A   1      46.053  28.080  26.256  1.00  0.00     0.060 A 
BRANCH  82  83
ATOM     83  S   UNL A   1      47.092  27.893  24.786  1.00  0.00     0.124 S 
ATOM     84  O   UNL A   1      48.435  28.012  25.344  1.00  0.00    -0.237 OA
ATOM     85  O   UNL A   1      46.721  26.554  24.327  1.00  0.00    -0.237 OA
ATOM     86  O   UNL A   1      46.664  28.992  23.929  1.00  0.00    -0.744 OA
ENDBRANCH  82  83
ENDBRANCH  50  75
BRANCH  62  87
ATOM     87  C   UNL A   1      42.700  36.022  28.689  1.00  0.00     0.058 A 
ATOM     88  C   UNL A   1      42.253  36.375  27.403  1.00  0.00     0.135 A 
ATOM     89  C   UNL A   1      43.164  37.096  29.487  1.00  0.00     0.135 A 
ATOM     90  F   UNL A   1      41.688  35.471  26.589  1.00  0.00    -0.206 F 
ATOM     91  C   UNL A   1      42.325  37.683  26.916  1.00  0.00     0.059 A 
ATOM     92  C   UNL A   1      43.192  38.416  29.041  1.00  0.00     0.059 A 
ATOM     93  F   UNL A   1      43.600  36.895  30.740  1.00  0.00    -0.206 F 
ATOM     94  C   UNL A   1      42.796  38.699  27.743  1.00  0.00     0.060 A 
BRANCH  94  95
ATOM     95  S   UNL A   1      42.834  40.403  27.155  1.00  0.00     0.124 S 
ATOM     96  O   UNL A   1      43.713  40.292  25.995  1.00  0.00    -0.237 OA
ATOM     97  O   UNL A   1      41.432  40.680  26.857  1.00  0.00    -0.237 OA
ATOM     98  O   UNL A   1      43.378  41.132  28.295  1.00  0.00    -0.744 OA
ENDBRANCH  94  95
ENDBRANCH  62  87
ENDBRANCH  36  37
ENDBRANCH  28  31
ENDBRANCH  26  27
ENDBRANCH  25  26
ENDBRANCH   1  25
TORSDOF 18
ENDMDL
MODEL 2
REMARK VINA RESULT:     -13.4      4.161     10.323
REMARK SMILES Cc1ccccc1O[C@@H](C)C(=O)Oc1ccccc1C(=O)NCCCNC(=O)c1ccc(-c2c3nc(c(-c4c(F)cc(S(=O)(=O)[O-])cc4F)c4ccc([nH]4)c(-c4c(F)cc(S(=O)(=O)[O-])cc4F)c4nc(c(-c5c(F)cc(S(=O)(=O)[O-])cc5F)c5ccc2[nH]5)C=C4)C=C3)cc1
REMARK SMILES IDX 23 1 22 2 20 3 21 4 19 6 14 7 15 8 16 9 18 10 17 11 13 12
REMARK SMILES IDX 11 13 12 14 9 15 10 16 8 17 7 18 1 19 2 20 3 21 4 22 6 23
REMARK SMILES IDX 5 24 24 25 25 26 26 27 27 28 28 30 29 31 30 32 94 33 31 34
REMARK SMILES IDX 93 35 32 36 33 37 34 38 87 39 35 40 92 41 86 42 88 43 36 44
REMARK SMILES IDX 91 45 85 46 84 47 37 49 71 50 50 51 70 52 51 53 54 54 69 55
REMARK SMILES IDX 89 56 52 57 53 58 68 60 90 61 55 62 38 63 39 64 48 65 40 66
REMARK SMILES IDX 41 67 47 68 49 69 42 70 43 71 44 72 45 73 46 74 72 75 73 76
REMARK SMILES IDX 82 77 74 78 75 79 81 80 83 81 76 82 77 83 78 84 79 85 80 86
REMARK SMILES IDX 56 87 57 88 66 89 58 90 59 91 65 92 67 93 60 94 61 95 62 96
REMARK SMILES IDX 63 97 64 98
REMARK H PARENT 22 5 26 29 88 48 54 59
REMARK Flexibility Score: inf
ROOT
ATOM      1  C   UNL A   1      33.993  27.766  26.010  1.00  0.00     0.118 C 
ENDROOT
BRANCH   1   2
ATOM      2  N   UNL A   1      33.056  26.651  26.138  1.00  0.00    -0.352 N 
ATOM      3  C   UNL A   1      33.104  25.299  25.894  1.00  0.00     0.255 C 
ATOM      4  O   UNL A   1      32.159  24.639  26.336  1.00  0.00    -0.269 OA
ATOM      5  H   UNL A   1      32.181  26.938  26.483  1.00  0.00     0.163 HD
BRANCH   3   6
ATOM      6  C   UNL A   1      34.194  24.591  25.150  1.00  0.00     0.082 A 
ATOM      7  C   UNL A   1      34.078  24.350  23.764  1.00  0.00     0.143 A 
ATOM      8  C   UNL A   1      35.028  23.602  23.054  1.00  0.00     0.048 A 
ATOM      9  C   UNL A   1      36.132  23.078  23.715  1.00  0.00     0.004 A 
ATOM     10  C   UNL A   1      35.313  24.036  25.786  1.00  0.00     0.018 A 
ATOM     11  C   UNL A   1      36.272  23.295  25.079  1.00  0.00     0.001 A 
BRANCH   7  12
ATOM     12  O   UNL A   1      32.913  24.622  23.015  1.00  0.00    -0.423 OA
BRANCH  12  13
ATOM     13  C   UNL A   1      32.933  25.469  21.921  1.00  0.00     0.352 C 
ATOM     14  O   UNL A   1      33.193  25.121  20.773  1.00  0.00    -0.247 OA
BRANCH  13  15
ATOM     15  C   UNL A   1      32.566  26.927  22.336  1.00  0.00     0.280 C 
ATOM     16  C   UNL A   1      33.740  27.888  22.114  1.00  0.00     0.066 C 
BRANCH  15  17
ATOM     17  O   UNL A   1      31.894  27.394  23.501  1.00  0.00    -0.479 OA
BRANCH  17  18
ATOM     18  C   UNL A   1      30.545  27.552  23.561  1.00  0.00     0.123 A 
ATOM     19  C   UNL A   1      30.391  29.700  22.137  1.00  0.00     0.048 C 
ATOM     20  C   UNL A   1      29.806  28.563  22.926  1.00  0.00    -0.009 A 
ATOM     21  C   UNL A   1      28.398  28.476  22.935  1.00  0.00     0.007 A 
ATOM     22  C   UNL A   1      27.737  27.398  23.520  1.00  0.00     0.001 A 
ATOM     23  C   UNL A   1      29.868  26.464  24.134  1.00  0.00     0.047 A 
ATOM     24  C   UNL A   1      28.475  26.384  24.114  1.00  0.00     0.004 A 
ENDBRANCH  17  18
ENDBRANCH  15  17
ENDBRANCH  13  15
ENDBRANCH  12  13
ENDBRANCH   7  12
ENDBRANCH   3   6
ENDBRANCH   1   2
BRANCH   1  25
ATOM     25  C   UNL A   1      33.321  29.132  25.915  1.00  0.00     0.042 C 
BRANCH  25  26
ATOM     26  C   UNL A   1      32.939  29.687  27.283  1.00  0.00     0.118 C 
BRANCH  26  27
ATOM     27  N   UNL A   1      33.406  31.050  27.512  1.00  0.00    -0.352 N 
ATOM     28  C   UNL A   1      34.536  31.446  28.211  1.00  0.00     0.251 C 
ATOM     29  H   UNL A   1      32.856  31.771  27.128  1.00  0.00     0.163 HD
ATOM     30  O   UNL A   1      34.720  32.594  28.571  1.00  0.00    -0.269 OA
BRANCH  28  31
ATOM     31  C   UNL A   1      35.589  30.424  28.375  1.00  0.00     0.039 A 
ATOM     32  C   UNL A   1      35.767  29.913  29.667  1.00  0.00     0.014 A 
ATOM     33  C   UNL A   1      36.549  30.246  27.382  1.00  0.00     0.014 A 
ATOM     34  C   UNL A   1      37.002  29.383  30.024  1.00  0.00     0.010 A 
ATOM     35  C   UNL A   1      37.796  29.786  27.760  1.00  0.00     0.010 A 
ATOM     36  C   UNL A   1      38.037  29.413  29.093  1.00  0.00    -0.014 A 
BRANCH  36  37
ATOM     37  C   UNL A   1      39.432  29.171  29.439  1.00  0.00     0.031 A 
ATOM     38  C   UNL A   1      40.051  27.863  29.133  1.00  0.00     0.074 A 
ATOM     39  C   UNL A   1      40.184  30.184  29.928  1.00  0.00     0.049 A 
ATOM     40  N   UNL A   1      41.215  27.496  29.550  1.00  0.00    -0.248 NA
ATOM     41  C   UNL A   1      39.357  26.813  28.388  1.00  0.00     0.031 C 
ATOM     42  C   UNL A   1      41.641  30.272  29.948  1.00  0.00     0.029 A 
ATOM     43  N   UNL A   1      39.760  31.255  30.722  1.00  0.00    -0.354 N 
ATOM     44  C   UNL A   1      41.549  26.345  28.880  1.00  0.00     0.074 A 
ATOM     45  C   UNL A   1      40.315  25.885  28.300  1.00  0.00     0.031 C 
ATOM     46  C   UNL A   1      42.012  31.154  30.887  1.00  0.00     0.029 A 
ATOM     47  C   UNL A   1      40.817  31.536  31.615  1.00  0.00     0.049 A 
ATOM     48  H   UNL A   1      38.895  31.723  30.669  1.00  0.00     0.167 HD
ATOM     49  C   UNL A   1      42.865  26.015  28.765  1.00  0.00     0.037 A 
ATOM     50  C   UNL A   1      40.661  31.390  32.965  1.00  0.00     0.037 A 
ATOM     51  C   UNL A   1      43.662  26.736  29.762  1.00  0.00     0.049 A 
ATOM     52  C   UNL A   1      41.575  30.359  33.590  1.00  0.00     0.074 A 
ATOM     53  C   UNL A   1      44.560  27.786  29.701  1.00  0.00     0.029 A 
ATOM     54  N   UNL A   1      43.367  26.553  31.114  1.00  0.00    -0.354 N 
ATOM     55  N   UNL A   1      42.259  29.480  32.909  1.00  0.00    -0.248 NA
ATOM     56  C   UNL A   1      41.785  30.225  35.030  1.00  0.00     0.031 C 
ATOM     57  C   UNL A   1      44.696  28.319  31.015  1.00  0.00     0.029 A 
ATOM     58  C   UNL A   1      43.927  27.556  31.881  1.00  0.00     0.049 A 
ATOM     59  H   UNL A   1      42.831  25.808  31.472  1.00  0.00     0.167 HD
ATOM     60  C   UNL A   1      42.945  28.659  33.766  1.00  0.00     0.074 A 
ATOM     61  C   UNL A   1      42.643  29.189  35.082  1.00  0.00     0.031 C 
ATOM     62  C   UNL A   1      43.691  27.603  33.320  1.00  0.00     0.037 A 
BRANCH  49  63
ATOM     63  C   UNL A   1      43.458  25.210  27.616  1.00  0.00     0.058 A 
ATOM     64  C   UNL A   1      43.315  23.803  27.578  1.00  0.00     0.135 A 
ATOM     65  C   UNL A   1      44.305  25.729  26.608  1.00  0.00     0.135 A 
ATOM     66  F   UNL A   1      42.558  23.162  28.481  1.00  0.00    -0.206 F 
ATOM     67  C   UNL A   1      43.968  22.990  26.640  1.00  0.00     0.059 A 
ATOM     68  C   UNL A   1      44.928  24.944  25.636  1.00  0.00     0.059 A 
ATOM     69  F   UNL A   1      44.643  27.020  26.543  1.00  0.00    -0.206 F 
ATOM     70  C   UNL A   1      44.779  23.571  25.673  1.00  0.00     0.060 A 
BRANCH  70  71
ATOM     71  S   UNL A   1      45.661  22.538  24.488  1.00  0.00     0.124 S 
ATOM     72  O   UNL A   1      46.298  21.557  25.360  1.00  0.00    -0.237 OA
ATOM     73  O   UNL A   1      44.583  22.037  23.643  1.00  0.00    -0.237 OA
ATOM     74  O   UNL A   1      46.573  23.474  23.834  1.00  0.00    -0.744 OA
ENDBRANCH  70  71
ENDBRANCH  49  63
BRANCH  50  75
ATOM     75  C   UNL A   1      39.299  31.771  33.434  1.00  0.00     0.058 A 
ATOM     76  C   UNL A   1      39.029  33.148  33.564  1.00  0.00     0.135 A 
ATOM     77  C   UNL A   1      38.205  30.909  33.276  1.00  0.00     0.135 A 
ATOM     78  F   UNL A   1      40.040  34.015  33.744  1.00  0.00    -0.206 F 
ATOM     79  C   UNL A   1      37.758  33.667  33.354  1.00  0.00     0.059 A 
ATOM     80  C   UNL A   1      36.916  31.409  33.073  1.00  0.00     0.059 A 
ATOM     81  F   UNL A   1      38.399  29.587  33.159  1.00  0.00    -0.206 F 
ATOM     82  C   UNL A   1      36.723  32.792  33.033  1.00  0.00     0.060 A 
BRANCH  82  83
ATOM     83  S   UNL A   1      35.194  33.502  32.375  1.00  0.00     0.124 S 
ATOM     84  O   UNL A   1      34.394  32.311  32.110  1.00  0.00    -0.237 OA
ATOM     85  O   UNL A   1      34.741  34.324  33.498  1.00  0.00    -0.237 OA
ATOM     86  O   UNL A   1      35.643  34.237  31.199  1.00  0.00    -0.744 OA
ENDBRANCH  82  83
ENDBRANCH  50  75
BRANCH  62  87
ATOM     87  C   UNL A   1      44.322  26.542  34.197  1.00  0.00     0.058 A 
ATOM     88  C   UNL A   1      43.628  25.442  34.729  1.00  0.00     0.135 A 
ATOM     89  C   UNL A   1      45.721  26.539  34.410  1.00  0.00     0.135 A 
ATOM     90  F   UNL A   1      42.317  25.268  34.503  1.00  0.00    -0.206 F 
ATOM     91  C   UNL A   1      44.261  24.446  35.480  1.00  0.00     0.059 A 
ATOM     92  C   UNL A   1      46.381  25.528  35.106  1.00  0.00     0.059 A 
ATOM     93  F   UNL A   1      46.501  27.523  33.936  1.00  0.00    -0.206 F 
ATOM     94  C   UNL A   1      45.640  24.497  35.662  1.00  0.00     0.060 A 
BRANCH  94  95
ATOM     95  S   UNL A   1      46.483  23.187  36.570  1.00  0.00     0.124 S 
ATOM     96  O   UNL A   1      46.842  23.873  37.807  1.00  0.00    -0.237 OA
ATOM     97  O   UNL A   1      45.454  22.159  36.697  1.00  0.00    -0.237 OA
ATOM     98  O   UNL A   1      47.595  22.841  35.690  1.00  0.00    -0.744 OA
ENDBRANCH  94  95
ENDBRANCH  62  87
ENDBRANCH  36  37
ENDBRANCH  28  31
ENDBRANCH  26  27
ENDBRANCH  25  26
ENDBRANCH   1  25
TORSDOF 18
ENDMDL
MODEL 3
REMARK VINA RESULT:     -13.3      4.928     11.370
REMARK SMILES Cc1ccccc1O[C@@H](C)C(=O)Oc1ccccc1C(=O)NCCCNC(=O)c1ccc(-c2c3nc(c(-c4c(F)cc(S(=O)(=O)[O-])cc4F)c4ccc([nH]4)c(-c4c(F)cc(S(=O)(=O)[O-])cc4F)c4nc(c(-c5c(F)cc(S(=O)(=O)[O-])cc5F)c5ccc2[nH]5)C=C4)C=C3)cc1
REMARK SMILES IDX 23 1 22 2 20 3 21 4 19 6 14 7 15 8 16 9 18 10 17 11 13 12
REMARK SMILES IDX 11 13 12 14 9 15 10 16 8 17 7 18 1 19 2 20 3 21 4 22 6 23
REMARK SMILES IDX 5 24 24 25 25 26 26 27 27 28 28 30 29 31 30 32 94 33 31 34
REMARK SMILES IDX 93 35 32 36 33 37 34 38 87 39 35 40 92 41 86 42 88 43 36 44
REMARK SMILES IDX 91 45 85 46 84 47 37 49 71 50 50 51 70 52 51 53 54 54 69 55
REMARK SMILES IDX 89 56 52 57 53 58 68 60 90 61 55 62 38 63 39 64 48 65 40 66
REMARK SMILES IDX 41 67 47 68 49 69 42 70 43 71 44 72 45 73 46 74 72 75 73 76
REMARK SMILES IDX 82 77 74 78 75 79 81 80 83 81 76 82 77 83 78 84 79 85 80 86
REMARK SMILES IDX 56 87 57 88 66 89 58 90 59 91 65 92 67 93 60 94 61 95 62 96
REMARK SMILES IDX 63 97 64 98
REMARK H PARENT 22 5 26 29 88 48 54 59
REMARK Flexibility Score: inf
ROOT
ATOM      1  C   UNL A   1      34.079  27.785  26.131  1.00  0.00     0.118 C 
ENDROOT
BRANCH   1   2
ATOM      2  N   UNL A   1      32.831  27.494  26.833  1.00  0.00    -0.352 N 
ATOM      3  C   UNL A   1      31.503  27.420  26.482  1.00  0.00     0.255 C 
ATOM      4  O   UNL A   1      30.750  26.928  27.326  1.00  0.00    -0.269 OA
ATOM      5  H   UNL A   1      32.975  27.304  27.788  1.00  0.00     0.163 HD
BRANCH   3   6
ATOM      6  C   UNL A   1      30.926  27.881  25.179  1.00  0.00     0.082 A 
ATOM      7  C   UNL A   1      30.271  26.970  24.322  1.00  0.00     0.143 A 
ATOM      8  C   UNL A   1      29.809  27.342  23.050  1.00  0.00     0.048 A 
ATOM      9  C   UNL A   1      29.984  28.645  22.603  1.00  0.00     0.004 A 
ATOM     10  C   UNL A   1      31.096  29.183  24.690  1.00  0.00     0.018 A 
ATOM     11  C   UNL A   1      30.627  29.563  23.423  1.00  0.00     0.001 A 
BRANCH   7  12
ATOM     12  O   UNL A   1      30.225  25.577  24.544  1.00  0.00    -0.423 OA
BRANCH  12  13
ATOM     13  C   UNL A   1      30.815  24.682  23.671  1.00  0.00     0.352 C 
ATOM     14  O   UNL A   1      30.200  23.917  22.933  1.00  0.00    -0.247 OA
BRANCH  13  15
ATOM     15  C   UNL A   1      32.370  24.780  23.735  1.00  0.00     0.280 C 
ATOM     16  C   UNL A   1      33.039  23.711  22.863  1.00  0.00     0.066 C 
BRANCH  15  17
ATOM     17  O   UNL A   1      33.220  24.950  24.865  1.00  0.00    -0.479 OA
BRANCH  17  18
ATOM     18  C   UNL A   1      33.566  23.925  25.689  1.00  0.00     0.123 A 
ATOM     19  C   UNL A   1      36.090  23.889  25.144  1.00  0.00     0.048 C 
ATOM     20  C   UNL A   1      34.865  23.428  25.883  1.00  0.00    -0.009 A 
ATOM     21  C   UNL A   1      35.081  22.488  26.911  1.00  0.00     0.007 A 
ATOM     22  C   UNL A   1      34.049  22.078  27.754  1.00  0.00     0.001 A 
ATOM     23  C   UNL A   1      32.539  23.516  26.553  1.00  0.00     0.047 A 
ATOM     24  C   UNL A   1      32.775  22.600  27.580  1.00  0.00     0.004 A 
ENDBRANCH  17  18
ENDBRANCH  15  17
ENDBRANCH  13  15
ENDBRANCH  12  13
ENDBRANCH   7  12
ENDBRANCH   3   6
ENDBRANCH   1   2
BRANCH   1  25
ATOM     25  C   UNL A   1      34.479  29.257  26.161  1.00  0.00     0.042 C 
BRANCH  25  26
ATOM     26  C   UNL A   1      34.615  29.791  27.583  1.00  0.00     0.118 C 
BRANCH  26  27
ATOM     27  N   UNL A   1      35.430  30.998  27.679  1.00  0.00    -0.352 N 
ATOM     28  C   UNL A   1      36.727  31.102  28.158  1.00  0.00     0.251 C 
ATOM     29  H   UNL A   1      35.012  31.833  27.368  1.00  0.00     0.163 HD
ATOM     30  O   UNL A   1      37.243  32.168  28.440  1.00  0.00    -0.269 OA
BRANCH  28  31
ATOM     31  C   UNL A   1      37.514  29.852  28.177  1.00  0.00     0.039 A 
ATOM     32  C   UNL A   1      37.521  29.138  29.382  1.00  0.00     0.014 A 
ATOM     33  C   UNL A   1      38.447  29.601  27.175  1.00  0.00     0.014 A 
ATOM     34  C   UNL A   1      38.589  28.294  29.665  1.00  0.00     0.010 A 
ATOM     35  C   UNL A   1      39.542  28.818  27.489  1.00  0.00     0.010 A 
ATOM     36  C   UNL A   1      39.639  28.216  28.755  1.00  0.00    -0.014 A 
BRANCH  36  37
ATOM     37  C   UNL A   1      40.928  27.613  29.069  1.00  0.00     0.031 A 
ATOM     38  C   UNL A   1      41.173  26.188  28.758  1.00  0.00     0.074 A 
ATOM     39  C   UNL A   1      41.933  28.392  29.534  1.00  0.00     0.049 A 
ATOM     40  N   UNL A   1      42.208  25.527  29.151  1.00  0.00    -0.248 NA
ATOM     41  C   UNL A   1      40.207  25.358  28.038  1.00  0.00     0.031 C 
ATOM     42  C   UNL A   1      43.361  28.091  29.519  1.00  0.00     0.029 A 
ATOM     43  N   UNL A   1      41.827  29.538  30.330  1.00  0.00    -0.354 N 
ATOM     44  C   UNL A   1      42.209  24.327  28.482  1.00  0.00     0.074 A 
ATOM     45  C   UNL A   1      40.884  24.210  27.935  1.00  0.00     0.031 C 
ATOM     46  C   UNL A   1      43.976  28.845  30.442  1.00  0.00     0.029 A 
ATOM     47  C   UNL A   1      42.942  29.530  31.195  1.00  0.00     0.049 A 
ATOM     48  H   UNL A   1      41.116  30.217  30.293  1.00  0.00     0.167 HD
ATOM     49  C   UNL A   1      43.388  23.662  28.339  1.00  0.00     0.037 A 
ATOM     50  C   UNL A   1      42.787  29.432  32.550  1.00  0.00     0.037 A 
ATOM     51  C   UNL A   1      44.371  24.147  29.312  1.00  0.00     0.049 A 
ATOM     52  C   UNL A   1      43.411  28.196  33.161  1.00  0.00     0.074 A 
ATOM     53  C   UNL A   1      45.513  24.922  29.222  1.00  0.00     0.029 A 
ATOM     54  N   UNL A   1      44.071  24.049  30.671  1.00  0.00    -0.354 N 
ATOM     55  N   UNL A   1      43.821  27.167  32.470  1.00  0.00    -0.248 NA
ATOM     56  C   UNL A   1      43.613  28.013  34.596  1.00  0.00     0.031 C 
ATOM     57  C   UNL A   1      45.817  25.401  30.528  1.00  0.00     0.029 A 
ATOM     58  C   UNL A   1      44.895  24.869  31.417  1.00  0.00     0.049 A 
ATOM     59  H   UNL A   1      43.367  23.473  31.048  1.00  0.00     0.167 HD
ATOM     60  C   UNL A   1      44.286  26.194  33.316  1.00  0.00     0.074 A 
ATOM     61  C   UNL A   1      44.167  26.787  34.636  1.00  0.00     0.031 C 
ATOM     62  C   UNL A   1      44.715  24.978  32.861  1.00  0.00     0.037 A 
BRANCH  49  63
ATOM     63  C   UNL A   1      43.718  22.727  27.182  1.00  0.00     0.058 A 
ATOM     64  C   UNL A   1      43.065  21.479  27.060  1.00  0.00     0.135 A 
ATOM     65  C   UNL A   1      44.767  22.920  26.252  1.00  0.00     0.135 A 
ATOM     66  F   UNL A   1      42.061  21.142  27.884  1.00  0.00    -0.206 F 
ATOM     67  C   UNL A   1      43.433  20.508  26.117  1.00  0.00     0.059 A 
ATOM     68  C   UNL A   1      45.121  21.988  25.274  1.00  0.00     0.059 A 
ATOM     69  F   UNL A   1      45.565  23.992  26.276  1.00  0.00    -0.206 F 
ATOM     70  C   UNL A   1      44.469  20.771  25.228  1.00  0.00     0.060 A 
BRANCH  70  71
ATOM     71  S   UNL A   1      44.985  19.518  24.039  1.00  0.00     0.124 S 
ATOM     72  O   UNL A   1      46.437  19.541  24.189  1.00  0.00    -0.237 OA
ATOM     73  O   UNL A   1      44.312  18.321  24.531  1.00  0.00    -0.237 OA
ATOM     74  O   UNL A   1      44.483  20.030  22.767  1.00  0.00    -0.744 OA
ENDBRANCH  70  71
ENDBRANCH  49  63
BRANCH  50  75
ATOM     75  C   UNL A   1      41.586  30.160  33.048  1.00  0.00     0.058 A 
ATOM     76  C   UNL A   1      41.695  31.558  33.181  1.00  0.00     0.135 A 
ATOM     77  C   UNL A   1      40.299  29.620  32.916  1.00  0.00     0.135 A 
ATOM     78  F   UNL A   1      42.904  32.124  33.336  1.00  0.00    -0.206 F 
ATOM     79  C   UNL A   1      40.603  32.398  32.997  1.00  0.00     0.059 A 
ATOM     80  C   UNL A   1      39.185  30.446  32.740  1.00  0.00     0.059 A 
ATOM     81  F   UNL A   1      40.131  28.294  32.798  1.00  0.00    -0.206 F 
ATOM     82  C   UNL A   1      39.366  31.830  32.701  1.00  0.00     0.060 A 
BRANCH  82  83
ATOM     83  S   UNL A   1      38.067  32.925  32.075  1.00  0.00     0.124 S 
ATOM     84  O   UNL A   1      37.765  33.740  33.247  1.00  0.00    -0.237 OA
ATOM     85  O   UNL A   1      38.760  33.619  30.990  1.00  0.00    -0.237 OA
ATOM     86  O   UNL A   1      37.019  32.000  31.662  1.00  0.00    -0.744 OA
ENDBRANCH  82  83
ENDBRANCH  50  75
BRANCH  62  87
ATOM     87  C   UNL A   1      45.065  23.789  33.731  1.00  0.00     0.058 A 
ATOM     88  C   UNL A   1      44.173  22.746  34.038  1.00  0.00     0.135 A 
ATOM     89  C   UNL A   1      46.396  23.601  34.172  1.00  0.00     0.135 A 
ATOM     90  F   UNL A   1      42.912  22.749  33.582  1.00  0.00    -0.206 F 
ATOM     91  C   UNL A   1      44.555  21.630  34.790  1.00  0.00     0.059 A 
ATOM     92  C   UNL A   1      46.811  22.471  34.874  1.00  0.00     0.059 A 
ATOM     93  F   UNL A   1      47.348  24.514  33.926  1.00  0.00    -0.206 F 
ATOM     94  C   UNL A   1      45.877  21.500  35.203  1.00  0.00     0.060 A 
BRANCH  94  95
ATOM     95  S   UNL A   1      46.402  20.036  36.115  1.00  0.00     0.124 S 
ATOM     96  O   UNL A   1      45.795  20.272  37.421  1.00  0.00    -0.237 OA
ATOM     97  O   UNL A   1      45.824  18.941  35.342  1.00  0.00    -0.237 OA
ATOM     98  O   UNL A   1      47.858  20.124  36.068  1.00  0.00    -0.744 OA
ENDBRANCH  94  95
ENDBRANCH  62  87
ENDBRANCH  36  37
ENDBRANCH  28  31
ENDBRANCH  26  27
ENDBRANCH  25  26
ENDBRANCH   1  25
TORSDOF 18
ENDMDL
