MODEL 1
REMARK VINA RESULT:     -13.7      0.000      0.000
REMARK SMILES Cc1nn(C(C)C)c(C)c1S(=O)(=O)Nc1cccc(C(=O)NCCCNC(=O)c2ccc(-c3c4nc(c(-c5c(F)cc(S(=O)(=O)[O-])cc5F)c5ccc([nH]5)c(-c5c(F)cc(S(=O)(=O)[O-])cc5F)c5nc(c(-c6c(F)cc(S(=O)(=O)[O-])cc6F)c6ccc3[nH]6)C=C5)C=C4)cc2)c1C
REMARK SMILES IDX 23 1 22 2 20 3 21 4 19 6 15 7 16 8 95 9 17 10 96 11 18 12
REMARK SMILES IDX 14 13 11 15 12 16 13 17 10 18 1 19 2 20 3 21 4 22 8 23 9 24
REMARK SMILES IDX 5 25 6 26 7 27 24 28 25 29 26 30 27 31 28 33 29 34 30 35
REMARK SMILES IDX 94 36 31 37 93 38 32 39 33 40 34 41 87 42 35 43 92 44 86 45
REMARK SMILES IDX 88 46 36 47 91 48 85 49 84 50 37 52 71 53 50 54 70 55 51 56
REMARK SMILES IDX 54 57 69 58 89 59 52 60 53 61 68 63 90 64 55 65 38 66 39 67
REMARK SMILES IDX 48 68 40 69 41 70 47 71 49 72 42 73 43 74 44 75 45 76 46 77
REMARK SMILES IDX 72 78 73 79 82 80 74 81 75 82 81 83 83 84 76 85 77 86 78 87
REMARK SMILES IDX 79 88 80 89 56 90 57 91 66 92 58 93 59 94 65 95 67 96 60 97
REMARK SMILES IDX 61 98 62 99 63 100 64 101
REMARK H PARENT 22 5 14 14 26 32 88 51 54 62
REMARK Flexibility Score: inf
ROOT
ATOM      1  C   UNL A   1      32.344  30.486  26.009  1.00  0.00     0.118 C 
ENDROOT
BRANCH   1   2
ATOM      2  N   UNL A   1      33.103  29.970  24.871  1.00  0.00    -0.352 N 
ATOM      3  C   UNL A   1      32.873  28.950  23.977  1.00  0.00     0.251 C 
ATOM      4  O   UNL A   1      33.667  28.789  23.053  1.00  0.00    -0.269 OA
ATOM      5  H   UNL A   1      33.950  30.448  24.715  1.00  0.00     0.163 HD
BRANCH   3   6
ATOM      6  C   UNL A   1      31.706  28.036  24.108  1.00  0.00     0.044 A 
ATOM      7  C   UNL A   1      30.550  26.106  25.040  1.00  0.00     0.053 A 
ATOM      8  C   UNL A   1      29.451  26.366  24.219  1.00  0.00     0.027 A 
ATOM      9  C   UNL A   1      31.649  27.004  25.075  1.00  0.00    -0.014 A 
ATOM     10  C   UNL A   1      29.473  27.448  23.347  1.00  0.00     0.003 A 
ATOM     11  C   UNL A   1      32.747  26.773  26.089  1.00  0.00     0.047 C 
ATOM     12  C   UNL A   1      30.597  28.268  23.287  1.00  0.00     0.014 A 
BRANCH   7  13
ATOM     13  N   UNL A   1      30.616  24.960  25.892  1.00  0.00    -0.279 N 
ATOM     14  H   UNL A   1      30.297  25.066  26.817  1.00  0.00     0.180 HD
BRANCH  13  15
ATOM     15  S   UNL A   1      31.188  23.458  25.445  1.00  0.00     0.265 S 
ATOM     16  O   UNL A   1      30.879  23.229  24.048  1.00  0.00    -0.201 OA
ATOM     17  O   UNL A   1      30.676  22.545  26.449  1.00  0.00    -0.201 OA
BRANCH  15  18
ATOM     18  C   UNL A   1      32.896  23.227  25.531  1.00  0.00     0.131 A 
ATOM     19  C   UNL A   1      33.358  21.819  27.732  1.00  0.00     0.070 C 
ATOM     20  C   UNL A   1      33.691  22.580  26.507  1.00  0.00     0.080 A 
ATOM     21  N   UNL A   1      34.995  22.707  26.224  1.00  0.00    -0.176 NA
ATOM     22  N   UNL A   1      35.040  23.361  25.055  1.00  0.00    -0.266 N 
ATOM     23  C   UNL A   1      33.798  23.685  24.573  1.00  0.00     0.056 A 
ATOM     24  C   UNL A   1      33.582  24.377  23.277  1.00  0.00     0.068 C 
BRANCH  22  25
ATOM     25  C   UNL A   1      36.344  23.662  24.470  1.00  0.00     0.101 C 
ATOM     26  C   UNL A   1      37.416  23.754  25.556  1.00  0.00     0.033 C 
ATOM     27  C   UNL A   1      36.733  22.645  23.393  1.00  0.00     0.033 C 
ENDBRANCH  22  25
ENDBRANCH  15  18
ENDBRANCH  13  15
ENDBRANCH   7  13
ENDBRANCH   3   6
ENDBRANCH   1   2
BRANCH   1  28
ATOM     28  C   UNL A   1      32.987  30.184  27.367  1.00  0.00     0.042 C 
BRANCH  28  29
ATOM     29  C   UNL A   1      34.424  29.687  27.274  1.00  0.00     0.118 C 
BRANCH  29  30
ATOM     30  N   UNL A   1      35.417  30.741  27.103  1.00  0.00    -0.352 N 
ATOM     31  C   UNL A   1      36.408  30.922  28.069  1.00  0.00     0.251 C 
ATOM     32  H   UNL A   1      35.388  31.322  26.308  1.00  0.00     0.163 HD
ATOM     33  O   UNL A   1      36.496  31.877  28.805  1.00  0.00    -0.269 OA
BRANCH  31  34
ATOM     34  C   UNL A   1      37.302  29.748  28.208  1.00  0.00     0.039 A 
ATOM     35  C   UNL A   1      37.286  28.986  29.376  1.00  0.00     0.014 A 
ATOM     36  C   UNL A   1      38.334  29.629  27.277  1.00  0.00     0.014 A 
ATOM     37  C   UNL A   1      38.393  28.192  29.684  1.00  0.00     0.010 A 
ATOM     38  C   UNL A   1      39.459  28.913  27.626  1.00  0.00     0.010 A 
ATOM     39  C   UNL A   1      39.508  28.223  28.848  1.00  0.00    -0.014 A 
BRANCH  39  40
ATOM     40  C   UNL A   1      40.802  27.635  29.177  1.00  0.00     0.031 A 
ATOM     41  C   UNL A   1      41.081  26.217  28.843  1.00  0.00     0.074 A 
ATOM     42  C   UNL A   1      41.803  28.420  29.635  1.00  0.00     0.049 A 
ATOM     43  N   UNL A   1      42.136  25.575  29.223  1.00  0.00    -0.248 NA
ATOM     44  C   UNL A   1      40.136  25.370  28.116  1.00  0.00     0.031 C 
ATOM     45  C   UNL A   1      43.236  28.146  29.571  1.00  0.00     0.029 A 
ATOM     46  N   UNL A   1      41.701  29.539  30.466  1.00  0.00    -0.354 N 
ATOM     47  C   UNL A   1      42.167  24.387  28.535  1.00  0.00     0.074 A 
ATOM     48  C   UNL A   1      40.842  24.241  27.994  1.00  0.00     0.031 C 
ATOM     49  C   UNL A   1      43.866  28.888  30.491  1.00  0.00     0.029 A 
ATOM     50  C   UNL A   1      42.845  29.536  31.293  1.00  0.00     0.049 A 
ATOM     51  H   UNL A   1      40.973  30.202  30.474  1.00  0.00     0.167 HD
ATOM     52  C   UNL A   1      43.362  23.749  28.377  1.00  0.00     0.037 A 
ATOM     53  C   UNL A   1      42.745  29.422  32.652  1.00  0.00     0.037 A 
ATOM     54  C   UNL A   1      44.350  24.253  29.335  1.00  0.00     0.049 A 
ATOM     55  C   UNL A   1      43.438  28.210  33.233  1.00  0.00     0.074 A 
ATOM     56  C   UNL A   1      45.489  25.028  29.225  1.00  0.00     0.029 A 
ATOM     57  N   UNL A   1      44.080  24.144  30.698  1.00  0.00    -0.354 N 
ATOM     58  N   UNL A   1      43.872  27.203  32.525  1.00  0.00    -0.248 NA
ATOM     59  C   UNL A   1      43.677  28.023  34.663  1.00  0.00     0.031 C 
ATOM     60  C   UNL A   1      45.838  25.477  30.530  1.00  0.00     0.029 A 
ATOM     61  C   UNL A   1      44.939  24.935  31.434  1.00  0.00     0.049 A 
ATOM     62  H   UNL A   1      43.371  23.580  31.084  1.00  0.00     0.167 HD
ATOM     63  C   UNL A   1      44.371  26.233  33.357  1.00  0.00     0.074 A 
ATOM     64  C   UNL A   1      44.268  26.815  34.682  1.00  0.00     0.031 C 
ATOM     65  C   UNL A   1      44.800  25.025  32.884  1.00  0.00     0.037 A 
BRANCH  52  66
ATOM     66  C   UNL A   1      43.703  22.814  27.224  1.00  0.00     0.058 A 
ATOM     67  C   UNL A   1      43.003  21.594  27.061  1.00  0.00     0.135 A 
ATOM     68  C   UNL A   1      44.794  22.973  26.337  1.00  0.00     0.135 A 
ATOM     69  F   UNL A   1      41.953  21.290  27.839  1.00  0.00    -0.206 F 
ATOM     70  C   UNL A   1      43.370  20.618  26.124  1.00  0.00     0.059 A 
ATOM     71  C   UNL A   1      45.145  22.038  25.362  1.00  0.00     0.059 A 
ATOM     72  F   UNL A   1      45.632  24.011  26.405  1.00  0.00    -0.206 F 
ATOM     73  C   UNL A   1      44.448  20.847  25.279  1.00  0.00     0.060 A 
BRANCH  73  74
ATOM     74  S   UNL A   1      44.959  19.585  24.098  1.00  0.00     0.124 S 
ATOM     75  O   UNL A   1      44.465  20.134  22.839  1.00  0.00    -0.237 OA
ATOM     76  O   UNL A   1      46.408  19.568  24.261  1.00  0.00    -0.237 OA
ATOM     77  O   UNL A   1      44.270  18.384  24.566  1.00  0.00    -0.744 OA
ENDBRANCH  73  74
ENDBRANCH  52  66
BRANCH  53  78
ATOM     78  C   UNL A   1      41.525  30.082  33.195  1.00  0.00     0.058 A 
ATOM     79  C   UNL A   1      41.593  31.472  33.404  1.00  0.00     0.135 A 
ATOM     80  C   UNL A   1      40.258  29.514  33.006  1.00  0.00     0.135 A 
ATOM     81  F   UNL A   1      42.781  32.059  33.630  1.00  0.00    -0.206 F 
ATOM     82  C   UNL A   1      40.486  32.292  33.213  1.00  0.00     0.059 A 
ATOM     83  C   UNL A   1      39.129  30.318  32.828  1.00  0.00     0.059 A 
ATOM     84  F   UNL A   1      40.129  28.191  32.823  1.00  0.00    -0.206 F 
ATOM     85  C   UNL A   1      39.281  31.706  32.832  1.00  0.00     0.060 A 
BRANCH  85  86
ATOM     86  S   UNL A   1      37.983  32.784  32.172  1.00  0.00     0.124 S 
ATOM     87  O   UNL A   1      36.820  31.907  32.175  1.00  0.00    -0.237 OA
ATOM     88  O   UNL A   1      37.956  33.872  33.153  1.00  0.00    -0.237 OA
ATOM     89  O   UNL A   1      38.493  33.152  30.856  1.00  0.00    -0.744 OA
ENDBRANCH  85  86
ENDBRANCH  53  78
BRANCH  65  90
ATOM     90  C   UNL A   1      45.182  23.832  33.735  1.00  0.00     0.058 A 
ATOM     91  C   UNL A   1      44.282  22.833  34.147  1.00  0.00     0.135 A 
ATOM     92  C   UNL A   1      46.541  23.591  34.055  1.00  0.00     0.135 A 
ATOM     93  F   UNL A   1      42.986  22.876  33.805  1.00  0.00    -0.206 F 
ATOM     94  C   UNL A   1      44.684  21.718  34.889  1.00  0.00     0.059 A 
ATOM     95  C   UNL A   1      46.970  22.459  34.746  1.00  0.00     0.059 A 
ATOM     96  F   UNL A   1      47.503  24.453  33.696  1.00  0.00    -0.206 F 
ATOM     97  C   UNL A   1      46.030  21.538  35.186  1.00  0.00     0.060 A 
BRANCH  97  98
ATOM     98  S   UNL A   1      46.575  20.076  36.090  1.00  0.00     0.124 S 
ATOM     99  O   UNL A   1      46.507  19.050  35.054  1.00  0.00    -0.237 OA
ATOM    100  O   UNL A   1      47.921  20.439  36.525  1.00  0.00    -0.237 OA
ATOM    101  O   UNL A   1      45.589  19.965  37.159  1.00  0.00    -0.744 OA
ENDBRANCH  97  98
ENDBRANCH  65  90
ENDBRANCH  39  40
ENDBRANCH  31  34
ENDBRANCH  29  30
ENDBRANCH  28  29
ENDBRANCH   1  28
TORSDOF 17
ENDMDL
MODEL 2
REMARK VINA RESULT:     -13.7      4.474     10.641
REMARK SMILES Cc1nn(C(C)C)c(C)c1S(=O)(=O)Nc1cccc(C(=O)NCCCNC(=O)c2ccc(-c3c4nc(c(-c5c(F)cc(S(=O)(=O)[O-])cc5F)c5ccc([nH]5)c(-c5c(F)cc(S(=O)(=O)[O-])cc5F)c5nc(c(-c6c(F)cc(S(=O)(=O)[O-])cc6F)c6ccc3[nH]6)C=C5)C=C4)cc2)c1C
REMARK SMILES IDX 23 1 22 2 20 3 21 4 19 6 15 7 16 8 95 9 17 10 96 11 18 12
REMARK SMILES IDX 14 13 11 15 12 16 13 17 10 18 1 19 2 20 3 21 4 22 8 23 9 24
REMARK SMILES IDX 5 25 6 26 7 27 24 28 25 29 26 30 27 31 28 33 29 34 30 35
REMARK SMILES IDX 94 36 31 37 93 38 32 39 33 40 34 41 87 42 35 43 92 44 86 45
REMARK SMILES IDX 88 46 36 47 91 48 85 49 84 50 37 52 71 53 50 54 70 55 51 56
REMARK SMILES IDX 54 57 69 58 89 59 52 60 53 61 68 63 90 64 55 65 38 66 39 67
REMARK SMILES IDX 48 68 40 69 41 70 47 71 49 72 42 73 43 74 44 75 45 76 46 77
REMARK SMILES IDX 72 78 73 79 82 80 74 81 75 82 81 83 83 84 76 85 77 86 78 87
REMARK SMILES IDX 79 88 80 89 56 90 57 91 66 92 58 93 59 94 65 95 67 96 60 97
REMARK SMILES IDX 61 98 62 99 63 100 64 101
REMARK H PARENT 22 5 14 14 26 32 88 51 54 62
REMARK Flexibility Score: inf
ROOT
ATOM      1  C   UNL A   1      35.315  21.589  25.860  1.00  0.00     0.118 C 
ENDROOT
BRANCH   1   2
ATOM      2  N   UNL A   1      34.330  20.516  25.737  1.00  0.00    -0.352 N 
ATOM      3  C   UNL A   1      32.993  20.504  25.414  1.00  0.00     0.251 C 
ATOM      4  O   UNL A   1      32.424  19.420  25.309  1.00  0.00    -0.269 OA
ATOM      5  H   UNL A   1      34.698  19.622  25.923  1.00  0.00     0.163 HD
BRANCH   3   6
ATOM      6  C   UNL A   1      32.222  21.760  25.206  1.00  0.00     0.044 A 
ATOM      7  C   UNL A   1      31.456  23.644  23.866  1.00  0.00     0.053 A 
ATOM      8  C   UNL A   1      30.759  24.146  24.967  1.00  0.00     0.027 A 
ATOM      9  C   UNL A   1      32.107  22.384  23.940  1.00  0.00    -0.014 A 
ATOM     10  C   UNL A   1      30.791  23.467  26.180  1.00  0.00     0.003 A 
ATOM     11  C   UNL A   1      32.716  21.803  22.684  1.00  0.00     0.047 C 
ATOM     12  C   UNL A   1      31.525  22.290  26.297  1.00  0.00     0.014 A 
BRANCH   7  13
ATOM     13  N   UNL A   1      31.529  24.344  22.622  1.00  0.00    -0.279 N 
ATOM     14  H   UNL A   1      31.064  23.944  21.851  1.00  0.00     0.180 HD
BRANCH  13  15
ATOM     15  S   UNL A   1      32.337  25.782  22.370  1.00  0.00     0.265 S 
ATOM     16  O   UNL A   1      31.426  26.739  21.776  1.00  0.00    -0.201 OA
ATOM     17  O   UNL A   1      33.549  25.415  21.664  1.00  0.00    -0.201 OA
BRANCH  15  18
ATOM     18  C   UNL A   1      32.924  26.592  23.776  1.00  0.00     0.131 A 
ATOM     19  C   UNL A   1      34.664  24.949  24.922  1.00  0.00     0.070 C 
ATOM     20  C   UNL A   1      33.840  26.169  24.769  1.00  0.00     0.080 A 
ATOM     21  N   UNL A   1      33.950  27.085  25.741  1.00  0.00    -0.176 NA
ATOM     22  N   UNL A   1      33.177  28.107  25.351  1.00  0.00    -0.266 N 
ATOM     23  C   UNL A   1      32.545  27.877  24.157  1.00  0.00     0.056 A 
ATOM     24  C   UNL A   1      31.665  28.875  23.495  1.00  0.00     0.068 C 
BRANCH  22  25
ATOM     25  C   UNL A   1      33.081  29.282  26.214  1.00  0.00     0.101 C 
ATOM     26  C   UNL A   1      31.871  29.174  27.142  1.00  0.00     0.033 C 
ATOM     27  C   UNL A   1      34.370  29.511  27.008  1.00  0.00     0.033 C 
ENDBRANCH  22  25
ENDBRANCH  15  18
ENDBRANCH  13  15
ENDBRANCH   7  13
ENDBRANCH   3   6
ENDBRANCH   1   2
BRANCH   1  28
ATOM     28  C   UNL A   1      36.678  21.248  25.249  1.00  0.00     0.042 C 
BRANCH  28  29
ATOM     29  C   UNL A   1      37.740  22.318  25.467  1.00  0.00     0.118 C 
BRANCH  29  30
ATOM     30  N   UNL A   1      38.764  21.962  26.442  1.00  0.00    -0.352 N 
ATOM     31  C   UNL A   1      39.985  22.640  26.444  1.00  0.00     0.251 C 
ATOM     32  H   UNL A   1      38.596  21.245  27.097  1.00  0.00     0.163 HD
ATOM     33  O   UNL A   1      41.050  22.157  26.140  1.00  0.00    -0.269 OA
BRANCH  31  34
ATOM     34  C   UNL A   1      39.842  24.086  26.739  1.00  0.00     0.039 A 
ATOM     35  C   UNL A   1      40.551  25.029  25.995  1.00  0.00     0.014 A 
ATOM     36  C   UNL A   1      39.225  24.425  27.943  1.00  0.00     0.014 A 
ATOM     37  C   UNL A   1      40.765  26.298  26.536  1.00  0.00     0.010 A 
ATOM     38  C   UNL A   1      39.511  25.649  28.510  1.00  0.00     0.010 A 
ATOM     39  C   UNL A   1      40.314  26.575  27.826  1.00  0.00    -0.014 A 
BRANCH  39  40
ATOM     40  C   UNL A   1      40.676  27.765  28.589  1.00  0.00     0.031 A 
ATOM     41  C   UNL A   1      39.742  28.916  28.661  1.00  0.00     0.074 A 
ATOM     42  C   UNL A   1      41.784  27.758  29.363  1.00  0.00     0.049 A 
ATOM     43  N   UNL A   1      40.035  30.057  29.188  1.00  0.00    -0.248 NA
ATOM     44  C   UNL A   1      38.410  28.898  28.056  1.00  0.00     0.031 C 
ATOM     45  C   UNL A   1      42.057  28.613  30.515  1.00  0.00     0.029 A 
ATOM     46  N   UNL A   1      43.000  27.115  29.112  1.00  0.00    -0.354 N 
ATOM     47  C   UNL A   1      38.870  30.777  29.290  1.00  0.00     0.074 A 
ATOM     48  C   UNL A   1      37.936  30.088  28.440  1.00  0.00     0.031 C 
ATOM     49  C   UNL A   1      43.379  28.643  30.736  1.00  0.00     0.029 A 
ATOM     50  C   UNL A   1      44.014  27.948  29.631  1.00  0.00     0.049 A 
ATOM     51  H   UNL A   1      43.125  26.249  28.661  1.00  0.00     0.167 HD
ATOM     52  C   UNL A   1      38.796  31.781  30.209  1.00  0.00     0.037 A 
ATOM     53  C   UNL A   1      44.971  28.497  28.824  1.00  0.00     0.037 A 
ATOM     54  C   UNL A   1      40.135  32.181  30.651  1.00  0.00     0.049 A 
ATOM     55  C   UNL A   1      44.993  30.010  28.816  1.00  0.00     0.074 A 
ATOM     56  C   UNL A   1      40.844  32.036  31.829  1.00  0.00     0.029 A 
ATOM     57  N   UNL A   1      41.042  32.650  29.702  1.00  0.00    -0.354 N 
ATOM     58  N   UNL A   1      44.043  30.760  29.303  1.00  0.00    -0.248 NA
ATOM     59  C   UNL A   1      46.078  30.800  28.235  1.00  0.00     0.031 C 
ATOM     60  C   UNL A   1      42.212  32.316  31.551  1.00  0.00     0.029 A 
ATOM     61  C   UNL A   1      42.322  32.678  30.218  1.00  0.00     0.049 A 
ATOM     62  H   UNL A   1      40.803  32.925  28.787  1.00  0.00     0.167 HD
ATOM     63  C   UNL A   1      44.326  32.080  29.062  1.00  0.00     0.074 A 
ATOM     64  C   UNL A   1      45.633  32.053  28.433  1.00  0.00     0.031 C 
ATOM     65  C   UNL A   1      43.448  33.079  29.379  1.00  0.00     0.037 A 
BRANCH  52  66
ATOM     66  C   UNL A   1      37.510  32.266  30.866  1.00  0.00     0.058 A 
ATOM     67  C   UNL A   1      36.669  33.188  30.197  1.00  0.00     0.135 A 
ATOM     68  C   UNL A   1      37.117  31.991  32.197  1.00  0.00     0.135 A 
ATOM     69  F   UNL A   1      36.920  33.563  28.934  1.00  0.00    -0.206 F 
ATOM     70  C   UNL A   1      35.560  33.796  30.804  1.00  0.00     0.059 A 
ATOM     71  C   UNL A   1      35.988  32.544  32.803  1.00  0.00     0.059 A 
ATOM     72  F   UNL A   1      37.840  31.224  33.018  1.00  0.00    -0.206 F 
ATOM     73  C   UNL A   1      35.229  33.470  32.113  1.00  0.00     0.060 A 
BRANCH  73  74
ATOM     74  S   UNL A   1      33.832  34.273  32.921  1.00  0.00     0.124 S 
ATOM     75  O   UNL A   1      33.015  33.130  33.315  1.00  0.00    -0.237 OA
ATOM     76  O   UNL A   1      34.473  35.004  34.008  1.00  0.00    -0.237 OA
ATOM     77  O   UNL A   1      33.264  35.109  31.864  1.00  0.00    -0.744 OA
ENDBRANCH  73  74
ENDBRANCH  52  66
BRANCH  53  78
ATOM     78  C   UNL A   1      45.348  27.607  27.691  1.00  0.00     0.058 A 
ATOM     79  C   UNL A   1      44.819  27.928  26.427  1.00  0.00     0.135 A 
ATOM     80  C   UNL A   1      46.532  26.858  27.730  1.00  0.00     0.135 A 
ATOM     81  F   UNL A   1      43.665  28.611  26.336  1.00  0.00    -0.206 F 
ATOM     82  C   UNL A   1      45.543  27.713  25.259  1.00  0.00     0.059 A 
ATOM     83  C   UNL A   1      47.267  26.616  26.567  1.00  0.00     0.059 A 
ATOM     84  F   UNL A   1      47.070  26.505  28.906  1.00  0.00    -0.206 F 
ATOM     85  C   UNL A   1      46.810  27.140  25.357  1.00  0.00     0.060 A 
BRANCH  85  86
ATOM     86  S   UNL A   1      47.909  27.258  23.921  1.00  0.00     0.124 S 
ATOM     87  O   UNL A   1      49.093  27.890  24.488  1.00  0.00    -0.237 OA
ATOM     88  O   UNL A   1      48.066  25.853  23.536  1.00  0.00    -0.237 OA
ATOM     89  O   UNL A   1      47.146  28.073  22.983  1.00  0.00    -0.744 OA
ENDBRANCH  85  86
ENDBRANCH  53  78
BRANCH  65  90
ATOM     90  C   UNL A   1      43.587  34.533  28.980  1.00  0.00     0.058 A 
ATOM     91  C   UNL A   1      43.532  34.998  27.653  1.00  0.00     0.135 A 
ATOM     92  C   UNL A   1      43.648  35.541  29.972  1.00  0.00     0.135 A 
ATOM     93  F   UNL A   1      43.351  34.157  26.626  1.00  0.00    -0.206 F 
ATOM     94  C   UNL A   1      43.611  36.356  27.329  1.00  0.00     0.059 A 
ATOM     95  C   UNL A   1      43.674  36.902  29.673  1.00  0.00     0.059 A 
ATOM     96  F   UNL A   1      43.678  35.232  31.277  1.00  0.00    -0.206 F 
ATOM     97  C   UNL A   1      43.683  37.302  28.345  1.00  0.00     0.060 A 
BRANCH  97  98
ATOM     98  S   UNL A   1      43.726  39.061  27.948  1.00  0.00     0.124 S 
ATOM     99  O   UNL A   1      43.055  39.639  29.108  1.00  0.00    -0.237 OA
ATOM    100  O   UNL A   1      45.154  39.341  27.844  1.00  0.00    -0.237 OA
ATOM    101  O   UNL A   1      42.990  39.131  26.689  1.00  0.00    -0.744 OA
ENDBRANCH  97  98
ENDBRANCH  65  90
ENDBRANCH  39  40
ENDBRANCH  31  34
ENDBRANCH  29  30
ENDBRANCH  28  29
ENDBRANCH   1  28
TORSDOF 17
ENDMDL
MODEL 3
REMARK VINA RESULT:     -13.7      4.095     10.528
REMARK SMILES Cc1nn(C(C)C)c(C)c1S(=O)(=O)Nc1cccc(C(=O)NCCCNC(=O)c2ccc(-c3c4nc(c(-c5c(F)cc(S(=O)(=O)[O-])cc5F)c5ccc([nH]5)c(-c5c(F)cc(S(=O)(=O)[O-])cc5F)c5nc(c(-c6c(F)cc(S(=O)(=O)[O-])cc6F)c6ccc3[nH]6)C=C5)C=C4)cc2)c1C
REMARK SMILES IDX 23 1 22 2 20 3 21 4 19 6 15 7 16 8 95 9 17 10 96 11 18 12
REMARK SMILES IDX 14 13 11 15 12 16 13 17 10 18 1 19 2 20 3 21 4 22 8 23 9 24
REMARK SMILES IDX 5 25 6 26 7 27 24 28 25 29 26 30 27 31 28 33 29 34 30 35
REMARK SMILES IDX 94 36 31 37 93 38 32 39 33 40 34 41 87 42 35 43 92 44 86 45
REMARK SMILES IDX 88 46 36 47 91 48 85 49 84 50 37 52 71 53 50 54 70 55 51 56
REMARK SMILES IDX 54 57 69 58 89 59 52 60 53 61 68 63 90 64 55 65 38 66 39 67
REMARK SMILES IDX 48 68 40 69 41 70 47 71 49 72 42 73 43 74 44 75 45 76 46 77
REMARK SMILES IDX 72 78 73 79 82 80 74 81 75 82 81 83 83 84 76 85 77 86 78 87
REMARK SMILES IDX 79 88 80 89 56 90 57 91 66 92 58 93 59 94 65 95 67 96 60 97
REMARK SMILES IDX 61 98 62 99 63 100 64 101
REMARK H PARENT 22 5 14 14 26 32 88 51 54 62
REMARK Flexibility Score: inf
ROOT
ATOM      1  C   UNL A   1      35.101  21.373  25.839  1.00  0.00     0.118 C 
ENDROOT
BRANCH   1   2
ATOM      2  N   UNL A   1      34.089  20.346  25.594  1.00  0.00    -0.352 N 
ATOM      3  C   UNL A   1      32.767  20.405  25.219  1.00  0.00     0.251 C 
ATOM      4  O   UNL A   1      32.169  19.353  25.008  1.00  0.00    -0.269 OA
ATOM      5  H   UNL A   1      34.421  19.428  25.724  1.00  0.00     0.163 HD
BRANCH   3   6
ATOM      6  C   UNL A   1      32.045  21.699  25.080  1.00  0.00     0.044 A 
ATOM      7  C   UNL A   1      31.342  23.674  23.841  1.00  0.00     0.053 A 
ATOM      8  C   UNL A   1      30.676  24.149  24.972  1.00  0.00     0.027 A 
ATOM      9  C   UNL A   1      31.942  22.387  23.847  1.00  0.00    -0.014 A 
ATOM     10  C   UNL A   1      30.692  23.412  26.151  1.00  0.00     0.003 A 
ATOM     11  C   UNL A   1      32.515  21.844  22.558  1.00  0.00     0.047 C 
ATOM     12  C   UNL A   1      31.380  22.203  26.204  1.00  0.00     0.014 A 
BRANCH   7  13
ATOM     13  N   UNL A   1      31.430  24.429  22.631  1.00  0.00    -0.279 N 
ATOM     14  H   UNL A   1      30.910  24.108  21.859  1.00  0.00     0.180 HD
BRANCH  13  15
ATOM     15  S   UNL A   1      32.342  25.811  22.420  1.00  0.00     0.265 S 
ATOM     16  O   UNL A   1      31.526  26.825  21.785  1.00  0.00    -0.201 OA
ATOM     17  O   UNL A   1      33.560  25.364  21.772  1.00  0.00    -0.201 OA
BRANCH  15  18
ATOM     18  C   UNL A   1      32.914  26.582  23.854  1.00  0.00     0.131 A 
ATOM     19  C   UNL A   1      34.609  24.890  24.997  1.00  0.00     0.070 C 
ATOM     20  C   UNL A   1      33.805  26.124  24.855  1.00  0.00     0.080 A 
ATOM     21  N   UNL A   1      33.909  27.017  25.848  1.00  0.00    -0.176 NA
ATOM     22  N   UNL A   1      33.158  28.059  25.466  1.00  0.00    -0.266 N 
ATOM     23  C   UNL A   1      32.546  27.864  24.256  1.00  0.00     0.056 A 
ATOM     24  C   UNL A   1      31.692  28.888  23.600  1.00  0.00     0.068 C 
BRANCH  22  25
ATOM     25  C   UNL A   1      33.062  29.216  26.353  1.00  0.00     0.101 C 
ATOM     26  C   UNL A   1      31.877  29.069  27.308  1.00  0.00     0.033 C 
ATOM     27  C   UNL A   1      34.365  29.456  27.119  1.00  0.00     0.033 C 
ENDBRANCH  22  25
ENDBRANCH  15  18
ENDBRANCH  13  15
ENDBRANCH   7  13
ENDBRANCH   3   6
ENDBRANCH   1   2
BRANCH   1  28
ATOM     28  C   UNL A   1      36.168  21.460  24.743  1.00  0.00     0.042 C 
BRANCH  28  29
ATOM     29  C   UNL A   1      37.340  22.370  25.091  1.00  0.00     0.118 C 
BRANCH  29  30
ATOM     30  N   UNL A   1      38.168  21.892  26.191  1.00  0.00    -0.352 N 
ATOM     31  C   UNL A   1      39.459  22.399  26.357  1.00  0.00     0.251 C 
ATOM     32  H   UNL A   1      37.819  21.214  26.815  1.00  0.00     0.163 HD
ATOM     33  O   UNL A   1      40.479  21.771  26.195  1.00  0.00    -0.269 OA
BRANCH  31  34
ATOM     34  C   UNL A   1      39.477  23.854  26.636  1.00  0.00     0.039 A 
ATOM     35  C   UNL A   1      40.216  24.717  25.826  1.00  0.00     0.014 A 
ATOM     36  C   UNL A   1      38.986  24.264  27.875  1.00  0.00     0.014 A 
ATOM     37  C   UNL A   1      40.589  25.965  26.328  1.00  0.00     0.010 A 
ATOM     38  C   UNL A   1      39.428  25.461  28.399  1.00  0.00     0.010 A 
ATOM     39  C   UNL A   1      40.263  26.298  27.642  1.00  0.00    -0.014 A 
BRANCH  39  40
ATOM     40  C   UNL A   1      40.792  27.456  28.356  1.00  0.00     0.031 A 
ATOM     41  C   UNL A   1      39.931  28.640  28.593  1.00  0.00     0.074 A 
ATOM     42  C   UNL A   1      42.007  27.388  28.942  1.00  0.00     0.049 A 
ATOM     43  N   UNL A   1      40.353  29.758  29.084  1.00  0.00    -0.248 NA
ATOM     44  C   UNL A   1      38.520  28.689  28.209  1.00  0.00     0.031 C 
ATOM     45  C   UNL A   1      42.497  28.205  30.050  1.00  0.00     0.029 A 
ATOM     46  N   UNL A   1      43.139  26.703  28.491  1.00  0.00    -0.354 N 
ATOM     47  C   UNL A   1      39.251  30.521  29.382  1.00  0.00     0.074 A 
ATOM     48  C   UNL A   1      38.165  29.888  28.682  1.00  0.00     0.031 C 
ATOM     49  C   UNL A   1      43.836  28.178  30.057  1.00  0.00     0.029 A 
ATOM     50  C   UNL A   1      44.258  27.483  28.854  1.00  0.00     0.049 A 
ATOM     51  H   UNL A   1      43.154  25.843  28.013  1.00  0.00     0.167 HD
ATOM     52  C   UNL A   1      39.367  31.506  30.317  1.00  0.00     0.037 A 
ATOM     53  C   UNL A   1      45.097  28.011  27.914  1.00  0.00     0.037 A 
ATOM     54  C   UNL A   1      40.774  31.843  30.545  1.00  0.00     0.049 A 
ATOM     55  C   UNL A   1      45.182  29.522  27.925  1.00  0.00     0.074 A 
ATOM     56  C   UNL A   1      41.655  31.644  31.593  1.00  0.00     0.029 A 
ATOM     57  N   UNL A   1      41.539  32.297  29.472  1.00  0.00    -0.354 N 
ATOM     58  N   UNL A   1      44.355  30.298  28.570  1.00  0.00    -0.248 NA
ATOM     59  C   UNL A   1      46.194  30.280  27.191  1.00  0.00     0.031 C 
ATOM     60  C   UNL A   1      42.971  31.876  31.104  1.00  0.00     0.029 A 
ATOM     61  C   UNL A   1      42.884  32.262  29.777  1.00  0.00     0.049 A 
ATOM     62  H   UNL A   1      41.169  32.601  28.611  1.00  0.00     0.167 HD
ATOM     63  C   UNL A   1      44.652  31.611  28.307  1.00  0.00     0.074 A 
ATOM     64  C   UNL A   1      45.839  31.546  27.477  1.00  0.00     0.031 C 
ATOM     65  C   UNL A   1      43.878  32.636  28.775  1.00  0.00     0.037 A 
BRANCH  52  66
ATOM     66  C   UNL A   1      38.223  32.027  31.178  1.00  0.00     0.058 A 
ATOM     67  C   UNL A   1      37.334  33.006  30.671  1.00  0.00     0.135 A 
ATOM     68  C   UNL A   1      38.028  31.729  32.547  1.00  0.00     0.135 A 
ATOM     69  F   UNL A   1      37.403  33.407  29.393  1.00  0.00    -0.206 F 
ATOM     70  C   UNL A   1      36.363  33.643  31.457  1.00  0.00     0.059 A 
ATOM     71  C   UNL A   1      37.035  32.313  33.336  1.00  0.00     0.059 A 
ATOM     72  F   UNL A   1      38.832  30.907  33.227  1.00  0.00    -0.206 F 
ATOM     73  C   UNL A   1      36.224  33.292  32.794  1.00  0.00     0.060 A 
BRANCH  73  74
ATOM     74  S   UNL A   1      35.010  34.131  33.829  1.00  0.00     0.124 S 
ATOM     75  O   UNL A   1      33.755  33.574  33.333  1.00  0.00    -0.237 OA
ATOM     76  O   UNL A   1      35.403  33.721  35.173  1.00  0.00    -0.237 OA
ATOM     77  O   UNL A   1      35.225  35.545  33.526  1.00  0.00    -0.744 OA
ENDBRANCH  73  74
ENDBRANCH  52  66
BRANCH  53  78
ATOM     78  C   UNL A   1      45.251  27.132  26.722  1.00  0.00     0.058 A 
ATOM     79  C   UNL A   1      46.209  26.105  26.808  1.00  0.00     0.135 A 
ATOM     80  C   UNL A   1      44.195  26.963  25.815  1.00  0.00     0.135 A 
ATOM     81  F   UNL A   1      47.261  26.237  27.633  1.00  0.00    -0.206 F 
ATOM     82  C   UNL A   1      46.014  24.873  26.192  1.00  0.00     0.059 A 
ATOM     83  C   UNL A   1      43.989  25.739  25.173  1.00  0.00     0.059 A 
ATOM     84  F   UNL A   1      43.264  27.917  25.675  1.00  0.00    -0.206 F 
ATOM     85  C   UNL A   1      44.849  24.675  25.453  1.00  0.00     0.060 A 
BRANCH  85  86
ATOM     86  S   UNL A   1      44.393  22.975  25.025  1.00  0.00     0.124 S 
ATOM     87  O   UNL A   1      45.321  22.667  23.945  1.00  0.00    -0.237 OA
ATOM     88  O   UNL A   1      44.632  22.265  26.285  1.00  0.00    -0.237 OA
ATOM     89  O   UNL A   1      42.991  23.092  24.639  1.00  0.00    -0.744 OA
ENDBRANCH  85  86
ENDBRANCH  53  78
BRANCH  65  90
ATOM     90  C   UNL A   1      44.014  34.092  28.381  1.00  0.00     0.058 A 
ATOM     91  C   UNL A   1      43.775  34.587  27.087  1.00  0.00     0.135 A 
ATOM     92  C   UNL A   1      44.268  35.076  29.368  1.00  0.00     0.135 A 
ATOM     93  F   UNL A   1      43.405  33.776  26.086  1.00  0.00    -0.206 F 
ATOM     94  C   UNL A   1      43.860  35.948  26.774  1.00  0.00     0.059 A 
ATOM     95  C   UNL A   1      44.303  36.441  29.089  1.00  0.00     0.059 A 
ATOM     96  F   UNL A   1      44.486  34.738  30.648  1.00  0.00    -0.206 F 
ATOM     97  C   UNL A   1      44.125  36.869  27.781  1.00  0.00     0.060 A 
BRANCH  97  98
ATOM     98  S   UNL A   1      44.179  38.633  27.409  1.00  0.00     0.124 S 
ATOM     99  O   UNL A   1      42.965  38.802  26.617  1.00  0.00    -0.237 OA
ATOM    100  O   UNL A   1      44.156  39.250  28.732  1.00  0.00    -0.237 OA
ATOM    101  O   UNL A   1      45.436  38.776  26.682  1.00  0.00    -0.744 OA
ENDBRANCH  97  98
ENDBRANCH  65  90
ENDBRANCH  39  40
ENDBRANCH  31  34
ENDBRANCH  29  30
ENDBRANCH  28  29
ENDBRANCH   1  28
TORSDOF 17
ENDMDL
