MODEL 1
REMARK VINA RESULT:     -12.3      0.000      0.000
REMARK SMILES CCn1c(SCC(=O)NCCCNC(=O)c2ccc(-c3c4nc(c(-c5c(F)cc(S(=O)(=O)[O-])cc5F)c5ccc([nH]5)c(-c5c(F)cc(S(=O)(=O)[O-])cc5F)c5nc(c(-c6c(F)cc(S(=O)(=O)[O-])cc6F)c6ccc3[nH]6)C=C5)C=C4)cc2)nnc1-c1ccc(C)cc1
REMARK SMILES IDX 11 1 10 2 9 3 7 4 8 5 6 7 5 8 4 9 3 10 84 11 82 12 83 13
REMARK SMILES IDX 2 14 1 15 85 16 86 17 91 18 87 19 90 20 88 21 89 22 12 23
REMARK SMILES IDX 13 24 14 25 15 27 16 28 17 29 81 30 18 31 80 32 19 33 20 34
REMARK SMILES IDX 21 35 74 36 22 37 79 38 73 39 75 40 23 41 78 42 72 43 71 44
REMARK SMILES IDX 24 46 58 47 37 48 57 49 38 50 41 51 56 52 76 53 39 54 40 55
REMARK SMILES IDX 55 57 77 58 42 59 25 60 26 61 35 62 27 63 28 64 34 65 36 66
REMARK SMILES IDX 29 67 30 68 31 69 32 70 33 71 59 72 60 73 69 74 61 75 62 76
REMARK SMILES IDX 68 77 70 78 63 79 64 80 65 81 66 82 67 83 43 84 44 85 53 86
REMARK SMILES IDX 45 87 46 88 52 89 54 90 47 91 48 92 49 93 50 94 51 95
REMARK H PARENT 9 6 13 26 75 45 41 56
REMARK Flexibility Score: inf
ROOT
ATOM      1  C   UNL A   1      35.851  22.580  25.816  1.00  0.00     0.042 C 
ENDROOT
BRANCH   1   2
ATOM      2  C   UNL A   1      34.825  23.515  25.175  1.00  0.00     0.117 C 
BRANCH   2   3
ATOM      3  N   UNL A   1      34.731  23.403  23.730  1.00  0.00    -0.355 N 
ATOM      4  C   UNL A   1      33.638  23.284  22.935  1.00  0.00     0.230 C 
ATOM      5  O   UNL A   1      33.760  23.721  21.785  1.00  0.00    -0.274 OA
ATOM      6  H   UNL A   1      35.593  23.415  23.255  1.00  0.00     0.163 HD
BRANCH   4   7
ATOM      7  C   UNL A   1      32.287  22.793  23.410  1.00  0.00     0.178 C 
BRANCH   7   8
ATOM      8  S   UNL A   1      30.946  23.955  23.504  1.00  0.00    -0.076 SA
BRANCH   8   9
ATOM      9  C   UNL A   1      31.162  25.247  24.627  1.00  0.00     0.191 A 
ATOM     10  N   UNL A   1      31.958  26.370  24.630  1.00  0.00    -0.302 N 
ATOM     11  C   UNL A   1      31.806  26.931  25.897  1.00  0.00     0.164 A 
ATOM     12  N   UNL A   1      30.593  25.131  25.810  1.00  0.00    -0.123 NA
ATOM     13  N   UNL A   1      31.007  26.160  26.604  1.00  0.00    -0.129 NA
BRANCH  10  14
ATOM     14  C   UNL A   1      32.921  26.839  23.659  1.00  0.00     0.123 C 
ATOM     15  C   UNL A   1      32.416  27.948  22.757  1.00  0.00     0.028 C 
ENDBRANCH  10  14
BRANCH  11  16
ATOM     16  C   UNL A   1      32.457  28.140  26.398  1.00  0.00     0.019 A 
ATOM     17  C   UNL A   1      33.777  28.092  26.866  1.00  0.00     0.012 A 
ATOM     18  C   UNL A   1      31.767  29.356  26.436  1.00  0.00     0.012 A 
ATOM     19  C   UNL A   1      34.410  29.253  27.326  1.00  0.00     0.004 A 
ATOM     20  C   UNL A   1      32.399  30.514  26.900  1.00  0.00     0.004 A 
ATOM     21  C   UNL A   1      33.726  30.473  27.341  1.00  0.00    -0.051 A 
ATOM     22  C   UNL A   1      34.409  31.727  27.814  1.00  0.00     0.044 C 
ENDBRANCH  11  16
ENDBRANCH   8   9
ENDBRANCH   7   8
ENDBRANCH   4   7
ENDBRANCH   2   3
ENDBRANCH   1   2
BRANCH   1  23
ATOM     23  C   UNL A   1      37.285  23.076  25.712  1.00  0.00     0.118 C 
BRANCH  23  24
ATOM     24  N   UNL A   1      38.298  22.113  26.158  1.00  0.00    -0.352 N 
ATOM     25  C   UNL A   1      39.568  22.373  26.661  1.00  0.00     0.251 C 
ATOM     26  H   UNL A   1      38.047  21.164  26.093  1.00  0.00     0.163 HD
ATOM     27  O   UNL A   1      40.405  21.491  26.719  1.00  0.00    -0.269 OA
BRANCH  25  28
ATOM     28  C   UNL A   1      39.882  23.745  27.118  1.00  0.00     0.039 A 
ATOM     29  C   UNL A   1      38.968  24.798  27.000  1.00  0.00     0.014 A 
ATOM     30  C   UNL A   1      41.118  23.952  27.714  1.00  0.00     0.014 A 
ATOM     31  C   UNL A   1      39.290  26.034  27.564  1.00  0.00     0.010 A 
ATOM     32  C   UNL A   1      41.336  25.082  28.447  1.00  0.00     0.010 A 
ATOM     33  C   UNL A   1      40.475  26.161  28.302  1.00  0.00    -0.014 A 
BRANCH  33  34
ATOM     34  C   UNL A   1      40.830  27.387  29.006  1.00  0.00     0.031 A 
ATOM     35  C   UNL A   1      41.919  28.177  28.372  1.00  0.00     0.074 A 
ATOM     36  C   UNL A   1      40.038  27.900  29.975  1.00  0.00     0.049 A 
ATOM     37  N   UNL A   1      43.106  28.402  28.829  1.00  0.00    -0.248 NA
ATOM     38  C   UNL A   1      41.716  28.655  26.994  1.00  0.00     0.031 C 
ATOM     39  C   UNL A   1      38.739  27.399  30.450  1.00  0.00     0.029 A 
ATOM     40  N   UNL A   1      40.161  29.068  30.657  1.00  0.00    -0.354 N 
ATOM     41  C   UNL A   1      43.712  29.255  27.908  1.00  0.00     0.074 A 
ATOM     42  C   UNL A   1      42.908  29.187  26.718  1.00  0.00     0.031 C 
ATOM     43  C   UNL A   1      38.095  28.371  31.130  1.00  0.00     0.029 A 
ATOM     44  C   UNL A   1      39.002  29.490  31.299  1.00  0.00     0.049 A 
ATOM     45  H   UNL A   1      41.004  29.576  30.693  1.00  0.00     0.167 HD
ATOM     46  C   UNL A   1      44.671  30.146  28.294  1.00  0.00     0.037 A 
ATOM     47  C   UNL A   1      38.793  30.691  31.896  1.00  0.00     0.037 A 
ATOM     48  C   UNL A   1      45.157  29.836  29.616  1.00  0.00     0.049 A 
ATOM     49  C   UNL A   1      40.136  31.271  32.165  1.00  0.00     0.074 A 
ATOM     50  C   UNL A   1      45.755  28.737  30.202  1.00  0.00     0.029 A 
ATOM     51  N   UNL A   1      44.692  30.607  30.658  1.00  0.00    -0.354 N 
ATOM     52  N   UNL A   1      40.999  30.749  32.995  1.00  0.00    -0.248 NA
ATOM     53  C   UNL A   1      40.701  32.158  31.160  1.00  0.00     0.031 C 
ATOM     54  C   UNL A   1      45.187  28.662  31.508  1.00  0.00     0.029 A 
ATOM     55  C   UNL A   1      44.338  29.758  31.674  1.00  0.00     0.049 A 
ATOM     56  H   UNL A   1      44.626  31.589  30.670  1.00  0.00     0.167 HD
ATOM     57  C   UNL A   1      42.229  30.888  32.367  1.00  0.00     0.074 A 
ATOM     58  C   UNL A   1      41.993  31.843  31.285  1.00  0.00     0.031 C 
ATOM     59  C   UNL A   1      43.247  30.005  32.595  1.00  0.00     0.037 A 
BRANCH  46  60
ATOM     60  C   UNL A   1      44.900  31.506  27.665  1.00  0.00     0.058 A 
ATOM     61  C   UNL A   1      46.117  31.751  26.993  1.00  0.00     0.135 A 
ATOM     62  C   UNL A   1      44.122  32.653  27.939  1.00  0.00     0.135 A 
ATOM     63  F   UNL A   1      46.937  30.737  26.672  1.00  0.00    -0.206 F 
ATOM     64  C   UNL A   1      46.572  33.039  26.710  1.00  0.00     0.059 A 
ATOM     65  C   UNL A   1      44.531  33.942  27.612  1.00  0.00     0.059 A 
ATOM     66  F   UNL A   1      42.976  32.600  28.625  1.00  0.00    -0.206 F 
ATOM     67  C   UNL A   1      45.778  34.130  27.045  1.00  0.00     0.060 A 
BRANCH  67  68
ATOM     68  S   UNL A   1      46.416  35.796  26.803  1.00  0.00     0.124 S 
ATOM     69  O   UNL A   1      46.998  35.691  25.469  1.00  0.00    -0.237 OA
ATOM     70  O   UNL A   1      45.206  36.603  26.911  1.00  0.00    -0.237 OA
ATOM     71  O   UNL A   1      47.369  35.952  27.897  1.00  0.00    -0.744 OA
ENDBRANCH  67  68
ENDBRANCH  46  60
BRANCH  47  72
ATOM     72  C   UNL A   1      37.537  31.487  31.932  1.00  0.00     0.058 A 
ATOM     73  C   UNL A   1      36.932  31.848  33.150  1.00  0.00     0.135 A 
ATOM     74  C   UNL A   1      37.047  32.142  30.783  1.00  0.00     0.135 A 
ATOM     75  F   UNL A   1      37.345  31.289  34.297  1.00  0.00    -0.206 F 
ATOM     76  C   UNL A   1      35.938  32.833  33.230  1.00  0.00     0.059 A 
ATOM     77  C   UNL A   1      36.050  33.114  30.835  1.00  0.00     0.059 A 
ATOM     78  F   UNL A   1      37.587  31.922  29.574  1.00  0.00    -0.206 F 
ATOM     79  C   UNL A   1      35.521  33.479  32.066  1.00  0.00     0.060 A 
BRANCH  79  80
ATOM     80  S   UNL A   1      34.361  34.863  32.175  1.00  0.00     0.124 S 
ATOM     81  O   UNL A   1      34.126  35.178  30.770  1.00  0.00    -0.237 OA
ATOM     82  O   UNL A   1      33.241  34.266  32.894  1.00  0.00    -0.237 OA
ATOM     83  O   UNL A   1      35.108  35.871  32.922  1.00  0.00    -0.744 OA
ENDBRANCH  79  80
ENDBRANCH  47  72
BRANCH  59  84
ATOM     84  C   UNL A   1      43.133  29.055  33.761  1.00  0.00     0.058 A 
ATOM     85  C   UNL A   1      43.418  29.390  35.097  1.00  0.00     0.135 A 
ATOM     86  C   UNL A   1      42.534  27.807  33.532  1.00  0.00     0.135 A 
ATOM     87  F   UNL A   1      43.898  30.598  35.419  1.00  0.00    -0.206 F 
ATOM     88  C   UNL A   1      43.147  28.514  36.151  1.00  0.00     0.059 A 
ATOM     89  C   UNL A   1      42.227  26.930  34.569  1.00  0.00     0.059 A 
ATOM     90  F   UNL A   1      42.181  27.451  32.285  1.00  0.00    -0.206 F 
ATOM     91  C   UNL A   1      42.546  27.287  35.878  1.00  0.00     0.060 A 
BRANCH  91  92
ATOM     92  S   UNL A   1      42.112  26.192  37.247  1.00  0.00     0.124 S 
ATOM     93  O   UNL A   1      42.283  24.871  36.650  1.00  0.00    -0.237 OA
ATOM     94  O   UNL A   1      43.090  26.558  38.268  1.00  0.00    -0.237 OA
ATOM     95  O   UNL A   1      40.733  26.562  37.557  1.00  0.00    -0.744 OA
ENDBRANCH  91  92
ENDBRANCH  59  84
ENDBRANCH  33  34
ENDBRANCH  25  28
ENDBRANCH  23  24
ENDBRANCH   1  23
TORSDOF 17
ENDMDL
MODEL 2
REMARK VINA RESULT:     -12.2      1.431      1.974
REMARK SMILES CCn1c(SCC(=O)NCCCNC(=O)c2ccc(-c3c4nc(c(-c5c(F)cc(S(=O)(=O)[O-])cc5F)c5ccc([nH]5)c(-c5c(F)cc(S(=O)(=O)[O-])cc5F)c5nc(c(-c6c(F)cc(S(=O)(=O)[O-])cc6F)c6ccc3[nH]6)C=C5)C=C4)cc2)nnc1-c1ccc(C)cc1
REMARK SMILES IDX 11 1 10 2 9 3 7 4 8 5 6 7 5 8 4 9 3 10 84 11 82 12 83 13
REMARK SMILES IDX 2 14 1 15 85 16 86 17 91 18 87 19 90 20 88 21 89 22 12 23
REMARK SMILES IDX 13 24 14 25 15 27 16 28 17 29 81 30 18 31 80 32 19 33 20 34
REMARK SMILES IDX 21 35 74 36 22 37 79 38 73 39 75 40 23 41 78 42 72 43 71 44
REMARK SMILES IDX 24 46 58 47 37 48 57 49 38 50 41 51 56 52 76 53 39 54 40 55
REMARK SMILES IDX 55 57 77 58 42 59 25 60 26 61 35 62 27 63 28 64 34 65 36 66
REMARK SMILES IDX 29 67 30 68 31 69 32 70 33 71 59 72 60 73 69 74 61 75 62 76
REMARK SMILES IDX 68 77 70 78 63 79 64 80 65 81 66 82 67 83 43 84 44 85 53 86
REMARK SMILES IDX 45 87 46 88 52 89 54 90 47 91 48 92 49 93 50 94 51 95
REMARK H PARENT 9 6 13 26 75 45 41 56
REMARK Flexibility Score: inf
ROOT
ATOM      1  C   UNL A   1      36.169  22.309  25.786  1.00  0.00     0.042 C 
ENDROOT
BRANCH   1   2
ATOM      2  C   UNL A   1      36.215  21.152  24.788  1.00  0.00     0.117 C 
BRANCH   2   3
ATOM      3  N   UNL A   1      35.244  20.102  25.040  1.00  0.00    -0.355 N 
ATOM      4  C   UNL A   1      33.904  20.087  24.835  1.00  0.00     0.230 C 
ATOM      5  O   UNL A   1      33.403  18.976  24.629  1.00  0.00    -0.274 OA
ATOM      6  H   UNL A   1      35.618  19.274  25.418  1.00  0.00     0.163 HD
BRANCH   4   7
ATOM      7  C   UNL A   1      33.047  21.330  24.709  1.00  0.00     0.178 C 
BRANCH   7   8
ATOM      8  S   UNL A   1      32.288  21.991  26.174  1.00  0.00    -0.076 SA
BRANCH   8   9
ATOM      9  C   UNL A   1      31.449  23.485  25.965  1.00  0.00     0.191 A 
ATOM     10  N   UNL A   1      31.233  24.300  24.878  1.00  0.00    -0.302 N 
ATOM     11  C   UNL A   1      30.631  25.449  25.386  1.00  0.00     0.164 A 
ATOM     12  N   UNL A   1      31.030  24.107  27.048  1.00  0.00    -0.123 NA
ATOM     13  N   UNL A   1      30.542  25.331  26.695  1.00  0.00    -0.129 NA
BRANCH  10  14
ATOM     14  C   UNL A   1      31.672  24.168  23.506  1.00  0.00     0.123 C 
ATOM     15  C   UNL A   1      33.037  24.765  23.222  1.00  0.00     0.028 C 
ENDBRANCH  10  14
BRANCH  11  16
ATOM     16  C   UNL A   1      30.211  26.623  24.624  1.00  0.00     0.019 A 
ATOM     17  C   UNL A   1      31.013  27.772  24.593  1.00  0.00     0.012 A 
ATOM     18  C   UNL A   1      28.995  26.624  23.932  1.00  0.00     0.012 A 
ATOM     19  C   UNL A   1      30.623  28.890  23.846  1.00  0.00     0.004 A 
ATOM     20  C   UNL A   1      28.605  27.743  23.190  1.00  0.00     0.004 A 
ATOM     21  C   UNL A   1      29.418  28.881  23.135  1.00  0.00    -0.051 A 
ATOM     22  C   UNL A   1      29.005  30.071  22.314  1.00  0.00     0.044 C 
ENDBRANCH  11  16
ENDBRANCH   8   9
ENDBRANCH   7   8
ENDBRANCH   4   7
ENDBRANCH   2   3
ENDBRANCH   1   2
BRANCH   1  23
ATOM     23  C   UNL A   1      37.508  23.002  25.989  1.00  0.00     0.118 C 
BRANCH  23  24
ATOM     24  N   UNL A   1      38.636  22.093  26.220  1.00  0.00    -0.352 N 
ATOM     25  C   UNL A   1      39.951  22.418  26.534  1.00  0.00     0.251 C 
ATOM     26  H   UNL A   1      38.437  21.133  26.141  1.00  0.00     0.163 HD
ATOM     27  O   UNL A   1      40.840  21.596  26.414  1.00  0.00    -0.269 OA
BRANCH  25  28
ATOM     28  C   UNL A   1      40.246  23.787  27.014  1.00  0.00     0.039 A 
ATOM     29  C   UNL A   1      39.457  24.888  26.662  1.00  0.00     0.014 A 
ATOM     30  C   UNL A   1      41.329  23.944  27.868  1.00  0.00     0.014 A 
ATOM     31  C   UNL A   1      39.727  26.125  27.251  1.00  0.00     0.010 A 
ATOM     32  C   UNL A   1      41.453  25.088  28.602  1.00  0.00     0.010 A 
ATOM     33  C   UNL A   1      40.722  26.210  28.236  1.00  0.00    -0.014 A 
BRANCH  33  34
ATOM     34  C   UNL A   1      40.993  27.441  28.968  1.00  0.00     0.031 A 
ATOM     35  C   UNL A   1      42.047  28.304  28.371  1.00  0.00     0.074 A 
ATOM     36  C   UNL A   1      40.154  27.890  29.930  1.00  0.00     0.049 A 
ATOM     37  N   UNL A   1      43.210  28.586  28.856  1.00  0.00    -0.248 NA
ATOM     38  C   UNL A   1      41.843  28.795  26.997  1.00  0.00     0.031 C 
ATOM     39  C   UNL A   1      38.877  27.306  30.370  1.00  0.00     0.029 A 
ATOM     40  N   UNL A   1      40.197  29.050  30.635  1.00  0.00    -0.354 N 
ATOM     41  C   UNL A   1      43.784  29.490  27.963  1.00  0.00     0.074 A 
ATOM     42  C   UNL A   1      43.008  29.399  26.755  1.00  0.00     0.031 C 
ATOM     43  C   UNL A   1      38.166  28.228  31.054  1.00  0.00     0.029 A 
ATOM     44  C   UNL A   1      39.004  29.392  31.261  1.00  0.00     0.049 A 
ATOM     45  H   UNL A   1      41.008  29.604  30.697  1.00  0.00     0.167 HD
ATOM     46  C   UNL A   1      44.682  30.426  28.383  1.00  0.00     0.037 A 
ATOM     47  C   UNL A   1      38.715  30.568  31.874  1.00  0.00     0.037 A 
ATOM     48  C   UNL A   1      45.160  30.120  29.710  1.00  0.00     0.049 A 
ATOM     49  C   UNL A   1      40.017  31.218  32.181  1.00  0.00     0.074 A 
ATOM     50  C   UNL A   1      45.808  29.045  30.287  1.00  0.00     0.029 A 
ATOM     51  N   UNL A   1      44.632  30.843  30.755  1.00  0.00    -0.354 N 
ATOM     52  N   UNL A   1      40.893  30.731  33.019  1.00  0.00    -0.248 NA
ATOM     53  C   UNL A   1      40.550  32.155  31.204  1.00  0.00     0.031 C 
ATOM     54  C   UNL A   1      45.221  28.913  31.580  1.00  0.00     0.029 A 
ATOM     55  C   UNL A   1      44.308  29.956  31.749  1.00  0.00     0.049 A 
ATOM     56  H   UNL A   1      44.510  31.819  30.783  1.00  0.00     0.167 HD
ATOM     57  C   UNL A   1      42.124  30.952  32.419  1.00  0.00     0.074 A 
ATOM     58  C   UNL A   1      41.855  31.912  31.349  1.00  0.00     0.031 C 
ATOM     59  C   UNL A   1      43.187  30.124  32.651  1.00  0.00     0.037 A 
BRANCH  46  60
ATOM     60  C   UNL A   1      44.845  31.809  27.784  1.00  0.00     0.058 A 
ATOM     61  C   UNL A   1      46.040  32.119  27.098  1.00  0.00     0.135 A 
ATOM     62  C   UNL A   1      44.026  32.917  28.098  1.00  0.00     0.135 A 
ATOM     63  F   UNL A   1      46.894  31.147  26.739  1.00  0.00    -0.206 F 
ATOM     64  C   UNL A   1      46.438  33.431  26.838  1.00  0.00     0.059 A 
ATOM     65  C   UNL A   1      44.378  34.229  27.795  1.00  0.00     0.059 A 
ATOM     66  F   UNL A   1      42.896  32.801  28.801  1.00  0.00    -0.206 F 
ATOM     67  C   UNL A   1      45.606  34.480  27.212  1.00  0.00     0.060 A 
BRANCH  67  68
ATOM     68  S   UNL A   1      46.172  36.176  27.000  1.00  0.00     0.124 S 
ATOM     69  O   UNL A   1      46.917  36.389  28.235  1.00  0.00    -0.237 OA
ATOM     70  O   UNL A   1      46.969  36.079  25.781  1.00  0.00    -0.237 OA
ATOM     71  O   UNL A   1      44.930  36.931  26.872  1.00  0.00    -0.744 OA
ENDBRANCH  67  68
ENDBRANCH  46  60
BRANCH  47  72
ATOM     72  C   UNL A   1      37.415  31.291  31.900  1.00  0.00     0.058 A 
ATOM     73  C   UNL A   1      36.824  31.696  33.110  1.00  0.00     0.135 A 
ATOM     74  C   UNL A   1      36.854  31.839  30.726  1.00  0.00     0.135 A 
ATOM     75  F   UNL A   1      37.302  31.239  34.277  1.00  0.00    -0.206 F 
ATOM     76  C   UNL A   1      35.775  32.625  33.158  1.00  0.00     0.059 A 
ATOM     77  C   UNL A   1      35.803  32.754  30.748  1.00  0.00     0.059 A 
ATOM     78  F   UNL A   1      37.373  31.572  29.518  1.00  0.00    -0.206 F 
ATOM     79  C   UNL A   1      35.288  33.167  31.969  1.00  0.00     0.060 A 
BRANCH  79  80
ATOM     80  S   UNL A   1      34.051  34.486  32.025  1.00  0.00     0.124 S 
ATOM     81  O   UNL A   1      33.617  34.560  30.635  1.00  0.00    -0.237 OA
ATOM     82  O   UNL A   1      33.079  33.952  32.973  1.00  0.00    -0.237 OA
ATOM     83  O   UNL A   1      34.809  35.640  32.503  1.00  0.00    -0.744 OA
ENDBRANCH  79  80
ENDBRANCH  47  72
BRANCH  59  84
ATOM     84  C   UNL A   1      43.104  29.146  33.798  1.00  0.00     0.058 A 
ATOM     85  C   UNL A   1      43.333  29.475  35.147  1.00  0.00     0.135 A 
ATOM     86  C   UNL A   1      42.594  27.867  33.532  1.00  0.00     0.135 A 
ATOM     87  F   UNL A   1      43.725  30.705  35.501  1.00  0.00    -0.206 F 
ATOM     88  C   UNL A   1      43.093  28.563  36.178  1.00  0.00     0.059 A 
ATOM     89  C   UNL A   1      42.318  26.953  34.545  1.00  0.00     0.059 A 
ATOM     90  F   UNL A   1      42.296  27.512  32.270  1.00  0.00    -0.206 F 
ATOM     91  C   UNL A   1      42.579  27.305  35.868  1.00  0.00     0.060 A 
BRANCH  91  92
ATOM     92  S   UNL A   1      42.183  26.160  37.206  1.00  0.00     0.124 S 
ATOM     93  O   UNL A   1      42.391  24.862  36.572  1.00  0.00    -0.237 OA
ATOM     94  O   UNL A   1      43.152  26.525  38.235  1.00  0.00    -0.237 OA
ATOM     95  O   UNL A   1      40.794  26.480  37.531  1.00  0.00    -0.744 OA
ENDBRANCH  91  92
ENDBRANCH  59  84
ENDBRANCH  33  34
ENDBRANCH  25  28
ENDBRANCH  23  24
ENDBRANCH   1  23
TORSDOF 17
ENDMDL
MODEL 3
REMARK VINA RESULT:     -12.2      2.943      9.571
REMARK SMILES CCn1c(SCC(=O)NCCCNC(=O)c2ccc(-c3c4nc(c(-c5c(F)cc(S(=O)(=O)[O-])cc5F)c5ccc([nH]5)c(-c5c(F)cc(S(=O)(=O)[O-])cc5F)c5nc(c(-c6c(F)cc(S(=O)(=O)[O-])cc6F)c6ccc3[nH]6)C=C5)C=C4)cc2)nnc1-c1ccc(C)cc1
REMARK SMILES IDX 11 1 10 2 9 3 7 4 8 5 6 7 5 8 4 9 3 10 84 11 82 12 83 13
REMARK SMILES IDX 2 14 1 15 85 16 86 17 91 18 87 19 90 20 88 21 89 22 12 23
REMARK SMILES IDX 13 24 14 25 15 27 16 28 17 29 81 30 18 31 80 32 19 33 20 34
REMARK SMILES IDX 21 35 74 36 22 37 79 38 73 39 75 40 23 41 78 42 72 43 71 44
REMARK SMILES IDX 24 46 58 47 37 48 57 49 38 50 41 51 56 52 76 53 39 54 40 55
REMARK SMILES IDX 55 57 77 58 42 59 25 60 26 61 35 62 27 63 28 64 34 65 36 66
REMARK SMILES IDX 29 67 30 68 31 69 32 70 33 71 59 72 60 73 69 74 61 75 62 76
REMARK SMILES IDX 68 77 70 78 63 79 64 80 65 81 66 82 67 83 43 84 44 85 53 86
REMARK SMILES IDX 45 87 46 88 52 89 54 90 47 91 48 92 49 93 50 94 51 95
REMARK H PARENT 9 6 13 26 75 45 41 56
REMARK Flexibility Score: inf
ROOT
ATOM      1  C   UNL A   1      32.217  29.030  27.294  1.00  0.00     0.042 C 
ENDROOT
BRANCH   1   2
ATOM      2  C   UNL A   1      31.641  28.408  26.021  1.00  0.00     0.117 C 
BRANCH   2   3
ATOM      3  N   UNL A   1      31.203  29.371  25.027  1.00  0.00    -0.355 N 
ATOM      4  C   UNL A   1      30.658  29.172  23.801  1.00  0.00     0.230 C 
ATOM      5  O   UNL A   1      29.917  30.071  23.389  1.00  0.00    -0.274 OA
ATOM      6  H   UNL A   1      31.320  30.314  25.282  1.00  0.00     0.163 HD
BRANCH   4   7
ATOM      7  C   UNL A   1      30.793  27.889  23.006  1.00  0.00     0.178 C 
BRANCH   7   8
ATOM      8  S   UNL A   1      32.408  27.404  22.445  1.00  0.00    -0.076 SA
BRANCH   8   9
ATOM      9  C   UNL A   1      32.690  25.702  22.381  1.00  0.00     0.191 A 
ATOM     10  N   UNL A   1      32.489  24.680  23.280  1.00  0.00    -0.302 N 
ATOM     11  C   UNL A   1      33.077  23.555  22.703  1.00  0.00     0.164 A 
ATOM     12  N   UNL A   1      33.367  25.232  21.353  1.00  0.00    -0.123 NA
ATOM     13  N   UNL A   1      33.627  23.909  21.560  1.00  0.00    -0.129 NA
BRANCH  10  14
ATOM     14  C   UNL A   1      31.970  24.706  24.630  1.00  0.00     0.123 C 
ATOM     15  C   UNL A   1      32.994  25.063  25.690  1.00  0.00     0.028 C 
ENDBRANCH  10  14
BRANCH  11  16
ATOM     16  C   UNL A   1      33.137  22.212  23.277  1.00  0.00     0.019 A 
ATOM     17  C   UNL A   1      34.138  21.879  24.199  1.00  0.00     0.012 A 
ATOM     18  C   UNL A   1      32.209  21.236  22.899  1.00  0.00     0.012 A 
ATOM     19  C   UNL A   1      34.184  20.599  24.766  1.00  0.00     0.004 A 
ATOM     20  C   UNL A   1      32.259  19.957  23.463  1.00  0.00     0.004 A 
ATOM     21  C   UNL A   1      33.240  19.631  24.404  1.00  0.00    -0.051 A 
ATOM     22  C   UNL A   1      33.273  18.263  25.027  1.00  0.00     0.044 C 
ENDBRANCH  11  16
ENDBRANCH   8   9
ENDBRANCH   7   8
ENDBRANCH   4   7
ENDBRANCH   2   3
ENDBRANCH   1   2
BRANCH   1  23
ATOM     23  C   UNL A   1      33.676  29.441  27.172  1.00  0.00     0.118 C 
BRANCH  23  24
ATOM     24  N   UNL A   1      33.896  30.887  27.063  1.00  0.00    -0.352 N 
ATOM     25  C   UNL A   1      34.943  31.639  27.585  1.00  0.00     0.251 C 
ATOM     26  H   UNL A   1      33.217  31.388  26.557  1.00  0.00     0.163 HD
ATOM     27  O   UNL A   1      34.855  32.850  27.671  1.00  0.00    -0.269 OA
BRANCH  25  28
ATOM     28  C   UNL A   1      36.163  30.935  28.038  1.00  0.00     0.039 A 
ATOM     29  C   UNL A   1      36.434  29.609  27.684  1.00  0.00     0.014 A 
ATOM     30  C   UNL A   1      37.066  31.655  28.808  1.00  0.00     0.014 A 
ATOM     31  C   UNL A   1      37.662  29.053  28.048  1.00  0.00     0.010 A 
ATOM     32  C   UNL A   1      38.339  31.190  28.972  1.00  0.00     0.010 A 
ATOM     33  C   UNL A   1      38.617  29.862  28.681  1.00  0.00    -0.014 A 
BRANCH  33  34
ATOM     34  C   UNL A   1      39.957  29.384  29.001  1.00  0.00     0.031 A 
ATOM     35  C   UNL A   1      40.242  29.248  30.454  1.00  0.00     0.074 A 
ATOM     36  C   UNL A   1      40.755  28.836  28.055  1.00  0.00     0.049 A 
ATOM     37  N   UNL A   1      41.075  29.930  31.166  1.00  0.00    -0.248 NA
ATOM     38  C   UNL A   1      39.390  28.343  31.244  1.00  0.00     0.031 C 
ATOM     39  C   UNL A   1      40.449  28.583  26.639  1.00  0.00     0.029 A 
ATOM     40  N   UNL A   1      41.976  28.257  28.193  1.00  0.00    -0.354 N 
ATOM     41  C   UNL A   1      41.029  29.371  32.443  1.00  0.00     0.074 A 
ATOM     42  C   UNL A   1      39.835  28.571  32.481  1.00  0.00     0.031 C 
ATOM     43  C   UNL A   1      41.329  27.692  26.134  1.00  0.00     0.029 A 
ATOM     44  C   UNL A   1      42.361  27.456  27.123  1.00  0.00     0.049 A 
ATOM     45  H   UNL A   1      42.543  28.393  28.986  1.00  0.00     0.167 HD
ATOM     46  C   UNL A   1      42.116  29.402  33.267  1.00  0.00     0.037 A 
ATOM     47  C   UNL A   1      43.436  26.628  27.072  1.00  0.00     0.037 A 
ATOM     48  C   UNL A   1      43.104  30.333  32.780  1.00  0.00     0.049 A 
ATOM     49  C   UNL A   1      44.372  27.081  28.135  1.00  0.00     0.074 A 
ATOM     50  C   UNL A   1      43.112  31.686  32.500  1.00  0.00     0.029 A 
ATOM     51  N   UNL A   1      44.201  29.811  32.134  1.00  0.00    -0.354 N 
ATOM     52  N   UNL A   1      44.974  28.240  28.127  1.00  0.00    -0.248 NA
ATOM     53  C   UNL A   1      44.269  26.446  29.440  1.00  0.00     0.031 C 
ATOM     54  C   UNL A   1      43.905  31.812  31.321  1.00  0.00     0.029 A 
ATOM     55  C   UNL A   1      44.398  30.548  30.994  1.00  0.00     0.049 A 
ATOM     56  H   UNL A   1      44.745  29.048  32.435  1.00  0.00     0.167 HD
ATOM     57  C   UNL A   1      44.938  28.672  29.445  1.00  0.00     0.074 A 
ATOM     58  C   UNL A   1      44.574  27.487  30.220  1.00  0.00     0.031 C 
ATOM     59  C   UNL A   1      44.919  30.003  29.757  1.00  0.00     0.037 A 
BRANCH  46  60
ATOM     60  C   UNL A   1      42.469  28.334  34.284  1.00  0.00     0.058 A 
ATOM     61  C   UNL A   1      42.445  28.664  35.657  1.00  0.00     0.135 A 
ATOM     62  C   UNL A   1      43.102  27.111  33.969  1.00  0.00     0.135 A 
ATOM     63  F   UNL A   1      41.862  29.798  36.077  1.00  0.00    -0.206 F 
ATOM     64  C   UNL A   1      43.089  27.894  36.625  1.00  0.00     0.059 A 
ATOM     65  C   UNL A   1      43.700  26.298  34.928  1.00  0.00     0.059 A 
ATOM     66  F   UNL A   1      43.266  26.686  32.713  1.00  0.00    -0.206 F 
ATOM     67  C   UNL A   1      43.733  26.721  36.244  1.00  0.00     0.060 A 
BRANCH  67  68
ATOM     68  S   UNL A   1      44.676  25.794  37.465  1.00  0.00     0.124 S 
ATOM     69  O   UNL A   1      44.044  26.225  38.707  1.00  0.00    -0.237 OA
ATOM     70  O   UNL A   1      44.421  24.415  37.062  1.00  0.00    -0.237 OA
ATOM     71  O   UNL A   1      46.044  26.260  37.257  1.00  0.00    -0.744 OA
ENDBRANCH  67  68
ENDBRANCH  46  60
BRANCH  47  72
ATOM     72  C   UNL A   1      43.537  25.303  26.404  1.00  0.00     0.058 A 
ATOM     73  C   UNL A   1      44.439  25.081  25.347  1.00  0.00     0.135 A 
ATOM     74  C   UNL A   1      42.947  24.150  26.963  1.00  0.00     0.135 A 
ATOM     75  F   UNL A   1      45.061  26.117  24.766  1.00  0.00    -0.206 F 
ATOM     76  C   UNL A   1      44.773  23.793  24.905  1.00  0.00     0.059 A 
ATOM     77  C   UNL A   1      43.253  22.860  26.531  1.00  0.00     0.059 A 
ATOM     78  F   UNL A   1      42.117  24.234  28.014  1.00  0.00    -0.206 F 
ATOM     79  C   UNL A   1      44.190  22.686  25.522  1.00  0.00     0.060 A 
BRANCH  79  80
ATOM     80  S   UNL A   1      44.735  21.020  25.075  1.00  0.00     0.124 S 
ATOM     81  O   UNL A   1      44.591  21.029  23.623  1.00  0.00    -0.237 OA
ATOM     82  O   UNL A   1      46.102  20.999  25.582  1.00  0.00    -0.237 OA
ATOM     83  O   UNL A   1      43.798  20.156  25.788  1.00  0.00    -0.744 OA
ENDBRANCH  79  80
ENDBRANCH  47  72
BRANCH  59  84
ATOM     84  C   UNL A   1      45.245  31.003  28.675  1.00  0.00     0.058 A 
ATOM     85  C   UNL A   1      44.333  31.458  27.705  1.00  0.00     0.135 A 
ATOM     86  C   UNL A   1      46.483  31.659  28.741  1.00  0.00     0.135 A 
ATOM     87  F   UNL A   1      43.093  30.958  27.635  1.00  0.00    -0.206 F 
ATOM     88  C   UNL A   1      44.649  32.497  26.826  1.00  0.00     0.059 A 
ATOM     89  C   UNL A   1      46.809  32.716  27.896  1.00  0.00     0.059 A 
ATOM     90  F   UNL A   1      47.376  31.312  29.684  1.00  0.00    -0.206 F 
ATOM     91  C   UNL A   1      45.889  33.124  26.932  1.00  0.00     0.060 A 
BRANCH  91  92
ATOM     92  S   UNL A   1      46.264  34.525  25.857  1.00  0.00     0.124 S 
ATOM     93  O   UNL A   1      46.001  35.663  26.732  1.00  0.00    -0.237 OA
ATOM     94  O   UNL A   1      47.666  34.298  25.516  1.00  0.00    -0.237 OA
ATOM     95  O   UNL A   1      45.329  34.363  24.746  1.00  0.00    -0.744 OA
ENDBRANCH  91  92
ENDBRANCH  59  84
ENDBRANCH  33  34
ENDBRANCH  25  28
ENDBRANCH  23  24
ENDBRANCH   1  23
TORSDOF 17
ENDMDL
