MODEL 1
REMARK VINA RESULT:     -11.1      0.000      0.000
REMARK SMILES CCC[C@H](Nc1cc(C)c(N)c(C(=O)NCCCNC(=O)c2ccc(-c3c4nc(c(-c5c(F)cc(S(=O)(=O)[O-])cc5F)c5ccc([nH]5)c(-c5c(F)cc(S(=O)(=O)[O-])cc5F)c5nc(c(-c6c(F)cc(S(=O)(=O)[O-])cc6F)c6ccc3[nH]6)C=C5)C=C4)cc2)c1)c1cccs1
REMARK SMILES IDX 16 1 15 2 13 3 14 4 12 6 6 7 7 8 88 9 8 10 9 11 10 12 5 13
REMARK SMILES IDX 4 15 3 16 2 17 1 18 89 19 90 20 93 21 91 22 92 23 11 24
REMARK SMILES IDX 17 27 18 28 19 29 20 30 21 32 22 33 23 34 87 35 24 36 86 37
REMARK SMILES IDX 25 38 26 39 27 40 80 41 28 42 85 43 79 44 81 45 29 46 84 47
REMARK SMILES IDX 78 48 77 49 30 51 64 52 43 53 63 54 44 55 47 56 62 57 82 58
REMARK SMILES IDX 45 59 46 60 61 62 83 63 48 64 31 65 32 66 41 67 33 68 34 69
REMARK SMILES IDX 40 70 42 71 35 72 36 73 37 74 38 75 39 76 65 77 66 78 75 79
REMARK SMILES IDX 67 80 68 81 74 82 76 83 69 84 70 85 71 86 72 87 73 88 49 89
REMARK SMILES IDX 50 90 59 91 51 92 52 93 58 94 60 95 53 96 54 97 55 98 56 99
REMARK SMILES IDX 57 100
REMARK H PARENT 15 5 5 14 11 25 11 26 19 31 81 50 47 61
REMARK Flexibility Score: inf
ROOT
ATOM      1  C   UNL A   1      32.526  28.985  27.228  1.00  0.00     0.118 C 
ENDROOT
BRANCH   1   2
ATOM      2  N   UNL A   1      31.726  28.737  26.043  1.00  0.00    -0.352 N 
ATOM      3  C   UNL A   1      31.432  27.614  25.312  1.00  0.00     0.253 C 
ATOM      4  O   UNL A   1      30.710  27.793  24.325  1.00  0.00    -0.269 OA
ATOM      5  H   UNL A   1      31.301  29.551  25.688  1.00  0.00     0.163 HD
BRANCH   3   6
ATOM      6  C   UNL A   1      31.883  26.225  25.661  1.00  0.00     0.065 A 
ATOM      7  C   UNL A   1      33.674  24.568  25.960  1.00  0.00     0.036 A 
ATOM      8  C   UNL A   1      32.718  23.667  26.417  1.00  0.00     0.031 A 
ATOM      9  C   UNL A   1      33.227  25.830  25.554  1.00  0.00     0.041 A 
ATOM     10  C   UNL A   1      31.346  23.979  26.436  1.00  0.00    -0.025 A 
ATOM     11  C   UNL A   1      30.372  22.919  26.876  1.00  0.00     0.046 C 
ATOM     12  C   UNL A   1      30.915  25.264  26.049  1.00  0.00     0.047 A 
BRANCH   7  13
ATOM     13  N   UNL A   1      35.025  24.267  25.922  1.00  0.00    -0.377 N 
ATOM     14  H   UNL A   1      35.608  24.830  26.482  1.00  0.00     0.161 HD
BRANCH  13  15
ATOM     15  C   UNL A   1      35.701  23.208  25.146  1.00  0.00     0.119 C 
BRANCH  15  16
ATOM     16  C   UNL A   1      35.601  23.319  23.607  1.00  0.00     0.030 C 
BRANCH  16  17
ATOM     17  C   UNL A   1      34.308  22.725  23.026  1.00  0.00    -0.001 C 
ATOM     18  C   UNL A   1      33.373  23.740  22.385  1.00  0.00     0.004 C 
ENDBRANCH  16  17
ENDBRANCH  15  16
BRANCH  15  19
ATOM     19  C   UNL A   1      37.122  22.844  25.569  1.00  0.00     0.027 A 
ATOM     20  C   UNL A   1      37.765  21.636  25.338  1.00  0.00     0.017 A 
ATOM     21  S   UNL A   1      38.140  23.911  26.441  1.00  0.00    -0.147 S 
ATOM     22  C   UNL A   1      39.085  21.600  25.867  1.00  0.00     0.012 A 
ATOM     23  C   UNL A   1      39.411  22.774  26.505  1.00  0.00     0.065 A 
ENDBRANCH  15  19
ENDBRANCH  13  15
ENDBRANCH   7  13
BRANCH  12  24
ATOM     24  N   UNL A   1      29.566  25.610  26.213  1.00  0.00    -0.398 N 
ATOM     25  H   UNL A   1      28.860  25.019  25.863  1.00  0.00     0.156 HD
ATOM     26  H   UNL A   1      29.324  26.443  26.677  1.00  0.00     0.156 HD
ENDBRANCH  12  24
ENDBRANCH   3   6
ENDBRANCH   1   2
BRANCH   1  27
ATOM     27  C   UNL A   1      33.867  29.624  26.856  1.00  0.00     0.042 C 
BRANCH  27  28
ATOM     28  C   UNL A   1      35.040  29.126  27.704  1.00  0.00     0.118 C 
BRANCH  28  29
ATOM     29  N   UNL A   1      35.206  29.917  28.913  1.00  0.00    -0.352 N 
ATOM     30  C   UNL A   1      36.307  30.125  29.701  1.00  0.00     0.251 C 
ATOM     31  H   UNL A   1      34.392  30.380  29.216  1.00  0.00     0.163 HD
ATOM     32  O   UNL A   1      36.147  30.643  30.806  1.00  0.00    -0.269 OA
BRANCH  30  33
ATOM     33  C   UNL A   1      37.668  29.746  29.257  1.00  0.00     0.039 A 
ATOM     34  C   UNL A   1      38.597  29.367  30.233  1.00  0.00     0.014 A 
ATOM     35  C   UNL A   1      38.071  29.844  27.922  1.00  0.00     0.014 A 
ATOM     36  C   UNL A   1      39.910  29.065  29.870  1.00  0.00     0.010 A 
ATOM     37  C   UNL A   1      39.370  29.484  27.551  1.00  0.00     0.010 A 
ATOM     38  C   UNL A   1      40.306  29.104  28.523  1.00  0.00    -0.014 A 
BRANCH  38  39
ATOM     39  C   UNL A   1      41.696  28.742  28.144  1.00  0.00     0.031 A 
ATOM     40  C   UNL A   1      42.789  29.776  28.133  1.00  0.00     0.074 A 
ATOM     41  C   UNL A   1      41.970  27.469  27.799  1.00  0.00     0.049 A 
ATOM     42  N   UNL A   1      44.065  29.625  27.881  1.00  0.00    -0.248 NA
ATOM     43  C   UNL A   1      42.398  31.164  28.422  1.00  0.00     0.031 C 
ATOM     44  C   UNL A   1      40.984  26.389  27.710  1.00  0.00     0.029 A 
ATOM     45  N   UNL A   1      43.155  26.862  27.467  1.00  0.00    -0.354 N 
ATOM     46  C   UNL A   1      44.627  30.893  27.974  1.00  0.00     0.074 A 
ATOM     47  C   UNL A   1      43.544  31.811  28.258  1.00  0.00     0.031 C 
ATOM     48  C   UNL A   1      41.610  25.247  27.383  1.00  0.00     0.029 A 
ATOM     49  C   UNL A   1      43.035  25.516  27.218  1.00  0.00     0.049 A 
ATOM     50  H   UNL A   1      44.010  27.346  27.412  1.00  0.00     0.167 HD
ATOM     51  C   UNL A   1      45.928  31.257  27.856  1.00  0.00     0.037 A 
ATOM     52  C   UNL A   1      43.969  24.598  26.907  1.00  0.00     0.037 A 
ATOM     53  C   UNL A   1      47.005  30.335  27.595  1.00  0.00     0.049 A 
ATOM     54  C   UNL A   1      45.410  25.016  26.827  1.00  0.00     0.074 A 
ATOM     55  C   UNL A   1      48.363  30.594  27.513  1.00  0.00     0.029 A 
ATOM     56  N   UNL A   1      46.847  28.975  27.373  1.00  0.00    -0.354 N 
ATOM     57  N   UNL A   1      45.931  26.209  26.988  1.00  0.00    -0.248 NA
ATOM     58  C   UNL A   1      46.391  23.962  26.541  1.00  0.00     0.031 C 
ATOM     59  C   UNL A   1      49.021  29.397  27.210  1.00  0.00     0.029 A 
ATOM     60  C   UNL A   1      48.079  28.384  27.142  1.00  0.00     0.049 A 
ATOM     61  H   UNL A   1      45.986  28.499  27.379  1.00  0.00     0.167 HD
ATOM     62  C   UNL A   1      47.303  26.046  26.838  1.00  0.00     0.074 A 
ATOM     63  C   UNL A   1      47.531  24.635  26.597  1.00  0.00     0.031 C 
ATOM     64  C   UNL A   1      48.286  26.980  26.893  1.00  0.00     0.037 A 
BRANCH  51  65
ATOM     65  C   UNL A   1      46.260  32.716  28.019  1.00  0.00     0.058 A 
ATOM     66  C   UNL A   1      46.739  33.230  29.235  1.00  0.00     0.135 A 
ATOM     67  C   UNL A   1      46.128  33.606  26.940  1.00  0.00     0.135 A 
ATOM     68  F   UNL A   1      46.872  32.426  30.302  1.00  0.00    -0.206 F 
ATOM     69  C   UNL A   1      47.047  34.578  29.386  1.00  0.00     0.059 A 
ATOM     70  C   UNL A   1      46.453  34.955  27.062  1.00  0.00     0.059 A 
ATOM     71  F   UNL A   1      45.677  33.169  25.754  1.00  0.00    -0.206 F 
ATOM     72  C   UNL A   1      46.897  35.434  28.294  1.00  0.00     0.060 A 
BRANCH  72  73
ATOM     73  S   UNL A   1      47.299  37.182  28.502  1.00  0.00     0.124 S 
ATOM     74  O   UNL A   1      48.389  37.115  29.472  1.00  0.00    -0.237 OA
ATOM     75  O   UNL A   1      47.684  37.579  27.148  1.00  0.00    -0.237 OA
ATOM     76  O   UNL A   1      46.057  37.763  28.992  1.00  0.00    -0.744 OA
ENDBRANCH  72  73
ENDBRANCH  51  65
BRANCH  52  77
ATOM     77  C   UNL A   1      43.570  23.182  26.696  1.00  0.00     0.058 A 
ATOM     78  C   UNL A   1      43.596  22.608  25.417  1.00  0.00     0.135 A 
ATOM     79  C   UNL A   1      43.179  22.369  27.772  1.00  0.00     0.135 A 
ATOM     80  F   UNL A   1      43.960  23.347  24.358  1.00  0.00    -0.206 F 
ATOM     81  C   UNL A   1      43.239  21.280  25.207  1.00  0.00     0.059 A 
ATOM     82  C   UNL A   1      42.839  21.032  27.590  1.00  0.00     0.059 A 
ATOM     83  F   UNL A   1      43.157  22.866  29.018  1.00  0.00    -0.206 F 
ATOM     84  C   UNL A   1      42.864  20.499  26.301  1.00  0.00     0.060 A 
BRANCH  84  85
ATOM     85  S   UNL A   1      42.461  18.760  26.031  1.00  0.00     0.124 S 
ATOM     86  O   UNL A   1      41.054  18.839  25.655  1.00  0.00    -0.237 OA
ATOM     87  O   UNL A   1      43.387  18.389  24.966  1.00  0.00    -0.237 OA
ATOM     88  O   UNL A   1      42.735  18.148  27.328  1.00  0.00    -0.744 OA
ENDBRANCH  84  85
ENDBRANCH  52  77
BRANCH  64  89
ATOM     89  C   UNL A   1      49.696  26.492  26.702  1.00  0.00     0.058 A 
ATOM     90  C   UNL A   1      50.475  26.054  27.785  1.00  0.00     0.135 A 
ATOM     91  C   UNL A   1      50.273  26.462  25.422  1.00  0.00     0.135 A 
ATOM     92  F   UNL A   1      49.970  26.068  29.029  1.00  0.00    -0.206 F 
ATOM     93  C   UNL A   1      51.793  25.646  27.613  1.00  0.00     0.059 A 
ATOM     94  C   UNL A   1      51.581  26.033  25.224  1.00  0.00     0.059 A 
ATOM     95  F   UNL A   1      49.567  26.857  24.352  1.00  0.00    -0.206 F 
ATOM     96  C   UNL A   1      52.341  25.647  26.328  1.00  0.00     0.060 A 
BRANCH  96  97
ATOM     97  S   UNL A   1      54.056  25.128  26.114  1.00  0.00     0.124 S 
ATOM     98  O   UNL A   1      53.895  23.722  25.761  1.00  0.00    -0.237 OA
ATOM     99  O   UNL A   1      54.520  26.002  25.042  1.00  0.00    -0.237 OA
ATOM    100  O   UNL A   1      54.652  25.384  27.423  1.00  0.00    -0.744 OA
ENDBRANCH  96  97
ENDBRANCH  64  89
ENDBRANCH  38  39
ENDBRANCH  30  33
ENDBRANCH  28  29
ENDBRANCH  27  28
ENDBRANCH   1  27
TORSDOF 19
ENDMDL
MODEL 2
REMARK VINA RESULT:     -11.1      1.058      1.988
REMARK SMILES CCC[C@H](Nc1cc(C)c(N)c(C(=O)NCCCNC(=O)c2ccc(-c3c4nc(c(-c5c(F)cc(S(=O)(=O)[O-])cc5F)c5ccc([nH]5)c(-c5c(F)cc(S(=O)(=O)[O-])cc5F)c5nc(c(-c6c(F)cc(S(=O)(=O)[O-])cc6F)c6ccc3[nH]6)C=C5)C=C4)cc2)c1)c1cccs1
REMARK SMILES IDX 16 1 15 2 13 3 14 4 12 6 6 7 7 8 88 9 8 10 9 11 10 12 5 13
REMARK SMILES IDX 4 15 3 16 2 17 1 18 89 19 90 20 93 21 91 22 92 23 11 24
REMARK SMILES IDX 17 27 18 28 19 29 20 30 21 32 22 33 23 34 87 35 24 36 86 37
REMARK SMILES IDX 25 38 26 39 27 40 80 41 28 42 85 43 79 44 81 45 29 46 84 47
REMARK SMILES IDX 78 48 77 49 30 51 64 52 43 53 63 54 44 55 47 56 62 57 82 58
REMARK SMILES IDX 45 59 46 60 61 62 83 63 48 64 31 65 32 66 41 67 33 68 34 69
REMARK SMILES IDX 40 70 42 71 35 72 36 73 37 74 38 75 39 76 65 77 66 78 75 79
REMARK SMILES IDX 67 80 68 81 74 82 76 83 69 84 70 85 71 86 72 87 73 88 49 89
REMARK SMILES IDX 50 90 59 91 51 92 52 93 58 94 60 95 53 96 54 97 55 98 56 99
REMARK SMILES IDX 57 100
REMARK H PARENT 15 5 5 14 11 25 11 26 19 31 81 50 47 61
REMARK Flexibility Score: inf
ROOT
ATOM      1  C   UNL A   1      33.907  29.144  26.789  1.00  0.00     0.118 C 
ENDROOT
BRANCH   1   2
ATOM      2  N   UNL A   1      33.962  29.306  25.348  1.00  0.00    -0.352 N 
ATOM      3  C   UNL A   1      33.435  28.609  24.291  1.00  0.00     0.253 C 
ATOM      4  O   UNL A   1      33.716  29.045  23.169  1.00  0.00    -0.269 OA
ATOM      5  H   UNL A   1      34.493  30.087  25.069  1.00  0.00     0.163 HD
BRANCH   3   6
ATOM      6  C   UNL A   1      32.528  27.419  24.420  1.00  0.00     0.065 A 
ATOM      7  C   UNL A   1      32.158  25.064  25.019  1.00  0.00     0.036 A 
ATOM      8  C   UNL A   1      30.804  25.245  24.756  1.00  0.00     0.031 A 
ATOM      9  C   UNL A   1      33.006  26.157  24.808  1.00  0.00     0.041 A 
ATOM     10  C   UNL A   1      30.295  26.457  24.257  1.00  0.00    -0.025 A 
ATOM     11  C   UNL A   1      28.828  26.544  23.931  1.00  0.00     0.046 C 
ATOM     12  C   UNL A   1      31.158  27.558  24.077  1.00  0.00     0.047 A 
BRANCH   7  13
ATOM     13  N   UNL A   1      32.674  23.871  25.495  1.00  0.00    -0.377 N 
ATOM     14  H   UNL A   1      32.455  23.649  26.429  1.00  0.00     0.161 HD
BRANCH  13  15
ATOM     15  C   UNL A   1      33.510  22.889  24.776  1.00  0.00     0.119 C 
BRANCH  15  16
ATOM     16  C   UNL A   1      33.303  22.803  23.246  1.00  0.00     0.030 C 
BRANCH  16  17
ATOM     17  C   UNL A   1      32.396  21.641  22.808  1.00  0.00    -0.001 C 
ATOM     18  C   UNL A   1      32.367  20.460  23.767  1.00  0.00     0.004 C 
ENDBRANCH  16  17
ENDBRANCH  15  16
BRANCH  15  19
ATOM     19  C   UNL A   1      34.998  22.868  25.119  1.00  0.00     0.027 A 
ATOM     20  C   UNL A   1      35.825  23.973  25.260  1.00  0.00     0.017 A 
ATOM     21  S   UNL A   1      35.883  21.421  25.355  1.00  0.00    -0.147 S 
ATOM     22  C   UNL A   1      37.169  23.625  25.571  1.00  0.00     0.012 A 
ATOM     23  C   UNL A   1      37.340  22.262  25.641  1.00  0.00     0.065 A 
ENDBRANCH  15  19
ENDBRANCH  13  15
ENDBRANCH   7  13
BRANCH  12  24
ATOM     24  N   UNL A   1      30.615  28.801  23.722  1.00  0.00    -0.398 N 
ATOM     25  H   UNL A   1      31.206  29.579  23.600  1.00  0.00     0.156 HD
ATOM     26  H   UNL A   1      29.644  28.896  23.595  1.00  0.00     0.156 HD
ENDBRANCH  12  24
ENDBRANCH   3   6
ENDBRANCH   1   2
BRANCH   1  27
ATOM     27  C   UNL A   1      34.007  30.499  27.495  1.00  0.00     0.042 C 
BRANCH  27  28
ATOM     28  C   UNL A   1      35.406  30.808  28.034  1.00  0.00     0.118 C 
BRANCH  28  29
ATOM     29  N   UNL A   1      35.473  30.658  29.478  1.00  0.00    -0.352 N 
ATOM     30  C   UNL A   1      36.423  30.074  30.274  1.00  0.00     0.251 C 
ATOM     31  H   UNL A   1      34.708  31.040  29.967  1.00  0.00     0.163 HD
ATOM     32  O   UNL A   1      36.148  29.859  31.454  1.00  0.00    -0.269 OA
BRANCH  30  33
ATOM     33  C   UNL A   1      37.758  29.701  29.751  1.00  0.00     0.039 A 
ATOM     34  C   UNL A   1      38.763  29.394  30.674  1.00  0.00     0.014 A 
ATOM     35  C   UNL A   1      38.060  29.738  28.387  1.00  0.00     0.014 A 
ATOM     36  C   UNL A   1      40.055  29.102  30.232  1.00  0.00     0.010 A 
ATOM     37  C   UNL A   1      39.338  29.387  27.941  1.00  0.00     0.010 A 
ATOM     38  C   UNL A   1      40.351  29.079  28.860  1.00  0.00    -0.014 A 
BRANCH  38  39
ATOM     39  C   UNL A   1      41.719  28.727  28.398  1.00  0.00     0.031 A 
ATOM     40  C   UNL A   1      42.809  29.763  28.350  1.00  0.00     0.074 A 
ATOM     41  C   UNL A   1      41.975  27.462  28.012  1.00  0.00     0.049 A 
ATOM     42  N   UNL A   1      44.070  29.619  28.027  1.00  0.00    -0.248 NA
ATOM     43  C   UNL A   1      42.433  31.144  28.689  1.00  0.00     0.031 C 
ATOM     44  C   UNL A   1      40.986  26.382  27.954  1.00  0.00     0.029 A 
ATOM     45  N   UNL A   1      43.140  26.864  27.604  1.00  0.00    -0.354 N 
ATOM     46  C   UNL A   1      44.635  30.887  28.116  1.00  0.00     0.074 A 
ATOM     47  C   UNL A   1      43.569  31.796  28.477  1.00  0.00     0.031 C 
ATOM     48  C   UNL A   1      41.594  25.249  27.570  1.00  0.00     0.029 A 
ATOM     49  C   UNL A   1      43.008  25.523  27.334  1.00  0.00     0.049 A 
ATOM     50  H   UNL A   1      43.991  27.351  27.514  1.00  0.00     0.167 HD
ATOM     51  C   UNL A   1      45.927  31.255  27.936  1.00  0.00     0.037 A 
ATOM     52  C   UNL A   1      43.924  24.614  26.954  1.00  0.00     0.037 A 
ATOM     53  C   UNL A   1      46.990  30.340  27.598  1.00  0.00     0.049 A 
ATOM     54  C   UNL A   1      45.358  25.036  26.805  1.00  0.00     0.074 A 
ATOM     55  C   UNL A   1      48.341  30.604  27.448  1.00  0.00     0.029 A 
ATOM     56  N   UNL A   1      46.820  28.985  27.356  1.00  0.00    -0.354 N 
ATOM     57  N   UNL A   1      45.887  26.226  26.962  1.00  0.00    -0.248 NA
ATOM     58  C   UNL A   1      46.323  23.990  26.444  1.00  0.00     0.031 C 
ATOM     59  C   UNL A   1      48.983  29.415  27.084  1.00  0.00     0.029 A 
ATOM     60  C   UNL A   1      48.038  28.401  27.046  1.00  0.00     0.049 A 
ATOM     61  H   UNL A   1      45.961  28.507  27.398  1.00  0.00     0.167 HD
ATOM     62  C   UNL A   1      47.249  26.069  26.736  1.00  0.00     0.074 A 
ATOM     63  C   UNL A   1      47.465  24.664  26.453  1.00  0.00     0.031 C 
ATOM     64  C   UNL A   1      48.233  27.003  26.757  1.00  0.00     0.037 A 
BRANCH  51  65
ATOM     65  C   UNL A   1      46.267  32.711  28.111  1.00  0.00     0.058 A 
ATOM     66  C   UNL A   1      46.127  33.630  27.058  1.00  0.00     0.135 A 
ATOM     67  C   UNL A   1      46.707  33.201  29.352  1.00  0.00     0.135 A 
ATOM     68  F   UNL A   1      45.723  33.214  25.847  1.00  0.00    -0.206 F 
ATOM     69  C   UNL A   1      46.441  34.976  27.220  1.00  0.00     0.059 A 
ATOM     70  C   UNL A   1      47.003  34.549  29.542  1.00  0.00     0.059 A 
ATOM     71  F   UNL A   1      46.856  32.367  30.393  1.00  0.00    -0.206 F 
ATOM     72  C   UNL A   1      46.882  35.425  28.465  1.00  0.00     0.060 A 
BRANCH  72  73
ATOM     73  S   UNL A   1      47.286  37.174  28.662  1.00  0.00     0.124 S 
ATOM     74  O   UNL A   1      47.214  37.645  27.281  1.00  0.00    -0.237 OA
ATOM     75  O   UNL A   1      46.220  37.644  29.545  1.00  0.00    -0.237 OA
ATOM     76  O   UNL A   1      48.618  37.153  29.250  1.00  0.00    -0.744 OA
ENDBRANCH  72  73
ENDBRANCH  51  65
BRANCH  52  77
ATOM     77  C   UNL A   1      43.515  23.202  26.735  1.00  0.00     0.058 A 
ATOM     78  C   UNL A   1      43.501  22.646  25.447  1.00  0.00     0.135 A 
ATOM     79  C   UNL A   1      43.155  22.374  27.810  1.00  0.00     0.135 A 
ATOM     80  F   UNL A   1      43.835  23.400  24.389  1.00  0.00    -0.206 F 
ATOM     81  C   UNL A   1      43.134  21.323  25.229  1.00  0.00     0.059 A 
ATOM     82  C   UNL A   1      42.806  21.041  27.620  1.00  0.00     0.059 A 
ATOM     83  F   UNL A   1      43.172  22.854  29.063  1.00  0.00    -0.206 F 
ATOM     84  C   UNL A   1      42.791  20.527  26.323  1.00  0.00     0.060 A 
BRANCH  84  85
ATOM     85  S   UNL A   1      42.375  18.792  26.041  1.00  0.00     0.124 S 
ATOM     86  O   UNL A   1      42.665  18.204  27.343  1.00  0.00    -0.237 OA
ATOM     87  O   UNL A   1      40.964  18.868  25.674  1.00  0.00    -0.237 OA
ATOM     88  O   UNL A   1      43.274  18.405  24.957  1.00  0.00    -0.744 OA
ENDBRANCH  84  85
ENDBRANCH  52  77
BRANCH  64  89
ATOM     89  C   UNL A   1      49.631  26.522  26.480  1.00  0.00     0.058 A 
ATOM     90  C   UNL A   1      50.160  26.511  25.180  1.00  0.00     0.135 A 
ATOM     91  C   UNL A   1      50.449  26.066  27.526  1.00  0.00     0.135 A 
ATOM     92  F   UNL A   1      49.416  26.933  24.144  1.00  0.00    -0.206 F 
ATOM     93  C   UNL A   1      51.436  26.024  24.919  1.00  0.00     0.059 A 
ATOM     94  C   UNL A   1      51.737  25.598  27.292  1.00  0.00     0.059 A 
ATOM     95  F   UNL A   1      49.996  26.067  28.789  1.00  0.00    -0.206 F 
ATOM     96  C   UNL A   1      52.215  25.561  25.982  1.00  0.00     0.060 A 
BRANCH  96  97
ATOM     97  S   UNL A   1      53.865  24.917  25.634  1.00  0.00     0.124 S 
ATOM     98  O   UNL A   1      53.566  23.545  25.240  1.00  0.00    -0.237 OA
ATOM     99  O   UNL A   1      54.329  25.797  24.566  1.00  0.00    -0.237 OA
ATOM    100  O   UNL A   1      54.562  25.069  26.908  1.00  0.00    -0.744 OA
ENDBRANCH  96  97
ENDBRANCH  64  89
ENDBRANCH  38  39
ENDBRANCH  30  33
ENDBRANCH  28  29
ENDBRANCH  27  28
ENDBRANCH   1  27
TORSDOF 19
ENDMDL
MODEL 3
REMARK VINA RESULT:     -10.8      6.765     12.180
REMARK SMILES CCC[C@H](Nc1cc(C)c(N)c(C(=O)NCCCNC(=O)c2ccc(-c3c4nc(c(-c5c(F)cc(S(=O)(=O)[O-])cc5F)c5ccc([nH]5)c(-c5c(F)cc(S(=O)(=O)[O-])cc5F)c5nc(c(-c6c(F)cc(S(=O)(=O)[O-])cc6F)c6ccc3[nH]6)C=C5)C=C4)cc2)c1)c1cccs1
REMARK SMILES IDX 16 1 15 2 13 3 14 4 12 6 6 7 7 8 88 9 8 10 9 11 10 12 5 13
REMARK SMILES IDX 4 15 3 16 2 17 1 18 89 19 90 20 93 21 91 22 92 23 11 24
REMARK SMILES IDX 17 27 18 28 19 29 20 30 21 32 22 33 23 34 87 35 24 36 86 37
REMARK SMILES IDX 25 38 26 39 27 40 80 41 28 42 85 43 79 44 81 45 29 46 84 47
REMARK SMILES IDX 78 48 77 49 30 51 64 52 43 53 63 54 44 55 47 56 62 57 82 58
REMARK SMILES IDX 45 59 46 60 61 62 83 63 48 64 31 65 32 66 41 67 33 68 34 69
REMARK SMILES IDX 40 70 42 71 35 72 36 73 37 74 38 75 39 76 65 77 66 78 75 79
REMARK SMILES IDX 67 80 68 81 74 82 76 83 69 84 70 85 71 86 72 87 73 88 49 89
REMARK SMILES IDX 50 90 59 91 51 92 52 93 58 94 60 95 53 96 54 97 55 98 56 99
REMARK SMILES IDX 57 100
REMARK H PARENT 15 5 5 14 11 25 11 26 19 31 81 50 47 61
REMARK Flexibility Score: inf
ROOT
ATOM      1  C   UNL A   1      37.620  22.657  25.866  1.00  0.00     0.118 C 
ENDROOT
BRANCH   1   2
ATOM      2  N   UNL A   1      37.187  22.702  24.482  1.00  0.00    -0.352 N 
ATOM      3  C   UNL A   1      36.032  23.101  23.859  1.00  0.00     0.253 C 
ATOM      4  O   UNL A   1      36.016  22.975  22.630  1.00  0.00    -0.269 OA
ATOM      5  H   UNL A   1      37.871  22.376  23.854  1.00  0.00     0.163 HD
BRANCH   3   6
ATOM      6  C   UNL A   1      34.850  23.707  24.559  1.00  0.00     0.065 A 
ATOM      7  C   UNL A   1      33.771  25.609  25.683  1.00  0.00     0.036 A 
ATOM      8  C   UNL A   1      32.605  24.855  25.766  1.00  0.00     0.031 A 
ATOM      9  C   UNL A   1      34.892  25.000  25.108  1.00  0.00     0.041 A 
ATOM     10  C   UNL A   1      32.547  23.518  25.333  1.00  0.00    -0.025 A 
ATOM     11  C   UNL A   1      31.266  22.752  25.526  1.00  0.00     0.046 C 
ATOM     12  C   UNL A   1      33.677  22.928  24.730  1.00  0.00     0.047 A 
BRANCH   7  13
ATOM     13  N   UNL A   1      33.845  26.921  26.120  1.00  0.00    -0.377 N 
ATOM     14  H   UNL A   1      34.729  27.222  26.433  1.00  0.00     0.161 HD
BRANCH  13  15
ATOM     15  C   UNL A   1      32.763  27.925  26.175  1.00  0.00     0.119 C 
BRANCH  15  16
ATOM     16  C   UNL A   1      33.009  29.146  27.090  1.00  0.00     0.030 C 
BRANCH  16  17
ATOM     17  C   UNL A   1      34.493  29.516  27.243  1.00  0.00    -0.001 C 
ATOM     18  C   UNL A   1      34.749  30.869  27.890  1.00  0.00     0.004 C 
ENDBRANCH  16  17
ENDBRANCH  15  16
BRANCH  15  19
ATOM     19  C   UNL A   1      32.162  28.364  24.842  1.00  0.00     0.027 A 
ATOM     20  C   UNL A   1      30.812  28.494  24.552  1.00  0.00     0.017 A 
ATOM     21  S   UNL A   1      33.112  28.740  23.467  1.00  0.00    -0.147 S 
ATOM     22  C   UNL A   1      30.569  28.911  23.213  1.00  0.00     0.012 A 
ATOM     23  C   UNL A   1      31.739  29.070  22.508  1.00  0.00     0.065 A 
ENDBRANCH  15  19
ENDBRANCH  13  15
ENDBRANCH   7  13
BRANCH  12  24
ATOM     24  N   UNL A   1      33.561  21.648  24.170  1.00  0.00    -0.398 N 
ATOM     25  H   UNL A   1      33.317  21.546  23.221  1.00  0.00     0.156 HD
ATOM     26  H   UNL A   1      33.724  20.851  24.724  1.00  0.00     0.156 HD
ENDBRANCH  12  24
ENDBRANCH   3   6
ENDBRANCH   1   2
BRANCH   1  27
ATOM     27  C   UNL A   1      38.455  23.892  26.217  1.00  0.00     0.042 C 
BRANCH  27  28
ATOM     28  C   UNL A   1      39.791  23.559  26.885  1.00  0.00     0.118 C 
BRANCH  28  29
ATOM     29  N   UNL A   1      40.918  24.069  26.122  1.00  0.00    -0.352 N 
ATOM     30  C   UNL A   1      41.599  25.255  26.217  1.00  0.00     0.251 C 
ATOM     31  H   UNL A   1      41.248  23.463  25.421  1.00  0.00     0.163 HD
ATOM     32  O   UNL A   1      42.367  25.563  25.306  1.00  0.00    -0.269 OA
BRANCH  30  33
ATOM     33  C   UNL A   1      41.433  26.161  27.376  1.00  0.00     0.039 A 
ATOM     34  C   UNL A   1      40.436  25.859  28.310  1.00  0.00     0.014 A 
ATOM     35  C   UNL A   1      42.172  27.340  27.512  1.00  0.00     0.014 A 
ATOM     36  C   UNL A   1      40.198  26.718  29.383  1.00  0.00     0.010 A 
ATOM     37  C   UNL A   1      41.974  28.170  28.620  1.00  0.00     0.010 A 
ATOM     38  C   UNL A   1      40.976  27.874  29.559  1.00  0.00    -0.014 A 
BRANCH  38  39
ATOM     39  C   UNL A   1      40.740  28.761  30.728  1.00  0.00     0.031 A 
ATOM     40  C   UNL A   1      41.578  28.641  31.971  1.00  0.00     0.074 A 
ATOM     41  C   UNL A   1      39.753  29.676  30.666  1.00  0.00     0.049 A 
ATOM     42  N   UNL A   1      41.546  29.366  33.061  1.00  0.00    -0.248 NA
ATOM     43  C   UNL A   1      42.569  27.554  32.007  1.00  0.00     0.031 C 
ATOM     44  C   UNL A   1      38.832  29.848  29.540  1.00  0.00     0.029 A 
ATOM     45  N   UNL A   1      39.364  30.640  31.561  1.00  0.00    -0.354 N 
ATOM     46  C   UNL A   1      42.501  28.823  33.912  1.00  0.00     0.074 A 
ATOM     47  C   UNL A   1      43.064  27.676  33.231  1.00  0.00     0.031 C 
ATOM     48  C   UNL A   1      38.009  30.877  29.798  1.00  0.00     0.029 A 
ATOM     49  C   UNL A   1      38.329  31.425  31.111  1.00  0.00     0.049 A 
ATOM     50  H   UNL A   1      39.787  30.758  32.442  1.00  0.00     0.167 HD
ATOM     51  C   UNL A   1      42.890  29.252  35.138  1.00  0.00     0.037 A 
ATOM     52  C   UNL A   1      37.716  32.476  31.686  1.00  0.00     0.037 A 
ATOM     53  C   UNL A   1      42.341  30.409  35.801  1.00  0.00     0.049 A 
ATOM     54  C   UNL A   1      38.195  32.962  33.025  1.00  0.00     0.074 A 
ATOM     55  C   UNL A   1      42.706  30.960  37.019  1.00  0.00     0.029 A 
ATOM     56  N   UNL A   1      41.311  31.192  35.303  1.00  0.00    -0.354 N 
ATOM     57  N   UNL A   1      39.148  32.478  33.784  1.00  0.00    -0.248 NA
ATOM     58  C   UNL A   1      37.527  34.147  33.577  1.00  0.00     0.031 C 
ATOM     59  C   UNL A   1      41.874  32.057  37.271  1.00  0.00     0.029 A 
ATOM     60  C   UNL A   1      41.018  32.214  36.192  1.00  0.00     0.049 A 
ATOM     61  H   UNL A   1      40.854  31.045  34.444  1.00  0.00     0.167 HD
ATOM     62  C   UNL A   1      39.206  33.308  34.897  1.00  0.00     0.074 A 
ATOM     63  C   UNL A   1      38.207  34.339  34.699  1.00  0.00     0.031 C 
ATOM     64  C   UNL A   1      40.012  33.225  35.985  1.00  0.00     0.037 A 
BRANCH  51  65
ATOM     65  C   UNL A   1      43.970  28.472  35.838  1.00  0.00     0.058 A 
ATOM     66  C   UNL A   1      45.331  28.764  35.646  1.00  0.00     0.135 A 
ATOM     67  C   UNL A   1      43.643  27.441  36.735  1.00  0.00     0.135 A 
ATOM     68  F   UNL A   1      45.700  29.731  34.791  1.00  0.00    -0.206 F 
ATOM     69  C   UNL A   1      46.329  28.044  36.295  1.00  0.00     0.059 A 
ATOM     70  C   UNL A   1      44.626  26.723  37.413  1.00  0.00     0.059 A 
ATOM     71  F   UNL A   1      42.359  27.121  36.958  1.00  0.00    -0.206 F 
ATOM     72  C   UNL A   1      45.966  27.021  37.173  1.00  0.00     0.060 A 
BRANCH  72  73
ATOM     73  S   UNL A   1      47.271  26.093  38.008  1.00  0.00     0.124 S 
ATOM     74  O   UNL A   1      47.363  26.804  39.281  1.00  0.00    -0.237 OA
ATOM     75  O   UNL A   1      46.704  24.748  38.077  1.00  0.00    -0.237 OA
ATOM     76  O   UNL A   1      48.417  26.242  37.121  1.00  0.00    -0.744 OA
ENDBRANCH  72  73
ENDBRANCH  51  65
BRANCH  52  77
ATOM     77  C   UNL A   1      36.612  33.168  30.971  1.00  0.00     0.058 A 
ATOM     78  C   UNL A   1      36.870  33.976  29.854  1.00  0.00     0.135 A 
ATOM     79  C   UNL A   1      35.276  33.014  31.374  1.00  0.00     0.135 A 
ATOM     80  F   UNL A   1      38.131  34.154  29.434  1.00  0.00    -0.206 F 
ATOM     81  C   UNL A   1      35.845  34.617  29.167  1.00  0.00     0.059 A 
ATOM     82  C   UNL A   1      34.232  33.627  30.690  1.00  0.00     0.059 A 
ATOM     83  F   UNL A   1      34.976  32.235  32.425  1.00  0.00    -0.206 F 
ATOM     84  C   UNL A   1      34.528  34.434  29.591  1.00  0.00     0.060 A 
BRANCH  84  85
ATOM     85  S   UNL A   1      33.196  35.220  28.658  1.00  0.00     0.124 S 
ATOM     86  O   UNL A   1      33.933  36.174  27.840  1.00  0.00    -0.237 OA
ATOM     87  O   UNL A   1      32.607  34.089  27.947  1.00  0.00    -0.237 OA
ATOM     88  O   UNL A   1      32.354  35.798  29.701  1.00  0.00    -0.744 OA
ENDBRANCH  84  85
ENDBRANCH  52  77
BRANCH  64  89
ATOM     89  C   UNL A   1      39.847  34.291  37.033  1.00  0.00     0.058 A 
ATOM     90  C   UNL A   1      40.488  35.535  36.923  1.00  0.00     0.135 A 
ATOM     91  C   UNL A   1      39.041  34.064  38.160  1.00  0.00     0.135 A 
ATOM     92  F   UNL A   1      41.274  35.798  35.866  1.00  0.00    -0.206 F 
ATOM     93  C   UNL A   1      40.371  36.503  37.915  1.00  0.00     0.059 A 
ATOM     94  C   UNL A   1      38.889  35.027  39.152  1.00  0.00     0.059 A 
ATOM     95  F   UNL A   1      38.396  32.896  38.308  1.00  0.00    -0.206 F 
ATOM     96  C   UNL A   1      39.575  36.236  39.031  1.00  0.00     0.060 A 
BRANCH  96  97
ATOM     97  S   UNL A   1      39.439  37.491  40.321  1.00  0.00     0.124 S 
ATOM     98  O   UNL A   1      38.706  36.769  41.355  1.00  0.00    -0.237 OA
ATOM     99  O   UNL A   1      40.835  37.788  40.623  1.00  0.00    -0.237 OA
ATOM    100  O   UNL A   1      38.704  38.570  39.665  1.00  0.00    -0.744 OA
ENDBRANCH  96  97
ENDBRANCH  64  89
ENDBRANCH  38  39
ENDBRANCH  30  33
ENDBRANCH  28  29
ENDBRANCH  27  28
ENDBRANCH   1  27
TORSDOF 19
ENDMDL
