MODEL 1
REMARK VINA RESULT:     -12.7      0.000      0.000
REMARK SMILES Cc1cccc(C(=O)Nc2cc(C(=O)NCCCNC(=O)c3ccc(-c4c5nc(c(-c6c(F)cc(S(=O)(=O)[O-])cc6F)c6ccc([nH]6)c(-c6c(F)cc(S(=O)(=O)[O-])cc6F)c6nc(c(-c7c(F)cc(S(=O)(=O)[O-])cc7F)c7ccc4[nH]7)C=C6)C=C5)cc3)ccc2N2CC[NH+](CC(=O)NC(C)(C)C)CC2)c1
REMARK SMILES IDX 16 1 15 2 13 3 14 4 12 6 10 7 11 8 90 9 89 10 88 11 9 12
REMARK SMILES IDX 7 13 8 14 6 16 1 17 2 18 3 19 105 20 4 21 5 22 91 23 92 24
REMARK SMILES IDX 104 25 93 26 103 27 94 28 95 30 96 31 97 32 98 33 99 35
REMARK SMILES IDX 100 36 101 37 102 38 17 39 18 40 19 41 20 42 21 44 22 45
REMARK SMILES IDX 23 46 87 47 24 48 86 49 25 50 26 51 27 52 80 53 28 54 85 55
REMARK SMILES IDX 79 56 81 57 29 58 84 59 78 60 77 61 30 63 64 64 43 65 63 66
REMARK SMILES IDX 44 67 47 68 62 69 82 70 45 71 46 72 61 74 83 75 48 76 31 77
REMARK SMILES IDX 32 78 41 79 33 80 34 81 40 82 42 83 35 84 36 85 37 86 38 87
REMARK SMILES IDX 39 88 65 89 66 90 75 91 67 92 68 93 74 94 76 95 69 96 70 97
REMARK SMILES IDX 71 98 72 99 73 100 49 101 50 102 59 103 51 104 52 105 58 106
REMARK SMILES IDX 60 107 53 108 54 109 55 110 56 111 57 112
REMARK H PARENT 15 5 9 15 94 29 98 34 19 43 81 62 47 73
REMARK Flexibility Score: inf
ROOT
ATOM      1  C   UNL A   1      39.508  22.494  26.478  1.00  0.00     0.118 C 
ENDROOT
BRANCH   1   2
ATOM      2  N   UNL A   1      38.629  21.426  25.898  1.00  0.00    -0.352 N 
ATOM      3  C   UNL A   1      37.394  21.350  25.274  1.00  0.00     0.251 C 
ATOM      4  O   UNL A   1      37.064  20.404  24.561  1.00  0.00    -0.269 OA
ATOM      5  H   UNL A   1      39.041  20.536  25.985  1.00  0.00     0.163 HD
BRANCH   3   6
ATOM      6  C   UNL A   1      36.415  22.432  25.478  1.00  0.00     0.042 A 
ATOM      7  C   UNL A   1      34.974  23.941  24.371  1.00  0.00     0.065 A 
ATOM      8  C   UNL A   1      36.104  23.181  24.368  1.00  0.00     0.042 A 
ATOM      9  C   UNL A   1      34.400  24.375  25.590  1.00  0.00     0.061 A 
ATOM     10  C   UNL A   1      34.838  23.750  26.765  1.00  0.00     0.029 A 
ATOM     11  C   UNL A   1      35.797  22.722  26.703  1.00  0.00     0.016 A 
BRANCH   7  12
ATOM     12  N   UNL A   1      34.424  24.287  23.127  1.00  0.00    -0.320 N 
ATOM     13  C   UNL A   1      33.446  23.635  22.377  1.00  0.00     0.255 C 
ATOM     14  O   UNL A   1      32.970  24.262  21.423  1.00  0.00    -0.269 OA
ATOM     15  H   UNL A   1      34.782  25.112  22.724  1.00  0.00     0.170 HD
BRANCH  13  16
ATOM     16  C   UNL A   1      32.858  22.269  22.641  1.00  0.00     0.040 A 
ATOM     17  C   UNL A   1      32.990  19.256  24.992  1.00  0.00     0.044 C 
ATOM     18  C   UNL A   1      32.567  20.164  23.864  1.00  0.00    -0.050 A 
ATOM     19  C   UNL A   1      31.995  19.573  22.726  1.00  0.00     0.003 A 
ATOM     20  C   UNL A   1      32.923  21.539  23.843  1.00  0.00     0.017 A 
ATOM     21  C   UNL A   1      31.811  20.323  21.570  1.00  0.00     0.001 A 
ATOM     22  C   UNL A   1      32.240  21.654  21.530  1.00  0.00     0.014 A 
ENDBRANCH  13  16
ENDBRANCH   7  12
BRANCH   9  23
ATOM     23  N   UNL A   1      33.376  25.301  25.569  1.00  0.00    -0.359 N 
ATOM     24  C   UNL A   1      31.956  25.036  25.316  1.00  0.00     0.178 C 
ATOM     25  C   UNL A   1      33.785  26.631  25.173  1.00  0.00     0.178 C 
ATOM     26  C   UNL A   1      31.082  26.217  25.879  1.00  0.00     0.284 C 
ATOM     27  C   UNL A   1      33.019  27.644  26.030  1.00  0.00     0.284 C 
ATOM     28  N   UNL A   1      31.580  27.615  25.762  1.00  0.00    -0.324 N 
ATOM     29  H   UNL A   1      31.078  28.137  26.480  1.00  0.00     0.348 HD
BRANCH  28  30
ATOM     30  C   UNL A   1      31.197  28.377  24.558  1.00  0.00     0.363 C 
BRANCH  30  31
ATOM     31  C   UNL A   1      30.893  29.861  24.745  1.00  0.00     0.275 C 
ATOM     32  O   UNL A   1      31.484  30.495  25.632  1.00  0.00    -0.268 OA
ATOM     33  N   UNL A   1      29.997  30.579  24.005  1.00  0.00    -0.347 N 
ATOM     34  H   UNL A   1      30.053  31.531  24.249  1.00  0.00     0.164 HD
BRANCH  33  35
ATOM     35  C   UNL A   1      28.958  30.392  22.945  1.00  0.00     0.032 C 
ATOM     36  C   UNL A   1      28.045  29.173  23.206  1.00  0.00     0.034 C 
ATOM     37  C   UNL A   1      28.024  31.618  23.050  1.00  0.00     0.034 C 
ATOM     38  C   UNL A   1      29.498  30.338  21.516  1.00  0.00     0.034 C 
ENDBRANCH  33  35
ENDBRANCH  30  31
ENDBRANCH  28  30
ENDBRANCH   9  23
ENDBRANCH   3   6
ENDBRANCH   1   2
BRANCH   1  39
ATOM     39  C   UNL A   1      39.048  23.991  26.944  1.00  0.00     0.042 C 
BRANCH  39  40
ATOM     40  C   UNL A   1      40.036  25.177  26.472  1.00  0.00     0.118 C 
BRANCH  40  41
ATOM     41  N   UNL A   1      41.018  26.081  27.320  1.00  0.00    -0.352 N 
ATOM     42  C   UNL A   1      41.112  26.708  28.640  1.00  0.00     0.251 C 
ATOM     43  H   UNL A   1      41.823  26.287  26.793  1.00  0.00     0.163 HD
ATOM     44  O   UNL A   1      42.162  26.413  29.244  1.00  0.00    -0.269 OA
BRANCH  42  45
ATOM     45  C   UNL A   1      40.174  27.669  29.480  1.00  0.00     0.039 A 
ATOM     46  C   UNL A   1      39.647  28.885  28.954  1.00  0.00     0.014 A 
ATOM     47  C   UNL A   1      39.792  27.471  30.789  1.00  0.00     0.014 A 
ATOM     48  C   UNL A   1      39.514  30.041  29.803  1.00  0.00     0.010 A 
ATOM     49  C   UNL A   1      39.607  28.599  31.635  1.00  0.00     0.010 A 
ATOM     50  C   UNL A   1      39.748  29.917  31.170  1.00  0.00    -0.014 A 
BRANCH  50  51
ATOM     51  C   UNL A   1      40.231  31.032  32.091  1.00  0.00     0.031 A 
ATOM     52  C   UNL A   1      41.284  30.764  33.064  1.00  0.00     0.074 A 
ATOM     53  C   UNL A   1      39.948  32.374  32.046  1.00  0.00     0.049 A 
ATOM     54  N   UNL A   1      41.274  31.170  34.291  1.00  0.00    -0.248 NA
ATOM     55  C   UNL A   1      42.489  30.057  32.677  1.00  0.00     0.031 C 
ATOM     56  C   UNL A   1      40.475  33.557  32.764  1.00  0.00     0.029 A 
ATOM     57  N   UNL A   1      39.072  33.035  31.210  1.00  0.00    -0.354 N 
ATOM     58  C   UNL A   1      42.580  31.089  34.725  1.00  0.00     0.074 A 
ATOM     59  C   UNL A   1      43.242  30.235  33.762  1.00  0.00     0.031 C 
ATOM     60  C   UNL A   1      39.615  34.597  32.627  1.00  0.00     0.029 A 
ATOM     61  C   UNL A   1      38.494  34.125  31.844  1.00  0.00     0.049 A 
ATOM     62  H   UNL A   1      38.881  32.767  30.282  1.00  0.00     0.167 HD
ATOM     63  C   UNL A   1      43.046  31.922  35.704  1.00  0.00     0.037 A 
ATOM     64  C   UNL A   1      37.161  34.058  32.138  1.00  0.00     0.037 A 
ATOM     65  C   UNL A   1      42.052  32.954  36.041  1.00  0.00     0.049 A 
ATOM     66  C   UNL A   1      36.982  33.928  33.616  1.00  0.00     0.074 A 
ATOM     67  C   UNL A   1      41.978  34.312  35.755  1.00  0.00     0.029 A 
ATOM     68  N   UNL A   1      40.777  32.590  36.472  1.00  0.00    -0.354 N 
ATOM     69  N   UNL A   1      37.982  33.686  34.410  1.00  0.00    -0.248 NA
ATOM     70  C   UNL A   1      35.728  34.078  34.337  1.00  0.00     0.031 C 
ATOM     71  C   UNL A   1      40.631  34.732  35.924  1.00  0.00     0.029 A 
ATOM     72  C   UNL A   1      39.886  33.642  36.342  1.00  0.00     0.049 A 
ATOM     73  H   UNL A   1      40.541  31.701  36.822  1.00  0.00     0.167 HD
ATOM     74  C   UNL A   1      37.576  33.685  35.702  1.00  0.00     0.074 A 
ATOM     75  C   UNL A   1      36.148  33.937  35.610  1.00  0.00     0.031 C 
ATOM     76  C   UNL A   1      38.477  33.484  36.707  1.00  0.00     0.037 A 
BRANCH  63  77
ATOM     77  C   UNL A   1      44.515  31.986  36.101  1.00  0.00     0.058 A 
ATOM     78  C   UNL A   1      45.020  31.285  37.217  1.00  0.00     0.135 A 
ATOM     79  C   UNL A   1      45.495  32.711  35.386  1.00  0.00     0.135 A 
ATOM     80  F   UNL A   1      44.254  30.445  37.925  1.00  0.00    -0.206 F 
ATOM     81  C   UNL A   1      46.352  31.380  37.640  1.00  0.00     0.059 A 
ATOM     82  C   UNL A   1      46.806  32.891  35.833  1.00  0.00     0.059 A 
ATOM     83  F   UNL A   1      45.246  33.204  34.164  1.00  0.00    -0.206 F 
ATOM     84  C   UNL A   1      47.234  32.208  36.957  1.00  0.00     0.060 A 
BRANCH  84  85
ATOM     85  S   UNL A   1      48.955  32.293  37.485  1.00  0.00     0.124 S 
ATOM     86  O   UNL A   1      49.385  30.902  37.379  1.00  0.00    -0.237 OA
ATOM     87  O   UNL A   1      49.526  33.211  36.505  1.00  0.00    -0.237 OA
ATOM     88  O   UNL A   1      48.870  32.813  38.848  1.00  0.00    -0.744 OA
ENDBRANCH  84  85
ENDBRANCH  63  77
BRANCH  64  89
ATOM     89  C   UNL A   1      36.288  33.422  31.054  1.00  0.00     0.058 A 
ATOM     90  C   UNL A   1      35.181  32.759  31.604  1.00  0.00     0.135 A 
ATOM     91  C   UNL A   1      35.914  34.246  30.006  1.00  0.00     0.135 A 
ATOM     92  F   UNL A   1      35.333  31.570  32.196  1.00  0.00    -0.206 F 
ATOM     93  C   UNL A   1      33.963  33.426  31.749  1.00  0.00     0.059 A 
ATOM     94  C   UNL A   1      34.622  34.790  29.999  1.00  0.00     0.059 A 
ATOM     95  F   UNL A   1      36.784  34.582  29.040  1.00  0.00    -0.206 F 
ATOM     96  C   UNL A   1      33.781  34.632  31.086  1.00  0.00     0.060 A 
BRANCH  96  97
ATOM     97  S   UNL A   1      32.613  35.993  31.977  1.00  0.00     0.124 S 
ATOM     98  O   UNL A   1      32.255  36.760  30.803  1.00  0.00    -0.237 OA
ATOM     99  O   UNL A   1      31.409  35.348  32.476  1.00  0.00    -0.237 OA
ATOM    100  O   UNL A   1      33.374  36.712  32.956  1.00  0.00    -0.744 OA
ENDBRANCH  96  97
ENDBRANCH  64  89
BRANCH  76 101
ATOM    101  C   UNL A   1      38.130  33.228  38.143  1.00  0.00     0.058 A 
ATOM    102  C   UNL A   1      37.602  32.019  38.621  1.00  0.00     0.135 A 
ATOM    103  C   UNL A   1      38.457  34.190  39.130  1.00  0.00     0.135 A 
ATOM    104  F   UNL A   1      37.370  30.979  37.809  1.00  0.00    -0.206 F 
ATOM    105  C   UNL A   1      37.336  31.811  39.971  1.00  0.00     0.059 A 
ATOM    106  C   UNL A   1      38.272  33.972  40.487  1.00  0.00     0.059 A 
ATOM    107  F   UNL A   1      38.986  35.382  38.811  1.00  0.00    -0.206 F 
ATOM    108  C   UNL A   1      37.674  32.794  40.897  1.00  0.00     0.060 A 
BRANCH 108 109
ATOM    109  S   UNL A   1      37.360  32.508  42.641  1.00  0.00     0.124 S 
ATOM    110  O   UNL A   1      37.234  31.054  42.675  1.00  0.00    -0.237 OA
ATOM    111  O   UNL A   1      38.558  33.053  43.273  1.00  0.00    -0.237 OA
ATOM    112  O   UNL A   1      36.132  33.256  42.891  1.00  0.00    -0.744 OA
ENDBRANCH 108 109
ENDBRANCH  76 101
ENDBRANCH  50  51
ENDBRANCH  42  45
ENDBRANCH  40  41
ENDBRANCH  39  40
ENDBRANCH   1  39
TORSDOF 19
ENDMDL
MODEL 2
REMARK VINA RESULT:     -12.1      2.456      5.122
REMARK SMILES Cc1cccc(C(=O)Nc2cc(C(=O)NCCCNC(=O)c3ccc(-c4c5nc(c(-c6c(F)cc(S(=O)(=O)[O-])cc6F)c6ccc([nH]6)c(-c6c(F)cc(S(=O)(=O)[O-])cc6F)c6nc(c(-c7c(F)cc(S(=O)(=O)[O-])cc7F)c7ccc4[nH]7)C=C6)C=C5)cc3)ccc2N2CC[NH+](CC(=O)NC(C)(C)C)CC2)c1
REMARK SMILES IDX 16 1 15 2 13 3 14 4 12 6 10 7 11 8 90 9 89 10 88 11 9 12
REMARK SMILES IDX 7 13 8 14 6 16 1 17 2 18 3 19 105 20 4 21 5 22 91 23 92 24
REMARK SMILES IDX 104 25 93 26 103 27 94 28 95 30 96 31 97 32 98 33 99 35
REMARK SMILES IDX 100 36 101 37 102 38 17 39 18 40 19 41 20 42 21 44 22 45
REMARK SMILES IDX 23 46 87 47 24 48 86 49 25 50 26 51 27 52 80 53 28 54 85 55
REMARK SMILES IDX 79 56 81 57 29 58 84 59 78 60 77 61 30 63 64 64 43 65 63 66
REMARK SMILES IDX 44 67 47 68 62 69 82 70 45 71 46 72 61 74 83 75 48 76 31 77
REMARK SMILES IDX 32 78 41 79 33 80 34 81 40 82 42 83 35 84 36 85 37 86 38 87
REMARK SMILES IDX 39 88 65 89 66 90 75 91 67 92 68 93 74 94 76 95 69 96 70 97
REMARK SMILES IDX 71 98 72 99 73 100 49 101 50 102 59 103 51 104 52 105 58 106
REMARK SMILES IDX 60 107 53 108 54 109 55 110 56 111 57 112
REMARK H PARENT 15 5 9 15 94 29 98 34 19 43 81 62 47 73
REMARK Flexibility Score: inf
ROOT
ATOM      1  C   UNL A   1      44.569  25.290  27.004  1.00  0.00     0.118 C 
ENDROOT
BRANCH   1   2
ATOM      2  N   UNL A   1      44.189  24.710  28.335  1.00  0.00    -0.352 N 
ATOM      3  C   UNL A   1      43.226  23.846  28.832  1.00  0.00     0.251 C 
ATOM      4  O   UNL A   1      43.358  23.242  29.895  1.00  0.00    -0.269 OA
ATOM      5  H   UNL A   1      44.785  25.031  29.049  1.00  0.00     0.163 HD
BRANCH   3   6
ATOM      6  C   UNL A   1      41.977  23.646  28.078  1.00  0.00     0.042 A 
ATOM      7  C   UNL A   1      40.715  22.070  26.850  1.00  0.00     0.065 A 
ATOM      8  C   UNL A   1      41.924  22.523  27.286  1.00  0.00     0.042 A 
ATOM      9  C   UNL A   1      39.609  22.948  26.753  1.00  0.00     0.061 A 
ATOM     10  C   UNL A   1      39.711  24.186  27.403  1.00  0.00     0.029 A 
ATOM     11  C   UNL A   1      40.872  24.508  28.130  1.00  0.00     0.016 A 
BRANCH   7  12
ATOM     12  N   UNL A   1      40.625  20.718  26.487  1.00  0.00    -0.320 N 
ATOM     13  C   UNL A   1      41.620  19.854  26.030  1.00  0.00     0.255 C 
ATOM     14  O   UNL A   1      41.335  18.651  25.996  1.00  0.00    -0.269 OA
ATOM     15  H   UNL A   1      39.727  20.321  26.565  1.00  0.00     0.170 HD
BRANCH  13  16
ATOM     16  C   UNL A   1      43.030  20.220  25.633  1.00  0.00     0.040 A 
ATOM     17  C   UNL A   1      45.159  22.913  23.947  1.00  0.00     0.044 C 
ATOM     18  C   UNL A   1      44.780  21.650  24.681  1.00  0.00    -0.050 A 
ATOM     19  C   UNL A   1      45.632  20.541  24.560  1.00  0.00     0.003 A 
ATOM     20  C   UNL A   1      43.507  21.501  25.294  1.00  0.00     0.017 A 
ATOM     21  C   UNL A   1      45.217  19.292  25.008  1.00  0.00     0.001 A 
ATOM     22  C   UNL A   1      43.929  19.136  25.536  1.00  0.00     0.014 A 
ENDBRANCH  13  16
ENDBRANCH   7  12
BRANCH   9  23
ATOM     23  N   UNL A   1      38.455  22.521  26.128  1.00  0.00    -0.359 N 
ATOM     24  C   UNL A   1      38.293  21.317  25.307  1.00  0.00     0.178 C 
ATOM     25  C   UNL A   1      37.549  23.588  25.757  1.00  0.00     0.178 C 
ATOM     26  C   UNL A   1      36.772  20.926  25.222  1.00  0.00     0.284 C 
ATOM     27  C   UNL A   1      36.116  23.109  26.006  1.00  0.00     0.284 C 
ATOM     28  N   UNL A   1      35.745  21.999  25.126  1.00  0.00    -0.324 N 
ATOM     29  H   UNL A   1      34.879  21.569  25.448  1.00  0.00     0.348 HD
BRANCH  28  30
ATOM     30  C   UNL A   1      35.341  22.437  23.776  1.00  0.00     0.363 C 
BRANCH  30  31
ATOM     31  C   UNL A   1      34.374  23.615  23.691  1.00  0.00     0.275 C 
ATOM     32  O   UNL A   1      34.712  24.634  23.072  1.00  0.00    -0.268 OA
ATOM     33  N   UNL A   1      33.130  23.654  24.255  1.00  0.00    -0.347 N 
ATOM     34  H   UNL A   1      32.665  24.475  23.976  1.00  0.00     0.164 HD
BRANCH  33  35
ATOM     35  C   UNL A   1      32.244  22.855  25.158  1.00  0.00     0.032 C 
ATOM     36  C   UNL A   1      32.541  23.092  26.655  1.00  0.00     0.034 C 
ATOM     37  C   UNL A   1      30.817  23.408  24.943  1.00  0.00     0.034 C 
ATOM     38  C   UNL A   1      32.211  21.355  24.867  1.00  0.00     0.034 C 
ENDBRANCH  33  35
ENDBRANCH  30  31
ENDBRANCH  28  30
ENDBRANCH   9  23
ENDBRANCH   3   6
ENDBRANCH   1   2
BRANCH   1  39
ATOM     39  C   UNL A   1      43.550  25.748  25.812  1.00  0.00     0.042 C 
BRANCH  39  40
ATOM     40  C   UNL A   1      42.854  27.187  26.034  1.00  0.00     0.118 C 
BRANCH  40  41
ATOM     41  N   UNL A   1      41.334  27.559  26.260  1.00  0.00    -0.352 N 
ATOM     42  C   UNL A   1      40.487  28.317  27.183  1.00  0.00     0.251 C 
ATOM     43  H   UNL A   1      40.781  27.150  25.556  1.00  0.00     0.163 HD
ATOM     44  O   UNL A   1      39.765  29.151  26.604  1.00  0.00    -0.269 OA
BRANCH  42  45
ATOM     45  C   UNL A   1      40.289  28.324  28.755  1.00  0.00     0.039 A 
ATOM     46  C   UNL A   1      39.081  28.757  29.377  1.00  0.00     0.014 A 
ATOM     47  C   UNL A   1      41.238  27.955  29.683  1.00  0.00     0.014 A 
ATOM     48  C   UNL A   1      39.130  29.482  30.621  1.00  0.00     0.010 A 
ATOM     49  C   UNL A   1      41.276  28.623  30.937  1.00  0.00     0.010 A 
ATOM     50  C   UNL A   1      40.344  29.614  31.288  1.00  0.00    -0.014 A 
BRANCH  50  51
ATOM     51  C   UNL A   1      40.724  30.762  32.218  1.00  0.00     0.031 A 
ATOM     52  C   UNL A   1      41.692  30.541  33.286  1.00  0.00     0.074 A 
ATOM     53  C   UNL A   1      40.420  32.096  32.113  1.00  0.00     0.049 A 
ATOM     54  N   UNL A   1      41.567  30.976  34.496  1.00  0.00    -0.248 NA
ATOM     55  C   UNL A   1      42.939  29.850  33.024  1.00  0.00     0.031 C 
ATOM     56  C   UNL A   1      40.860  33.307  32.843  1.00  0.00     0.029 A 
ATOM     57  N   UNL A   1      39.608  32.717  31.187  1.00  0.00    -0.354 N 
ATOM     58  C   UNL A   1      42.831  30.933  35.044  1.00  0.00     0.074 A 
ATOM     59  C   UNL A   1      43.591  30.070  34.166  1.00  0.00     0.031 C 
ATOM     60  C   UNL A   1      39.995  34.325  32.604  1.00  0.00     0.029 A 
ATOM     61  C   UNL A   1      38.956  33.810  31.739  1.00  0.00     0.049 A 
ATOM     62  H   UNL A   1      39.504  32.422  30.253  1.00  0.00     0.167 HD
ATOM     63  C   UNL A   1      43.194  31.800  36.038  1.00  0.00     0.037 A 
ATOM     64  C   UNL A   1      37.604  33.722  31.918  1.00  0.00     0.037 A 
ATOM     65  C   UNL A   1      42.155  32.819  36.259  1.00  0.00     0.049 A 
ATOM     66  C   UNL A   1      37.299  33.625  33.377  1.00  0.00     0.074 A 
ATOM     67  C   UNL A   1      42.080  34.168  35.933  1.00  0.00     0.029 A 
ATOM     68  N   UNL A   1      40.854  32.439  36.587  1.00  0.00    -0.354 N 
ATOM     69  N   UNL A   1      38.230  33.423  34.261  1.00  0.00    -0.248 NA
ATOM     70  C   UNL A   1      35.984  33.766  33.982  1.00  0.00     0.031 C 
ATOM     71  C   UNL A   1      40.715  34.563  35.972  1.00  0.00     0.029 A 
ATOM     72  C   UNL A   1      39.957  33.468  36.352  1.00  0.00     0.049 A 
ATOM     73  H   UNL A   1      40.606  31.554  36.939  1.00  0.00     0.167 HD
ATOM     74  C   UNL A   1      37.713  33.445  35.513  1.00  0.00     0.074 A 
ATOM     75  C   UNL A   1      36.293  33.665  35.290  1.00  0.00     0.031 C 
ATOM     76  C   UNL A   1      38.526  33.289  36.597  1.00  0.00     0.037 A 
BRANCH  63  77
ATOM     77  C   UNL A   1      44.621  31.905  36.559  1.00  0.00     0.058 A 
ATOM     78  C   UNL A   1      45.592  32.711  35.928  1.00  0.00     0.135 A 
ATOM     79  C   UNL A   1      45.089  31.243  37.717  1.00  0.00     0.135 A 
ATOM     80  F   UNL A   1      45.280  33.508  34.896  1.00  0.00    -0.206 F 
ATOM     81  C   UNL A   1      46.925  32.773  36.348  1.00  0.00     0.059 A 
ATOM     82  C   UNL A   1      46.430  31.220  38.108  1.00  0.00     0.059 A 
ATOM     83  F   UNL A   1      44.242  30.663  38.579  1.00  0.00    -0.206 F 
ATOM     84  C   UNL A   1      47.344  32.001  37.425  1.00  0.00     0.060 A 
BRANCH  84  85
ATOM     85  S   UNL A   1      49.054  32.117  37.984  1.00  0.00     0.124 S 
ATOM     86  O   UNL A   1      48.920  31.989  39.432  1.00  0.00    -0.237 OA
ATOM     87  O   UNL A   1      49.671  30.985  37.301  1.00  0.00    -0.237 OA
ATOM     88  O   UNL A   1      49.479  33.434  37.515  1.00  0.00    -0.744 OA
ENDBRANCH  84  85
ENDBRANCH  63  77
BRANCH  64  89
ATOM     89  C   UNL A   1      36.842  33.040  30.779  1.00  0.00     0.058 A 
ATOM     90  C   UNL A   1      35.672  32.419  31.239  1.00  0.00     0.135 A 
ATOM     91  C   UNL A   1      36.595  33.814  29.657  1.00  0.00     0.135 A 
ATOM     92  F   UNL A   1      35.741  31.259  31.902  1.00  0.00    -0.206 F 
ATOM     93  C   UNL A   1      34.456  33.104  31.219  1.00  0.00     0.059 A 
ATOM     94  C   UNL A   1      35.320  34.371  29.485  1.00  0.00     0.059 A 
ATOM     95  F   UNL A   1      37.568  34.091  28.775  1.00  0.00    -0.206 F 
ATOM     96  C   UNL A   1      34.365  34.277  30.482  1.00  0.00     0.060 A 
BRANCH  96  97
ATOM     97  S   UNL A   1      33.131  35.694  31.173  1.00  0.00     0.124 S 
ATOM     98  O   UNL A   1      32.470  36.021  29.927  1.00  0.00    -0.237 OA
ATOM     99  O   UNL A   1      32.146  35.093  32.058  1.00  0.00    -0.237 OA
ATOM    100  O   UNL A   1      33.898  36.762  31.745  1.00  0.00    -0.744 OA
ENDBRANCH  96  97
ENDBRANCH  64  89
BRANCH  76 101
ATOM    101  C   UNL A   1      38.059  33.061  38.004  1.00  0.00     0.058 A 
ATOM    102  C   UNL A   1      37.499  31.859  38.462  1.00  0.00     0.135 A 
ATOM    103  C   UNL A   1      38.296  34.047  38.994  1.00  0.00     0.135 A 
ATOM    104  F   UNL A   1      37.342  30.800  37.656  1.00  0.00    -0.206 F 
ATOM    105  C   UNL A   1      37.120  31.678  39.789  1.00  0.00     0.059 A 
ATOM    106  C   UNL A   1      37.997  33.857  40.334  1.00  0.00     0.059 A 
ATOM    107  F   UNL A   1      38.843  35.235  38.695  1.00  0.00    -0.206 F 
ATOM    108  C   UNL A   1      37.373  32.683  40.718  1.00  0.00     0.060 A 
BRANCH 108 109
ATOM    109  S   UNL A   1      36.913  32.432  42.436  1.00  0.00     0.124 S 
ATOM    110  O   UNL A   1      37.862  31.398  42.837  1.00  0.00    -0.237 OA
ATOM    111  O   UNL A   1      37.133  33.752  43.019  1.00  0.00    -0.237 OA
ATOM    112  O   UNL A   1      35.518  32.013  42.355  1.00  0.00    -0.744 OA
ENDBRANCH 108 109
ENDBRANCH  76 101
ENDBRANCH  50  51
ENDBRANCH  42  45
ENDBRANCH  40  41
ENDBRANCH  39  40
ENDBRANCH   1  39
TORSDOF 19
ENDMDL
MODEL 3
REMARK VINA RESULT:     -12.1      3.333      8.494
REMARK SMILES Cc1cccc(C(=O)Nc2cc(C(=O)NCCCNC(=O)c3ccc(-c4c5nc(c(-c6c(F)cc(S(=O)(=O)[O-])cc6F)c6ccc([nH]6)c(-c6c(F)cc(S(=O)(=O)[O-])cc6F)c6nc(c(-c7c(F)cc(S(=O)(=O)[O-])cc7F)c7ccc4[nH]7)C=C6)C=C5)cc3)ccc2N2CC[NH+](CC(=O)NC(C)(C)C)CC2)c1
REMARK SMILES IDX 16 1 15 2 13 3 14 4 12 6 10 7 11 8 90 9 89 10 88 11 9 12
REMARK SMILES IDX 7 13 8 14 6 16 1 17 2 18 3 19 105 20 4 21 5 22 91 23 92 24
REMARK SMILES IDX 104 25 93 26 103 27 94 28 95 30 96 31 97 32 98 33 99 35
REMARK SMILES IDX 100 36 101 37 102 38 17 39 18 40 19 41 20 42 21 44 22 45
REMARK SMILES IDX 23 46 87 47 24 48 86 49 25 50 26 51 27 52 80 53 28 54 85 55
REMARK SMILES IDX 79 56 81 57 29 58 84 59 78 60 77 61 30 63 64 64 43 65 63 66
REMARK SMILES IDX 44 67 47 68 62 69 82 70 45 71 46 72 61 74 83 75 48 76 31 77
REMARK SMILES IDX 32 78 41 79 33 80 34 81 40 82 42 83 35 84 36 85 37 86 38 87
REMARK SMILES IDX 39 88 65 89 66 90 75 91 67 92 68 93 74 94 76 95 69 96 70 97
REMARK SMILES IDX 71 98 72 99 73 100 49 101 50 102 59 103 51 104 52 105 58 106
REMARK SMILES IDX 60 107 53 108 54 109 55 110 56 111 57 112
REMARK H PARENT 15 5 9 15 94 29 98 34 19 43 81 62 47 73
REMARK Flexibility Score: inf
ROOT
ATOM      1  C   UNL A   1      39.688  20.794  25.730  1.00  0.00     0.118 C 
ENDROOT
BRANCH   1   2
ATOM      2  N   UNL A   1      38.585  19.776  25.713  1.00  0.00    -0.352 N 
ATOM      3  C   UNL A   1      37.354  19.617  25.096  1.00  0.00     0.251 C 
ATOM      4  O   UNL A   1      36.812  18.522  24.962  1.00  0.00    -0.269 OA
ATOM      5  H   UNL A   1      38.791  19.014  26.301  1.00  0.00     0.163 HD
BRANCH   3   6
ATOM      6  C   UNL A   1      36.642  20.804  24.592  1.00  0.00     0.042 A 
ATOM      7  C   UNL A   1      34.535  21.867  24.483  1.00  0.00     0.065 A 
ATOM      8  C   UNL A   1      35.269  20.725  24.581  1.00  0.00     0.042 A 
ATOM      9  C   UNL A   1      35.091  23.034  23.906  1.00  0.00     0.061 A 
ATOM     10  C   UNL A   1      36.481  23.067  23.734  1.00  0.00     0.029 A 
ATOM     11  C   UNL A   1      37.269  21.977  24.146  1.00  0.00     0.016 A 
BRANCH   7  12
ATOM     12  N   UNL A   1      33.214  21.829  24.955  1.00  0.00    -0.320 N 
ATOM     13  C   UNL A   1      32.351  20.741  25.089  1.00  0.00     0.255 C 
ATOM     14  O   UNL A   1      31.319  20.930  25.743  1.00  0.00    -0.269 OA
ATOM     15  H   UNL A   1      32.841  22.697  25.232  1.00  0.00     0.170 HD
BRANCH  13  16
ATOM     16  C   UNL A   1      32.571  19.337  24.577  1.00  0.00     0.040 A 
ATOM     17  C   UNL A   1      34.313  16.017  25.329  1.00  0.00     0.044 C 
ATOM     18  C   UNL A   1      33.452  17.050  24.645  1.00  0.00    -0.050 A 
ATOM     19  C   UNL A   1      33.250  16.922  23.261  1.00  0.00     0.003 A 
ATOM     20  C   UNL A   1      33.035  18.232  25.314  1.00  0.00     0.017 A 
ATOM     21  C   UNL A   1      32.674  17.964  22.543  1.00  0.00     0.001 A 
ATOM     22  C   UNL A   1      32.342  19.157  23.196  1.00  0.00     0.014 A 
ENDBRANCH  13  16
ENDBRANCH   7  12
BRANCH   9  23
ATOM     23  N   UNL A   1      34.275  24.115  23.637  1.00  0.00    -0.359 N 
ATOM     24  C   UNL A   1      33.782  24.540  22.322  1.00  0.00     0.178 C 
ATOM     25  C   UNL A   1      34.408  25.209  24.575  1.00  0.00     0.178 C 
ATOM     26  C   UNL A   1      32.513  25.453  22.495  1.00  0.00     0.284 C 
ATOM     27  C   UNL A   1      33.016  25.797  24.827  1.00  0.00     0.284 C 
ATOM     28  N   UNL A   1      32.455  26.419  23.626  1.00  0.00    -0.324 N 
ATOM     29  H   UNL A   1      31.463  26.612  23.761  1.00  0.00     0.348 HD
BRANCH  28  30
ATOM     30  C   UNL A   1      32.964  27.782  23.386  1.00  0.00     0.363 C 
BRANCH  30  31
ATOM     31  C   UNL A   1      31.975  28.932  23.559  1.00  0.00     0.275 C 
ATOM     32  O   UNL A   1      31.346  29.345  22.574  1.00  0.00    -0.268 OA
ATOM     33  N   UNL A   1      31.713  29.572  24.737  1.00  0.00    -0.347 N 
ATOM     34  H   UNL A   1      30.970  30.205  24.612  1.00  0.00     0.164 HD
BRANCH  33  35
ATOM     35  C   UNL A   1      32.185  29.625  26.156  1.00  0.00     0.032 C 
ATOM     36  C   UNL A   1      31.580  28.508  27.034  1.00  0.00     0.034 C 
ATOM     37  C   UNL A   1      33.699  29.318  26.107  1.00  0.00     0.034 C 
ATOM     38  C   UNL A   1      32.007  30.979  26.844  1.00  0.00     0.034 C 
ENDBRANCH  33  35
ENDBRANCH  30  31
ENDBRANCH  28  30
ENDBRANCH   9  23
ENDBRANCH   3   6
ENDBRANCH   1   2
BRANCH   1  39
ATOM     39  C   UNL A   1      39.887  21.999  26.814  1.00  0.00     0.042 C 
BRANCH  39  40
ATOM     40  C   UNL A   1      41.276  22.809  26.675  1.00  0.00     0.118 C 
BRANCH  40  41
ATOM     41  N   UNL A   1      42.410  23.076  27.744  1.00  0.00    -0.352 N 
ATOM     42  C   UNL A   1      42.748  24.017  28.814  1.00  0.00     0.251 C 
ATOM     43  H   UNL A   1      43.112  22.391  27.666  1.00  0.00     0.163 HD
ATOM     44  O   UNL A   1      42.982  23.452  29.900  1.00  0.00    -0.269 OA
BRANCH  42  45
ATOM     45  C   UNL A   1      42.873  25.593  28.905  1.00  0.00     0.039 A 
ATOM     46  C   UNL A   1      43.800  26.244  29.772  1.00  0.00     0.014 A 
ATOM     47  C   UNL A   1      42.106  26.499  28.206  1.00  0.00     0.014 A 
ATOM     48  C   UNL A   1      43.433  27.472  30.430  1.00  0.00     0.010 A 
ATOM     49  C   UNL A   1      41.770  27.739  28.815  1.00  0.00     0.010 A 
ATOM     50  C   UNL A   1      42.238  28.100  30.089  1.00  0.00    -0.014 A 
BRANCH  50  51
ATOM     51  C   UNL A   1      41.415  28.995  31.009  1.00  0.00     0.031 A 
ATOM     52  C   UNL A   1      40.587  30.053  30.441  1.00  0.00     0.074 A 
ATOM     53  C   UNL A   1      41.171  28.864  32.353  1.00  0.00     0.049 A 
ATOM     54  N   UNL A   1      40.501  31.255  30.910  1.00  0.00    -0.248 NA
ATOM     55  C   UNL A   1      39.720  29.788  29.310  1.00  0.00     0.031 C 
ATOM     56  C   UNL A   1      40.272  29.557  33.304  1.00  0.00     0.029 A 
ATOM     57  N   UNL A   1      41.694  27.935  33.230  1.00  0.00    -0.354 N 
ATOM     58  C   UNL A   1      39.344  31.784  30.380  1.00  0.00     0.074 A 
ATOM     59  C   UNL A   1      39.007  30.914  29.274  1.00  0.00     0.031 C 
ATOM     60  C   UNL A   1      40.672  29.308  34.577  1.00  0.00     0.029 A 
ATOM     61  C   UNL A   1      41.849  28.471  34.500  1.00  0.00     0.049 A 
ATOM     62  H   UNL A   1      41.928  27.011  32.985  1.00  0.00     0.167 HD
ATOM     63  C   UNL A   1      38.645  32.750  31.049  1.00  0.00     0.037 A 
ATOM     64  C   UNL A   1      43.122  28.673  34.955  1.00  0.00     0.037 A 
ATOM     65  C   UNL A   1      39.194  32.964  32.399  1.00  0.00     0.049 A 
ATOM     66  C   UNL A   1      43.406  30.139  35.009  1.00  0.00     0.074 A 
ATOM     67  C   UNL A   1      38.738  32.606  33.662  1.00  0.00     0.029 A 
ATOM     68  N   UNL A   1      40.531  33.321  32.568  1.00  0.00    -0.354 N 
ATOM     69  N   UNL A   1      42.609  31.013  34.471  1.00  0.00    -0.248 NA
ATOM     70  C   UNL A   1      44.544  30.761  35.667  1.00  0.00     0.031 C 
ATOM     71  C   UNL A   1      39.836  32.657  34.565  1.00  0.00     0.029 A 
ATOM     72  C   UNL A   1      40.954  33.075  33.864  1.00  0.00     0.049 A 
ATOM     73  H   UNL A   1      41.099  33.698  31.859  1.00  0.00     0.167 HD
ATOM     74  C   UNL A   1      43.046  32.272  34.715  1.00  0.00     0.074 A 
ATOM     75  C   UNL A   1      44.268  32.066  35.473  1.00  0.00     0.031 C 
ATOM     76  C   UNL A   1      42.334  33.347  34.268  1.00  0.00     0.037 A 
BRANCH  63  77
ATOM     77  C   UNL A   1      37.281  33.247  30.591  1.00  0.00     0.058 A 
ATOM     78  C   UNL A   1      37.103  33.926  29.367  1.00  0.00     0.135 A 
ATOM     79  C   UNL A   1      36.085  33.050  31.318  1.00  0.00     0.135 A 
ATOM     80  F   UNL A   1      38.110  34.078  28.496  1.00  0.00    -0.206 F 
ATOM     81  C   UNL A   1      35.872  34.449  28.954  1.00  0.00     0.059 A 
ATOM     82  C   UNL A   1      34.863  33.634  30.972  1.00  0.00     0.059 A 
ATOM     83  F   UNL A   1      36.028  32.200  32.353  1.00  0.00    -0.206 F 
ATOM     84  C   UNL A   1      34.760  34.322  29.777  1.00  0.00     0.060 A 
BRANCH  84  85
ATOM     85  S   UNL A   1      33.170  34.964  29.220  1.00  0.00     0.124 S 
ATOM     86  O   UNL A   1      32.767  33.979  28.221  1.00  0.00    -0.237 OA
ATOM     87  O   UNL A   1      32.396  34.967  30.457  1.00  0.00    -0.237 OA
ATOM     88  O   UNL A   1      33.501  36.284  28.690  1.00  0.00    -0.744 OA
ENDBRANCH  84  85
ENDBRANCH  63  77
BRANCH  64  89
ATOM     89  C   UNL A   1      44.118  27.563  34.611  1.00  0.00     0.058 A 
ATOM     90  C   UNL A   1      45.444  28.005  34.724  1.00  0.00     0.135 A 
ATOM     91  C   UNL A   1      43.932  26.352  35.257  1.00  0.00     0.135 A 
ATOM     92  F   UNL A   1      45.975  28.789  33.780  1.00  0.00    -0.206 F 
ATOM     93  C   UNL A   1      46.145  27.830  35.918  1.00  0.00     0.059 A 
ATOM     94  C   UNL A   1      44.749  26.035  36.352  1.00  0.00     0.059 A 
ATOM     95  F   UNL A   1      42.948  25.514  34.895  1.00  0.00    -0.206 F 
ATOM     96  C   UNL A   1      45.625  26.969  36.875  1.00  0.00     0.060 A 
BRANCH  96  97
ATOM     97  S   UNL A   1      45.977  27.422  38.794  1.00  0.00     0.124 S 
ATOM     98  O   UNL A   1      46.603  26.178  39.190  1.00  0.00    -0.237 OA
ATOM     99  O   UNL A   1      46.978  28.473  38.871  1.00  0.00    -0.237 OA
ATOM    100  O   UNL A   1      44.736  27.707  39.455  1.00  0.00    -0.744 OA
ENDBRANCH  96  97
ENDBRANCH  64  89
BRANCH  76 101
ATOM    101  C   UNL A   1      42.820  34.765  34.265  1.00  0.00     0.058 A 
ATOM    102  C   UNL A   1      43.594  35.330  33.240  1.00  0.00     0.135 A 
ATOM    103  C   UNL A   1      42.386  35.661  35.274  1.00  0.00     0.135 A 
ATOM    104  F   UNL A   1      43.961  34.625  32.161  1.00  0.00    -0.206 F 
ATOM    105  C   UNL A   1      43.985  36.666  33.259  1.00  0.00     0.059 A 
ATOM    106  C   UNL A   1      42.701  37.011  35.269  1.00  0.00     0.059 A 
ATOM    107  F   UNL A   1      41.625  35.257  36.302  1.00  0.00    -0.206 F 
ATOM    108  C   UNL A   1      43.534  37.499  34.278  1.00  0.00     0.060 A 
BRANCH 108 109
ATOM    109  S   UNL A   1      44.012  39.229  34.280  1.00  0.00     0.124 S 
ATOM    110  O   UNL A   1      44.203  39.471  35.707  1.00  0.00    -0.237 OA
ATOM    111  O   UNL A   1      45.228  39.225  33.472  1.00  0.00    -0.237 OA
ATOM    112  O   UNL A   1      42.866  39.898  33.673  1.00  0.00    -0.744 OA
ENDBRANCH 108 109
ENDBRANCH  76 101
ENDBRANCH  50  51
ENDBRANCH  42  45
ENDBRANCH  40  41
ENDBRANCH  39  40
ENDBRANCH   1  39
TORSDOF 19
ENDMDL
