MODEL 1
REMARK VINA RESULT:     -12.7      0.000      0.000
REMARK SMILES Cc1ccc(NC(=O)C[C@H]2C(=O)NCCN2C(=O)CCC(=O)NCCCNC(=O)c2ccc(-c3c4nc(c(-c5c(F)cc(S(=O)(=O)[O-])cc5F)c5ccc([nH]5)c(-c5c(F)cc(S(=O)(=O)[O-])cc5F)c5nc(c(-c6c(F)cc(S(=O)(=O)[O-])cc6F)c6ccc3[nH]6)C=C5)C=C4)cc2)c(C)c1
REMARK SMILES IDX 21 1 22 2 23 3 20 5 19 6 17 7 18 8 16 9 10 10 11 11 12 12
REMARK SMILES IDX 13 13 15 14 14 15 9 17 7 18 6 19 8 21 5 22 1 23 2 24 3 25
REMARK SMILES IDX 98 26 4 27 96 28 97 29 24 30 25 31 26 32 27 33 28 34 29 36
REMARK SMILES IDX 30 37 31 38 95 39 32 40 94 41 33 42 34 43 35 44 88 45 36 46
REMARK SMILES IDX 93 47 87 48 89 49 37 50 92 51 86 52 85 53 38 55 72 56 51 57
REMARK SMILES IDX 71 58 52 59 55 60 70 61 90 62 53 63 54 64 69 66 91 67 56 68
REMARK SMILES IDX 39 69 40 70 49 71 41 72 42 73 48 74 50 75 43 76 44 77 45 78
REMARK SMILES IDX 46 79 47 80 73 81 74 82 83 83 75 84 76 85 82 86 84 87 77 88
REMARK SMILES IDX 78 89 79 90 80 91 81 92 57 93 58 94 67 95 59 96 60 97 66 98
REMARK SMILES IDX 68 99 61 100 62 101 63 102 64 103 65 104
REMARK H PARENT 23 4 13 16 6 20 27 35 89 54 55 65
REMARK Flexibility Score: inf
ROOT
ATOM      1  C   UNL A   1      38.676  23.143  26.532  1.00  0.00     0.220 C 
ATOM      2  O   UNL A   1      38.087  24.210  26.728  1.00  0.00    -0.275 OA
ATOM      3  N   UNL A   1      39.919  22.971  27.064  1.00  0.00    -0.356 N 
ATOM      4  H   UNL A   1      40.230  23.788  27.516  1.00  0.00     0.163 HD
ENDROOT
BRANCH   1   5
ATOM      5  C   UNL A   1      38.078  22.128  25.630  1.00  0.00     0.110 C 
BRANCH   5   6
ATOM      6  C   UNL A   1      36.601  22.428  25.522  1.00  0.00     0.110 C 
BRANCH   6   7
ATOM      7  C   UNL A   1      35.907  21.179  25.097  1.00  0.00     0.223 C 
ATOM      8  O   UNL A   1      36.580  20.138  25.141  1.00  0.00    -0.275 OA
BRANCH   7   9
ATOM      9  N   UNL A   1      34.603  21.189  24.575  1.00  0.00    -0.328 N 
ATOM     10  C   UNL A   1      33.684  22.397  24.248  1.00  0.00     0.183 C 
ATOM     11  C   UNL A   1      32.331  22.203  24.996  1.00  0.00     0.243 C 
ATOM     12  O   UNL A   1      31.571  23.141  25.227  1.00  0.00    -0.273 OA
ATOM     13  N   UNL A   1      31.931  20.947  25.354  1.00  0.00    -0.353 N 
ATOM     14  C   UNL A   1      34.049  19.827  24.674  1.00  0.00     0.141 C 
ATOM     15  C   UNL A   1      32.594  19.709  25.045  1.00  0.00     0.137 C 
ATOM     16  H   UNL A   1      31.102  20.883  25.882  1.00  0.00     0.163 HD
BRANCH  10  17
ATOM     17  C   UNL A   1      33.412  23.331  22.830  1.00  0.00     0.135 C 
BRANCH  17  18
ATOM     18  C   UNL A   1      33.025  24.794  22.125  1.00  0.00     0.227 C 
ATOM     19  N   UNL A   1      32.578  26.062  22.474  1.00  0.00    -0.326 N 
ATOM     20  H   UNL A   1      32.127  26.455  21.693  1.00  0.00     0.169 HD
ATOM     21  O   UNL A   1      33.054  24.752  20.869  1.00  0.00    -0.275 OA
BRANCH  19  22
ATOM     22  C   UNL A   1      32.528  27.016  23.550  1.00  0.00     0.044 A 
ATOM     23  C   UNL A   1      31.583  28.177  27.530  1.00  0.00     0.044 C 
ATOM     24  C   UNL A   1      32.120  28.109  26.123  1.00  0.00    -0.051 A 
ATOM     25  C   UNL A   1      33.292  27.406  25.840  1.00  0.00     0.005 A 
ATOM     26  C   UNL A   1      31.340  28.526  25.040  1.00  0.00     0.009 A 
ATOM     27  C   UNL A   1      33.527  26.926  24.537  1.00  0.00     0.026 A 
ATOM     28  C   UNL A   1      31.561  28.011  23.736  1.00  0.00    -0.027 A 
ATOM     29  C   UNL A   1      30.784  28.605  22.601  1.00  0.00     0.046 C 
ENDBRANCH  19  22
ENDBRANCH  17  18
ENDBRANCH  10  17
ENDBRANCH   7   9
ENDBRANCH   6   7
ENDBRANCH   5   6
ENDBRANCH   1   5
BRANCH   3  30
ATOM     30  C   UNL A   1      40.926  21.892  27.147  1.00  0.00     0.117 C 
BRANCH  30  31
ATOM     31  C   UNL A   1      42.504  22.137  27.228  1.00  0.00     0.042 C 
BRANCH  31  32
ATOM     32  C   UNL A   1      43.388  23.343  26.802  1.00  0.00     0.118 C 
BRANCH  32  33
ATOM     33  N   UNL A   1      42.811  24.230  25.781  1.00  0.00    -0.352 N 
ATOM     34  C   UNL A   1      42.235  25.487  25.900  1.00  0.00     0.251 C 
ATOM     35  H   UNL A   1      42.839  23.874  24.864  1.00  0.00     0.163 HD
ATOM     36  O   UNL A   1      41.797  26.060  24.926  1.00  0.00    -0.269 OA
BRANCH  34  37
ATOM     37  C   UNL A   1      42.105  26.114  27.237  1.00  0.00     0.039 A 
ATOM     38  C   UNL A   1      43.044  27.069  27.628  1.00  0.00     0.014 A 
ATOM     39  C   UNL A   1      41.073  25.763  28.102  1.00  0.00     0.014 A 
ATOM     40  C   UNL A   1      42.865  27.772  28.825  1.00  0.00     0.010 A 
ATOM     41  C   UNL A   1      40.861  26.510  29.269  1.00  0.00     0.010 A 
ATOM     42  C   UNL A   1      41.730  27.553  29.625  1.00  0.00    -0.014 A 
BRANCH  42  43
ATOM     43  C   UNL A   1      41.424  28.449  30.782  1.00  0.00     0.031 A 
ATOM     44  C   UNL A   1      42.240  28.405  32.048  1.00  0.00     0.074 A 
ATOM     45  C   UNL A   1      40.363  29.282  30.717  1.00  0.00     0.049 A 
ATOM     46  N   UNL A   1      42.118  29.130  33.133  1.00  0.00    -0.248 NA
ATOM     47  C   UNL A   1      43.311  27.400  32.117  1.00  0.00     0.031 C 
ATOM     48  C   UNL A   1      39.435  29.387  29.588  1.00  0.00     0.029 A 
ATOM     49  N   UNL A   1      39.889  30.210  31.617  1.00  0.00    -0.354 N 
ATOM     50  C   UNL A   1      43.088  28.666  34.014  1.00  0.00     0.074 A 
ATOM     51  C   UNL A   1      43.746  27.553  33.359  1.00  0.00     0.031 C 
ATOM     52  C   UNL A   1      38.546  30.361  29.835  1.00  0.00     0.029 A 
ATOM     53  C   UNL A   1      38.813  30.932  31.153  1.00  0.00     0.049 A 
ATOM     54  H   UNL A   1      40.282  30.343  32.509  1.00  0.00     0.167 HD
ATOM     55  C   UNL A   1      43.425  29.135  35.241  1.00  0.00     0.037 A 
ATOM     56  C   UNL A   1      38.126  31.950  31.710  1.00  0.00     0.037 A 
ATOM     57  C   UNL A   1      42.798  30.257  35.889  1.00  0.00     0.049 A 
ATOM     58  C   UNL A   1      38.522  32.463  33.067  1.00  0.00     0.074 A 
ATOM     59  C   UNL A   1      43.122  30.847  37.099  1.00  0.00     0.029 A 
ATOM     60  N   UNL A   1      41.711  30.958  35.386  1.00  0.00    -0.354 N 
ATOM     61  N   UNL A   1      39.497  32.063  33.846  1.00  0.00    -0.248 NA
ATOM     62  C   UNL A   1      37.724  33.568  33.619  1.00  0.00     0.031 C 
ATOM     63  C   UNL A   1      42.211  31.881  37.344  1.00  0.00     0.029 A 
ATOM     64  C   UNL A   1      41.340  31.960  36.270  1.00  0.00     0.049 A 
ATOM     65  H   UNL A   1      41.269  30.771  34.527  1.00  0.00     0.167 HD
ATOM     66  C   UNL A   1      39.449  32.886  34.967  1.00  0.00     0.074 A 
ATOM     67  C   UNL A   1      38.352  33.809  34.763  1.00  0.00     0.031 C 
ATOM     68  C   UNL A   1      40.249  32.878  36.062  1.00  0.00     0.037 A 
BRANCH  55  69
ATOM     69  C   UNL A   1      44.540  28.425  35.962  1.00  0.00     0.058 A 
ATOM     70  C   UNL A   1      45.885  28.787  35.772  1.00  0.00     0.135 A 
ATOM     71  C   UNL A   1      44.266  27.367  36.843  1.00  0.00     0.135 A 
ATOM     72  F   UNL A   1      46.203  29.787  34.935  1.00  0.00    -0.206 F 
ATOM     73  C   UNL A   1      46.919  28.089  36.385  1.00  0.00     0.059 A 
ATOM     74  C   UNL A   1      45.284  26.673  37.490  1.00  0.00     0.059 A 
ATOM     75  F   UNL A   1      42.999  26.986  37.069  1.00  0.00    -0.206 F 
ATOM     76  C   UNL A   1      46.609  27.025  37.232  1.00  0.00     0.060 A 
BRANCH  76  77
ATOM     77  S   UNL A   1      47.962  26.093  37.982  1.00  0.00     0.124 S 
ATOM     78  O   UNL A   1      49.064  27.042  37.865  1.00  0.00    -0.237 OA
ATOM     79  O   UNL A   1      47.470  25.857  39.336  1.00  0.00    -0.237 OA
ATOM     80  O   UNL A   1      48.061  24.905  37.140  1.00  0.00    -0.744 OA
ENDBRANCH  76  77
ENDBRANCH  55  69
BRANCH  56  81
ATOM     81  C   UNL A   1      37.027  32.604  30.949  1.00  0.00     0.058 A 
ATOM     82  C   UNL A   1      35.690  32.250  31.183  1.00  0.00     0.135 A 
ATOM     83  C   UNL A   1      37.284  33.603  29.999  1.00  0.00     0.135 A 
ATOM     84  F   UNL A   1      35.396  31.293  32.076  1.00  0.00    -0.206 F 
ATOM     85  C   UNL A   1      34.644  32.861  30.501  1.00  0.00     0.059 A 
ATOM     86  C   UNL A   1      36.253  34.243  29.317  1.00  0.00     0.059 A 
ATOM     87  F   UNL A   1      38.546  33.986  29.749  1.00  0.00    -0.206 F 
ATOM     88  C   UNL A   1      34.935  33.862  29.572  1.00  0.00     0.060 A 
BRANCH  88  89
ATOM     89  S   UNL A   1      33.565  34.702  28.746  1.00  0.00     0.124 S 
ATOM     90  O   UNL A   1      34.238  35.859  28.167  1.00  0.00    -0.237 OA
ATOM     91  O   UNL A   1      33.110  33.687  27.800  1.00  0.00    -0.237 OA
ATOM     92  O   UNL A   1      32.641  34.987  29.840  1.00  0.00    -0.744 OA
ENDBRANCH  88  89
ENDBRANCH  56  81
BRANCH  68  93
ATOM     93  C   UNL A   1      39.986  33.914  37.121  1.00  0.00     0.058 A 
ATOM     94  C   UNL A   1      40.495  35.217  37.020  1.00  0.00     0.135 A 
ATOM     95  C   UNL A   1      39.172  33.611  38.226  1.00  0.00     0.135 A 
ATOM     96  F   UNL A   1      41.283  35.556  35.988  1.00  0.00    -0.206 F 
ATOM     97  C   UNL A   1      40.223  36.181  37.986  1.00  0.00     0.059 A 
ATOM     98  C   UNL A   1      38.869  34.566  39.192  1.00  0.00     0.059 A 
ATOM     99  F   UNL A   1      38.654  32.382  38.367  1.00  0.00    -0.206 F 
ATOM    100  C   UNL A   1      39.408  35.846  39.069  1.00  0.00     0.060 A 
BRANCH 100 101
ATOM    101  S   UNL A   1      39.030  37.115  40.298  1.00  0.00     0.124 S 
ATOM    102  O   UNL A   1      38.451  38.165  39.467  1.00  0.00    -0.237 OA
ATOM    103  O   UNL A   1      38.099  36.425  41.187  1.00  0.00    -0.237 OA
ATOM    104  O   UNL A   1      40.332  37.421  40.881  1.00  0.00    -0.744 OA
ENDBRANCH 100 101
ENDBRANCH  68  93
ENDBRANCH  42  43
ENDBRANCH  34  37
ENDBRANCH  32  33
ENDBRANCH  31  32
ENDBRANCH  30  31
ENDBRANCH   3  30
TORSDOF 19
ENDMDL
MODEL 2
REMARK VINA RESULT:     -12.6      6.291     11.981
REMARK SMILES Cc1ccc(NC(=O)C[C@H]2C(=O)NCCN2C(=O)CCC(=O)NCCCNC(=O)c2ccc(-c3c4nc(c(-c5c(F)cc(S(=O)(=O)[O-])cc5F)c5ccc([nH]5)c(-c5c(F)cc(S(=O)(=O)[O-])cc5F)c5nc(c(-c6c(F)cc(S(=O)(=O)[O-])cc6F)c6ccc3[nH]6)C=C5)C=C4)cc2)c(C)c1
REMARK SMILES IDX 21 1 22 2 23 3 20 5 19 6 17 7 18 8 16 9 10 10 11 11 12 12
REMARK SMILES IDX 13 13 15 14 14 15 9 17 7 18 6 19 8 21 5 22 1 23 2 24 3 25
REMARK SMILES IDX 98 26 4 27 96 28 97 29 24 30 25 31 26 32 27 33 28 34 29 36
REMARK SMILES IDX 30 37 31 38 95 39 32 40 94 41 33 42 34 43 35 44 88 45 36 46
REMARK SMILES IDX 93 47 87 48 89 49 37 50 92 51 86 52 85 53 38 55 72 56 51 57
REMARK SMILES IDX 71 58 52 59 55 60 70 61 90 62 53 63 54 64 69 66 91 67 56 68
REMARK SMILES IDX 39 69 40 70 49 71 41 72 42 73 48 74 50 75 43 76 44 77 45 78
REMARK SMILES IDX 46 79 47 80 73 81 74 82 83 83 75 84 76 85 82 86 84 87 77 88
REMARK SMILES IDX 78 89 79 90 80 91 81 92 57 93 58 94 67 95 59 96 60 97 66 98
REMARK SMILES IDX 68 99 61 100 62 101 63 102 64 103 65 104
REMARK H PARENT 23 4 13 16 6 20 27 35 89 54 55 65
REMARK Flexibility Score: inf
ROOT
ATOM      1  C   UNL A   1      33.693  29.217  26.936  1.00  0.00     0.220 C 
ATOM      2  O   UNL A   1      34.373  28.217  26.686  1.00  0.00    -0.275 OA
ATOM      3  N   UNL A   1      34.311  30.321  27.441  1.00  0.00    -0.356 N 
ATOM      4  H   UNL A   1      35.267  30.153  27.603  1.00  0.00     0.163 HD
ENDROOT
BRANCH   1   5
ATOM      5  C   UNL A   1      32.216  29.155  26.801  1.00  0.00     0.110 C 
BRANCH   5   6
ATOM      6  C   UNL A   1      31.815  27.699  26.845  1.00  0.00     0.110 C 
BRANCH   6   7
ATOM      7  C   UNL A   1      31.424  27.287  25.466  1.00  0.00     0.223 C 
ATOM      8  O   UNL A   1      30.830  28.140  24.789  1.00  0.00    -0.275 OA
BRANCH   7   9
ATOM      9  N   UNL A   1      31.619  25.978  24.994  1.00  0.00    -0.328 N 
ATOM     10  C   UNL A   1      32.945  25.206  24.756  1.00  0.00     0.183 C 
ATOM     11  C   UNL A   1      32.956  24.690  23.286  1.00  0.00     0.243 C 
ATOM     12  O   UNL A   1      33.998  24.380  22.710  1.00  0.00    -0.273 OA
ATOM     13  N   UNL A   1      31.775  24.507  22.625  1.00  0.00    -0.353 N 
ATOM     14  C   UNL A   1      30.353  25.498  24.413  1.00  0.00     0.141 C 
ATOM     15  C   UNL A   1      30.451  24.662  23.164  1.00  0.00     0.137 C 
ATOM     16  H   UNL A   1      31.837  24.242  21.678  1.00  0.00     0.163 HD
BRANCH  10  17
ATOM     17  C   UNL A   1      33.895  24.153  25.728  1.00  0.00     0.135 C 
BRANCH  17  18
ATOM     18  C   UNL A   1      34.046  22.719  26.570  1.00  0.00     0.227 C 
ATOM     19  N   UNL A   1      33.907  21.351  26.380  1.00  0.00    -0.326 N 
ATOM     20  H   UNL A   1      33.719  20.936  27.253  1.00  0.00     0.169 HD
ATOM     21  O   UNL A   1      34.275  22.895  27.793  1.00  0.00    -0.275 OA
BRANCH  19  22
ATOM     22  C   UNL A   1      33.936  20.311  25.385  1.00  0.00     0.044 A 
ATOM     23  C   UNL A   1      33.504  16.272  24.125  1.00  0.00     0.044 C 
ATOM     24  C   UNL A   1      33.663  17.771  24.179  1.00  0.00    -0.051 A 
ATOM     25  C   UNL A   1      32.550  18.602  24.319  1.00  0.00     0.005 A 
ATOM     26  C   UNL A   1      34.925  18.351  24.342  1.00  0.00     0.009 A 
ATOM     27  C   UNL A   1      32.701  19.896  24.852  1.00  0.00     0.026 A 
ATOM     28  C   UNL A   1      35.071  19.642  24.913  1.00  0.00    -0.027 A 
ATOM     29  C   UNL A   1      36.437  20.257  24.928  1.00  0.00     0.046 C 
ENDBRANCH  19  22
ENDBRANCH  17  18
ENDBRANCH  10  17
ENDBRANCH   7   9
ENDBRANCH   6   7
ENDBRANCH   5   6
ENDBRANCH   1   5
BRANCH   3  30
ATOM     30  C   UNL A   1      33.936  31.702  27.811  1.00  0.00     0.117 C 
BRANCH  30  31
ATOM     31  C   UNL A   1      34.881  32.707  28.619  1.00  0.00     0.042 C 
BRANCH  31  32
ATOM     32  C   UNL A   1      36.016  32.455  29.652  1.00  0.00     0.118 C 
BRANCH  32  33
ATOM     33  N   UNL A   1      35.808  31.326  30.570  1.00  0.00    -0.352 N 
ATOM     34  C   UNL A   1      36.658  30.292  30.936  1.00  0.00     0.251 C 
ATOM     35  H   UNL A   1      34.920  31.300  30.994  1.00  0.00     0.163 HD
ATOM     36  O   UNL A   1      36.290  29.434  31.708  1.00  0.00    -0.269 OA
BRANCH  34  37
ATOM     37  C   UNL A   1      38.011  30.205  30.336  1.00  0.00     0.039 A 
ATOM     38  C   UNL A   1      39.125  30.270  31.174  1.00  0.00     0.014 A 
ATOM     39  C   UNL A   1      38.185  30.065  28.963  1.00  0.00     0.014 A 
ATOM     40  C   UNL A   1      40.404  30.053  30.649  1.00  0.00     0.010 A 
ATOM     41  C   UNL A   1      39.459  29.787  28.450  1.00  0.00     0.010 A 
ATOM     42  C   UNL A   1      40.581  29.735  29.291  1.00  0.00    -0.014 A 
BRANCH  42  43
ATOM     43  C   UNL A   1      41.911  29.290  28.776  1.00  0.00     0.031 A 
ATOM     44  C   UNL A   1      43.082  30.235  28.702  1.00  0.00     0.074 A 
ATOM     45  C   UNL A   1      42.059  28.028  28.317  1.00  0.00     0.049 A 
ATOM     46  N   UNL A   1      44.308  29.999  28.300  1.00  0.00    -0.248 NA
ATOM     47  C   UNL A   1      42.842  31.629  29.102  1.00  0.00     0.031 C 
ATOM     48  C   UNL A   1      41.000  27.018  28.256  1.00  0.00     0.029 A 
ATOM     49  N   UNL A   1      43.164  27.372  27.823  1.00  0.00    -0.354 N 
ATOM     50  C   UNL A   1      44.980  31.212  28.391  1.00  0.00     0.074 A 
ATOM     51  C   UNL A   1      44.007  32.195  28.825  1.00  0.00     0.031 C 
ATOM     52  C   UNL A   1      41.516  25.861  27.813  1.00  0.00     0.029 A 
ATOM     53  C   UNL A   1      42.935  26.048  27.524  1.00  0.00     0.049 A 
ATOM     54  H   UNL A   1      44.036  27.810  27.694  1.00  0.00     0.167 HD
ATOM     55  C   UNL A   1      46.289  31.485  28.166  1.00  0.00     0.037 A 
ATOM     56  C   UNL A   1      43.770  25.085  27.086  1.00  0.00     0.037 A 
ATOM     57  C   UNL A   1      47.270  30.512  27.763  1.00  0.00     0.049 A 
ATOM     58  C   UNL A   1      45.222  25.404  26.852  1.00  0.00     0.074 A 
ATOM     59  C   UNL A   1      48.632  30.682  27.583  1.00  0.00     0.029 A 
ATOM     60  N   UNL A   1      46.996  29.184  27.470  1.00  0.00    -0.354 N 
ATOM     61  N   UNL A   1      45.853  26.539  27.026  1.00  0.00    -0.248 NA
ATOM     62  C   UNL A   1      46.073  24.309  26.365  1.00  0.00     0.031 C 
ATOM     63  C   UNL A   1      49.175  29.468  27.147  1.00  0.00     0.029 A 
ATOM     64  C   UNL A   1      48.158  28.530  27.090  1.00  0.00     0.049 A 
ATOM     65  H   UNL A   1      46.106  28.766  27.524  1.00  0.00     0.167 HD
ATOM     66  C   UNL A   1      47.181  26.289  26.698  1.00  0.00     0.074 A 
ATOM     67  C   UNL A   1      47.264  24.893  26.319  1.00  0.00     0.031 C 
ATOM     68  C   UNL A   1      48.237  27.140  26.716  1.00  0.00     0.037 A 
BRANCH  55  69
ATOM     69  C   UNL A   1      46.735  32.910  28.362  1.00  0.00     0.058 A 
ATOM     70  C   UNL A   1      46.682  33.846  27.315  1.00  0.00     0.135 A 
ATOM     71  C   UNL A   1      47.227  33.343  29.603  1.00  0.00     0.135 A 
ATOM     72  F   UNL A   1      46.227  33.482  26.106  1.00  0.00    -0.206 F 
ATOM     73  C   UNL A   1      47.156  35.143  27.476  1.00  0.00     0.059 A 
ATOM     74  C   UNL A   1      47.680  34.646  29.795  1.00  0.00     0.059 A 
ATOM     75  F   UNL A   1      47.291  32.493  30.640  1.00  0.00    -0.206 F 
ATOM     76  C   UNL A   1      47.665  35.529  28.716  1.00  0.00     0.060 A 
BRANCH  76  77
ATOM     77  S   UNL A   1      48.325  37.201  28.898  1.00  0.00     0.124 S 
ATOM     78  O   UNL A   1      47.649  37.896  27.807  1.00  0.00    -0.237 OA
ATOM     79  O   UNL A   1      47.895  37.565  30.245  1.00  0.00    -0.237 OA
ATOM     80  O   UNL A   1      49.763  37.016  28.732  1.00  0.00    -0.744 OA
ENDBRANCH  76  77
ENDBRANCH  55  69
BRANCH  56  81
ATOM     81  C   UNL A   1      43.266  23.697  26.902  1.00  0.00     0.058 A 
ATOM     82  C   UNL A   1      42.962  23.212  25.622  1.00  0.00     0.135 A 
ATOM     83  C   UNL A   1      43.101  22.825  27.989  1.00  0.00     0.135 A 
ATOM     84  F   UNL A   1      43.095  24.012  24.554  1.00  0.00    -0.206 F 
ATOM     85  C   UNL A   1      42.510  21.913  25.422  1.00  0.00     0.059 A 
ATOM     86  C   UNL A   1      42.669  21.514  27.813  1.00  0.00     0.059 A 
ATOM     87  F   UNL A   1      43.391  23.238  29.233  1.00  0.00    -0.206 F 
ATOM     88  C   UNL A   1      42.371  21.068  26.525  1.00  0.00     0.060 A 
BRANCH  88  89
ATOM     89  S   UNL A   1      41.855  19.359  26.247  1.00  0.00     0.124 S 
ATOM     90  O   UNL A   1      42.692  18.981  25.114  1.00  0.00    -0.237 OA
ATOM     91  O   UNL A   1      42.182  18.729  27.523  1.00  0.00    -0.237 OA
ATOM     92  O   UNL A   1      40.427  19.483  25.967  1.00  0.00    -0.744 OA
ENDBRANCH  88  89
ENDBRANCH  56  81
BRANCH  68  93
ATOM     93  C   UNL A   1      49.583  26.585  26.338  1.00  0.00     0.058 A 
ATOM     94  C   UNL A   1      50.105  26.733  25.044  1.00  0.00     0.135 A 
ATOM     95  C   UNL A   1      50.381  25.940  27.297  1.00  0.00     0.135 A 
ATOM     96  F   UNL A   1      49.380  27.336  24.088  1.00  0.00    -0.206 F 
ATOM     97  C   UNL A   1      51.364  26.245  24.707  1.00  0.00     0.059 A 
ATOM     98  C   UNL A   1      51.652  25.464  26.988  1.00  0.00     0.059 A 
ATOM     99  F   UNL A   1      49.933  25.778  28.551  1.00  0.00    -0.206 F 
ATOM    100  C   UNL A   1      52.131  25.612  25.687  1.00  0.00     0.060 A 
BRANCH 100 101
ATOM    101  S   UNL A   1      53.779  25.016  25.249  1.00  0.00     0.124 S 
ATOM    102  O   UNL A   1      54.562  25.446  26.403  1.00  0.00    -0.237 OA
ATOM    103  O   UNL A   1      53.570  23.576  25.126  1.00  0.00    -0.237 OA
ATOM    104  O   UNL A   1      54.069  25.709  23.998  1.00  0.00    -0.744 OA
ENDBRANCH 100 101
ENDBRANCH  68  93
ENDBRANCH  42  43
ENDBRANCH  34  37
ENDBRANCH  32  33
ENDBRANCH  31  32
ENDBRANCH  30  31
ENDBRANCH   3  30
TORSDOF 19
ENDMDL
MODEL 3
REMARK VINA RESULT:     -12.4      6.151     11.870
REMARK SMILES Cc1ccc(NC(=O)C[C@H]2C(=O)NCCN2C(=O)CCC(=O)NCCCNC(=O)c2ccc(-c3c4nc(c(-c5c(F)cc(S(=O)(=O)[O-])cc5F)c5ccc([nH]5)c(-c5c(F)cc(S(=O)(=O)[O-])cc5F)c5nc(c(-c6c(F)cc(S(=O)(=O)[O-])cc6F)c6ccc3[nH]6)C=C5)C=C4)cc2)c(C)c1
REMARK SMILES IDX 21 1 22 2 23 3 20 5 19 6 17 7 18 8 16 9 10 10 11 11 12 12
REMARK SMILES IDX 13 13 15 14 14 15 9 17 7 18 6 19 8 21 5 22 1 23 2 24 3 25
REMARK SMILES IDX 98 26 4 27 96 28 97 29 24 30 25 31 26 32 27 33 28 34 29 36
REMARK SMILES IDX 30 37 31 38 95 39 32 40 94 41 33 42 34 43 35 44 88 45 36 46
REMARK SMILES IDX 93 47 87 48 89 49 37 50 92 51 86 52 85 53 38 55 72 56 51 57
REMARK SMILES IDX 71 58 52 59 55 60 70 61 90 62 53 63 54 64 69 66 91 67 56 68
REMARK SMILES IDX 39 69 40 70 49 71 41 72 42 73 48 74 50 75 43 76 44 77 45 78
REMARK SMILES IDX 46 79 47 80 73 81 74 82 83 83 75 84 76 85 82 86 84 87 77 88
REMARK SMILES IDX 78 89 79 90 80 91 81 92 57 93 58 94 67 95 59 96 60 97 66 98
REMARK SMILES IDX 68 99 61 100 62 101 63 102 64 103 65 104
REMARK H PARENT 23 4 13 16 6 20 27 35 89 54 55 65
REMARK Flexibility Score: inf
ROOT
ATOM      1  C   UNL A   1      34.931  30.241  27.363  1.00  0.00     0.220 C 
ATOM      2  O   UNL A   1      35.433  29.113  27.333  1.00  0.00    -0.275 OA
ATOM      3  N   UNL A   1      35.618  31.249  27.969  1.00  0.00    -0.356 N 
ATOM      4  H   UNL A   1      36.450  30.919  28.379  1.00  0.00     0.163 HD
ENDROOT
BRANCH   1   5
ATOM      5  C   UNL A   1      33.553  30.446  26.852  1.00  0.00     0.110 C 
BRANCH   5   6
ATOM      6  C   UNL A   1      33.220  29.276  25.956  1.00  0.00     0.110 C 
BRANCH   6   7
ATOM      7  C   UNL A   1      31.844  29.484  25.420  1.00  0.00     0.223 C 
ATOM      8  O   UNL A   1      31.331  30.590  25.647  1.00  0.00    -0.275 OA
BRANCH   7   9
ATOM      9  N   UNL A   1      31.125  28.455  24.789  1.00  0.00    -0.328 N 
ATOM     10  C   UNL A   1      31.368  26.921  24.822  1.00  0.00     0.183 C 
ATOM     11  C   UNL A   1      31.479  26.410  23.354  1.00  0.00     0.243 C 
ATOM     12  O   UNL A   1      32.025  25.345  23.072  1.00  0.00    -0.273 OA
ATOM     13  N   UNL A   1      30.898  27.123  22.345  1.00  0.00    -0.353 N 
ATOM     14  C   UNL A   1      30.244  29.055  23.773  1.00  0.00     0.141 C 
ATOM     15  C   UNL A   1      30.088  28.304  22.477  1.00  0.00     0.137 C 
ATOM     16  H   UNL A   1      31.051  26.794  21.429  1.00  0.00     0.163 HD
BRANCH  10  17
ATOM     17  C   UNL A   1      30.782  25.648  25.818  1.00  0.00     0.135 C 
BRANCH  17  18
ATOM     18  C   UNL A   1      30.949  24.098  26.415  1.00  0.00     0.227 C 
ATOM     19  N   UNL A   1      31.771  22.987  26.284  1.00  0.00    -0.326 N 
ATOM     20  H   UNL A   1      31.253  22.189  26.536  1.00  0.00     0.169 HD
ATOM     21  O   UNL A   1      29.997  23.760  27.164  1.00  0.00    -0.275 OA
BRANCH  19  22
ATOM     22  C   UNL A   1      33.097  22.564  25.918  1.00  0.00     0.044 A 
ATOM     23  C   UNL A   1      36.653  22.856  23.603  1.00  0.00     0.044 C 
ATOM     24  C   UNL A   1      35.619  22.512  24.646  1.00  0.00    -0.051 A 
ATOM     25  C   UNL A   1      35.408  23.346  25.744  1.00  0.00     0.005 A 
ATOM     26  C   UNL A   1      34.683  21.498  24.416  1.00  0.00     0.009 A 
ATOM     27  C   UNL A   1      34.174  23.316  26.423  1.00  0.00     0.026 A 
ATOM     28  C   UNL A   1      33.428  21.494  25.078  1.00  0.00    -0.027 A 
ATOM     29  C   UNL A   1      32.534  20.307  24.891  1.00  0.00     0.046 C 
ENDBRANCH  19  22
ENDBRANCH  17  18
ENDBRANCH  10  17
ENDBRANCH   7   9
ENDBRANCH   6   7
ENDBRANCH   5   6
ENDBRANCH   1   5
BRANCH   3  30
ATOM     30  C   UNL A   1      35.454  32.703  28.179  1.00  0.00     0.117 C 
BRANCH  30  31
ATOM     31  C   UNL A   1      36.083  33.513  29.405  1.00  0.00     0.042 C 
BRANCH  31  32
ATOM     32  C   UNL A   1      36.638  33.044  30.780  1.00  0.00     0.118 C 
BRANCH  32  33
ATOM     33  N   UNL A   1      36.206  31.712  31.224  1.00  0.00    -0.352 N 
ATOM     34  C   UNL A   1      36.865  30.490  31.184  1.00  0.00     0.251 C 
ATOM     35  H   UNL A   1      35.303  31.680  31.613  1.00  0.00     0.163 HD
ATOM     36  O   UNL A   1      36.325  29.484  31.592  1.00  0.00    -0.269 OA
BRANCH  34  37
ATOM     37  C   UNL A   1      38.219  30.403  30.588  1.00  0.00     0.039 A 
ATOM     38  C   UNL A   1      39.329  30.406  31.434  1.00  0.00     0.014 A 
ATOM     39  C   UNL A   1      38.399  30.325  29.211  1.00  0.00     0.014 A 
ATOM     40  C   UNL A   1      40.607  30.187  30.906  1.00  0.00     0.010 A 
ATOM     41  C   UNL A   1      39.670  30.045  28.692  1.00  0.00     0.010 A 
ATOM     42  C   UNL A   1      40.785  29.930  29.536  1.00  0.00    -0.014 A 
BRANCH  42  43
ATOM     43  C   UNL A   1      42.109  29.483  29.007  1.00  0.00     0.031 A 
ATOM     44  C   UNL A   1      43.292  30.415  28.955  1.00  0.00     0.074 A 
ATOM     45  C   UNL A   1      42.242  28.232  28.516  1.00  0.00     0.049 A 
ATOM     46  N   UNL A   1      44.514  30.175  28.545  1.00  0.00    -0.248 NA
ATOM     47  C   UNL A   1      43.068  31.801  29.391  1.00  0.00     0.031 C 
ATOM     48  C   UNL A   1      41.170  27.236  28.431  1.00  0.00     0.029 A 
ATOM     49  N   UNL A   1      43.338  27.575  28.003  1.00  0.00    -0.354 N 
ATOM     50  C   UNL A   1      45.200  31.378  28.665  1.00  0.00     0.074 A 
ATOM     51  C   UNL A   1      44.240  32.360  29.126  1.00  0.00     0.031 C 
ATOM     52  C   UNL A   1      41.672  26.085  27.958  1.00  0.00     0.029 A 
ATOM     53  C   UNL A   1      43.093  26.262  27.671  1.00  0.00     0.049 A 
ATOM     54  H   UNL A   1      44.215  28.006  27.884  1.00  0.00     0.167 HD
ATOM     55  C   UNL A   1      46.512  31.641  28.445  1.00  0.00     0.037 A 
ATOM     56  C   UNL A   1      43.916  25.300  27.207  1.00  0.00     0.037 A 
ATOM     57  C   UNL A   1      47.481  30.666  28.016  1.00  0.00     0.049 A 
ATOM     58  C   UNL A   1      45.371  25.608  26.979  1.00  0.00     0.074 A 
ATOM     59  C   UNL A   1      48.845  30.825  27.838  1.00  0.00     0.029 A 
ATOM     60  N   UNL A   1      47.191  29.350  27.689  1.00  0.00    -0.354 N 
ATOM     61  N   UNL A   1      46.015  26.731  27.181  1.00  0.00    -0.248 NA
ATOM     62  C   UNL A   1      46.208  24.516  26.463  1.00  0.00     0.031 C 
ATOM     63  C   UNL A   1      49.373  29.616  27.370  1.00  0.00     0.029 A 
ATOM     64  C   UNL A   1      48.345  28.692  27.291  1.00  0.00     0.049 A 
ATOM     65  H   UNL A   1      46.296  28.941  27.734  1.00  0.00     0.167 HD
ATOM     66  C   UNL A   1      47.341  26.473  26.844  1.00  0.00     0.074 A 
ATOM     67  C   UNL A   1      47.406  25.087  26.430  1.00  0.00     0.031 C 
ATOM     68  C   UNL A   1      48.406  27.311  26.882  1.00  0.00     0.037 A 
BRANCH  55  69
ATOM     69  C   UNL A   1      46.975  33.055  28.676  1.00  0.00     0.058 A 
ATOM     70  C   UNL A   1      46.991  34.001  27.637  1.00  0.00     0.135 A 
ATOM     71  C   UNL A   1      47.416  33.467  29.944  1.00  0.00     0.135 A 
ATOM     72  F   UNL A   1      46.588  33.657  26.404  1.00  0.00    -0.206 F 
ATOM     73  C   UNL A   1      47.482  35.287  27.833  1.00  0.00     0.059 A 
ATOM     74  C   UNL A   1      47.883  34.759  30.170  1.00  0.00     0.059 A 
ATOM     75  F   UNL A   1      47.413  32.607  30.974  1.00  0.00    -0.206 F 
ATOM     76  C   UNL A   1      47.938  35.652  29.100  1.00  0.00     0.060 A 
BRANCH  76  77
ATOM     77  S   UNL A   1      48.619  37.308  29.331  1.00  0.00     0.124 S 
ATOM     78  O   UNL A   1      48.805  37.737  27.948  1.00  0.00    -0.237 OA
ATOM     79  O   UNL A   1      47.558  37.987  30.067  1.00  0.00    -0.237 OA
ATOM     80  O   UNL A   1      49.845  37.067  30.086  1.00  0.00    -0.744 OA
ENDBRANCH  76  77
ENDBRANCH  55  69
BRANCH  56  81
ATOM     81  C   UNL A   1      43.395  23.923  26.990  1.00  0.00     0.058 A 
ATOM     82  C   UNL A   1      43.285  23.025  28.061  1.00  0.00     0.135 A 
ATOM     83  C   UNL A   1      42.978  23.487  25.723  1.00  0.00     0.135 A 
ATOM     84  F   UNL A   1      43.681  23.395  29.288  1.00  0.00    -0.206 F 
ATOM     85  C   UNL A   1      42.782  21.741  27.888  1.00  0.00     0.059 A 
ATOM     86  C   UNL A   1      42.453  22.213  25.528  1.00  0.00     0.059 A 
ATOM     87  F   UNL A   1      43.051  24.313  24.669  1.00  0.00    -0.206 F 
ATOM     88  C   UNL A   1      42.363  21.345  26.617  1.00  0.00     0.060 A 
BRANCH  88  89
ATOM     89  S   UNL A   1      41.641  19.700  26.417  1.00  0.00     0.124 S 
ATOM     90  O   UNL A   1      42.374  19.197  25.260  1.00  0.00    -0.237 OA
ATOM     91  O   UNL A   1      41.955  19.071  27.696  1.00  0.00    -0.237 OA
ATOM     92  O   UNL A   1      40.226  19.982  26.197  1.00  0.00    -0.744 OA
ENDBRANCH  88  89
ENDBRANCH  56  81
BRANCH  68  93
ATOM     93  C   UNL A   1      49.745  26.750  26.487  1.00  0.00     0.058 A 
ATOM     94  C   UNL A   1      50.574  26.098  27.412  1.00  0.00     0.135 A 
ATOM     95  C   UNL A   1      50.181  26.822  25.153  1.00  0.00     0.135 A 
ATOM     96  F   UNL A   1      50.207  26.008  28.701  1.00  0.00    -0.206 F 
ATOM     97  C   UNL A   1      51.797  25.553  27.036  1.00  0.00     0.059 A 
ATOM     98  C   UNL A   1      51.391  26.265  24.750  1.00  0.00     0.059 A 
ATOM     99  F   UNL A   1      49.424  27.428  24.226  1.00  0.00    -0.206 F 
ATOM    100  C   UNL A   1      52.197  25.641  25.701  1.00  0.00     0.060 A 
BRANCH 100 101
ATOM    101  S   UNL A   1      53.770  24.896  25.214  1.00  0.00     0.124 S 
ATOM    102  O   UNL A   1      53.389  23.500  25.031  1.00  0.00    -0.237 OA
ATOM    103  O   UNL A   1      54.100  25.629  23.995  1.00  0.00    -0.237 OA
ATOM    104  O   UNL A   1      54.640  25.167  26.355  1.00  0.00    -0.744 OA
ENDBRANCH 100 101
ENDBRANCH  68  93
ENDBRANCH  42  43
ENDBRANCH  34  37
ENDBRANCH  32  33
ENDBRANCH  31  32
ENDBRANCH  30  31
ENDBRANCH   3  30
TORSDOF 19
ENDMDL
