MODEL 1
REMARK VINA RESULT:     -11.7      0.000      0.000
REMARK SMILES COC(=O)c1ccccc1-c1ccc(/C=C(\C#N)C(=O)NCCCNC(=O)c2ccc(-c3c4nc(c(-c5c(F)cc(S(=O)(=O)[O-])cc5F)c5ccc([nH]5)c(-c5c(F)cc(S(=O)(=O)[O-])cc5F)c5nc(c(-c6c(F)cc(S(=O)(=O)[O-])cc6F)c6ccc3[nH]6)C=C5)C=C4)cc2)o1
REMARK SMILES IDX 22 1 21 2 19 3 20 4 16 6 15 7 14 8 11 9 12 10 94 11 13 12
REMARK SMILES IDX 10 13 5 14 6 15 7 16 9 17 8 18 3 19 4 20 2 21 1 22 17 23
REMARK SMILES IDX 18 24 23 25 24 26 25 27 26 28 27 30 28 31 29 32 93 33 30 34
REMARK SMILES IDX 92 35 31 36 32 37 33 38 86 39 34 40 91 41 85 42 87 43 35 44
REMARK SMILES IDX 90 45 84 46 83 47 36 49 70 50 49 51 69 52 50 53 53 54 68 55
REMARK SMILES IDX 88 56 51 57 52 58 67 60 89 61 54 62 37 63 38 64 47 65 39 66
REMARK SMILES IDX 40 67 46 68 48 69 41 70 42 71 43 72 44 73 45 74 71 75 72 76
REMARK SMILES IDX 81 77 73 78 74 79 80 80 82 81 75 82 76 83 77 84 78 85 79 86
REMARK SMILES IDX 55 87 56 88 65 89 57 90 58 91 64 92 66 93 59 94 60 95 61 96
REMARK SMILES IDX 62 97 63 98
REMARK H PARENT 21 5 25 29 87 48 53 59
REMARK Flexibility Score: inf
ROOT
ATOM      1  C   UNL A   1      37.675  22.466  25.838  1.00  0.00     0.118 C 
ENDROOT
BRANCH   1   2
ATOM      2  N   UNL A   1      37.465  22.597  24.405  1.00  0.00    -0.351 N 
ATOM      3  C   UNL A   1      36.394  22.945  23.644  1.00  0.00     0.262 C 
ATOM      4  O   UNL A   1      36.585  22.979  22.425  1.00  0.00    -0.268 OA
ATOM      5  H   UNL A   1      38.268  22.391  23.874  1.00  0.00     0.163 HD
BRANCH   3   6
ATOM      6  C   UNL A   1      35.057  23.306  24.213  1.00  0.00     0.120 C 
ATOM      7  C   UNL A   1      34.808  24.633  24.285  1.00  0.00     0.072 C 
BRANCH   7   8
ATOM      8  C   UNL A   1      33.615  25.186  24.826  1.00  0.00     0.129 A 
ATOM      9  C   UNL A   1      31.721  26.348  24.903  1.00  0.00     0.135 A 
ATOM     10  C   UNL A   1      31.920  25.867  26.175  1.00  0.00     0.051 A 
ATOM     11  O   UNL A   1      32.705  25.901  24.090  1.00  0.00    -0.457 OA
ATOM     12  C   UNL A   1      33.129  25.127  26.128  1.00  0.00     0.051 A 
BRANCH   9  13
ATOM     13  C   UNL A   1      30.771  27.249  24.274  1.00  0.00     0.032 A 
ATOM     14  C   UNL A   1      31.089  28.584  23.966  1.00  0.00     0.071 A 
ATOM     15  C   UNL A   1      30.121  29.438  23.417  1.00  0.00     0.016 A 
ATOM     16  C   UNL A   1      28.842  28.956  23.138  1.00  0.00     0.001 A 
ATOM     17  C   UNL A   1      29.486  26.776  23.960  1.00  0.00     0.013 A 
ATOM     18  C   UNL A   1      28.528  27.623  23.399  1.00  0.00     0.001 A 
BRANCH  14  19
ATOM     19  C   UNL A   1      32.430  29.153  24.216  1.00  0.00     0.338 C 
ATOM     20  O   UNL A   1      33.328  29.147  23.389  1.00  0.00    -0.246 OA
BRANCH  19  21
ATOM     21  O   UNL A   1      32.493  29.642  25.478  1.00  0.00    -0.465 OA
ATOM     22  C   UNL A   1      33.678  29.293  26.189  1.00  0.00     0.282 C 
ENDBRANCH  19  21
ENDBRANCH  14  19
ENDBRANCH   9  13
ENDBRANCH   7   8
BRANCH   6  23
ATOM     23  C   UNL A   1      34.120  22.322  24.625  1.00  0.00     0.105 C 
ATOM     24  N   UNL A   1      33.374  21.499  24.972  1.00  0.00    -0.192 NA
ENDBRANCH   6  23
ENDBRANCH   3   6
ENDBRANCH   1   2
BRANCH   1  25
ATOM     25  C   UNL A   1      38.257  23.744  26.434  1.00  0.00     0.042 C 
BRANCH  25  26
ATOM     26  C   UNL A   1      39.657  23.536  27.009  1.00  0.00     0.118 C 
BRANCH  26  27
ATOM     27  N   UNL A   1      40.695  24.040  26.114  1.00  0.00    -0.352 N 
ATOM     28  C   UNL A   1      41.347  25.247  26.100  1.00  0.00     0.251 C 
ATOM     29  H   UNL A   1      40.970  23.414  25.405  1.00  0.00     0.163 HD
ATOM     30  O   UNL A   1      41.991  25.571  25.107  1.00  0.00    -0.269 OA
BRANCH  28  31
ATOM     31  C   UNL A   1      41.277  26.142  27.270  1.00  0.00     0.039 A 
ATOM     32  C   UNL A   1      42.090  27.278  27.305  1.00  0.00     0.014 A 
ATOM     33  C   UNL A   1      40.435  25.847  28.344  1.00  0.00     0.014 A 
ATOM     34  C   UNL A   1      42.009  28.149  28.393  1.00  0.00     0.010 A 
ATOM     35  C   UNL A   1      40.286  26.763  29.379  1.00  0.00     0.010 A 
ATOM     36  C   UNL A   1      41.078  27.919  29.420  1.00  0.00    -0.014 A 
BRANCH  36  37
ATOM     37  C   UNL A   1      40.914  28.879  30.540  1.00  0.00     0.031 A 
ATOM     38  C   UNL A   1      41.778  28.765  31.767  1.00  0.00     0.074 A 
ATOM     39  C   UNL A   1      39.946  29.814  30.474  1.00  0.00     0.049 A 
ATOM     40  N   UNL A   1      41.742  29.469  32.869  1.00  0.00    -0.248 NA
ATOM     41  C   UNL A   1      42.799  27.704  31.768  1.00  0.00     0.031 C 
ATOM     42  C   UNL A   1      39.017  29.991  29.356  1.00  0.00     0.029 A 
ATOM     43  N   UNL A   1      39.573  30.786  31.368  1.00  0.00    -0.354 N 
ATOM     44  C   UNL A   1      42.725  28.935  33.694  1.00  0.00     0.074 A 
ATOM     45  C   UNL A   1      43.296  27.807  32.993  1.00  0.00     0.031 C 
ATOM     46  C   UNL A   1      38.204  31.027  29.617  1.00  0.00     0.029 A 
ATOM     47  C   UNL A   1      38.515  31.554  30.941  1.00  0.00     0.049 A 
ATOM     48  H   UNL A   1      40.022  30.922  32.235  1.00  0.00     0.167 HD
ATOM     49  C   UNL A   1      43.129  29.360  34.915  1.00  0.00     0.037 A 
ATOM     50  C   UNL A   1      37.859  32.559  31.553  1.00  0.00     0.037 A 
ATOM     51  C   UNL A   1      42.555  30.491  35.598  1.00  0.00     0.049 A 
ATOM     52  C   UNL A   1      38.306  32.993  32.922  1.00  0.00     0.074 A 
ATOM     53  C   UNL A   1      42.925  31.035  36.816  1.00  0.00     0.029 A 
ATOM     54  N   UNL A   1      41.487  31.245  35.132  1.00  0.00    -0.354 N 
ATOM     55  N   UNL A   1      39.283  32.520  33.661  1.00  0.00    -0.248 NA
ATOM     56  C   UNL A   1      37.567  34.101  33.543  1.00  0.00     0.031 C 
ATOM     57  C   UNL A   1      42.037  32.071  37.118  1.00  0.00     0.029 A 
ATOM     58  C   UNL A   1      41.163  32.227  36.054  1.00  0.00     0.049 A 
ATOM     59  H   UNL A   1      41.027  31.102  34.274  1.00  0.00     0.167 HD
ATOM     60  C   UNL A   1      39.297  33.294  34.815  1.00  0.00     0.074 A 
ATOM     61  C   UNL A   1      38.241  34.274  34.671  1.00  0.00     0.031 C 
ATOM     62  C   UNL A   1      40.112  33.203  35.896  1.00  0.00     0.037 A 
BRANCH  49  63
ATOM     63  C   UNL A   1      44.236  28.599  35.594  1.00  0.00     0.058 A 
ATOM     64  C   UNL A   1      45.587  28.942  35.420  1.00  0.00     0.135 A 
ATOM     65  C   UNL A   1      43.941  27.538  36.466  1.00  0.00     0.135 A 
ATOM     66  F   UNL A   1      45.933  29.937  34.587  1.00  0.00    -0.206 F 
ATOM     67  C   UNL A   1      46.605  28.243  36.063  1.00  0.00     0.059 A 
ATOM     68  C   UNL A   1      44.941  26.849  37.147  1.00  0.00     0.059 A 
ATOM     69  F   UNL A   1      42.668  27.164  36.670  1.00  0.00    -0.206 F 
ATOM     70  C   UNL A   1      46.271  27.201  36.928  1.00  0.00     0.060 A 
BRANCH  70  71
ATOM     71  S   UNL A   1      47.605  26.316  37.762  1.00  0.00     0.124 S 
ATOM     72  O   UNL A   1      47.197  24.927  37.572  1.00  0.00    -0.237 OA
ATOM     73  O   UNL A   1      48.778  26.740  37.006  1.00  0.00    -0.237 OA
ATOM     74  O   UNL A   1      47.534  26.806  39.134  1.00  0.00    -0.744 OA
ENDBRANCH  70  71
ENDBRANCH  49  63
BRANCH  50  75
ATOM     75  C   UNL A   1      36.717  33.229  30.870  1.00  0.00     0.058 A 
ATOM     76  C   UNL A   1      36.931  34.148  29.833  1.00  0.00     0.135 A 
ATOM     77  C   UNL A   1      35.390  32.959  31.237  1.00  0.00     0.135 A 
ATOM     78  F   UNL A   1      38.181  34.445  29.447  1.00  0.00    -0.206 F 
ATOM     79  C   UNL A   1      35.873  34.792  29.198  1.00  0.00     0.059 A 
ATOM     80  C   UNL A   1      34.314  33.564  30.596  1.00  0.00     0.059 A 
ATOM     81  F   UNL A   1      35.126  32.076  32.214  1.00  0.00    -0.206 F 
ATOM     82  C   UNL A   1      34.567  34.490  29.585  1.00  0.00     0.060 A 
BRANCH  82  83
ATOM     83  S   UNL A   1      33.202  35.301  28.726  1.00  0.00     0.124 S 
ATOM     84  O   UNL A   1      32.580  34.177  28.035  1.00  0.00    -0.237 OA
ATOM     85  O   UNL A   1      32.441  35.870  29.835  1.00  0.00    -0.237 OA
ATOM     86  O   UNL A   1      33.873  36.275  27.870  1.00  0.00    -0.744 OA
ENDBRANCH  82  83
ENDBRANCH  50  75
BRANCH  62  87
ATOM     87  C   UNL A   1      39.930  34.217  36.993  1.00  0.00     0.058 A 
ATOM     88  C   UNL A   1      40.583  35.460  36.976  1.00  0.00     0.135 A 
ATOM     89  C   UNL A   1      39.041  33.962  38.052  1.00  0.00     0.135 A 
ATOM     90  F   UNL A   1      41.448  35.756  35.993  1.00  0.00    -0.206 F 
ATOM     91  C   UNL A   1      40.383  36.400  37.983  1.00  0.00     0.059 A 
ATOM     92  C   UNL A   1      38.798  34.902  39.048  1.00  0.00     0.059 A 
ATOM     93  F   UNL A   1      38.381  32.794  38.114  1.00  0.00    -0.206 F 
ATOM     94  C   UNL A   1      39.484  36.114  39.012  1.00  0.00     0.060 A 
BRANCH  94  95
ATOM     95  S   UNL A   1      39.207  37.359  40.288  1.00  0.00     0.124 S 
ATOM     96  O   UNL A   1      40.558  37.865  40.504  1.00  0.00    -0.237 OA
ATOM     97  O   UNL A   1      38.283  38.278  39.629  1.00  0.00    -0.237 OA
ATOM     98  O   UNL A   1      38.639  36.595  41.395  1.00  0.00    -0.744 OA
ENDBRANCH  94  95
ENDBRANCH  62  87
ENDBRANCH  36  37
ENDBRANCH  28  31
ENDBRANCH  26  27
ENDBRANCH  25  26
ENDBRANCH   1  25
TORSDOF 18
ENDMDL
MODEL 2
REMARK VINA RESULT:     -11.4      4.859     11.985
REMARK SMILES COC(=O)c1ccccc1-c1ccc(/C=C(\C#N)C(=O)NCCCNC(=O)c2ccc(-c3c4nc(c(-c5c(F)cc(S(=O)(=O)[O-])cc5F)c5ccc([nH]5)c(-c5c(F)cc(S(=O)(=O)[O-])cc5F)c5nc(c(-c6c(F)cc(S(=O)(=O)[O-])cc6F)c6ccc3[nH]6)C=C5)C=C4)cc2)o1
REMARK SMILES IDX 22 1 21 2 19 3 20 4 16 6 15 7 14 8 11 9 12 10 94 11 13 12
REMARK SMILES IDX 10 13 5 14 6 15 7 16 9 17 8 18 3 19 4 20 2 21 1 22 17 23
REMARK SMILES IDX 18 24 23 25 24 26 25 27 26 28 27 30 28 31 29 32 93 33 30 34
REMARK SMILES IDX 92 35 31 36 32 37 33 38 86 39 34 40 91 41 85 42 87 43 35 44
REMARK SMILES IDX 90 45 84 46 83 47 36 49 70 50 49 51 69 52 50 53 53 54 68 55
REMARK SMILES IDX 88 56 51 57 52 58 67 60 89 61 54 62 37 63 38 64 47 65 39 66
REMARK SMILES IDX 40 67 46 68 48 69 41 70 42 71 43 72 44 73 45 74 71 75 72 76
REMARK SMILES IDX 81 77 73 78 74 79 80 80 82 81 75 82 76 83 77 84 78 85 79 86
REMARK SMILES IDX 55 87 56 88 65 89 57 90 58 91 64 92 66 93 59 94 60 95 61 96
REMARK SMILES IDX 62 97 63 98
REMARK H PARENT 21 5 25 29 87 48 53 59
REMARK Flexibility Score: inf
ROOT
ATOM      1  C   UNL A   1      34.759  35.339  28.759  1.00  0.00     0.118 C 
ENDROOT
BRANCH   1   2
ATOM      2  N   UNL A   1      33.872  35.938  29.744  1.00  0.00    -0.351 N 
ATOM      3  C   UNL A   1      33.666  35.723  31.070  1.00  0.00     0.262 C 
ATOM      4  O   UNL A   1      32.831  36.452  31.613  1.00  0.00    -0.268 OA
ATOM      5  H   UNL A   1      33.302  36.649  29.372  1.00  0.00     0.163 HD
BRANCH   3   6
ATOM      6  C   UNL A   1      34.410  34.697  31.868  1.00  0.00     0.120 C 
ATOM      7  C   UNL A   1      35.096  35.186  32.925  1.00  0.00     0.072 C 
BRANCH   7   8
ATOM      8  C   UNL A   1      35.896  34.387  33.788  1.00  0.00     0.129 A 
ATOM      9  C   UNL A   1      37.393  32.862  34.400  1.00  0.00     0.135 A 
ATOM     10  C   UNL A   1      36.842  33.338  35.566  1.00  0.00     0.051 A 
ATOM     11  O   UNL A   1      36.864  33.522  33.345  1.00  0.00    -0.457 OA
ATOM     12  C   UNL A   1      35.885  34.310  35.177  1.00  0.00     0.051 A 
BRANCH   9  13
ATOM     13  C   UNL A   1      38.327  31.805  34.053  1.00  0.00     0.032 A 
ATOM     14  C   UNL A   1      39.708  31.910  34.294  1.00  0.00     0.071 A 
ATOM     15  C   UNL A   1      40.581  30.891  33.886  1.00  0.00     0.016 A 
ATOM     16  C   UNL A   1      40.079  29.746  33.267  1.00  0.00     0.001 A 
ATOM     17  C   UNL A   1      37.838  30.632  33.454  1.00  0.00     0.013 A 
ATOM     18  C   UNL A   1      38.707  29.612  33.062  1.00  0.00     0.001 A 
BRANCH  14  19
ATOM     19  C   UNL A   1      40.304  33.086  34.964  1.00  0.00     0.338 C 
ATOM     20  O   UNL A   1      40.910  33.022  36.021  1.00  0.00    -0.246 OA
BRANCH  19  21
ATOM     21  O   UNL A   1      40.053  34.202  34.238  1.00  0.00    -0.465 OA
ATOM     22  C   UNL A   1      40.089  35.414  34.988  1.00  0.00     0.282 C 
ENDBRANCH  19  21
ENDBRANCH  14  19
ENDBRANCH   9  13
ENDBRANCH   7   8
BRANCH   6  23
ATOM     23  C   UNL A   1      34.375  33.315  31.543  1.00  0.00     0.105 C 
ATOM     24  N   UNL A   1      34.374  32.185  31.265  1.00  0.00    -0.192 NA
ENDBRANCH   6  23
ENDBRANCH   3   6
ENDBRANCH   1   2
BRANCH   1  25
ATOM     25  C   UNL A   1      34.067  34.211  28.000  1.00  0.00     0.042 C 
BRANCH  25  26
ATOM     26  C   UNL A   1      34.895  32.928  27.977  1.00  0.00     0.118 C 
BRANCH  26  27
ATOM     27  N   UNL A   1      34.054  31.735  27.931  1.00  0.00    -0.352 N 
ATOM     28  C   UNL A   1      34.395  30.409  27.867  1.00  0.00     0.251 C 
ATOM     29  H   UNL A   1      33.085  31.912  27.947  1.00  0.00     0.163 HD
ATOM     30  O   UNL A   1      33.539  29.581  27.568  1.00  0.00    -0.269 OA
BRANCH  28  31
ATOM     31  C   UNL A   1      35.777  29.982  28.159  1.00  0.00     0.039 A 
ATOM     32  C   UNL A   1      36.737  30.049  27.146  1.00  0.00     0.014 A 
ATOM     33  C   UNL A   1      36.119  29.489  29.420  1.00  0.00     0.014 A 
ATOM     34  C   UNL A   1      38.054  29.678  27.420  1.00  0.00     0.010 A 
ATOM     35  C   UNL A   1      37.448  29.211  29.717  1.00  0.00     0.010 A 
ATOM     36  C   UNL A   1      38.429  29.293  28.718  1.00  0.00    -0.014 A 
BRANCH  36  37
ATOM     37  C   UNL A   1      39.841  28.980  29.051  1.00  0.00     0.031 A 
ATOM     38  C   UNL A   1      40.717  30.023  29.691  1.00  0.00     0.074 A 
ATOM     39  C   UNL A   1      40.347  27.776  28.720  1.00  0.00     0.049 A 
ATOM     40  N   UNL A   1      41.987  29.957  29.998  1.00  0.00    -0.248 NA
ATOM     41  C   UNL A   1      40.093  31.319  30.003  1.00  0.00     0.031 C 
ATOM     42  C   UNL A   1      39.607  26.702  28.054  1.00  0.00     0.029 A 
ATOM     43  N   UNL A   1      41.605  27.253  28.887  1.00  0.00    -0.354 N 
ATOM     44  C   UNL A   1      42.314  31.199  30.530  1.00  0.00     0.074 A 
ATOM     45  C   UNL A   1      41.128  32.020  30.444  1.00  0.00     0.031 C 
ATOM     46  C   UNL A   1      40.412  25.640  27.899  1.00  0.00     0.029 A 
ATOM     47  C   UNL A   1      41.741  25.973  28.403  1.00  0.00     0.049 A 
ATOM     48  H   UNL A   1      42.341  27.747  29.316  1.00  0.00     0.167 HD
ATOM     49  C   UNL A   1      43.491  31.608  31.062  1.00  0.00     0.037 A 
ATOM     50  C   UNL A   1      42.817  25.164  28.354  1.00  0.00     0.037 A 
ATOM     51  C   UNL A   1      44.663  30.776  31.148  1.00  0.00     0.049 A 
ATOM     52  C   UNL A   1      44.121  25.654  28.924  1.00  0.00     0.074 A 
ATOM     53  C   UNL A   1      45.889  31.078  31.714  1.00  0.00     0.029 A 
ATOM     54  N   UNL A   1      44.761  29.485  30.648  1.00  0.00    -0.354 N 
ATOM     55  N   UNL A   1      44.396  26.808  29.485  1.00  0.00    -0.248 NA
ATOM     56  C   UNL A   1      45.262  24.731  28.859  1.00  0.00     0.031 C 
ATOM     57  C   UNL A   1      46.749  29.997  31.494  1.00  0.00     0.029 A 
ATOM     58  C   UNL A   1      46.037  28.990  30.862  1.00  0.00     0.049 A 
ATOM     59  H   UNL A   1      44.031  28.994  30.207  1.00  0.00     0.167 HD
ATOM     60  C   UNL A   1      45.730  26.736  29.870  1.00  0.00     0.074 A 
ATOM     61  C   UNL A   1      46.201  25.421  29.491  1.00  0.00     0.031 C 
ATOM     62  C   UNL A   1      46.494  27.674  30.485  1.00  0.00     0.037 A 
BRANCH  49  63
ATOM     63  C   UNL A   1      43.573  33.018  31.585  1.00  0.00     0.058 A 
ATOM     64  C   UNL A   1      43.525  33.303  32.959  1.00  0.00     0.135 A 
ATOM     65  C   UNL A   1      43.746  34.097  30.702  1.00  0.00     0.135 A 
ATOM     66  F   UNL A   1      43.345  32.316  33.852  1.00  0.00    -0.206 F 
ATOM     67  C   UNL A   1      43.617  34.607  33.436  1.00  0.00     0.059 A 
ATOM     68  C   UNL A   1      43.876  35.405  31.159  1.00  0.00     0.059 A 
ATOM     69  F   UNL A   1      43.798  33.885  29.377  1.00  0.00    -0.206 F 
ATOM     70  C   UNL A   1      43.797  35.651  32.529  1.00  0.00     0.060 A 
BRANCH  70  71
ATOM     71  S   UNL A   1      43.927  37.334  33.168  1.00  0.00     0.124 S 
ATOM     72  O   UNL A   1      43.905  38.117  31.936  1.00  0.00    -0.237 OA
ATOM     73  O   UNL A   1      42.737  37.439  34.007  1.00  0.00    -0.237 OA
ATOM     74  O   UNL A   1      45.198  37.330  33.884  1.00  0.00    -0.744 OA
ENDBRANCH  70  71
ENDBRANCH  49  63
BRANCH  50  75
ATOM     75  C   UNL A   1      42.703  23.806  27.755  1.00  0.00     0.058 A 
ATOM     76  C   UNL A   1      42.801  23.615  26.369  1.00  0.00     0.135 A 
ATOM     77  C   UNL A   1      42.501  22.671  28.556  1.00  0.00     0.135 A 
ATOM     78  F   UNL A   1      42.989  24.668  25.558  1.00  0.00    -0.206 F 
ATOM     79  C   UNL A   1      42.680  22.353  25.795  1.00  0.00     0.059 A 
ATOM     80  C   UNL A   1      42.410  21.395  28.010  1.00  0.00     0.059 A 
ATOM     81  F   UNL A   1      42.415  22.794  29.890  1.00  0.00    -0.206 F 
ATOM     82  C   UNL A   1      42.489  21.248  26.626  1.00  0.00     0.060 A 
BRANCH  82  83
ATOM     83  S   UNL A   1      42.375  19.611  25.873  1.00  0.00     0.124 S 
ATOM     84  O   UNL A   1      42.740  18.747  26.991  1.00  0.00    -0.237 OA
ATOM     85  O   UNL A   1      40.975  19.564  25.460  1.00  0.00    -0.237 OA
ATOM     86  O   UNL A   1      43.342  19.673  24.781  1.00  0.00    -0.744 OA
ENDBRANCH  82  83
ENDBRANCH  50  75
BRANCH  62  87
ATOM     87  C   UNL A   1      47.910  27.300  30.831  1.00  0.00     0.058 A 
ATOM     88  C   UNL A   1      48.250  26.729  32.067  1.00  0.00     0.135 A 
ATOM     89  C   UNL A   1      48.937  27.467  29.885  1.00  0.00     0.135 A 
ATOM     90  F   UNL A   1      47.312  26.551  33.011  1.00  0.00    -0.206 F 
ATOM     91  C   UNL A   1      49.559  26.362  32.363  1.00  0.00     0.059 A 
ATOM     92  C   UNL A   1      50.245  27.073  30.146  1.00  0.00     0.059 A 
ATOM     93  F   UNL A   1      48.668  28.000  28.682  1.00  0.00    -0.206 F 
ATOM     94  C   UNL A   1      50.549  26.532  31.393  1.00  0.00     0.060 A 
BRANCH  94  95
ATOM     95  S   UNL A   1      52.235  26.015  31.779  1.00  0.00     0.124 S 
ATOM     96  O   UNL A   1      52.937  26.360  30.548  1.00  0.00    -0.237 OA
ATOM     97  O   UNL A   1      52.553  26.838  32.942  1.00  0.00    -0.237 OA
ATOM     98  O   UNL A   1      52.102  24.586  32.046  1.00  0.00    -0.744 OA
ENDBRANCH  94  95
ENDBRANCH  62  87
ENDBRANCH  36  37
ENDBRANCH  28  31
ENDBRANCH  26  27
ENDBRANCH  25  26
ENDBRANCH   1  25
TORSDOF 18
ENDMDL
MODEL 3
REMARK VINA RESULT:     -11.4      1.076      2.092
REMARK SMILES COC(=O)c1ccccc1-c1ccc(/C=C(\C#N)C(=O)NCCCNC(=O)c2ccc(-c3c4nc(c(-c5c(F)cc(S(=O)(=O)[O-])cc5F)c5ccc([nH]5)c(-c5c(F)cc(S(=O)(=O)[O-])cc5F)c5nc(c(-c6c(F)cc(S(=O)(=O)[O-])cc6F)c6ccc3[nH]6)C=C5)C=C4)cc2)o1
REMARK SMILES IDX 22 1 21 2 19 3 20 4 16 6 15 7 14 8 11 9 12 10 94 11 13 12
REMARK SMILES IDX 10 13 5 14 6 15 7 16 9 17 8 18 3 19 4 20 2 21 1 22 17 23
REMARK SMILES IDX 18 24 23 25 24 26 25 27 26 28 27 30 28 31 29 32 93 33 30 34
REMARK SMILES IDX 92 35 31 36 32 37 33 38 86 39 34 40 91 41 85 42 87 43 35 44
REMARK SMILES IDX 90 45 84 46 83 47 36 49 70 50 49 51 69 52 50 53 53 54 68 55
REMARK SMILES IDX 88 56 51 57 52 58 67 60 89 61 54 62 37 63 38 64 47 65 39 66
REMARK SMILES IDX 40 67 46 68 48 69 41 70 42 71 43 72 44 73 45 74 71 75 72 76
REMARK SMILES IDX 81 77 73 78 74 79 80 80 82 81 75 82 76 83 77 84 78 85 79 86
REMARK SMILES IDX 55 87 56 88 65 89 57 90 58 91 64 92 66 93 59 94 60 95 61 96
REMARK SMILES IDX 62 97 63 98
REMARK H PARENT 21 5 25 29 87 48 53 59
REMARK Flexibility Score: inf
ROOT
ATOM      1  C   UNL A   1      37.117  22.759  25.774  1.00  0.00     0.118 C 
ENDROOT
BRANCH   1   2
ATOM      2  N   UNL A   1      36.381  21.553  25.425  1.00  0.00    -0.351 N 
ATOM      3  C   UNL A   1      35.059  21.272  25.287  1.00  0.00     0.262 C 
ATOM      4  O   UNL A   1      34.784  20.119  24.944  1.00  0.00    -0.268 OA
ATOM      5  H   UNL A   1      36.963  20.779  25.252  1.00  0.00     0.163 HD
BRANCH   3   6
ATOM      6  C   UNL A   1      33.972  22.281  25.494  1.00  0.00     0.120 C 
ATOM      7  C   UNL A   1      33.597  22.951  24.382  1.00  0.00     0.072 C 
BRANCH   7   8
ATOM      8  C   UNL A   1      32.609  23.975  24.370  1.00  0.00     0.129 A 
ATOM      9  C   UNL A   1      31.652  25.934  24.804  1.00  0.00     0.135 A 
ATOM     10  C   UNL A   1      30.716  25.202  24.112  1.00  0.00     0.051 A 
ATOM     11  O   UNL A   1      32.795  25.219  24.915  1.00  0.00    -0.457 OA
ATOM     12  C   UNL A   1      31.325  23.952  23.835  1.00  0.00     0.051 A 
BRANCH   9  13
ATOM     13  C   UNL A   1      31.668  27.220  25.479  1.00  0.00     0.032 A 
ATOM     14  C   UNL A   1      31.749  28.437  24.780  1.00  0.00     0.071 A 
ATOM     15  C   UNL A   1      31.826  29.653  25.474  1.00  0.00     0.016 A 
ATOM     16  C   UNL A   1      31.785  29.666  26.869  1.00  0.00     0.001 A 
ATOM     17  C   UNL A   1      31.600  27.256  26.882  1.00  0.00     0.013 A 
ATOM     18  C   UNL A   1      31.661  28.468  27.571  1.00  0.00     0.001 A 
BRANCH  14  19
ATOM     19  C   UNL A   1      31.776  28.497  23.303  1.00  0.00     0.338 C 
ATOM     20  O   UNL A   1      30.774  28.429  22.609  1.00  0.00    -0.246 OA
BRANCH  19  21
ATOM     21  O   UNL A   1      33.055  28.615  22.872  1.00  0.00    -0.465 OA
ATOM     22  C   UNL A   1      33.536  27.494  22.134  1.00  0.00     0.282 C 
ENDBRANCH  19  21
ENDBRANCH  14  19
ENDBRANCH   9  13
ENDBRANCH   7   8
BRANCH   6  23
ATOM     23  C   UNL A   1      33.372  22.496  26.764  1.00  0.00     0.105 C 
ATOM     24  N   UNL A   1      32.858  22.655  27.796  1.00  0.00    -0.192 NA
ENDBRANCH   6  23
ENDBRANCH   3   6
ENDBRANCH   1   2
BRANCH   1  25
ATOM     25  C   UNL A   1      38.567  22.441  26.129  1.00  0.00     0.042 C 
BRANCH  25  26
ATOM     26  C   UNL A   1      39.276  23.618  26.796  1.00  0.00     0.118 C 
BRANCH  26  27
ATOM     27  N   UNL A   1      40.555  23.917  26.158  1.00  0.00    -0.352 N 
ATOM     28  C   UNL A   1      41.349  25.032  26.238  1.00  0.00     0.251 C 
ATOM     29  H   UNL A   1      40.904  23.202  25.577  1.00  0.00     0.163 HD
ATOM     30  O   UNL A   1      42.249  25.190  25.418  1.00  0.00    -0.269 OA
BRANCH  28  31
ATOM     31  C   UNL A   1      41.124  26.030  27.301  1.00  0.00     0.039 A 
ATOM     32  C   UNL A   1      40.142  25.786  28.264  1.00  0.00     0.014 A 
ATOM     33  C   UNL A   1      41.860  27.217  27.331  1.00  0.00     0.014 A 
ATOM     34  C   UNL A   1      39.942  26.709  29.292  1.00  0.00     0.010 A 
ATOM     35  C   UNL A   1      41.726  28.086  28.407  1.00  0.00     0.010 A 
ATOM     36  C   UNL A   1      40.760  27.847  29.395  1.00  0.00    -0.014 A 
BRANCH  36  37
ATOM     37  C   UNL A   1      40.623  28.793  30.530  1.00  0.00     0.031 A 
ATOM     38  C   UNL A   1      41.482  28.636  31.755  1.00  0.00     0.074 A 
ATOM     39  C   UNL A   1      39.680  29.756  30.479  1.00  0.00     0.049 A 
ATOM     40  N   UNL A   1      41.465  29.323  32.868  1.00  0.00    -0.248 NA
ATOM     41  C   UNL A   1      42.473  27.547  31.740  1.00  0.00     0.031 C 
ATOM     42  C   UNL A   1      38.757  29.976  29.364  1.00  0.00     0.029 A 
ATOM     43  N   UNL A   1      39.335  30.724  31.388  1.00  0.00    -0.354 N 
ATOM     44  C   UNL A   1      42.432  28.748  33.684  1.00  0.00     0.074 A 
ATOM     45  C   UNL A   1      42.972  27.616  32.966  1.00  0.00     0.031 C 
ATOM     46  C   UNL A   1      37.974  31.030  29.640  1.00  0.00     0.029 A 
ATOM     47  C   UNL A   1      38.299  31.528  30.973  1.00  0.00     0.049 A 
ATOM     48  H   UNL A   1      39.787  30.834  32.256  1.00  0.00     0.167 HD
ATOM     49  C   UNL A   1      42.847  29.143  34.912  1.00  0.00     0.037 A 
ATOM     50  C   UNL A   1      37.671  32.541  31.600  1.00  0.00     0.037 A 
ATOM     51  C   UNL A   1      42.306  30.279  35.613  1.00  0.00     0.049 A 
ATOM     52  C   UNL A   1      38.129  32.941  32.976  1.00  0.00     0.074 A 
ATOM     53  C   UNL A   1      42.690  30.793  36.839  1.00  0.00     0.029 A 
ATOM     54  N   UNL A   1      41.259  31.069  35.159  1.00  0.00    -0.354 N 
ATOM     55  N   UNL A   1      39.092  32.429  33.707  1.00  0.00    -0.248 NA
ATOM     56  C   UNL A   1      37.422  34.059  33.614  1.00  0.00     0.031 C 
ATOM     57  C   UNL A   1      41.831  31.849  37.157  1.00  0.00     0.029 A 
ATOM     58  C   UNL A   1      40.962  32.046  36.096  1.00  0.00     0.049 A 
ATOM     59  H   UNL A   1      40.796  30.953  34.299  1.00  0.00     0.167 HD
ATOM     60  C   UNL A   1      39.127  33.184  34.874  1.00  0.00     0.074 A 
ATOM     61  C   UNL A   1      38.099  34.195  34.745  1.00  0.00     0.031 C 
ATOM     62  C   UNL A   1      39.939  33.054  35.953  1.00  0.00     0.037 A 
BRANCH  49  63
ATOM     63  C   UNL A   1      43.933  28.341  35.579  1.00  0.00     0.058 A 
ATOM     64  C   UNL A   1      43.642  27.281  36.453  1.00  0.00     0.135 A 
ATOM     65  C   UNL A   1      45.286  28.607  35.305  1.00  0.00     0.135 A 
ATOM     66  F   UNL A   1      42.369  26.989  36.766  1.00  0.00    -0.206 F 
ATOM     67  C   UNL A   1      44.651  26.535  37.054  1.00  0.00     0.059 A 
ATOM     68  C   UNL A   1      46.310  27.850  35.867  1.00  0.00     0.059 A 
ATOM     69  F   UNL A   1      45.624  29.608  34.478  1.00  0.00    -0.206 F 
ATOM     70  C   UNL A   1      45.982  26.824  36.752  1.00  0.00     0.060 A 
BRANCH  70  71
ATOM     71  S   UNL A   1      47.275  25.835  37.531  1.00  0.00     0.124 S 
ATOM     72  O   UNL A   1      48.428  26.148  36.691  1.00  0.00    -0.237 OA
ATOM     73  O   UNL A   1      47.310  26.382  38.883  1.00  0.00    -0.237 OA
ATOM     74  O   UNL A   1      46.774  24.470  37.421  1.00  0.00    -0.744 OA
ENDBRANCH  70  71
ENDBRANCH  49  63
BRANCH  50  75
ATOM     75  C   UNL A   1      36.549  33.253  30.928  1.00  0.00     0.058 A 
ATOM     76  C   UNL A   1      36.782  34.120  29.851  1.00  0.00     0.135 A 
ATOM     77  C   UNL A   1      35.220  33.075  31.345  1.00  0.00     0.135 A 
ATOM     78  F   UNL A   1      38.034  34.329  29.417  1.00  0.00    -0.206 F 
ATOM     79  C   UNL A   1      35.744  34.804  29.225  1.00  0.00     0.059 A 
ATOM     80  C   UNL A   1      34.161  33.721  30.715  1.00  0.00     0.059 A 
ATOM     81  F   UNL A   1      34.937  32.245  32.362  1.00  0.00    -0.206 F 
ATOM     82  C   UNL A   1      34.435  34.593  29.662  1.00  0.00     0.060 A 
BRANCH  82  83
ATOM     83  S   UNL A   1      33.093  35.454  28.816  1.00  0.00     0.124 S 
ATOM     84  O   UNL A   1      33.827  36.418  28.004  1.00  0.00    -0.237 OA
ATOM     85  O   UNL A   1      32.446  34.366  28.088  1.00  0.00    -0.237 OA
ATOM     86  O   UNL A   1      32.310  36.018  29.912  1.00  0.00    -0.744 OA
ENDBRANCH  82  83
ENDBRANCH  50  75
BRANCH  62  87
ATOM     87  C   UNL A   1      39.785  34.055  37.066  1.00  0.00     0.058 A 
ATOM     88  C   UNL A   1      39.039  33.775  38.222  1.00  0.00     0.135 A 
ATOM     89  C   UNL A   1      40.442  35.296  36.998  1.00  0.00     0.135 A 
ATOM     90  F   UNL A   1      38.384  32.610  38.340  1.00  0.00    -0.206 F 
ATOM     91  C   UNL A   1      38.928  34.700  39.257  1.00  0.00     0.059 A 
ATOM     92  C   UNL A   1      40.376  36.218  38.037  1.00  0.00     0.059 A 
ATOM     93  F   UNL A   1      41.178  35.613  35.920  1.00  0.00    -0.206 F 
ATOM     94  C   UNL A   1      39.605  35.916  39.157  1.00  0.00     0.060 A 
BRANCH  94  95
ATOM     95  S   UNL A   1      39.483  37.088  40.525  1.00  0.00     0.124 S 
ATOM     96  O   UNL A   1      38.543  36.410  41.410  1.00  0.00    -0.237 OA
ATOM     97  O   UNL A   1      40.863  37.156  40.998  1.00  0.00    -0.237 OA
ATOM     98  O   UNL A   1      38.983  38.304  39.890  1.00  0.00    -0.744 OA
ENDBRANCH  94  95
ENDBRANCH  62  87
ENDBRANCH  36  37
ENDBRANCH  28  31
ENDBRANCH  26  27
ENDBRANCH  25  26
ENDBRANCH   1  25
TORSDOF 18
ENDMDL
