MODEL 1
REMARK VINA RESULT:     -12.3      0.000      0.000
REMARK SMILES O=C(NCCCNC(=O)c1ccccc1Nc1cccc(S(F)(F)(F)(F)F)c1)c1ccc(-c2c3nc(c(-c4c(F)cc(S(=O)(=O)[O-])cc4F)c4ccc([nH]4)c(-c4c(F)cc(S(=O)(=O)[O-])cc4F)c4nc(c(-c5c(F)cc(S(=O)(=O)[O-])cc5F)c5ccc2[nH]5)C=C4)C=C3)cc1
REMARK SMILES IDX 5 1 4 2 3 3 1 4 2 5 29 7 30 8 94 9 31 10 93 11 32 12 33 13
REMARK SMILES IDX 34 14 87 15 35 16 92 17 86 18 88 19 36 20 91 21 85 22 84 23
REMARK SMILES IDX 37 25 71 26 50 27 70 28 51 29 54 30 69 31 89 32 52 33 53 34
REMARK SMILES IDX 68 36 90 37 55 38 38 39 39 40 48 41 40 42 41 43 47 44 49 45
REMARK SMILES IDX 42 46 43 47 44 48 45 49 46 50 72 51 73 52 82 53 74 54 75 55
REMARK SMILES IDX 81 56 83 57 76 58 77 59 78 60 79 61 80 62 56 63 57 64 66 65
REMARK SMILES IDX 58 66 59 67 65 68 67 69 60 70 61 71 62 72 63 73 64 74 6 75
REMARK SMILES IDX 7 76 8 77 9 79 10 80 11 81 15 82 12 83 14 84 13 85 16 86
REMARK SMILES IDX 17 88 18 89 28 90 19 91 21 92 20 93 22 94 23 95 24 96 25 97
REMARK SMILES IDX 26 98 27 99
REMARK H PARENT 3 6 88 24 54 35 7 78 16 87
REMARK Flexibility Score: inf
ROOT
ATOM      1  C   UNL A   1      33.710  28.447  25.690  1.00  0.00     0.042 C 
ENDROOT
BRANCH   1   2
ATOM      2  C   UNL A   1      33.823  28.486  27.205  1.00  0.00     0.118 C 
BRANCH   2   3
ATOM      3  N   UNL A   1      33.446  29.822  27.690  1.00  0.00    -0.352 N 
ATOM      4  O   UNL A   1      34.135  31.855  28.708  1.00  0.00    -0.269 OA
ATOM      5  C   UNL A   1      34.461  30.701  28.288  1.00  0.00     0.251 C 
ATOM      6  H   UNL A   1      32.513  30.127  27.615  1.00  0.00     0.163 HD
BRANCH   5   7
ATOM      7  C   UNL A   1      35.902  30.229  28.403  1.00  0.00     0.039 A 
ATOM      8  C   UNL A   1      36.829  30.363  27.383  1.00  0.00     0.014 A 
ATOM      9  C   UNL A   1      36.248  29.748  29.591  1.00  0.00     0.014 A 
ATOM     10  C   UNL A   1      38.048  29.685  27.625  1.00  0.00     0.010 A 
ATOM     11  C   UNL A   1      37.502  29.224  29.796  1.00  0.00     0.010 A 
ATOM     12  C   UNL A   1      38.451  29.268  28.812  1.00  0.00    -0.014 A 
BRANCH  12  13
ATOM     13  C   UNL A   1      39.892  28.860  29.070  1.00  0.00     0.031 A 
ATOM     14  C   UNL A   1      40.682  29.886  29.591  1.00  0.00     0.074 A 
ATOM     15  C   UNL A   1      40.381  27.619  28.697  1.00  0.00     0.049 A 
ATOM     16  N   UNL A   1      41.991  29.853  29.849  1.00  0.00    -0.248 NA
ATOM     17  C   UNL A   1      40.172  31.216  29.956  1.00  0.00     0.031 C 
ATOM     18  C   UNL A   1      39.589  26.577  28.178  1.00  0.00     0.029 A 
ATOM     19  N   UNL A   1      41.682  27.172  28.753  1.00  0.00    -0.354 N 
ATOM     20  C   UNL A   1      42.388  31.020  30.361  1.00  0.00     0.074 A 
ATOM     21  C   UNL A   1      41.226  31.915  30.431  1.00  0.00     0.031 C 
ATOM     22  C   UNL A   1      40.401  25.520  27.916  1.00  0.00     0.029 A 
ATOM     23  C   UNL A   1      41.716  25.885  28.266  1.00  0.00     0.049 A 
ATOM     24  H   UNL A   1      42.455  27.684  29.086  1.00  0.00     0.167 HD
ATOM     25  C   UNL A   1      43.674  31.372  30.773  1.00  0.00     0.037 A 
ATOM     26  C   UNL A   1      42.819  25.058  28.125  1.00  0.00     0.037 A 
ATOM     27  C   UNL A   1      44.771  30.531  30.673  1.00  0.00     0.049 A 
ATOM     28  C   UNL A   1      44.117  25.431  28.483  1.00  0.00     0.074 A 
ATOM     29  C   UNL A   1      46.073  30.867  31.091  1.00  0.00     0.029 A 
ATOM     30  N   UNL A   1      44.809  29.252  30.162  1.00  0.00    -0.354 N 
ATOM     31  N   UNL A   1      44.507  26.583  29.032  1.00  0.00    -0.248 NA
ATOM     32  C   UNL A   1      45.299  24.577  28.309  1.00  0.00     0.031 C 
ATOM     33  C   UNL A   1      46.886  29.810  30.828  1.00  0.00     0.029 A 
ATOM     34  C   UNL A   1      46.106  28.796  30.240  1.00  0.00     0.049 A 
ATOM     35  H   UNL A   1      44.042  28.750  29.803  1.00  0.00     0.167 HD
ATOM     36  C   UNL A   1      45.823  26.565  29.251  1.00  0.00     0.074 A 
ATOM     37  C   UNL A   1      46.353  25.277  28.782  1.00  0.00     0.031 C 
ATOM     38  C   UNL A   1      46.603  27.570  29.826  1.00  0.00     0.037 A 
BRANCH  25  39
ATOM     39  C   UNL A   1      43.884  32.755  31.367  1.00  0.00     0.058 A 
ATOM     40  C   UNL A   1      44.243  33.810  30.543  1.00  0.00     0.135 A 
ATOM     41  C   UNL A   1      43.847  32.895  32.686  1.00  0.00     0.135 A 
ATOM     42  F   UNL A   1      44.054  33.798  29.226  1.00  0.00    -0.206 F 
ATOM     43  C   UNL A   1      44.828  34.900  31.229  1.00  0.00     0.059 A 
ATOM     44  C   UNL A   1      44.310  34.043  33.282  1.00  0.00     0.059 A 
ATOM     45  F   UNL A   1      43.356  31.915  33.439  1.00  0.00    -0.206 F 
ATOM     46  C   UNL A   1      44.736  35.103  32.530  1.00  0.00     0.060 A 
BRANCH  46  47
ATOM     47  S   UNL A   1      45.149  36.699  33.278  1.00  0.00     0.124 S 
ATOM     48  O   UNL A   1      46.670  36.853  33.345  1.00  0.00    -0.237 OA
ATOM     49  O   UNL A   1      44.558  37.828  32.430  1.00  0.00    -0.237 OA
ATOM     50  O   UNL A   1      44.498  36.773  34.858  1.00  0.00    -0.744 OA
ENDBRANCH  46  47
ENDBRANCH  25  39
BRANCH  26  51
ATOM     51  C   UNL A   1      42.606  23.669  27.547  1.00  0.00     0.058 A 
ATOM     52  C   UNL A   1      42.709  23.433  26.185  1.00  0.00     0.135 A 
ATOM     53  C   UNL A   1      42.443  22.673  28.408  1.00  0.00     0.135 A 
ATOM     54  F   UNL A   1      43.122  24.353  25.318  1.00  0.00    -0.206 F 
ATOM     55  C   UNL A   1      42.336  22.122  25.801  1.00  0.00     0.059 A 
ATOM     56  C   UNL A   1      42.216  21.393  27.963  1.00  0.00     0.059 A 
ATOM     57  F   UNL A   1      42.498  22.916  29.715  1.00  0.00    -0.206 F 
ATOM     58  C   UNL A   1      42.245  21.097  26.629  1.00  0.00     0.060 A 
BRANCH  58  59
ATOM     59  S   UNL A   1      42.162  19.391  26.027  1.00  0.00     0.124 S 
ATOM     60  O   UNL A   1      42.645  18.441  27.124  1.00  0.00    -0.237 OA
ATOM     61  O   UNL A   1      40.718  19.052  25.656  1.00  0.00    -0.237 OA
ATOM     62  O   UNL A   1      43.159  19.225  24.649  1.00  0.00    -0.744 OA
ENDBRANCH  58  59
ENDBRANCH  26  51
BRANCH  38  63
ATOM     63  C   UNL A   1      48.088  27.303  30.011  1.00  0.00     0.058 A 
ATOM     64  C   UNL A   1      48.609  26.520  31.028  1.00  0.00     0.135 A 
ATOM     65  C   UNL A   1      48.869  27.809  29.063  1.00  0.00     0.135 A 
ATOM     66  F   UNL A   1      47.852  25.792  31.842  1.00  0.00    -0.206 F 
ATOM     67  C   UNL A   1      50.020  26.565  31.121  1.00  0.00     0.059 A 
ATOM     68  C   UNL A   1      50.236  27.698  29.149  1.00  0.00     0.059 A 
ATOM     69  F   UNL A   1      48.322  28.428  28.021  1.00  0.00    -0.206 F 
ATOM     70  C   UNL A   1      50.821  26.988  30.160  1.00  0.00     0.060 A 
BRANCH  70  71
ATOM     71  S   UNL A   1      52.598  26.647  30.181  1.00  0.00     0.124 S 
ATOM     72  O   UNL A   1      53.362  27.935  30.500  1.00  0.00    -0.237 OA
ATOM     73  O   UNL A   1      52.904  25.595  31.250  1.00  0.00    -0.237 OA
ATOM     74  O   UNL A   1      53.085  26.061  28.650  1.00  0.00    -0.744 OA
ENDBRANCH  70  71
ENDBRANCH  38  63
ENDBRANCH  12  13
ENDBRANCH   5   7
ENDBRANCH   2   3
ENDBRANCH   1   2
BRANCH   1  75
ATOM     75  C   UNL A   1      32.264  28.682  25.284  1.00  0.00     0.118 C 
BRANCH  75  76
ATOM     76  N   UNL A   1      31.414  27.636  25.871  1.00  0.00    -0.352 N 
ATOM     77  C   UNL A   1      31.165  26.390  25.132  1.00  0.00     0.253 C 
ATOM     78  H   UNL A   1      31.012  27.769  26.760  1.00  0.00     0.163 HD
ATOM     79  O   UNL A   1      30.430  25.486  25.640  1.00  0.00    -0.269 OA
BRANCH  77  80
ATOM     80  C   UNL A   1      31.786  26.184  23.760  1.00  0.00     0.063 A 
ATOM     81  C   UNL A   1      31.180  26.737  22.644  1.00  0.00     0.016 A 
ATOM     82  C   UNL A   1      32.861  25.412  23.648  1.00  0.00     0.051 A 
ATOM     83  C   UNL A   1      31.615  26.179  21.419  1.00  0.00     0.001 A 
ATOM     84  C   UNL A   1      33.311  25.015  22.413  1.00  0.00     0.027 A 
ATOM     85  C   UNL A   1      32.723  25.476  21.269  1.00  0.00     0.002 A 
BRANCH  82  86
ATOM     86  N   UNL A   1      33.574  24.978  24.859  1.00  0.00    -0.355 N 
ATOM     87  H   UNL A   1      33.629  25.576  25.639  1.00  0.00     0.167 HD
BRANCH  86  88
ATOM     88  C   UNL A   1      34.207  23.652  24.903  1.00  0.00     0.040 A 
ATOM     89  C   UNL A   1      35.590  23.578  24.911  1.00  0.00     0.026 A 
ATOM     90  C   UNL A   1      33.458  22.557  24.889  1.00  0.00     0.050 A 
ATOM     91  C   UNL A   1      36.097  22.292  24.610  1.00  0.00     0.004 A 
ATOM     92  C   UNL A   1      34.034  21.319  24.727  1.00  0.00     0.109 A 
ATOM     93  C   UNL A   1      35.392  21.177  24.668  1.00  0.00     0.024 A 
BRANCH  92  94
ATOM     94  S   UNL A   1      32.976  19.855  24.590  1.00  0.00     0.310 S 
ATOM     95  F   UNL A   1      31.785  20.773  25.091  1.00  0.00    -0.094 F 
ATOM     96  F   UNL A   1      33.323  19.595  26.104  1.00  0.00    -0.094 F 
ATOM     97  F   UNL A   1      31.977  18.665  24.585  1.00  0.00    -0.094 F 
ATOM     98  F   UNL A   1      32.539  20.218  23.116  1.00  0.00    -0.094 F 
ATOM     99  F   UNL A   1      33.904  21.136  24.614  1.00  0.00    -0.094 F 
ENDBRANCH  92  94
ENDBRANCH  86  88
ENDBRANCH  82  86
ENDBRANCH  77  80
ENDBRANCH  75  76
ENDBRANCH   1  75
TORSDOF 16
ENDMDL
MODEL 2
REMARK VINA RESULT:     -12.0      5.368     11.116
REMARK SMILES O=C(NCCCNC(=O)c1ccccc1Nc1cccc(S(F)(F)(F)(F)F)c1)c1ccc(-c2c3nc(c(-c4c(F)cc(S(=O)(=O)[O-])cc4F)c4ccc([nH]4)c(-c4c(F)cc(S(=O)(=O)[O-])cc4F)c4nc(c(-c5c(F)cc(S(=O)(=O)[O-])cc5F)c5ccc2[nH]5)C=C4)C=C3)cc1
REMARK SMILES IDX 5 1 4 2 3 3 1 4 2 5 29 7 30 8 94 9 31 10 93 11 32 12 33 13
REMARK SMILES IDX 34 14 87 15 35 16 92 17 86 18 88 19 36 20 91 21 85 22 84 23
REMARK SMILES IDX 37 25 71 26 50 27 70 28 51 29 54 30 69 31 89 32 52 33 53 34
REMARK SMILES IDX 68 36 90 37 55 38 38 39 39 40 48 41 40 42 41 43 47 44 49 45
REMARK SMILES IDX 42 46 43 47 44 48 45 49 46 50 72 51 73 52 82 53 74 54 75 55
REMARK SMILES IDX 81 56 83 57 76 58 77 59 78 60 79 61 80 62 56 63 57 64 66 65
REMARK SMILES IDX 58 66 59 67 65 68 67 69 60 70 61 71 62 72 63 73 64 74 6 75
REMARK SMILES IDX 7 76 8 77 9 79 10 80 11 81 15 82 12 83 14 84 13 85 16 86
REMARK SMILES IDX 17 88 18 89 28 90 19 91 21 92 20 93 22 94 23 95 24 96 25 97
REMARK SMILES IDX 26 98 27 99
REMARK H PARENT 3 6 88 24 54 35 7 78 16 87
REMARK Flexibility Score: inf
ROOT
ATOM      1  C   UNL A   1      41.562  20.830  26.113  1.00  0.00     0.042 C 
ENDROOT
BRANCH   1   2
ATOM      2  C   UNL A   1      40.671  21.888  26.743  1.00  0.00     0.118 C 
BRANCH   2   3
ATOM      3  N   UNL A   1      39.402  21.962  26.004  1.00  0.00    -0.352 N 
ATOM      4  O   UNL A   1      37.550  23.288  25.327  1.00  0.00    -0.269 OA
ATOM      5  C   UNL A   1      38.647  23.223  25.966  1.00  0.00     0.251 C 
ATOM      6  H   UNL A   1      39.058  21.168  25.535  1.00  0.00     0.163 HD
BRANCH   5   7
ATOM      7  C   UNL A   1      39.178  24.450  26.689  1.00  0.00     0.039 A 
ATOM      8  C   UNL A   1      39.958  25.417  26.075  1.00  0.00     0.014 A 
ATOM      9  C   UNL A   1      38.776  24.586  27.947  1.00  0.00     0.014 A 
ATOM     10  C   UNL A   1      40.507  26.364  26.972  1.00  0.00     0.010 A 
ATOM     11  C   UNL A   1      39.248  25.615  28.725  1.00  0.00     0.010 A 
ATOM     12  C   UNL A   1      40.069  26.574  28.200  1.00  0.00    -0.014 A 
BRANCH  12  13
ATOM     13  C   UNL A   1      40.460  27.814  28.988  1.00  0.00     0.031 A 
ATOM     14  C   UNL A   1      41.699  27.711  29.621  1.00  0.00     0.074 A 
ATOM     15  C   UNL A   1      39.593  28.882  29.150  1.00  0.00     0.049 A 
ATOM     16  N   UNL A   1      42.272  28.599  30.436  1.00  0.00    -0.248 NA
ATOM     17  C   UNL A   1      42.605  26.563  29.478  1.00  0.00     0.031 C 
ATOM     18  C   UNL A   1      38.345  28.996  28.509  1.00  0.00     0.029 A 
ATOM     19  N   UNL A   1      39.767  29.999  29.936  1.00  0.00    -0.354 N 
ATOM     20  C   UNL A   1      43.469  28.158  30.829  1.00  0.00     0.074 A 
ATOM     21  C   UNL A   1      43.698  26.839  30.223  1.00  0.00     0.031 C 
ATOM     22  C   UNL A   1      37.769  30.160  28.910  1.00  0.00     0.029 A 
ATOM     23  C   UNL A   1      38.649  30.793  29.809  1.00  0.00     0.049 A 
ATOM     24  H   UNL A   1      40.556  30.197  30.492  1.00  0.00     0.167 HD
ATOM     25  C   UNL A   1      44.379  28.804  31.667  1.00  0.00     0.037 A 
ATOM     26  C   UNL A   1      38.391  32.002  30.435  1.00  0.00     0.037 A 
ATOM     27  C   UNL A   1      44.139  30.033  32.258  1.00  0.00     0.049 A 
ATOM     28  C   UNL A   1      39.276  32.621  31.320  1.00  0.00     0.074 A 
ATOM     29  C   UNL A   1      45.049  30.703  33.100  1.00  0.00     0.029 A 
ATOM     30  N   UNL A   1      43.010  30.815  32.151  1.00  0.00    -0.354 N 
ATOM     31  N   UNL A   1      40.489  32.199  31.681  1.00  0.00    -0.248 NA
ATOM     32  C   UNL A   1      39.001  33.886  32.014  1.00  0.00     0.031 C 
ATOM     33  C   UNL A   1      44.473  31.867  33.502  1.00  0.00     0.029 A 
ATOM     34  C   UNL A   1      43.193  31.944  32.920  1.00  0.00     0.049 A 
ATOM     35  H   UNL A   1      42.210  30.604  31.619  1.00  0.00     0.167 HD
ATOM     36  C   UNL A   1      41.045  33.067  32.529  1.00  0.00     0.074 A 
ATOM     37  C   UNL A   1      40.091  34.161  32.761  1.00  0.00     0.031 C 
ATOM     38  C   UNL A   1      42.309  32.992  33.116  1.00  0.00     0.037 A 
BRANCH  25  39
ATOM     39  C   UNL A   1      45.708  28.121  31.946  1.00  0.00     0.058 A 
ATOM     40  C   UNL A   1      46.767  28.294  31.071  1.00  0.00     0.135 A 
ATOM     41  C   UNL A   1      45.784  27.265  32.958  1.00  0.00     0.135 A 
ATOM     42  F   UNL A   1      46.837  29.305  30.208  1.00  0.00    -0.206 F 
ATOM     43  C   UNL A   1      47.767  27.299  31.177  1.00  0.00     0.059 A 
ATOM     44  C   UNL A   1      46.857  26.414  33.076  1.00  0.00     0.059 A 
ATOM     45  F   UNL A   1      44.813  27.230  33.867  1.00  0.00    -0.206 F 
ATOM     46  C   UNL A   1      47.913  26.490  32.210  1.00  0.00     0.060 A 
BRANCH  46  47
ATOM     47  S   UNL A   1      49.427  25.533  32.467  1.00  0.00     0.124 S 
ATOM     48  O   UNL A   1      49.145  24.382  33.434  1.00  0.00    -0.237 OA
ATOM     49  O   UNL A   1      49.907  24.968  31.127  1.00  0.00    -0.237 OA
ATOM     50  O   UNL A   1      50.638  26.547  33.124  1.00  0.00    -0.744 OA
ENDBRANCH  46  47
ENDBRANCH  25  39
BRANCH  26  51
ATOM     51  C   UNL A   1      37.068  32.693  30.143  1.00  0.00     0.058 A 
ATOM     52  C   UNL A   1      35.963  32.503  30.955  1.00  0.00     0.135 A 
ATOM     53  C   UNL A   1      37.053  33.579  29.155  1.00  0.00     0.135 A 
ATOM     54  F   UNL A   1      36.010  31.825  32.098  1.00  0.00    -0.206 F 
ATOM     55  C   UNL A   1      34.778  33.098  30.459  1.00  0.00     0.059 A 
ATOM     56  C   UNL A   1      35.890  34.224  28.811  1.00  0.00     0.059 A 
ATOM     57  F   UNL A   1      38.175  33.844  28.490  1.00  0.00    -0.206 F 
ATOM     58  C   UNL A   1      34.744  34.039  29.533  1.00  0.00     0.060 A 
BRANCH  58  59
ATOM     59  S   UNL A   1      33.259  35.032  29.237  1.00  0.00     0.124 S 
ATOM     60  O   UNL A   1      32.456  35.147  30.534  1.00  0.00    -0.237 OA
ATOM     61  O   UNL A   1      33.666  36.428  28.762  1.00  0.00    -0.237 OA
ATOM     62  O   UNL A   1      32.301  34.279  28.038  1.00  0.00    -0.744 OA
ENDBRANCH  58  59
ENDBRANCH  26  51
BRANCH  38  63
ATOM     63  C   UNL A   1      42.742  34.130  34.026  1.00  0.00     0.058 A 
ATOM     64  C   UNL A   1      42.660  34.085  35.407  1.00  0.00     0.135 A 
ATOM     65  C   UNL A   1      43.297  35.164  33.402  1.00  0.00     0.135 A 
ATOM     66  F   UNL A   1      42.351  32.980  36.080  1.00  0.00    -0.206 F 
ATOM     67  C   UNL A   1      42.936  35.321  36.040  1.00  0.00     0.059 A 
ATOM     68  C   UNL A   1      43.667  36.287  34.103  1.00  0.00     0.059 A 
ATOM     69  F   UNL A   1      43.495  35.111  32.089  1.00  0.00    -0.206 F 
ATOM     70  C   UNL A   1      43.559  36.333  35.465  1.00  0.00     0.060 A 
BRANCH  70  71
ATOM     71  S   UNL A   1      44.234  37.709  36.428  1.00  0.00     0.124 S 
ATOM     72  O   UNL A   1      43.387  37.914  37.687  1.00  0.00    -0.237 OA
ATOM     73  O   UNL A   1      45.676  37.392  36.829  1.00  0.00    -0.237 OA
ATOM     74  O   UNL A   1      44.205  39.134  35.484  1.00  0.00    -0.744 OA
ENDBRANCH  70  71
ENDBRANCH  38  63
ENDBRANCH  12  13
ENDBRANCH   5   7
ENDBRANCH   2   3
ENDBRANCH   1   2
BRANCH   1  75
ATOM     75  C   UNL A   1      42.897  21.452  25.738  1.00  0.00     0.118 C 
BRANCH  75  76
ATOM     76  N   UNL A   1      42.666  22.733  25.055  1.00  0.00    -0.352 N 
ATOM     77  C   UNL A   1      43.292  23.961  25.565  1.00  0.00     0.253 C 
ATOM     78  H   UNL A   1      42.092  22.768  24.255  1.00  0.00     0.163 HD
ATOM     79  O   UNL A   1      43.092  25.069  24.975  1.00  0.00    -0.269 OA
BRANCH  77  80
ATOM     80  C   UNL A   1      44.178  23.907  26.799  1.00  0.00     0.063 A 
ATOM     81  C   UNL A   1      43.849  23.055  27.841  1.00  0.00     0.016 A 
ATOM     82  C   UNL A   1      45.213  24.733  26.886  1.00  0.00     0.051 A 
ATOM     83  C   UNL A   1      44.506  23.356  29.057  1.00  0.00     0.001 A 
ATOM     84  C   UNL A   1      45.895  24.878  28.070  1.00  0.00     0.027 A 
ATOM     85  C   UNL A   1      45.585  24.110  29.158  1.00  0.00     0.002 A 
BRANCH  82  86
ATOM     86  N   UNL A   1      45.633  25.501  25.705  1.00  0.00    -0.355 N 
ATOM     87  H   UNL A   1      45.834  25.035  24.861  1.00  0.00     0.167 HD
BRANCH  86  88
ATOM     88  C   UNL A   1      45.753  26.964  25.784  1.00  0.00     0.040 A 
ATOM     89  C   UNL A   1      46.913  27.560  25.314  1.00  0.00     0.026 A 
ATOM     90  C   UNL A   1      44.785  27.683  26.338  1.00  0.00     0.050 A 
ATOM     91  C   UNL A   1      47.082  28.899  25.739  1.00  0.00     0.004 A 
ATOM     92  C   UNL A   1      44.970  29.020  26.601  1.00  0.00     0.109 A 
ATOM     93  C   UNL A   1      46.115  29.660  26.218  1.00  0.00     0.024 A 
BRANCH  92  94
ATOM     94  S   UNL A   1      43.676  29.945  27.467  1.00  0.00     0.310 S 
ATOM     95  F   UNL A   1      44.218  31.235  26.721  1.00  0.00    -0.094 F 
ATOM     96  F   UNL A   1      44.763  30.214  28.576  1.00  0.00    -0.094 F 
ATOM     97  F   UNL A   1      42.661  30.867  28.198  1.00  0.00    -0.094 F 
ATOM     98  F   UNL A   1      42.653  29.774  26.276  1.00  0.00    -0.094 F 
ATOM     99  F   UNL A   1      44.737  29.096  26.658  1.00  0.00    -0.094 F 
ENDBRANCH  92  94
ENDBRANCH  86  88
ENDBRANCH  82  86
ENDBRANCH  77  80
ENDBRANCH  75  76
ENDBRANCH   1  75
TORSDOF 16
ENDMDL
MODEL 3
REMARK VINA RESULT:     -11.8      4.799     10.099
REMARK SMILES O=C(NCCCNC(=O)c1ccccc1Nc1cccc(S(F)(F)(F)(F)F)c1)c1ccc(-c2c3nc(c(-c4c(F)cc(S(=O)(=O)[O-])cc4F)c4ccc([nH]4)c(-c4c(F)cc(S(=O)(=O)[O-])cc4F)c4nc(c(-c5c(F)cc(S(=O)(=O)[O-])cc5F)c5ccc2[nH]5)C=C4)C=C3)cc1
REMARK SMILES IDX 5 1 4 2 3 3 1 4 2 5 29 7 30 8 94 9 31 10 93 11 32 12 33 13
REMARK SMILES IDX 34 14 87 15 35 16 92 17 86 18 88 19 36 20 91 21 85 22 84 23
REMARK SMILES IDX 37 25 71 26 50 27 70 28 51 29 54 30 69 31 89 32 52 33 53 34
REMARK SMILES IDX 68 36 90 37 55 38 38 39 39 40 48 41 40 42 41 43 47 44 49 45
REMARK SMILES IDX 42 46 43 47 44 48 45 49 46 50 72 51 73 52 82 53 74 54 75 55
REMARK SMILES IDX 81 56 83 57 76 58 77 59 78 60 79 61 80 62 56 63 57 64 66 65
REMARK SMILES IDX 58 66 59 67 65 68 67 69 60 70 61 71 62 72 63 73 64 74 6 75
REMARK SMILES IDX 7 76 8 77 9 79 10 80 11 81 15 82 12 83 14 84 13 85 16 86
REMARK SMILES IDX 17 88 18 89 28 90 19 91 21 92 20 93 22 94 23 95 24 96 25 97
REMARK SMILES IDX 26 98 27 99
REMARK H PARENT 3 6 88 24 54 35 7 78 16 87
REMARK Flexibility Score: inf
ROOT
ATOM      1  C   UNL A   1      38.967  23.617  26.607  1.00  0.00     0.042 C 
ENDROOT
BRANCH   1   2
ATOM      2  C   UNL A   1      39.784  24.865  26.318  1.00  0.00     0.118 C 
BRANCH   2   3
ATOM      3  N   UNL A   1      41.115  24.476  25.828  1.00  0.00    -0.352 N 
ATOM      4  O   UNL A   1      43.467  24.787  25.951  1.00  0.00    -0.269 OA
ATOM      5  C   UNL A   1      42.317  25.123  26.375  1.00  0.00     0.251 C 
ATOM      6  H   UNL A   1      41.201  23.783  25.134  1.00  0.00     0.163 HD
BRANCH   5   7
ATOM      7  C   UNL A   1      42.184  26.192  27.447  1.00  0.00     0.039 A 
ATOM      8  C   UNL A   1      42.569  27.509  27.258  1.00  0.00     0.014 A 
ATOM      9  C   UNL A   1      41.590  25.802  28.568  1.00  0.00     0.014 A 
ATOM     10  C   UNL A   1      42.543  28.288  28.440  1.00  0.00     0.010 A 
ATOM     11  C   UNL A   1      41.478  26.659  29.636  1.00  0.00     0.010 A 
ATOM     12  C   UNL A   1      41.892  27.958  29.540  1.00  0.00    -0.014 A 
BRANCH  12  13
ATOM     13  C   UNL A   1      41.617  28.970  30.642  1.00  0.00     0.031 A 
ATOM     14  C   UNL A   1      42.481  28.862  31.732  1.00  0.00     0.074 A 
ATOM     15  C   UNL A   1      40.528  29.824  30.597  1.00  0.00     0.049 A 
ATOM     16  N   UNL A   1      42.443  29.555  32.871  1.00  0.00    -0.248 NA
ATOM     17  C   UNL A   1      43.618  27.932  31.795  1.00  0.00     0.031 C 
ATOM     18  C   UNL A   1      39.657  29.943  29.498  1.00  0.00     0.029 A 
ATOM     19  N   UNL A   1      40.094  30.689  31.576  1.00  0.00    -0.354 N 
ATOM     20  C   UNL A   1      43.448  29.186  33.668  1.00  0.00     0.074 A 
ATOM     21  C   UNL A   1      44.215  28.133  32.991  1.00  0.00     0.031 C 
ATOM     22  C   UNL A   1      38.704  30.861  29.812  1.00  0.00     0.029 A 
ATOM     23  C   UNL A   1      38.965  31.329  31.114  1.00  0.00     0.049 A 
ATOM     24  H   UNL A   1      40.517  30.828  32.454  1.00  0.00     0.167 HD
ATOM     25  C   UNL A   1      43.756  29.689  34.934  1.00  0.00     0.037 A 
ATOM     26  C   UNL A   1      38.191  32.269  31.776  1.00  0.00     0.037 A 
ATOM     27  C   UNL A   1      43.008  30.660  35.578  1.00  0.00     0.049 A 
ATOM     28  C   UNL A   1      38.465  32.729  33.065  1.00  0.00     0.074 A 
ATOM     29  C   UNL A   1      43.309  31.184  36.851  1.00  0.00     0.029 A 
ATOM     30  N   UNL A   1      41.864  31.282  35.126  1.00  0.00    -0.354 N 
ATOM     31  N   UNL A   1      39.493  32.390  33.846  1.00  0.00    -0.248 NA
ATOM     32  C   UNL A   1      37.635  33.701  33.790  1.00  0.00     0.031 C 
ATOM     33  C   UNL A   1      42.355  32.101  37.165  1.00  0.00     0.029 A 
ATOM     34  C   UNL A   1      41.442  32.165  36.096  1.00  0.00     0.049 A 
ATOM     35  H   UNL A   1      41.424  31.122  34.260  1.00  0.00     0.167 HD
ATOM     36  C   UNL A   1      39.430  33.053  35.003  1.00  0.00     0.074 A 
ATOM     37  C   UNL A   1      38.229  33.900  34.985  1.00  0.00     0.031 C 
ATOM     38  C   UNL A   1      40.328  32.988  36.070  1.00  0.00     0.037 A 
BRANCH  25  39
ATOM     39  C   UNL A   1      44.982  29.140  35.645  1.00  0.00     0.058 A 
ATOM     40  C   UNL A   1      46.227  29.694  35.396  1.00  0.00     0.135 A 
ATOM     41  C   UNL A   1      44.851  28.051  36.393  1.00  0.00     0.135 A 
ATOM     42  F   UNL A   1      46.390  30.907  34.874  1.00  0.00    -0.206 F 
ATOM     43  C   UNL A   1      47.310  28.854  35.747  1.00  0.00     0.059 A 
ATOM     44  C   UNL A   1      45.958  27.355  36.816  1.00  0.00     0.059 A 
ATOM     45  F   UNL A   1      43.637  27.631  36.738  1.00  0.00    -0.206 F 
ATOM     46  C   UNL A   1      47.219  27.813  36.554  1.00  0.00     0.060 A 
BRANCH  46  47
ATOM     47  S   UNL A   1      48.685  27.036  37.276  1.00  0.00     0.124 S 
ATOM     48  O   UNL A   1      48.815  27.454  38.742  1.00  0.00    -0.237 OA
ATOM     49  O   UNL A   1      48.551  25.514  37.189  1.00  0.00    -0.237 OA
ATOM     50  O   UNL A   1      50.077  27.534  36.416  1.00  0.00    -0.744 OA
ENDBRANCH  46  47
ENDBRANCH  25  39
BRANCH  26  51
ATOM     51  C   UNL A   1      36.974  32.830  31.058  1.00  0.00     0.058 A 
ATOM     52  C   UNL A   1      35.697  32.375  31.344  1.00  0.00     0.135 A 
ATOM     53  C   UNL A   1      37.172  33.856  30.241  1.00  0.00     0.135 A 
ATOM     54  F   UNL A   1      35.433  31.529  32.336  1.00  0.00    -0.206 F 
ATOM     55  C   UNL A   1      34.698  32.892  30.484  1.00  0.00     0.059 A 
ATOM     56  C   UNL A   1      36.127  34.400  29.534  1.00  0.00     0.059 A 
ATOM     57  F   UNL A   1      38.395  34.363  30.105  1.00  0.00    -0.206 F 
ATOM     58  C   UNL A   1      34.847  33.960  29.722  1.00  0.00     0.060 A 
BRANCH  58  59
ATOM     59  S   UNL A   1      33.429  34.797  28.967  1.00  0.00     0.124 S 
ATOM     60  O   UNL A   1      32.754  33.854  27.969  1.00  0.00    -0.237 OA
ATOM     61  O   UNL A   1      32.430  35.188  30.057  1.00  0.00    -0.237 OA
ATOM     62  O   UNL A   1      33.965  36.201  28.153  1.00  0.00    -0.744 OA
ENDBRANCH  58  59
ENDBRANCH  26  51
BRANCH  38  63
ATOM     63  C   UNL A   1      40.067  33.874  37.277  1.00  0.00     0.058 A 
ATOM     64  C   UNL A   1      40.524  35.176  37.389  1.00  0.00     0.135 A 
ATOM     65  C   UNL A   1      39.279  33.339  38.203  1.00  0.00     0.135 A 
ATOM     66  F   UNL A   1      41.095  35.833  36.384  1.00  0.00    -0.206 F 
ATOM     67  C   UNL A   1      40.330  35.744  38.671  1.00  0.00     0.059 A 
ATOM     68  C   UNL A   1      39.022  34.008  39.375  1.00  0.00     0.059 A 
ATOM     69  F   UNL A   1      38.736  32.143  37.994  1.00  0.00    -0.206 F 
ATOM     70  C   UNL A   1      39.493  35.276  39.578  1.00  0.00     0.060 A 
BRANCH  70  71
ATOM     71  S   UNL A   1      38.995  36.259  41.014  1.00  0.00     0.124 S 
ATOM     72  O   UNL A   1      40.141  36.300  42.027  1.00  0.00    -0.237 OA
ATOM     73  O   UNL A   1      38.660  37.684  40.565  1.00  0.00    -0.237 OA
ATOM     74  O   UNL A   1      37.617  35.552  41.739  1.00  0.00    -0.744 OA
ENDBRANCH  70  71
ENDBRANCH  38  63
ENDBRANCH  12  13
ENDBRANCH   5   7
ENDBRANCH   2   3
ENDBRANCH   1   2
BRANCH   1  75
ATOM     75  C   UNL A   1      37.547  23.812  26.100  1.00  0.00     0.118 C 
BRANCH  75  76
ATOM     76  N   UNL A   1      37.474  23.419  24.686  1.00  0.00    -0.352 N 
ATOM     77  C   UNL A   1      36.181  23.427  23.986  1.00  0.00     0.253 C 
ATOM     78  H   UNL A   1      38.291  23.151  24.206  1.00  0.00     0.163 HD
ATOM     79  O   UNL A   1      36.118  23.086  22.764  1.00  0.00    -0.269 OA
BRANCH  77  80
ATOM     80  C   UNL A   1      34.919  23.841  24.727  1.00  0.00     0.063 A 
ATOM     81  C   UNL A   1      34.501  25.161  24.682  1.00  0.00     0.016 A 
ATOM     82  C   UNL A   1      34.281  22.941  25.465  1.00  0.00     0.051 A 
ATOM     83  C   UNL A   1      33.564  25.500  25.686  1.00  0.00     0.001 A 
ATOM     84  C   UNL A   1      33.282  23.325  26.326  1.00  0.00     0.027 A 
ATOM     85  C   UNL A   1      32.858  24.624  26.377  1.00  0.00     0.002 A 
BRANCH  82  86
ATOM     86  N   UNL A   1      34.648  21.521  25.362  1.00  0.00    -0.355 N 
ATOM     87  H   UNL A   1      35.404  21.169  25.885  1.00  0.00     0.167 HD
BRANCH  86  88
ATOM     88  C   UNL A   1      33.886  20.628  24.477  1.00  0.00     0.040 A 
ATOM     89  C   UNL A   1      33.058  21.193  23.520  1.00  0.00     0.026 A 
ATOM     90  C   UNL A   1      33.963  19.313  24.632  1.00  0.00     0.050 A 
ATOM     91  C   UNL A   1      32.125  20.287  22.963  1.00  0.00     0.004 A 
ATOM     92  C   UNL A   1      33.108  18.478  23.951  1.00  0.00     0.109 A 
ATOM     93  C   UNL A   1      32.223  18.972  23.034  1.00  0.00     0.024 A 
BRANCH  92  94
ATOM     94  S   UNL A   1      33.156  16.697  24.275  1.00  0.00     0.310 S 
ATOM     95  F   UNL A   1      34.205  17.019  25.420  1.00  0.00    -0.094 F 
ATOM     96  F   UNL A   1      34.369  16.655  23.271  1.00  0.00    -0.094 F 
ATOM     97  F   UNL A   1      33.345  15.191  24.610  1.00  0.00    -0.094 F 
ATOM     98  F   UNL A   1      32.031  16.793  25.380  1.00  0.00    -0.094 F 
ATOM     99  F   UNL A   1      33.026  18.253  24.029  1.00  0.00    -0.094 F 
ENDBRANCH  92  94
ENDBRANCH  86  88
ENDBRANCH  82  86
ENDBRANCH  77  80
ENDBRANCH  75  76
ENDBRANCH   1  75
TORSDOF 16
ENDMDL
