MODEL 1
REMARK VINA RESULT:     -12.0      0.000      0.000
REMARK SMILES Cc1cccc(CN(C)c2nc(C)c(C(=O)NCCCNC(=O)c3ccc(-c4c5nc(c(-c6c(F)cc(S(=O)(=O)[O-])cc6F)c6ccc([nH]6)c(-c6c(F)cc(S(=O)(=O)[O-])cc6F)c6nc(c(-c7c(F)cc(S(=O)(=O)[O-])cc7F)c7ccc4[nH]7)C=C6)C=C5)cc3)s2)n1
REMARK SMILES IDX 19 1 18 2 17 3 15 4 16 5 14 7 10 8 11 9 90 10 12 11 13 12
REMARK SMILES IDX 8 13 9 14 7 15 6 16 1 17 2 18 3 19 91 20 4 21 5 22 20 23
REMARK SMILES IDX 21 24 22 25 23 27 24 28 25 29 89 30 26 31 88 32 27 33 28 34
REMARK SMILES IDX 29 35 82 36 30 37 87 38 81 39 83 40 31 41 86 42 80 43 79 44
REMARK SMILES IDX 32 46 66 47 45 48 65 49 46 50 49 51 64 52 84 53 47 54 48 55
REMARK SMILES IDX 63 57 85 58 50 59 33 60 34 61 43 62 35 63 36 64 42 65 44 66
REMARK SMILES IDX 37 67 38 68 39 69 40 70 41 71 67 72 68 73 77 74 69 75 70 76
REMARK SMILES IDX 76 77 78 78 71 79 72 80 73 81 74 82 75 83 51 84 52 85 61 86
REMARK SMILES IDX 53 87 54 88 60 89 62 90 55 91 56 92 57 93 58 94 59 95
REMARK H PARENT 17 6 21 26 83 45 49 56
REMARK Flexibility Score: inf
ROOT
ATOM      1  C   UNL A   1      37.444  23.679  25.381  1.00  0.00     0.042 C 
ENDROOT
BRANCH   1   2
ATOM      2  C   UNL A   1      36.845  22.281  25.505  1.00  0.00     0.118 C 
BRANCH   2   3
ATOM      3  N   UNL A   1      35.811  22.276  26.512  1.00  0.00    -0.351 N 
ATOM      4  C   UNL A   1      34.495  22.653  26.511  1.00  0.00     0.263 C 
ATOM      5  O   UNL A   1      33.968  22.550  27.626  1.00  0.00    -0.268 OA
ATOM      6  H   UNL A   1      36.116  21.929  27.380  1.00  0.00     0.163 HD
BRANCH   4   7
ATOM      7  C   UNL A   1      33.753  23.062  25.326  1.00  0.00     0.117 A 
ATOM      8  C   UNL A   1      32.812  24.612  23.634  1.00  0.00     0.186 A 
ATOM      9  N   UNL A   1      32.465  23.373  23.391  1.00  0.00    -0.225 NA
ATOM     10  S   UNL A   1      33.762  24.771  25.048  1.00  0.00    -0.091 S 
ATOM     11  C   UNL A   1      33.058  22.474  24.276  1.00  0.00     0.063 A 
ATOM     12  C   UNL A   1      32.872  21.054  23.889  1.00  0.00     0.068 C 
BRANCH   8  13
ATOM     13  N   UNL A   1      32.416  25.661  22.857  1.00  0.00    -0.345 N 
ATOM     14  C   UNL A   1      32.662  25.561  21.432  1.00  0.00     0.146 C 
BRANCH  13  15
ATOM     15  C   UNL A   1      32.220  27.000  23.424  1.00  0.00     0.174 C 
BRANCH  15  16
ATOM     16  C   UNL A   1      30.773  27.465  23.416  1.00  0.00     0.060 A 
ATOM     17  C   UNL A   1      28.937  30.238  21.862  1.00  0.00     0.067 C 
ATOM     18  C   UNL A   1      29.197  28.988  22.642  1.00  0.00     0.038 A 
ATOM     19  C   UNL A   1      28.149  28.192  23.094  1.00  0.00     0.023 A 
ATOM     20  N   UNL A   1      30.495  28.654  22.819  1.00  0.00    -0.256 NA
ATOM     21  C   UNL A   1      28.447  27.011  23.764  1.00  0.00     0.004 A 
ATOM     22  C   UNL A   1      29.775  26.638  23.931  1.00  0.00     0.026 A 
ENDBRANCH  15  16
ENDBRANCH  13  15
ENDBRANCH   8  13
ENDBRANCH   4   7
ENDBRANCH   2   3
ENDBRANCH   1   2
BRANCH   1  23
ATOM     23  C   UNL A   1      38.381  24.038  26.528  1.00  0.00     0.118 C 
BRANCH  23  24
ATOM     24  N   UNL A   1      39.775  23.970  26.123  1.00  0.00    -0.352 N 
ATOM     25  C   UNL A   1      40.818  24.812  26.425  1.00  0.00     0.251 C 
ATOM     26  H   UNL A   1      40.006  23.208  25.545  1.00  0.00     0.163 HD
ATOM     27  O   UNL A   1      41.853  24.736  25.769  1.00  0.00    -0.269 OA
BRANCH  25  28
ATOM     28  C   UNL A   1      40.704  25.804  27.520  1.00  0.00     0.039 A 
ATOM     29  C   UNL A   1      41.629  26.853  27.578  1.00  0.00     0.014 A 
ATOM     30  C   UNL A   1      39.737  25.676  28.522  1.00  0.00     0.014 A 
ATOM     31  C   UNL A   1      41.557  27.790  28.612  1.00  0.00     0.010 A 
ATOM     32  C   UNL A   1      39.617  26.654  29.505  1.00  0.00     0.010 A 
ATOM     33  C   UNL A   1      40.536  27.712  29.573  1.00  0.00    -0.014 A 
BRANCH  33  34
ATOM     34  C   UNL A   1      40.428  28.707  30.670  1.00  0.00     0.031 A 
ATOM     35  C   UNL A   1      41.326  28.601  31.875  1.00  0.00     0.074 A 
ATOM     36  C   UNL A   1      39.483  29.665  30.613  1.00  0.00     0.049 A 
ATOM     37  N   UNL A   1      41.340  29.327  32.964  1.00  0.00    -0.248 NA
ATOM     38  C   UNL A   1      42.320  27.515  31.867  1.00  0.00     0.031 C 
ATOM     39  C   UNL A   1      38.528  29.847  29.518  1.00  0.00     0.029 A 
ATOM     40  N   UNL A   1      39.164  30.662  31.500  1.00  0.00    -0.354 N 
ATOM     41  C   UNL A   1      42.318  28.770  33.779  1.00  0.00     0.074 A 
ATOM     42  C   UNL A   1      42.846  27.620  33.078  1.00  0.00     0.031 C 
ATOM     43  C   UNL A   1      37.753  30.910  29.783  1.00  0.00     0.029 A 
ATOM     44  C   UNL A   1      38.128  31.463  31.081  1.00  0.00     0.049 A 
ATOM     45  H   UNL A   1      39.634  30.792  32.356  1.00  0.00     0.167 HD
ATOM     46  C   UNL A   1      42.751  29.189  34.993  1.00  0.00     0.037 A 
ATOM     47  C   UNL A   1      37.546  32.521  31.677  1.00  0.00     0.037 A 
ATOM     48  C   UNL A   1      42.248  30.358  35.666  1.00  0.00     0.049 A 
ATOM     49  C   UNL A   1      38.049  32.975  33.020  1.00  0.00     0.074 A 
ATOM     50  C   UNL A   1      42.673  30.917  36.858  1.00  0.00     0.029 A 
ATOM     51  N   UNL A   1      41.203  31.148  35.205  1.00  0.00    -0.354 N 
ATOM     52  N   UNL A   1      39.019  32.476  33.747  1.00  0.00    -0.248 NA
ATOM     53  C   UNL A   1      37.377  34.135  33.621  1.00  0.00     0.031 C 
ATOM     54  C   UNL A   1      41.860  32.021  37.138  1.00  0.00     0.029 A 
ATOM     55  C   UNL A   1      40.955  32.175  36.100  1.00  0.00     0.049 A 
ATOM     56  H   UNL A   1      40.711  30.999  34.365  1.00  0.00     0.167 HD
ATOM     57  C   UNL A   1      39.094  33.279  34.880  1.00  0.00     0.074 A 
ATOM     58  C   UNL A   1      38.074  34.298  34.738  1.00  0.00     0.031 C 
ATOM     59  C   UNL A   1      39.936  33.183  35.939  1.00  0.00     0.037 A 
BRANCH  46  60
ATOM     60  C   UNL A   1      43.814  28.368  35.671  1.00  0.00     0.058 A 
ATOM     61  C   UNL A   1      43.496  27.341  36.573  1.00  0.00     0.135 A 
ATOM     62  C   UNL A   1      45.173  28.614  35.415  1.00  0.00     0.135 A 
ATOM     63  F   UNL A   1      42.214  27.070  36.865  1.00  0.00    -0.206 F 
ATOM     64  C   UNL A   1      44.485  26.618  37.233  1.00  0.00     0.059 A 
ATOM     65  C   UNL A   1      46.180  27.884  36.042  1.00  0.00     0.059 A 
ATOM     66  F   UNL A   1      45.537  29.581  34.557  1.00  0.00    -0.206 F 
ATOM     67  C   UNL A   1      45.825  26.903  36.968  1.00  0.00     0.060 A 
BRANCH  67  68
ATOM     68  S   UNL A   1      47.099  25.981  37.853  1.00  0.00     0.124 S 
ATOM     69  O   UNL A   1      46.291  25.159  38.749  1.00  0.00    -0.237 OA
ATOM     70  O   UNL A   1      47.776  25.265  36.777  1.00  0.00    -0.237 OA
ATOM     71  O   UNL A   1      47.888  27.026  38.499  1.00  0.00    -0.744 OA
ENDBRANCH  67  68
ENDBRANCH  46  60
BRANCH  47  72
ATOM     72  C   UNL A   1      36.455  33.252  30.980  1.00  0.00     0.058 A 
ATOM     73  C   UNL A   1      35.127  33.134  31.416  1.00  0.00     0.135 A 
ATOM     74  C   UNL A   1      36.716  34.106  29.898  1.00  0.00     0.135 A 
ATOM     75  F   UNL A   1      34.829  32.324  32.443  1.00  0.00    -0.206 F 
ATOM     76  C   UNL A   1      34.094  33.833  30.803  1.00  0.00     0.059 A 
ATOM     77  C   UNL A   1      35.702  34.832  29.281  1.00  0.00     0.059 A 
ATOM     78  F   UNL A   1      37.973  34.265  29.453  1.00  0.00    -0.206 F 
ATOM     79  C   UNL A   1      34.393  34.685  29.738  1.00  0.00     0.060 A 
BRANCH  79  80
ATOM     80  S   UNL A   1      33.053  35.643  28.995  1.00  0.00     0.124 S 
ATOM     81  O   UNL A   1      32.440  34.655  28.115  1.00  0.00    -0.237 OA
ATOM     82  O   UNL A   1      32.270  36.031  30.163  1.00  0.00    -0.237 OA
ATOM     83  O   UNL A   1      33.753  36.736  28.328  1.00  0.00    -0.744 OA
ENDBRANCH  79  80
ENDBRANCH  47  72
BRANCH  59  84
ATOM     84  C   UNL A   1      39.810  34.225  37.015  1.00  0.00     0.058 A 
ATOM     85  C   UNL A   1      40.333  35.517  36.853  1.00  0.00     0.135 A 
ATOM     86  C   UNL A   1      39.115  33.940  38.201  1.00  0.00     0.135 A 
ATOM     87  F   UNL A   1      41.014  35.836  35.741  1.00  0.00    -0.206 F 
ATOM     88  C   UNL A   1      40.189  36.486  37.840  1.00  0.00     0.059 A 
ATOM     89  C   UNL A   1      38.937  34.901  39.190  1.00  0.00     0.059 A 
ATOM     90  F   UNL A   1      38.587  32.722  38.400  1.00  0.00    -0.206 F 
ATOM     91  C   UNL A   1      39.488  36.170  39.006  1.00  0.00     0.060 A 
BRANCH  91  92
ATOM     92  S   UNL A   1      39.275  37.446  40.264  1.00  0.00     0.124 S 
ATOM     93  O   UNL A   1      40.656  37.827  40.533  1.00  0.00    -0.237 OA
ATOM     94  O   UNL A   1      38.467  38.443  39.567  1.00  0.00    -0.237 OA
ATOM     95  O   UNL A   1      38.593  36.744  41.347  1.00  0.00    -0.744 OA
ENDBRANCH  91  92
ENDBRANCH  59  84
ENDBRANCH  33  34
ENDBRANCH  25  28
ENDBRANCH  23  24
ENDBRANCH   1  23
TORSDOF 16
ENDMDL
MODEL 2
REMARK VINA RESULT:     -11.9      4.632     10.611
REMARK SMILES Cc1cccc(CN(C)c2nc(C)c(C(=O)NCCCNC(=O)c3ccc(-c4c5nc(c(-c6c(F)cc(S(=O)(=O)[O-])cc6F)c6ccc([nH]6)c(-c6c(F)cc(S(=O)(=O)[O-])cc6F)c6nc(c(-c7c(F)cc(S(=O)(=O)[O-])cc7F)c7ccc4[nH]7)C=C6)C=C5)cc3)s2)n1
REMARK SMILES IDX 19 1 18 2 17 3 15 4 16 5 14 7 10 8 11 9 90 10 12 11 13 12
REMARK SMILES IDX 8 13 9 14 7 15 6 16 1 17 2 18 3 19 91 20 4 21 5 22 20 23
REMARK SMILES IDX 21 24 22 25 23 27 24 28 25 29 89 30 26 31 88 32 27 33 28 34
REMARK SMILES IDX 29 35 82 36 30 37 87 38 81 39 83 40 31 41 86 42 80 43 79 44
REMARK SMILES IDX 32 46 66 47 45 48 65 49 46 50 49 51 64 52 84 53 47 54 48 55
REMARK SMILES IDX 63 57 85 58 50 59 33 60 34 61 43 62 35 63 36 64 42 65 44 66
REMARK SMILES IDX 37 67 38 68 39 69 40 70 41 71 67 72 68 73 77 74 69 75 70 76
REMARK SMILES IDX 76 77 78 78 71 79 72 80 73 81 74 82 75 83 51 84 52 85 61 86
REMARK SMILES IDX 53 87 54 88 60 89 62 90 55 91 56 92 57 93 58 94 59 95
REMARK H PARENT 17 6 21 26 83 45 49 56
REMARK Flexibility Score: inf
ROOT
ATOM      1  C   UNL A   1      32.590  27.478  26.153  1.00  0.00     0.042 C 
ENDROOT
BRANCH   1   2
ATOM      2  C   UNL A   1      32.046  28.185  24.914  1.00  0.00     0.118 C 
BRANCH   2   3
ATOM      3  N   UNL A   1      30.764  27.631  24.553  1.00  0.00    -0.351 N 
ATOM      4  C   UNL A   1      30.382  26.480  23.919  1.00  0.00     0.263 C 
ATOM      5  O   UNL A   1      29.159  26.417  23.739  1.00  0.00    -0.268 OA
ATOM      6  H   UNL A   1      30.006  28.199  24.819  1.00  0.00     0.163 HD
BRANCH   4   7
ATOM      7  C   UNL A   1      31.286  25.399  23.551  1.00  0.00     0.117 A 
ATOM      8  C   UNL A   1      32.420  23.200  23.727  1.00  0.00     0.186 A 
ATOM      9  N   UNL A   1      32.854  23.880  22.694  1.00  0.00    -0.225 NA
ATOM     10  S   UNL A   1      31.250  24.053  24.639  1.00  0.00    -0.091 S 
ATOM     11  C   UNL A   1      32.164  25.079  22.522  1.00  0.00     0.063 A 
ATOM     12  C   UNL A   1      32.470  25.756  21.239  1.00  0.00     0.068 C 
BRANCH   8  13
ATOM     13  N   UNL A   1      32.891  21.963  24.054  1.00  0.00    -0.345 N 
ATOM     14  C   UNL A   1      32.297  20.827  23.377  1.00  0.00     0.146 C 
BRANCH  13  15
ATOM     15  C   UNL A   1      33.573  21.718  25.330  1.00  0.00     0.174 C 
BRANCH  15  16
ATOM     16  C   UNL A   1      35.087  21.653  25.215  1.00  0.00     0.060 A 
ATOM     17  C   UNL A   1      37.865  23.885  26.099  1.00  0.00     0.067 C 
ATOM     18  C   UNL A   1      37.140  22.669  25.615  1.00  0.00     0.038 A 
ATOM     19  C   UNL A   1      37.821  21.490  25.332  1.00  0.00     0.023 A 
ATOM     20  N   UNL A   1      35.793  22.769  25.533  1.00  0.00    -0.256 NA
ATOM     21  C   UNL A   1      37.093  20.372  24.941  1.00  0.00     0.004 A 
ATOM     22  C   UNL A   1      35.707  20.450  24.879  1.00  0.00     0.026 A 
ENDBRANCH  15  16
ENDBRANCH  13  15
ENDBRANCH   8  13
ENDBRANCH   4   7
ENDBRANCH   2   3
ENDBRANCH   1   2
BRANCH   1  23
ATOM     23  C   UNL A   1      33.865  28.111  26.698  1.00  0.00     0.118 C 
BRANCH  23  24
ATOM     24  N   UNL A   1      33.667  29.510  27.035  1.00  0.00    -0.352 N 
ATOM     25  C   UNL A   1      34.458  30.355  27.774  1.00  0.00     0.251 C 
ATOM     26  H   UNL A   1      32.842  29.913  26.680  1.00  0.00     0.163 HD
ATOM     27  O   UNL A   1      33.988  31.418  28.170  1.00  0.00    -0.269 OA
BRANCH  25  28
ATOM     28  C   UNL A   1      35.859  29.997  28.100  1.00  0.00     0.039 A 
ATOM     29  C   UNL A   1      36.146  29.487  29.372  1.00  0.00     0.014 A 
ATOM     30  C   UNL A   1      36.898  30.215  27.190  1.00  0.00     0.014 A 
ATOM     31  C   UNL A   1      37.462  29.161  29.712  1.00  0.00     0.010 A 
ATOM     32  C   UNL A   1      38.195  29.816  27.502  1.00  0.00     0.010 A 
ATOM     33  C   UNL A   1      38.495  29.301  28.771  1.00  0.00    -0.014 A 
BRANCH  33  34
ATOM     34  C   UNL A   1      39.897  28.944  29.104  1.00  0.00     0.031 A 
ATOM     35  C   UNL A   1      40.785  29.941  29.801  1.00  0.00     0.074 A 
ATOM     36  C   UNL A   1      40.391  27.749  28.723  1.00  0.00     0.049 A 
ATOM     37  N   UNL A   1      42.052  29.845  30.114  1.00  0.00    -0.248 NA
ATOM     38  C   UNL A   1      40.174  31.229  30.167  1.00  0.00     0.031 C 
ATOM     39  C   UNL A   1      39.642  26.714  28.007  1.00  0.00     0.029 A 
ATOM     40  N   UNL A   1      41.641  27.207  28.878  1.00  0.00    -0.354 N 
ATOM     41  C   UNL A   1      42.396  31.065  30.685  1.00  0.00     0.074 A 
ATOM     42  C   UNL A   1      41.215  31.900  30.636  1.00  0.00     0.031 C 
ATOM     43  C   UNL A   1      40.438  25.651  27.813  1.00  0.00     0.029 A 
ATOM     44  C   UNL A   1      41.762  25.940  28.356  1.00  0.00     0.049 A 
ATOM     45  H   UNL A   1      42.383  27.679  29.321  1.00  0.00     0.167 HD
ATOM     46  C   UNL A   1      43.581  31.449  31.219  1.00  0.00     0.037 A 
ATOM     47  C   UNL A   1      42.820  25.108  28.319  1.00  0.00     0.037 A 
ATOM     48  C   UNL A   1      44.739  30.597  31.300  1.00  0.00     0.049 A 
ATOM     49  C   UNL A   1      44.123  25.551  28.925  1.00  0.00     0.074 A 
ATOM     50  C   UNL A   1      45.960  30.858  31.894  1.00  0.00     0.029 A 
ATOM     51  N   UNL A   1      44.819  29.318  30.767  1.00  0.00    -0.354 N 
ATOM     52  N   UNL A   1      44.412  26.683  29.520  1.00  0.00    -0.248 NA
ATOM     53  C   UNL A   1      45.242  24.602  28.857  1.00  0.00     0.031 C 
ATOM     54  C   UNL A   1      46.793  29.752  31.685  1.00  0.00     0.029 A 
ATOM     55  C   UNL A   1      46.076  28.785  30.998  1.00  0.00     0.049 A 
ATOM     56  H   UNL A   1      44.088  28.856  30.295  1.00  0.00     0.167 HD
ATOM     57  C   UNL A   1      45.739  26.573  29.922  1.00  0.00     0.074 A 
ATOM     58  C   UNL A   1      46.192  25.260  29.506  1.00  0.00     0.031 C 
ATOM     59  C   UNL A   1      46.509  27.475  30.580  1.00  0.00     0.037 A 
BRANCH  46  60
ATOM     60  C   UNL A   1      43.681  32.855  31.745  1.00  0.00     0.058 A 
ATOM     61  C   UNL A   1      43.436  33.160  33.094  1.00  0.00     0.135 A 
ATOM     62  C   UNL A   1      44.026  33.912  30.888  1.00  0.00     0.135 A 
ATOM     63  F   UNL A   1      43.091  32.190  33.955  1.00  0.00    -0.206 F 
ATOM     64  C   UNL A   1      43.483  34.469  33.564  1.00  0.00     0.059 A 
ATOM     65  C   UNL A   1      44.107  35.226  31.343  1.00  0.00     0.059 A 
ATOM     66  F   UNL A   1      44.275  33.678  29.590  1.00  0.00    -0.206 F 
ATOM     67  C   UNL A   1      43.811  35.497  32.679  1.00  0.00     0.060 A 
BRANCH  67  68
ATOM     68  S   UNL A   1      43.837  37.194  33.293  1.00  0.00     0.124 S 
ATOM     69  O   UNL A   1      45.061  37.194  34.088  1.00  0.00    -0.237 OA
ATOM     70  O   UNL A   1      43.883  37.975  32.061  1.00  0.00    -0.237 OA
ATOM     71  O   UNL A   1      42.595  37.300  34.052  1.00  0.00    -0.744 OA
ENDBRANCH  67  68
ENDBRANCH  46  60
BRANCH  47  72
ATOM     72  C   UNL A   1      42.672  23.753  27.726  1.00  0.00     0.058 A 
ATOM     73  C   UNL A   1      42.791  23.564  26.341  1.00  0.00     0.135 A 
ATOM     74  C   UNL A   1      42.450  22.621  28.525  1.00  0.00     0.135 A 
ATOM     75  F   UNL A   1      42.997  24.618  25.537  1.00  0.00    -0.206 F 
ATOM     76  C   UNL A   1      42.690  22.303  25.767  1.00  0.00     0.059 A 
ATOM     77  C   UNL A   1      42.367  21.345  27.975  1.00  0.00     0.059 A 
ATOM     78  F   UNL A   1      42.345  22.747  29.857  1.00  0.00    -0.206 F 
ATOM     79  C   UNL A   1      42.482  21.197  26.594  1.00  0.00     0.060 A 
BRANCH  79  80
ATOM     80  S   UNL A   1      42.425  19.555  25.843  1.00  0.00     0.124 S 
ATOM     81  O   UNL A   1      42.808  18.706  26.965  1.00  0.00    -0.237 OA
ATOM     82  O   UNL A   1      41.032  19.461  25.417  1.00  0.00    -0.237 OA
ATOM     83  O   UNL A   1      43.398  19.649  24.759  1.00  0.00    -0.744 OA
ENDBRANCH  79  80
ENDBRANCH  47  72
BRANCH  59  84
ATOM     84  C   UNL A   1      47.913  27.063  30.919  1.00  0.00     0.058 A 
ATOM     85  C   UNL A   1      48.209  26.351  32.091  1.00  0.00     0.135 A 
ATOM     86  C   UNL A   1      48.968  27.342  30.035  1.00  0.00     0.135 A 
ATOM     87  F   UNL A   1      47.238  26.067  32.974  1.00  0.00    -0.206 F 
ATOM     88  C   UNL A   1      49.507  25.947  32.387  1.00  0.00     0.059 A 
ATOM     89  C   UNL A   1      50.269  26.926  30.298  1.00  0.00     0.059 A 
ATOM     90  F   UNL A   1      48.736  28.011  28.895  1.00  0.00    -0.206 F 
ATOM     91  C   UNL A   1      50.531  26.238  31.483  1.00  0.00     0.060 A 
BRANCH  91  92
ATOM     92  S   UNL A   1      52.205  25.677  31.858  1.00  0.00     0.124 S 
ATOM     93  O   UNL A   1      52.899  25.968  30.609  1.00  0.00    -0.237 OA
ATOM     94  O   UNL A   1      52.570  26.516  32.996  1.00  0.00    -0.237 OA
ATOM     95  O   UNL A   1      52.027  24.261  32.164  1.00  0.00    -0.744 OA
ENDBRANCH  91  92
ENDBRANCH  59  84
ENDBRANCH  33  34
ENDBRANCH  25  28
ENDBRANCH  23  24
ENDBRANCH   1  23
TORSDOF 16
ENDMDL
MODEL 3
REMARK VINA RESULT:     -11.9      6.531     12.170
REMARK SMILES Cc1cccc(CN(C)c2nc(C)c(C(=O)NCCCNC(=O)c3ccc(-c4c5nc(c(-c6c(F)cc(S(=O)(=O)[O-])cc6F)c6ccc([nH]6)c(-c6c(F)cc(S(=O)(=O)[O-])cc6F)c6nc(c(-c7c(F)cc(S(=O)(=O)[O-])cc7F)c7ccc4[nH]7)C=C6)C=C5)cc3)s2)n1
REMARK SMILES IDX 19 1 18 2 17 3 15 4 16 5 14 7 10 8 11 9 90 10 12 11 13 12
REMARK SMILES IDX 8 13 9 14 7 15 6 16 1 17 2 18 3 19 91 20 4 21 5 22 20 23
REMARK SMILES IDX 21 24 22 25 23 27 24 28 25 29 89 30 26 31 88 32 27 33 28 34
REMARK SMILES IDX 29 35 82 36 30 37 87 38 81 39 83 40 31 41 86 42 80 43 79 44
REMARK SMILES IDX 32 46 66 47 45 48 65 49 46 50 49 51 64 52 84 53 47 54 48 55
REMARK SMILES IDX 63 57 85 58 50 59 33 60 34 61 43 62 35 63 36 64 42 65 44 66
REMARK SMILES IDX 37 67 38 68 39 69 40 70 41 71 67 72 68 73 77 74 69 75 70 76
REMARK SMILES IDX 76 77 78 78 71 79 72 80 73 81 74 82 75 83 51 84 52 85 61 86
REMARK SMILES IDX 53 87 54 88 60 89 62 90 55 91 56 92 57 93 58 94 59 95
REMARK H PARENT 17 6 21 26 83 45 49 56
REMARK Flexibility Score: inf
ROOT
ATOM      1  C   UNL A   1      34.199  31.040  27.461  1.00  0.00     0.042 C 
ENDROOT
BRANCH   1   2
ATOM      2  C   UNL A   1      34.057  29.600  26.973  1.00  0.00     0.118 C 
BRANCH   2   3
ATOM      3  N   UNL A   1      32.973  28.950  27.668  1.00  0.00    -0.351 N 
ATOM      4  C   UNL A   1      31.961  28.119  27.266  1.00  0.00     0.263 C 
ATOM      5  O   UNL A   1      31.183  27.835  28.185  1.00  0.00    -0.268 OA
ATOM      6  H   UNL A   1      32.957  29.143  28.633  1.00  0.00     0.163 HD
BRANCH   4   7
ATOM      7  C   UNL A   1      31.835  27.559  25.928  1.00  0.00     0.117 A 
ATOM      8  C   UNL A   1      31.828  25.814  24.165  1.00  0.00     0.186 A 
ATOM      9  N   UNL A   1      31.586  26.999  23.664  1.00  0.00    -0.225 NA
ATOM     10  S   UNL A   1      32.109  25.851  25.853  1.00  0.00    -0.091 S 
ATOM     11  C   UNL A   1      31.492  27.981  24.648  1.00  0.00     0.063 A 
ATOM     12  C   UNL A   1      30.993  29.282  24.140  1.00  0.00     0.068 C 
BRANCH   8  13
ATOM     13  N   UNL A   1      31.891  24.683  23.405  1.00  0.00    -0.345 N 
ATOM     14  C   UNL A   1      30.845  23.698  23.593  1.00  0.00     0.146 C 
BRANCH  13  15
ATOM     15  C   UNL A   1      33.154  24.233  22.809  1.00  0.00     0.174 C 
BRANCH  15  16
ATOM     16  C   UNL A   1      34.035  23.442  23.762  1.00  0.00     0.060 A 
ATOM     17  C   UNL A   1      34.228  19.935  24.830  1.00  0.00     0.067 C 
ATOM     18  C   UNL A   1      34.575  21.385  24.701  1.00  0.00     0.038 A 
ATOM     19  C   UNL A   1      35.765  21.888  25.215  1.00  0.00     0.023 A 
ATOM     20  N   UNL A   1      33.700  22.148  24.007  1.00  0.00    -0.256 NA
ATOM     21  C   UNL A   1      36.066  23.231  25.017  1.00  0.00     0.004 A 
ATOM     22  C   UNL A   1      35.191  24.024  24.282  1.00  0.00     0.026 A 
ENDBRANCH  15  16
ENDBRANCH  13  15
ENDBRANCH   8  13
ENDBRANCH   4   7
ENDBRANCH   2   3
ENDBRANCH   1   2
BRANCH   1  23
ATOM     23  C   UNL A   1      35.541  31.321  28.126  1.00  0.00     0.118 C 
BRANCH  23  24
ATOM     24  N   UNL A   1      35.450  31.229  29.574  1.00  0.00    -0.352 N 
ATOM     25  C   UNL A   1      36.300  30.625  30.469  1.00  0.00     0.251 C 
ATOM     26  H   UNL A   1      34.662  31.663  29.972  1.00  0.00     0.163 HD
ATOM     27  O   UNL A   1      35.910  30.424  31.616  1.00  0.00    -0.269 OA
BRANCH  25  28
ATOM     28  C   UNL A   1      37.665  30.215  30.066  1.00  0.00     0.039 A 
ATOM     29  C   UNL A   1      37.958  30.092  28.703  1.00  0.00     0.014 A 
ATOM     30  C   UNL A   1      38.639  29.890  31.015  1.00  0.00     0.014 A 
ATOM     31  C   UNL A   1      39.232  29.686  28.296  1.00  0.00     0.010 A 
ATOM     32  C   UNL A   1      39.929  29.563  30.608  1.00  0.00     0.010 A 
ATOM     33  C   UNL A   1      40.236  29.440  29.245  1.00  0.00    -0.014 A 
BRANCH  33  34
ATOM     34  C   UNL A   1      41.602  29.026  28.837  1.00  0.00     0.031 A 
ATOM     35  C   UNL A   1      42.723  30.032  28.820  1.00  0.00     0.074 A 
ATOM     36  C   UNL A   1      41.821  27.763  28.420  1.00  0.00     0.049 A 
ATOM     37  N   UNL A   1      43.964  29.884  28.431  1.00  0.00    -0.248 NA
ATOM     38  C   UNL A   1      42.396  31.394  29.273  1.00  0.00     0.031 C 
ATOM     39  C   UNL A   1      40.808  26.708  28.353  1.00  0.00     0.029 A 
ATOM     40  N   UNL A   1      42.965  27.155  27.967  1.00  0.00    -0.354 N 
ATOM     41  C   UNL A   1      44.555  31.134  28.563  1.00  0.00     0.074 A 
ATOM     42  C   UNL A   1      43.527  32.040  29.028  1.00  0.00     0.031 C 
ATOM     43  C   UNL A   1      41.382  25.575  27.917  1.00  0.00     0.029 A 
ATOM     44  C   UNL A   1      42.793  25.831  27.638  1.00  0.00     0.049 A 
ATOM     45  H   UNL A   1      43.828  27.622  27.886  1.00  0.00     0.167 HD
ATOM     46  C   UNL A   1      45.843  31.493  28.337  1.00  0.00     0.037 A 
ATOM     47  C   UNL A   1      43.671  24.927  27.165  1.00  0.00     0.037 A 
ATOM     48  C   UNL A   1      46.869  30.577  27.913  1.00  0.00     0.049 A 
ATOM     49  C   UNL A   1      45.097  25.345  26.930  1.00  0.00     0.074 A 
ATOM     50  C   UNL A   1      48.219  30.818  27.735  1.00  0.00     0.029 A 
ATOM     51  N   UNL A   1      46.656  29.242  27.598  1.00  0.00    -0.354 N 
ATOM     52  N   UNL A   1      45.655  26.515  27.123  1.00  0.00    -0.248 NA
ATOM     53  C   UNL A   1      46.012  24.317  26.413  1.00  0.00     0.031 C 
ATOM     54  C   UNL A   1      48.817  29.639  27.273  1.00  0.00     0.029 A 
ATOM     55  C   UNL A   1      47.846  28.652  27.204  1.00  0.00     0.049 A 
ATOM     56  H   UNL A   1      45.788  28.781  27.648  1.00  0.00     0.167 HD
ATOM     57  C   UNL A   1      46.994  26.359  26.779  1.00  0.00     0.074 A 
ATOM     58  C   UNL A   1      47.160  24.978  26.370  1.00  0.00     0.031 C 
ATOM     59  C   UNL A   1      47.994  27.275  26.804  1.00  0.00     0.037 A 
BRANCH  46  60
ATOM     60  C   UNL A   1      46.204  32.940  28.536  1.00  0.00     0.058 A 
ATOM     61  C   UNL A   1      46.721  33.415  29.752  1.00  0.00     0.135 A 
ATOM     62  C   UNL A   1      46.030  33.866  27.494  1.00  0.00     0.135 A 
ATOM     63  F   UNL A   1      46.897  32.577  30.785  1.00  0.00    -0.206 F 
ATOM     64  C   UNL A   1      47.008  34.763  29.944  1.00  0.00     0.059 A 
ATOM     65  C   UNL A   1      46.337  35.215  27.655  1.00  0.00     0.059 A 
ATOM     66  F   UNL A   1      45.543  33.467  26.308  1.00  0.00    -0.206 F 
ATOM     67  C   UNL A   1      46.804  35.657  28.892  1.00  0.00     0.060 A 
BRANCH  67  68
ATOM     68  S   UNL A   1      47.150  37.408  29.164  1.00  0.00     0.124 S 
ATOM     69  O   UNL A   1      45.803  37.971  29.169  1.00  0.00    -0.237 OA
ATOM     70  O   UNL A   1      47.836  37.397  30.452  1.00  0.00    -0.237 OA
ATOM     71  O   UNL A   1      47.978  37.772  28.019  1.00  0.00    -0.744 OA
ENDBRANCH  67  68
ENDBRANCH  46  60
BRANCH  47  72
ATOM     72  C   UNL A   1      43.234  23.527  26.929  1.00  0.00     0.058 A 
ATOM     73  C   UNL A   1      43.014  23.059  25.625  1.00  0.00     0.135 A 
ATOM     74  C   UNL A   1      43.065  22.621  27.987  1.00  0.00     0.135 A 
ATOM     75  F   UNL A   1      43.156  23.890  24.583  1.00  0.00    -0.206 F 
ATOM     76  C   UNL A   1      42.637  21.744  25.377  1.00  0.00     0.059 A 
ATOM     77  C   UNL A   1      42.710  21.295  27.763  1.00  0.00     0.059 A 
ATOM     78  F   UNL A   1      43.281  23.016  29.252  1.00  0.00    -0.206 F 
ATOM     79  C   UNL A   1      42.493  20.867  26.454  1.00  0.00     0.060 A 
BRANCH  79  80
ATOM     80  S   UNL A   1      42.073  19.143  26.113  1.00  0.00     0.124 S 
ATOM     81  O   UNL A   1      42.957  18.841  24.994  1.00  0.00    -0.237 OA
ATOM     82  O   UNL A   1      42.398  18.492  27.378  1.00  0.00    -0.237 OA
ATOM     83  O   UNL A   1      40.649  19.202  25.796  1.00  0.00    -0.744 OA
ENDBRANCH  79  80
ENDBRANCH  47  72
BRANCH  59  84
ATOM     84  C   UNL A   1      49.365  26.807  26.408  1.00  0.00     0.058 A 
ATOM     85  C   UNL A   1      50.227  26.190  27.327  1.00  0.00     0.135 A 
ATOM     86  C   UNL A   1      49.802  26.933  25.079  1.00  0.00     0.135 A 
ATOM     87  F   UNL A   1      49.861  26.054  28.611  1.00  0.00    -0.206 F 
ATOM     88  C   UNL A   1      51.485  25.733  26.948  1.00  0.00     0.059 A 
ATOM     89  C   UNL A   1      51.045  26.460  24.672  1.00  0.00     0.059 A 
ATOM     90  F   UNL A   1      49.011  27.506  24.159  1.00  0.00    -0.206 F 
ATOM     91  C   UNL A   1      51.885  25.871  25.617  1.00  0.00     0.060 A 
BRANCH  91  92
ATOM     92  S   UNL A   1      53.505  25.241  25.128  1.00  0.00     0.124 S 
ATOM     93  O   UNL A   1      53.573  25.660  23.732  1.00  0.00    -0.237 OA
ATOM     94  O   UNL A   1      54.403  25.938  26.043  1.00  0.00    -0.237 OA
ATOM     95  O   UNL A   1      53.389  23.803  25.348  1.00  0.00    -0.744 OA
ENDBRANCH  91  92
ENDBRANCH  59  84
ENDBRANCH  33  34
ENDBRANCH  25  28
ENDBRANCH  23  24
ENDBRANCH   1  23
TORSDOF 16
ENDMDL
