MODEL 1
REMARK VINA RESULT:     -13.2      0.000      0.000
REMARK SMILES Cc1cccc(CC(=O)N2CCC3(CCC(=O)N([C@H](C)C(=O)NCCCNC(=O)c4ccc(-c5c6nc(c(-c7c(F)cc(S(=O)(=O)[O-])cc7F)c7ccc([nH]7)c(-c7c(F)cc(S(=O)(=O)[O-])cc7F)c7nc(c(-c8c(F)cc(S(=O)(=O)[O-])cc8F)c8ccc5[nH]8)C=C7)C=C6)cc4)C3)CC2)c1
REMARK SMILES IDX 25 1 24 2 23 3 21 4 22 5 19 7 20 8 18 9 8 10 9 11 10 12
REMARK SMILES IDX 11 13 98 14 12 15 97 16 13 17 14 18 96 19 15 20 16 21 17 22
REMARK SMILES IDX 7 23 6 24 1 25 2 26 3 27 99 28 4 29 5 30 26 31 27 32 28 33
REMARK SMILES IDX 29 35 30 36 31 37 95 38 32 39 94 40 33 41 34 42 35 43 88 44
REMARK SMILES IDX 36 45 93 46 87 47 89 48 37 49 92 50 86 51 85 52 38 54 72 55
REMARK SMILES IDX 51 56 71 57 52 58 55 59 70 60 90 61 53 62 54 63 69 65 91 66
REMARK SMILES IDX 56 67 39 68 40 69 49 70 41 71 42 72 48 73 50 74 43 75 44 76
REMARK SMILES IDX 45 77 46 78 47 79 73 80 74 81 83 82 75 83 76 84 82 85 84 86
REMARK SMILES IDX 77 87 78 88 79 89 80 90 81 91 57 92 58 93 67 94 59 95 60 96
REMARK SMILES IDX 66 97 68 98 61 99 62 100 63 101 64 102 65 103
REMARK H PARENT 23 6 27 34 89 53 55 64
REMARK Flexibility Score: inf
ROOT
ATOM      1  C   UNL A   1      40.231  24.456  27.060  1.00  0.00     0.042 C 
ENDROOT
BRANCH   1   2
ATOM      2  C   UNL A   1      38.849  24.231  26.485  1.00  0.00     0.117 C 
BRANCH   2   3
ATOM      3  N   UNL A   1      38.556  22.827  26.231  1.00  0.00    -0.354 N 
ATOM      4  C   UNL A   1      37.705  22.260  25.323  1.00  0.00     0.242 C 
ATOM      5  O   UNL A   1      37.717  21.030  25.197  1.00  0.00    -0.273 OA
ATOM      6  H   UNL A   1      39.045  22.190  26.800  1.00  0.00     0.163 HD
BRANCH   4   7
ATOM      7  C   UNL A   1      36.667  23.104  24.538  1.00  0.00     0.171 C 
ATOM      8  C   UNL A   1      36.722  22.802  23.038  1.00  0.00     0.042 C 
BRANCH   7   9
ATOM      9  N   UNL A   1      35.279  23.176  25.035  1.00  0.00    -0.330 N 
ATOM     10  C   UNL A   1      32.175  28.920  25.231  1.00  0.00     0.226 C 
ATOM     11  O   UNL A   1      32.269  29.672  24.253  1.00  0.00    -0.275 OA
ATOM     12  N   UNL A   1      32.200  27.544  25.070  1.00  0.00    -0.342 N 
ATOM     13  C   UNL A   1      32.750  26.960  23.847  1.00  0.00     0.120 C 
ATOM     14  C   UNL A   1      31.718  26.550  26.013  1.00  0.00     0.120 C 
ATOM     15  C   UNL A   1      33.885  25.978  24.191  1.00  0.00     0.030 C 
ATOM     16  C   UNL A   1      32.889  25.721  26.501  1.00  0.00     0.030 C 
ATOM     17  C   UNL A   1      33.538  24.958  25.319  1.00  0.00    -0.008 C 
ATOM     18  C   UNL A   1      32.523  23.881  24.841  1.00  0.00     0.019 C 
ATOM     19  C   UNL A   1      34.836  24.293  25.842  1.00  0.00     0.127 C 
ATOM     20  C   UNL A   1      33.149  22.768  24.032  1.00  0.00     0.101 C 
ATOM     21  C   UNL A   1      34.340  22.205  24.761  1.00  0.00     0.223 C 
ATOM     22  O   UNL A   1      34.497  21.012  24.968  1.00  0.00    -0.275 OA
BRANCH  10  23
ATOM     23  C   UNL A   1      32.266  29.544  26.627  1.00  0.00     0.135 C 
BRANCH  23  24
ATOM     24  C   UNL A   1      33.614  29.939  27.172  1.00  0.00    -0.038 A 
ATOM     25  C   UNL A   1      35.441  33.167  28.076  1.00  0.00     0.044 C 
ATOM     26  C   UNL A   1      35.151  31.713  27.847  1.00  0.00    -0.051 A 
ATOM     27  C   UNL A   1      36.180  30.769  27.927  1.00  0.00     0.003 A 
ATOM     28  C   UNL A   1      33.865  31.286  27.494  1.00  0.00     0.007 A 
ATOM     29  C   UNL A   1      35.927  29.421  27.663  1.00  0.00     0.001 A 
ATOM     30  C   UNL A   1      34.650  29.004  27.290  1.00  0.00     0.004 A 
ENDBRANCH  23  24
ENDBRANCH  10  23
ENDBRANCH   7   9
ENDBRANCH   4   7
ENDBRANCH   2   3
ENDBRANCH   1   2
BRANCH   1  31
ATOM     31  C   UNL A   1      40.615  25.921  27.032  1.00  0.00     0.118 C 
BRANCH  31  32
ATOM     32  N   UNL A   1      41.501  26.273  25.923  1.00  0.00    -0.352 N 
ATOM     33  C   UNL A   1      41.842  27.552  25.509  1.00  0.00     0.251 C 
ATOM     34  H   UNL A   1      41.895  25.525  25.419  1.00  0.00     0.163 HD
ATOM     35  O   UNL A   1      42.492  27.765  24.500  1.00  0.00    -0.269 OA
BRANCH  33  36
ATOM     36  C   UNL A   1      41.426  28.654  26.401  1.00  0.00     0.039 A 
ATOM     37  C   UNL A   1      42.408  29.216  27.221  1.00  0.00     0.014 A 
ATOM     38  C   UNL A   1      40.070  28.802  26.682  1.00  0.00     0.014 A 
ATOM     39  C   UNL A   1      42.034  29.755  28.449  1.00  0.00     0.010 A 
ATOM     40  C   UNL A   1      39.716  29.244  27.944  1.00  0.00     0.010 A 
ATOM     41  C   UNL A   1      40.703  29.667  28.851  1.00  0.00    -0.014 A 
BRANCH  41  42
ATOM     42  C   UNL A   1      40.261  29.883  30.228  1.00  0.00     0.031 A 
ATOM     43  C   UNL A   1      39.549  31.132  30.589  1.00  0.00     0.074 A 
ATOM     44  C   UNL A   1      40.412  28.917  31.165  1.00  0.00     0.049 A 
ATOM     45  N   UNL A   1      39.280  31.481  31.801  1.00  0.00    -0.248 NA
ATOM     46  C   UNL A   1      39.140  32.137  29.605  1.00  0.00     0.031 C 
ATOM     47  C   UNL A   1      39.711  28.811  32.445  1.00  0.00     0.029 A 
ATOM     48  N   UNL A   1      41.427  27.958  31.253  1.00  0.00    -0.354 N 
ATOM     49  C   UNL A   1      38.413  32.540  31.741  1.00  0.00     0.074 A 
ATOM     50  C   UNL A   1      38.460  32.993  30.374  1.00  0.00     0.031 C 
ATOM     51  C   UNL A   1      40.444  28.068  33.285  1.00  0.00     0.029 A 
ATOM     52  C   UNL A   1      41.704  27.782  32.629  1.00  0.00     0.049 A 
ATOM     53  H   UNL A   1      41.864  27.495  30.501  1.00  0.00     0.167 HD
ATOM     54  C   UNL A   1      37.644  32.827  32.823  1.00  0.00     0.037 A 
ATOM     55  C   UNL A   1      42.936  28.080  33.140  1.00  0.00     0.037 A 
ATOM     56  C   UNL A   1      38.189  32.238  34.043  1.00  0.00     0.049 A 
ATOM     57  C   UNL A   1      42.952  29.233  34.126  1.00  0.00     0.074 A 
ATOM     58  C   UNL A   1      37.827  31.236  34.922  1.00  0.00     0.029 A 
ATOM     59  N   UNL A   1      39.481  32.598  34.392  1.00  0.00    -0.354 N 
ATOM     60  N   UNL A   1      41.891  29.848  34.573  1.00  0.00    -0.248 NA
ATOM     61  C   UNL A   1      44.191  29.839  34.622  1.00  0.00     0.031 C 
ATOM     62  C   UNL A   1      38.973  30.923  35.725  1.00  0.00     0.029 A 
ATOM     63  C   UNL A   1      40.007  31.767  35.359  1.00  0.00     0.049 A 
ATOM     64  H   UNL A   1      39.967  33.358  33.997  1.00  0.00     0.167 HD
ATOM     65  C   UNL A   1      42.278  30.962  35.270  1.00  0.00     0.074 A 
ATOM     66  C   UNL A   1      43.726  30.891  35.318  1.00  0.00     0.031 C 
ATOM     67  C   UNL A   1      41.411  31.920  35.704  1.00  0.00     0.037 A 
BRANCH  54  68
ATOM     68  C   UNL A   1      36.331  33.565  32.736  1.00  0.00     0.058 A 
ATOM     69  C   UNL A   1      35.322  33.139  31.849  1.00  0.00     0.135 A 
ATOM     70  C   UNL A   1      36.064  34.784  33.403  1.00  0.00     0.135 A 
ATOM     71  F   UNL A   1      35.472  32.019  31.125  1.00  0.00    -0.206 F 
ATOM     72  C   UNL A   1      34.140  33.860  31.647  1.00  0.00     0.059 A 
ATOM     73  C   UNL A   1      34.871  35.488  33.262  1.00  0.00     0.059 A 
ATOM     74  F   UNL A   1      36.980  35.393  34.167  1.00  0.00    -0.206 F 
ATOM     75  C   UNL A   1      33.923  35.036  32.360  1.00  0.00     0.060 A 
BRANCH  75  76
ATOM     76  S   UNL A   1      32.424  35.998  32.084  1.00  0.00     0.124 S 
ATOM     77  O   UNL A   1      31.393  35.080  32.558  1.00  0.00    -0.237 OA
ATOM     78  O   UNL A   1      32.649  37.182  32.904  1.00  0.00    -0.237 OA
ATOM     79  O   UNL A   1      32.435  36.233  30.642  1.00  0.00    -0.744 OA
ENDBRANCH  75  76
ENDBRANCH  54  68
BRANCH  55  80
ATOM     80  C   UNL A   1      44.034  27.709  32.205  1.00  0.00     0.058 A 
ATOM     81  C   UNL A   1      44.388  26.347  32.135  1.00  0.00     0.135 A 
ATOM     82  C   UNL A   1      44.378  28.528  31.123  1.00  0.00     0.135 A 
ATOM     83  F   UNL A   1      44.105  25.526  33.160  1.00  0.00    -0.206 F 
ATOM     84  C   UNL A   1      44.885  25.782  30.965  1.00  0.00     0.059 A 
ATOM     85  C   UNL A   1      44.897  27.987  29.947  1.00  0.00     0.059 A 
ATOM     86  F   UNL A   1      44.069  29.833  31.136  1.00  0.00    -0.206 F 
ATOM     87  C   UNL A   1      45.066  26.604  29.854  1.00  0.00     0.060 A 
BRANCH  87  88
ATOM     88  S   UNL A   1      45.320  25.812  28.249  1.00  0.00     0.124 S 
ATOM     89  O   UNL A   1      43.964  25.760  27.713  1.00  0.00    -0.237 OA
ATOM     90  O   UNL A   1      46.229  26.752  27.597  1.00  0.00    -0.237 OA
ATOM     91  O   UNL A   1      45.904  24.523  28.602  1.00  0.00    -0.744 OA
ENDBRANCH  87  88
ENDBRANCH  55  80
BRANCH  67  92
ATOM     92  C   UNL A   1      41.874  33.127  36.464  1.00  0.00     0.058 A 
ATOM     93  C   UNL A   1      42.004  33.103  37.862  1.00  0.00     0.135 A 
ATOM     94  C   UNL A   1      42.074  34.370  35.831  1.00  0.00     0.135 A 
ATOM     95  F   UNL A   1      41.826  31.959  38.541  1.00  0.00    -0.206 F 
ATOM     96  C   UNL A   1      42.307  34.250  38.595  1.00  0.00     0.059 A 
ATOM     97  C   UNL A   1      42.341  35.535  36.545  1.00  0.00     0.059 A 
ATOM     98  F   UNL A   1      42.035  34.476  34.493  1.00  0.00    -0.206 F 
ATOM     99  C   UNL A   1      42.463  35.465  37.928  1.00  0.00     0.060 A 
BRANCH  99 100
ATOM    100  S   UNL A   1      42.778  36.969  38.875  1.00  0.00     0.124 S 
ATOM    101  O   UNL A   1      43.340  36.457  40.121  1.00  0.00    -0.237 OA
ATOM    102  O   UNL A   1      43.715  37.670  38.003  1.00  0.00    -0.237 OA
ATOM    103  O   UNL A   1      41.455  37.571  38.994  1.00  0.00    -0.744 OA
ENDBRANCH  99 100
ENDBRANCH  67  92
ENDBRANCH  41  42
ENDBRANCH  33  36
ENDBRANCH  31  32
ENDBRANCH   1  31
TORSDOF 16
ENDMDL
MODEL 2
REMARK VINA RESULT:     -12.8      3.693      5.168
REMARK SMILES Cc1cccc(CC(=O)N2CCC3(CCC(=O)N([C@H](C)C(=O)NCCCNC(=O)c4ccc(-c5c6nc(c(-c7c(F)cc(S(=O)(=O)[O-])cc7F)c7ccc([nH]7)c(-c7c(F)cc(S(=O)(=O)[O-])cc7F)c7nc(c(-c8c(F)cc(S(=O)(=O)[O-])cc8F)c8ccc5[nH]8)C=C7)C=C6)cc4)C3)CC2)c1
REMARK SMILES IDX 25 1 24 2 23 3 21 4 22 5 19 7 20 8 18 9 8 10 9 11 10 12
REMARK SMILES IDX 11 13 98 14 12 15 97 16 13 17 14 18 96 19 15 20 16 21 17 22
REMARK SMILES IDX 7 23 6 24 1 25 2 26 3 27 99 28 4 29 5 30 26 31 27 32 28 33
REMARK SMILES IDX 29 35 30 36 31 37 95 38 32 39 94 40 33 41 34 42 35 43 88 44
REMARK SMILES IDX 36 45 93 46 87 47 89 48 37 49 92 50 86 51 85 52 38 54 72 55
REMARK SMILES IDX 51 56 71 57 52 58 55 59 70 60 90 61 53 62 54 63 69 65 91 66
REMARK SMILES IDX 56 67 39 68 40 69 49 70 41 71 42 72 48 73 50 74 43 75 44 76
REMARK SMILES IDX 45 77 46 78 47 79 73 80 74 81 83 82 75 83 76 84 82 85 84 86
REMARK SMILES IDX 77 87 78 88 79 89 80 90 81 91 57 92 58 93 67 94 59 95 60 96
REMARK SMILES IDX 66 97 68 98 61 99 62 100 63 101 64 102 65 103
REMARK H PARENT 23 6 27 34 89 53 55 64
REMARK Flexibility Score: inf
ROOT
ATOM      1  C   UNL A   1      37.913  22.655  25.054  1.00  0.00     0.042 C 
ENDROOT
BRANCH   1   2
ATOM      2  C   UNL A   1      36.569  21.963  25.135  1.00  0.00     0.117 C 
BRANCH   2   3
ATOM      3  N   UNL A   1      35.751  22.431  26.246  1.00  0.00    -0.354 N 
ATOM      4  C   UNL A   1      34.584  21.925  26.749  1.00  0.00     0.242 C 
ATOM      5  O   UNL A   1      34.132  22.416  27.789  1.00  0.00    -0.273 OA
ATOM      6  H   UNL A   1      36.089  23.235  26.704  1.00  0.00     0.163 HD
BRANCH   4   7
ATOM      7  C   UNL A   1      33.774  20.837  25.995  1.00  0.00     0.171 C 
ATOM      8  C   UNL A   1      33.236  19.775  26.958  1.00  0.00     0.042 C 
BRANCH   7   9
ATOM      9  N   UNL A   1      32.755  21.255  25.012  1.00  0.00    -0.330 N 
ATOM     10  C   UNL A   1      32.980  27.250  22.428  1.00  0.00     0.226 C 
ATOM     11  O   UNL A   1      34.075  27.686  22.051  1.00  0.00    -0.275 OA
ATOM     12  N   UNL A   1      32.698  25.895  22.361  1.00  0.00    -0.342 N 
ATOM     13  C   UNL A   1      33.788  24.925  22.256  1.00  0.00     0.120 C 
ATOM     14  C   UNL A   1      31.382  25.280  22.378  1.00  0.00     0.120 C 
ATOM     15  C   UNL A   1      33.706  23.907  23.409  1.00  0.00     0.030 C 
ATOM     16  C   UNL A   1      31.244  24.441  23.633  1.00  0.00     0.030 C 
ATOM     17  C   UNL A   1      32.287  23.297  23.633  1.00  0.00    -0.008 C 
ATOM     18  C   UNL A   1      31.896  22.302  22.504  1.00  0.00     0.019 C 
ATOM     19  C   UNL A   1      32.228  22.604  25.017  1.00  0.00     0.127 C 
ATOM     20  C   UNL A   1      32.508  20.929  22.658  1.00  0.00     0.101 C 
ATOM     21  C   UNL A   1      32.259  20.405  24.047  1.00  0.00     0.223 C 
ATOM     22  O   UNL A   1      31.785  19.302  24.273  1.00  0.00    -0.275 OA
BRANCH  10  23
ATOM     23  C   UNL A   1      32.047  28.205  23.178  1.00  0.00     0.135 C 
BRANCH  23  24
ATOM     24  C   UNL A   1      32.120  28.277  24.681  1.00  0.00    -0.038 A 
ATOM     25  C   UNL A   1      34.579  29.541  27.316  1.00  0.00     0.044 C 
ATOM     26  C   UNL A   1      33.375  28.909  26.679  1.00  0.00    -0.051 A 
ATOM     27  C   UNL A   1      32.451  28.210  27.462  1.00  0.00     0.003 A 
ATOM     28  C   UNL A   1      33.188  28.960  25.293  1.00  0.00     0.007 A 
ATOM     29  C   UNL A   1      31.356  27.576  26.869  1.00  0.00     0.001 A 
ATOM     30  C   UNL A   1      31.187  27.610  25.485  1.00  0.00     0.004 A 
ENDBRANCH  23  24
ENDBRANCH  10  23
ENDBRANCH   7   9
ENDBRANCH   4   7
ENDBRANCH   2   3
ENDBRANCH   1   2
BRANCH   1  31
ATOM     31  C   UNL A   1      38.157  23.544  26.256  1.00  0.00     0.118 C 
BRANCH  31  32
ATOM     32  N   UNL A   1      39.420  23.271  26.939  1.00  0.00    -0.352 N 
ATOM     33  C   UNL A   1      40.224  24.193  27.594  1.00  0.00     0.251 C 
ATOM     34  H   UNL A   1      39.732  22.337  26.934  1.00  0.00     0.163 HD
ATOM     35  O   UNL A   1      41.324  23.909  28.037  1.00  0.00    -0.269 OA
BRANCH  33  36
ATOM     36  C   UNL A   1      39.644  25.538  27.784  1.00  0.00     0.039 A 
ATOM     37  C   UNL A   1      40.116  26.559  26.955  1.00  0.00     0.014 A 
ATOM     38  C   UNL A   1      38.994  25.816  28.984  1.00  0.00     0.014 A 
ATOM     39  C   UNL A   1      40.125  27.866  27.433  1.00  0.00     0.010 A 
ATOM     40  C   UNL A   1      39.099  27.098  29.494  1.00  0.00     0.010 A 
ATOM     41  C   UNL A   1      39.717  28.113  28.741  1.00  0.00    -0.014 A 
BRANCH  41  42
ATOM     42  C   UNL A   1      39.996  29.360  29.452  1.00  0.00     0.031 A 
ATOM     43  C   UNL A   1      39.052  30.498  29.349  1.00  0.00     0.074 A 
ATOM     44  C   UNL A   1      41.064  29.463  30.280  1.00  0.00     0.049 A 
ATOM     45  N   UNL A   1      39.301  31.682  29.795  1.00  0.00    -0.248 NA
ATOM     46  C   UNL A   1      37.761  30.410  28.663  1.00  0.00     0.031 C 
ATOM     47  C   UNL A   1      41.275  30.462  31.327  1.00  0.00     0.029 A 
ATOM     48  N   UNL A   1      42.301  28.820  30.167  1.00  0.00    -0.354 N 
ATOM     49  C   UNL A   1      38.131  32.392  29.753  1.00  0.00     0.074 A 
ATOM     50  C   UNL A   1      37.243  31.614  28.927  1.00  0.00     0.031 C 
ATOM     51  C   UNL A   1      42.588  30.567  31.573  1.00  0.00     0.029 A 
ATOM     52  C   UNL A   1      43.281  29.744  30.602  1.00  0.00     0.049 A 
ATOM     53  H   UNL A   1      42.459  27.902  29.847  1.00  0.00     0.167 HD
ATOM     54  C   UNL A   1      37.996  33.492  30.540  1.00  0.00     0.037 A 
ATOM     55  C   UNL A   1      44.252  30.191  29.751  1.00  0.00     0.037 A 
ATOM     56  C   UNL A   1      39.293  34.006  30.972  1.00  0.00     0.049 A 
ATOM     57  C   UNL A   1      44.181  31.672  29.430  1.00  0.00     0.074 A 
ATOM     58  C   UNL A   1      39.990  34.098  32.161  1.00  0.00     0.029 A 
ATOM     59  N   UNL A   1      40.192  34.360  29.979  1.00  0.00    -0.354 N 
ATOM     60  N   UNL A   1      43.355  32.518  29.984  1.00  0.00    -0.248 NA
ATOM     61  C   UNL A   1      44.994  32.299  28.383  1.00  0.00     0.031 C 
ATOM     62  C   UNL A   1      41.356  34.398  31.845  1.00  0.00     0.029 A 
ATOM     63  C   UNL A   1      41.468  34.530  30.472  1.00  0.00     0.049 A 
ATOM     64  H   UNL A   1      39.948  34.477  29.031  1.00  0.00     0.167 HD
ATOM     65  C   UNL A   1      43.418  33.711  29.313  1.00  0.00     0.074 A 
ATOM     66  C   UNL A   1      44.491  33.545  28.352  1.00  0.00     0.031 C 
ATOM     67  C   UNL A   1      42.548  34.740  29.521  1.00  0.00     0.037 A 
BRANCH  54  68
ATOM     68  C   UNL A   1      36.662  34.028  30.994  1.00  0.00     0.058 A 
ATOM     69  C   UNL A   1      35.697  34.449  30.057  1.00  0.00     0.135 A 
ATOM     70  C   UNL A   1      36.331  34.282  32.346  1.00  0.00     0.135 A 
ATOM     71  F   UNL A   1      35.909  34.303  28.740  1.00  0.00    -0.206 F 
ATOM     72  C   UNL A   1      34.497  35.064  30.433  1.00  0.00     0.059 A 
ATOM     73  C   UNL A   1      35.119  34.838  32.746  1.00  0.00     0.059 A 
ATOM     74  F   UNL A   1      37.200  34.072  33.343  1.00  0.00    -0.206 F 
ATOM     75  C   UNL A   1      34.217  35.254  31.783  1.00  0.00     0.060 A 
BRANCH  75  76
ATOM     76  S   UNL A   1      32.694  36.079  32.283  1.00  0.00     0.124 S 
ATOM     77  O   UNL A   1      31.844  34.944  32.628  1.00  0.00    -0.237 OA
ATOM     78  O   UNL A   1      33.133  36.909  33.399  1.00  0.00    -0.237 OA
ATOM     79  O   UNL A   1      32.299  36.813  31.084  1.00  0.00    -0.744 OA
ENDBRANCH  75  76
ENDBRANCH  54  68
BRANCH  55  80
ATOM     80  C   UNL A   1      44.733  29.117  28.838  1.00  0.00     0.058 A 
ATOM     81  C   UNL A   1      44.077  28.984  27.597  1.00  0.00     0.135 A 
ATOM     82  C   UNL A   1      46.022  28.585  28.954  1.00  0.00     0.135 A 
ATOM     83  F   UNL A   1      42.828  29.454  27.445  1.00  0.00    -0.206 F 
ATOM     84  C   UNL A   1      44.742  28.521  26.468  1.00  0.00     0.059 A 
ATOM     85  C   UNL A   1      46.702  28.096  27.838  1.00  0.00     0.059 A 
ATOM     86  F   UNL A   1      46.693  28.679  30.112  1.00  0.00    -0.206 F 
ATOM     87  C   UNL A   1      46.079  28.148  26.589  1.00  0.00     0.060 A 
BRANCH  87  88
ATOM     88  S   UNL A   1      47.040  27.936  25.072  1.00  0.00     0.124 S 
ATOM     89  O   UNL A   1      48.407  27.873  25.579  1.00  0.00    -0.237 OA
ATOM     90  O   UNL A   1      46.494  26.685  24.549  1.00  0.00    -0.237 OA
ATOM     91  O   UNL A   1      46.712  29.130  24.300  1.00  0.00    -0.744 OA
ENDBRANCH  87  88
ENDBRANCH  55  80
BRANCH  67  92
ATOM     92  C   UNL A   1      42.649  36.032  28.767  1.00  0.00     0.058 A 
ATOM     93  C   UNL A   1      43.256  37.162  29.334  1.00  0.00     0.135 A 
ATOM     94  C   UNL A   1      42.030  36.207  27.512  1.00  0.00     0.135 A 
ATOM     95  F   UNL A   1      43.864  37.080  30.528  1.00  0.00    -0.206 F 
ATOM     96  C   UNL A   1      43.243  38.404  28.699  1.00  0.00     0.059 A 
ATOM     97  C   UNL A   1      41.973  37.445  26.877  1.00  0.00     0.059 A 
ATOM     98  F   UNL A   1      41.482  35.168  26.863  1.00  0.00    -0.206 F 
ATOM     99  C   UNL A   1      42.589  38.539  27.476  1.00  0.00     0.060 A 
BRANCH  99 100
ATOM    100  S   UNL A   1      42.500  40.158  26.684  1.00  0.00     0.124 S 
ATOM    101  O   UNL A   1      43.631  40.132  25.761  1.00  0.00    -0.237 OA
ATOM    102  O   UNL A   1      41.180  40.106  26.063  1.00  0.00    -0.237 OA
ATOM    103  O   UNL A   1      42.636  41.084  27.802  1.00  0.00    -0.744 OA
ENDBRANCH  99 100
ENDBRANCH  67  92
ENDBRANCH  41  42
ENDBRANCH  33  36
ENDBRANCH  31  32
ENDBRANCH   1  31
TORSDOF 16
ENDMDL
MODEL 3
REMARK VINA RESULT:     -12.0      3.636      5.228
REMARK SMILES Cc1cccc(CC(=O)N2CCC3(CCC(=O)N([C@H](C)C(=O)NCCCNC(=O)c4ccc(-c5c6nc(c(-c7c(F)cc(S(=O)(=O)[O-])cc7F)c7ccc([nH]7)c(-c7c(F)cc(S(=O)(=O)[O-])cc7F)c7nc(c(-c8c(F)cc(S(=O)(=O)[O-])cc8F)c8ccc5[nH]8)C=C7)C=C6)cc4)C3)CC2)c1
REMARK SMILES IDX 25 1 24 2 23 3 21 4 22 5 19 7 20 8 18 9 8 10 9 11 10 12
REMARK SMILES IDX 11 13 98 14 12 15 97 16 13 17 14 18 96 19 15 20 16 21 17 22
REMARK SMILES IDX 7 23 6 24 1 25 2 26 3 27 99 28 4 29 5 30 26 31 27 32 28 33
REMARK SMILES IDX 29 35 30 36 31 37 95 38 32 39 94 40 33 41 34 42 35 43 88 44
REMARK SMILES IDX 36 45 93 46 87 47 89 48 37 49 92 50 86 51 85 52 38 54 72 55
REMARK SMILES IDX 51 56 71 57 52 58 55 59 70 60 90 61 53 62 54 63 69 65 91 66
REMARK SMILES IDX 56 67 39 68 40 69 49 70 41 71 42 72 48 73 50 74 43 75 44 76
REMARK SMILES IDX 45 77 46 78 47 79 73 80 74 81 83 82 75 83 76 84 82 85 84 86
REMARK SMILES IDX 77 87 78 88 79 89 80 90 81 91 57 92 58 93 67 94 59 95 60 96
REMARK SMILES IDX 66 97 68 98 61 99 62 100 63 101 64 102 65 103
REMARK H PARENT 23 6 27 34 89 53 55 64
REMARK Flexibility Score: inf
ROOT
ATOM      1  C   UNL A   1      37.438  22.080  24.481  1.00  0.00     0.042 C 
ENDROOT
BRANCH   1   2
ATOM      2  C   UNL A   1      36.295  21.121  24.733  1.00  0.00     0.117 C 
BRANCH   2   3
ATOM      3  N   UNL A   1      35.508  21.465  25.909  1.00  0.00    -0.354 N 
ATOM      4  C   UNL A   1      34.332  20.932  26.363  1.00  0.00     0.242 C 
ATOM      5  O   UNL A   1      33.910  21.298  27.466  1.00  0.00    -0.273 OA
ATOM      6  H   UNL A   1      35.876  22.192  26.460  1.00  0.00     0.163 HD
BRANCH   4   7
ATOM      7  C   UNL A   1      33.479  19.975  25.490  1.00  0.00     0.171 C 
ATOM      8  C   UNL A   1      32.871  18.848  26.330  1.00  0.00     0.042 C 
BRANCH   7   9
ATOM      9  N   UNL A   1      32.499  20.548  24.546  1.00  0.00    -0.330 N 
ATOM     10  C   UNL A   1      32.200  27.016  23.682  1.00  0.00     0.226 C 
ATOM     11  O   UNL A   1      33.260  27.641  23.557  1.00  0.00    -0.275 OA
ATOM     12  N   UNL A   1      32.091  25.711  23.228  1.00  0.00    -0.342 N 
ATOM     13  C   UNL A   1      33.295  24.915  22.991  1.00  0.00     0.120 C 
ATOM     14  C   UNL A   1      30.862  24.993  22.936  1.00  0.00     0.120 C 
ATOM     15  C   UNL A   1      33.246  23.617  23.818  1.00  0.00     0.030 C 
ATOM     16  C   UNL A   1      30.727  23.832  23.902  1.00  0.00     0.030 C 
ATOM     17  C   UNL A   1      31.898  22.836  23.714  1.00  0.00    -0.008 C 
ATOM     18  C   UNL A   1      31.722  22.158  22.326  1.00  0.00     0.019 C 
ATOM     19  C   UNL A   1      31.813  21.787  24.850  1.00  0.00     0.127 C 
ATOM     20  C   UNL A   1      32.483  20.861  22.178  1.00  0.00     0.101 C 
ATOM     21  C   UNL A   1      32.189  19.953  23.343  1.00  0.00     0.223 C 
ATOM     22  O   UNL A   1      31.836  18.791  23.215  1.00  0.00    -0.275 OA
BRANCH  10  23
ATOM     23  C   UNL A   1      31.100  27.634  24.550  1.00  0.00     0.135 C 
BRANCH  23  24
ATOM     24  C   UNL A   1      29.995  28.419  23.892  1.00  0.00    -0.038 A 
ATOM     25  C   UNL A   1      29.010  32.086  23.490  1.00  0.00     0.044 C 
ATOM     26  C   UNL A   1      28.981  30.587  23.409  1.00  0.00    -0.051 A 
ATOM     27  C   UNL A   1      27.844  29.931  22.926  1.00  0.00     0.003 A 
ATOM     28  C   UNL A   1      30.062  29.824  23.865  1.00  0.00     0.007 A 
ATOM     29  C   UNL A   1      27.791  28.535  22.897  1.00  0.00     0.001 A 
ATOM     30  C   UNL A   1      28.862  27.779  23.375  1.00  0.00     0.004 A 
ENDBRANCH  23  24
ENDBRANCH  10  23
ENDBRANCH   7   9
ENDBRANCH   4   7
ENDBRANCH   2   3
ENDBRANCH   1   2
BRANCH   1  31
ATOM     31  C   UNL A   1      37.984  22.651  25.774  1.00  0.00     0.118 C 
BRANCH  31  32
ATOM     32  N   UNL A   1      39.344  22.210  26.080  1.00  0.00    -0.352 N 
ATOM     33  C   UNL A   1      40.430  23.021  26.379  1.00  0.00     0.251 C 
ATOM     34  H   UNL A   1      39.506  21.239  26.072  1.00  0.00     0.163 HD
ATOM     35  O   UNL A   1      41.561  22.585  26.505  1.00  0.00    -0.269 OA
BRANCH  33  36
ATOM     36  C   UNL A   1      40.128  24.450  26.602  1.00  0.00     0.039 A 
ATOM     37  C   UNL A   1      41.035  25.380  26.089  1.00  0.00     0.014 A 
ATOM     38  C   UNL A   1      39.231  24.788  27.613  1.00  0.00     0.014 A 
ATOM     39  C   UNL A   1      41.188  26.602  26.739  1.00  0.00     0.010 A 
ATOM     40  C   UNL A   1      39.458  25.958  28.315  1.00  0.00     0.010 A 
ATOM     41  C   UNL A   1      40.477  26.840  27.912  1.00  0.00    -0.014 A 
BRANCH  41  42
ATOM     42  C   UNL A   1      40.800  27.917  28.847  1.00  0.00     0.031 A 
ATOM     43  C   UNL A   1      39.943  29.125  28.909  1.00  0.00     0.074 A 
ATOM     44  C   UNL A   1      41.823  27.790  29.726  1.00  0.00     0.049 A 
ATOM     45  N   UNL A   1      40.247  30.189  29.571  1.00  0.00    -0.248 NA
ATOM     46  C   UNL A   1      38.690  29.260  28.163  1.00  0.00     0.031 C 
ATOM     47  C   UNL A   1      42.042  28.570  30.944  1.00  0.00     0.029 A 
ATOM     48  N   UNL A   1      43.019  27.084  29.554  1.00  0.00    -0.354 N 
ATOM     49  C   UNL A   1      39.132  30.984  29.607  1.00  0.00     0.074 A 
ATOM     50  C   UNL A   1      38.241  30.435  28.616  1.00  0.00     0.031 C 
ATOM     51  C   UNL A   1      43.343  28.528  31.262  1.00  0.00     0.029 A 
ATOM     52  C   UNL A   1      44.032  27.838  30.190  1.00  0.00     0.049 A 
ATOM     53  H   UNL A   1      43.132  26.227  29.081  1.00  0.00     0.167 HD
ATOM     54  C   UNL A   1      39.028  31.935  30.572  1.00  0.00     0.037 A 
ATOM     55  C   UNL A   1      45.078  28.351  29.476  1.00  0.00     0.037 A 
ATOM     56  C   UNL A   1      40.330  32.264  31.145  1.00  0.00     0.049 A 
ATOM     57  C   UNL A   1      45.127  29.867  29.423  1.00  0.00     0.074 A 
ATOM     58  C   UNL A   1      40.963  32.090  32.361  1.00  0.00     0.029 A 
ATOM     59  N   UNL A   1      41.306  32.717  30.272  1.00  0.00    -0.354 N 
ATOM     60  N   UNL A   1      44.331  30.663  30.084  1.00  0.00    -0.248 NA
ATOM     61  C   UNL A   1      46.039  30.604  28.543  1.00  0.00     0.031 C 
ATOM     62  C   UNL A   1      42.363  32.335  32.164  1.00  0.00     0.029 A 
ATOM     63  C   UNL A   1      42.561  32.698  30.844  1.00  0.00     0.049 A 
ATOM     64  H   UNL A   1      41.125  33.017  29.352  1.00  0.00     0.167 HD
ATOM     65  C   UNL A   1      44.513  31.947  29.643  1.00  0.00     0.074 A 
ATOM     66  C   UNL A   1      45.625  31.871  28.715  1.00  0.00     0.031 C 
ATOM     67  C   UNL A   1      43.705  32.987  29.994  1.00  0.00     0.037 A 
BRANCH  54  68
ATOM     68  C   UNL A   1      37.710  32.485  31.056  1.00  0.00     0.058 A 
ATOM     69  C   UNL A   1      37.310  33.795  30.725  1.00  0.00     0.135 A 
ATOM     70  C   UNL A   1      36.861  31.813  31.967  1.00  0.00     0.135 A 
ATOM     71  F   UNL A   1      38.051  34.553  29.903  1.00  0.00    -0.206 F 
ATOM     72  C   UNL A   1      36.156  34.387  31.251  1.00  0.00     0.059 A 
ATOM     73  C   UNL A   1      35.678  32.360  32.457  1.00  0.00     0.059 A 
ATOM     74  F   UNL A   1      37.177  30.621  32.489  1.00  0.00    -0.206 F 
ATOM     75  C   UNL A   1      35.345  33.660  32.117  1.00  0.00     0.060 A 
BRANCH  75  76
ATOM     76  S   UNL A   1      33.875  34.420  32.833  1.00  0.00     0.124 S 
ATOM     77  O   UNL A   1      34.461  35.338  33.804  1.00  0.00    -0.237 OA
ATOM     78  O   UNL A   1      33.239  35.038  31.675  1.00  0.00    -0.237 OA
ATOM     79  O   UNL A   1      33.153  33.286  33.403  1.00  0.00    -0.744 OA
ENDBRANCH  75  76
ENDBRANCH  54  68
BRANCH  55  80
ATOM     80  C   UNL A   1      45.536  27.421  28.407  1.00  0.00     0.058 A 
ATOM     81  C   UNL A   1      46.350  26.339  28.799  1.00  0.00     0.135 A 
ATOM     82  C   UNL A   1      44.850  27.312  27.192  1.00  0.00     0.135 A 
ATOM     83  F   UNL A   1      47.050  26.407  29.944  1.00  0.00    -0.206 F 
ATOM     84  C   UNL A   1      46.332  25.128  28.117  1.00  0.00     0.059 A 
ATOM     85  C   UNL A   1      44.834  26.113  26.479  1.00  0.00     0.059 A 
ATOM     86  F   UNL A   1      44.063  28.311  26.766  1.00  0.00    -0.206 F 
ATOM     87  C   UNL A   1      45.511  25.007  26.997  1.00  0.00     0.060 A 
BRANCH  87  88
ATOM     88  S   UNL A   1      45.184  23.346  26.362  1.00  0.00     0.124 S 
ATOM     89  O   UNL A   1      44.339  23.620  25.205  1.00  0.00    -0.237 OA
ATOM     90  O   UNL A   1      46.534  22.871  26.070  1.00  0.00    -0.237 OA
ATOM     91  O   UNL A   1      44.519  22.687  27.481  1.00  0.00    -0.744 OA
ENDBRANCH  87  88
ENDBRANCH  55  80
BRANCH  67  92
ATOM     92  C   UNL A   1      43.936  34.380  29.489  1.00  0.00     0.058 A 
ATOM     93  C   UNL A   1      44.336  35.412  30.353  1.00  0.00     0.135 A 
ATOM     94  C   UNL A   1      43.643  34.745  28.160  1.00  0.00     0.135 A 
ATOM     95  F   UNL A   1      44.630  35.148  31.635  1.00  0.00    -0.206 F 
ATOM     96  C   UNL A   1      44.429  36.737  29.926  1.00  0.00     0.059 A 
ATOM     97  C   UNL A   1      43.693  36.065  27.721  1.00  0.00     0.059 A 
ATOM     98  F   UNL A   1      43.317  33.816  27.246  1.00  0.00    -0.206 F 
ATOM     99  C   UNL A   1      44.095  37.056  28.611  1.00  0.00     0.060 A 
BRANCH  99 100
ATOM    100  S   UNL A   1      44.138  38.777  28.071  1.00  0.00     0.124 S 
ATOM    101  O   UNL A   1      43.214  39.431  28.993  1.00  0.00    -0.237 OA
ATOM    102  O   UNL A   1      45.548  39.105  28.255  1.00  0.00    -0.237 OA
ATOM    103  O   UNL A   1      43.682  38.704  26.687  1.00  0.00    -0.744 OA
ENDBRANCH  99 100
ENDBRANCH  67  92
ENDBRANCH  41  42
ENDBRANCH  33  36
ENDBRANCH  31  32
ENDBRANCH   1  31
TORSDOF 16
ENDMDL
