MODEL 1
REMARK VINA RESULT:     -12.8      0.000      0.000
REMARK SMILES Cc1n[nH]c(CN(C)C(=O)N[C@](C)(C(=O)NCCCNC(=O)c2ccc(-c3c4nc(c(-c5c(F)cc(S(=O)(=O)[O-])cc5F)c5ccc([nH]5)c(-c5c(F)cc(S(=O)(=O)[O-])cc5F)c5nc(c(-c6c(F)cc(S(=O)(=O)[O-])cc6F)c6ccc3[nH]6)C=C5)C=C4)cc2)C(F)(F)F)n1
REMARK SMILES IDX 17 1 16 2 14 3 15 4 12 6 13 7 11 8 9 9 10 10 7 12 8 13 6 14
REMARK SMILES IDX 5 15 1 16 2 17 3 18 93 19 4 20 89 22 90 23 91 24 92 25 18 26
REMARK SMILES IDX 19 27 20 28 21 29 22 31 23 32 24 33 88 34 25 35 87 36 26 37
REMARK SMILES IDX 27 38 28 39 81 40 29 41 86 42 80 43 82 44 30 45 85 46 79 47
REMARK SMILES IDX 78 48 31 50 65 51 44 52 64 53 45 54 48 55 63 56 83 57 46 58
REMARK SMILES IDX 47 59 62 61 84 62 49 63 32 64 33 65 42 66 34 67 35 68 41 69
REMARK SMILES IDX 43 70 36 71 37 72 38 73 39 74 40 75 66 76 67 77 76 78 68 79
REMARK SMILES IDX 69 80 75 81 77 82 70 83 71 84 72 85 73 86 74 87 50 88 51 89
REMARK SMILES IDX 60 90 52 91 53 92 59 93 61 94 54 95 55 96 56 97 57 98 58 99
REMARK H PARENT 16 5 11 11 4 21 20 30 82 49 48 60
REMARK Flexibility Score: inf
ROOT
ATOM      1  C   UNL A   1      34.746  23.741  25.696  1.00  0.00     0.117 C 
ENDROOT
BRANCH   1   2
ATOM      2  N   UNL A   1      33.581  23.645  26.562  1.00  0.00    -0.354 N 
ATOM      3  C   UNL A   1      32.293  24.089  26.512  1.00  0.00     0.255 C 
ATOM      4  O   UNL A   1      31.597  23.672  27.444  1.00  0.00    -0.272 OA
ATOM      5  H   UNL A   1      33.767  23.135  27.382  1.00  0.00     0.163 HD
BRANCH   3   6
ATOM      6  C   UNL A   1      31.674  24.860  25.311  1.00  0.00     0.213 C 
ATOM      7  C   UNL A   1      30.295  25.457  25.615  1.00  0.00     0.056 C 
BRANCH   6   8
ATOM      8  N   UNL A   1      32.690  25.954  25.100  1.00  0.00    -0.316 N 
ATOM      9  C   UNL A   1      33.046  27.005  24.368  1.00  0.00     0.318 C 
ATOM     10  O   UNL A   1      33.992  27.638  24.862  1.00  0.00    -0.249 OA
ATOM     11  H   UNL A   1      33.378  25.842  25.795  1.00  0.00     0.166 HD
BRANCH   9  12
ATOM     12  N   UNL A   1      32.510  27.394  23.190  1.00  0.00    -0.320 N 
ATOM     13  C   UNL A   1      32.031  26.576  22.101  1.00  0.00     0.149 C 
BRANCH  12  14
ATOM     14  C   UNL A   1      32.333  28.835  22.999  1.00  0.00     0.197 C 
BRANCH  14  15
ATOM     15  C   UNL A   1      30.915  29.132  22.651  1.00  0.00     0.144 A 
ATOM     16  C   UNL A   1      27.414  29.413  22.977  1.00  0.00     0.092 C 
ATOM     17  C   UNL A   1      28.827  29.412  22.557  1.00  0.00     0.147 A 
ATOM     18  N   UNL A   1      29.255  30.037  21.454  1.00  0.00    -0.159 NA
ATOM     19  N   UNL A   1      29.812  28.810  23.297  1.00  0.00    -0.215 NA
ATOM     20  N   UNL A   1      30.584  29.872  21.553  1.00  0.00    -0.262 N 
ATOM     21  H   UNL A   1      31.237  30.239  20.915  1.00  0.00     0.192 HD
ENDBRANCH  14  15
ENDBRANCH  12  14
ENDBRANCH   9  12
ENDBRANCH   6   8
BRANCH   6  22
ATOM     22  C   UNL A   1      31.463  23.748  24.256  1.00  0.00     0.420 C 
ATOM     23  F   UNL A   1      32.553  23.608  23.458  1.00  0.00    -0.168 F 
ATOM     24  F   UNL A   1      31.319  22.533  24.846  1.00  0.00    -0.168 F 
ATOM     25  F   UNL A   1      30.386  23.940  23.468  1.00  0.00    -0.168 F 
ENDBRANCH   6  22
ENDBRANCH   3   6
ENDBRANCH   1   2
BRANCH   1  26
ATOM     26  C   UNL A   1      35.811  22.685  26.009  1.00  0.00     0.042 C 
BRANCH  26  27
ATOM     27  C   UNL A   1      37.235  23.227  25.954  1.00  0.00     0.118 C 
BRANCH  27  28
ATOM     28  N   UNL A   1      38.254  22.250  26.337  1.00  0.00    -0.352 N 
ATOM     29  C   UNL A   1      39.573  22.491  26.700  1.00  0.00     0.251 C 
ATOM     30  H   UNL A   1      37.971  21.307  26.337  1.00  0.00     0.163 HD
ATOM     31  O   UNL A   1      40.396  21.595  26.676  1.00  0.00    -0.269 OA
BRANCH  29  32
ATOM     32  C   UNL A   1      39.955  23.864  27.093  1.00  0.00     0.039 A 
ATOM     33  C   UNL A   1      39.187  24.970  26.720  1.00  0.00     0.014 A 
ATOM     34  C   UNL A   1      41.074  24.022  27.902  1.00  0.00     0.014 A 
ATOM     35  C   UNL A   1      39.502  26.220  27.253  1.00  0.00     0.010 A 
ATOM     36  C   UNL A   1      41.275  25.211  28.558  1.00  0.00     0.010 A 
ATOM     37  C   UNL A   1      40.532  26.332  28.201  1.00  0.00    -0.014 A 
BRANCH  37  38
ATOM     38  C   UNL A   1      40.779  27.594  28.897  1.00  0.00     0.031 A 
ATOM     39  C   UNL A   1      41.876  28.432  28.332  1.00  0.00     0.074 A 
ATOM     40  C   UNL A   1      39.956  28.094  29.846  1.00  0.00     0.049 A 
ATOM     41  N   UNL A   1      43.011  28.724  28.877  1.00  0.00    -0.248 NA
ATOM     42  C   UNL A   1      41.752  28.899  26.941  1.00  0.00     0.031 C 
ATOM     43  C   UNL A   1      38.668  27.564  30.315  1.00  0.00     0.029 A 
ATOM     44  N   UNL A   1      40.050  29.272  30.521  1.00  0.00    -0.354 N 
ATOM     45  C   UNL A   1      43.650  29.597  28.000  1.00  0.00     0.074 A 
ATOM     46  C   UNL A   1      42.920  29.518  26.760  1.00  0.00     0.031 C 
ATOM     47  C   UNL A   1      38.000  28.525  30.989  1.00  0.00     0.029 A 
ATOM     48  C   UNL A   1      38.881  29.663  31.163  1.00  0.00     0.049 A 
ATOM     49  H   UNL A   1      40.878  29.803  30.552  1.00  0.00     0.167 HD
ATOM     50  C   UNL A   1      44.589  30.485  28.434  1.00  0.00     0.037 A 
ATOM     51  C   UNL A   1      38.643  30.846  31.781  1.00  0.00     0.037 A 
ATOM     52  C   UNL A   1      45.061  30.142  29.754  1.00  0.00     0.049 A 
ATOM     53  C   UNL A   1      39.967  31.433  32.110  1.00  0.00     0.074 A 
ATOM     54  C   UNL A   1      45.651  29.024  30.313  1.00  0.00     0.029 A 
ATOM     55  N   UNL A   1      44.594  30.879  30.817  1.00  0.00    -0.354 N 
ATOM     56  N   UNL A   1      40.797  30.913  32.973  1.00  0.00    -0.248 NA
ATOM     57  C   UNL A   1      40.566  32.342  31.144  1.00  0.00     0.031 C 
ATOM     58  C   UNL A   1      45.057  28.901  31.604  1.00  0.00     0.029 A 
ATOM     59  C   UNL A   1      44.199  29.987  31.783  1.00  0.00     0.049 A 
ATOM     60  H   UNL A   1      44.551  31.861  30.874  1.00  0.00     0.167 HD
ATOM     61  C   UNL A   1      42.051  31.071  32.401  1.00  0.00     0.074 A 
ATOM     62  C   UNL A   1      41.855  32.043  31.326  1.00  0.00     0.031 C 
ATOM     63  C   UNL A   1      43.068  30.196  32.662  1.00  0.00     0.037 A 
BRANCH  50  64
ATOM     64  C   UNL A   1      44.826  31.852  27.831  1.00  0.00     0.058 A 
ATOM     65  C   UNL A   1      46.062  32.133  27.212  1.00  0.00     0.135 A 
ATOM     66  C   UNL A   1      44.005  32.974  28.082  1.00  0.00     0.135 A 
ATOM     67  F   UNL A   1      46.926  31.146  26.929  1.00  0.00    -0.206 F 
ATOM     68  C   UNL A   1      46.485  33.437  26.941  1.00  0.00     0.059 A 
ATOM     69  C   UNL A   1      44.384  34.276  27.768  1.00  0.00     0.059 A 
ATOM     70  F   UNL A   1      42.841  32.879  28.735  1.00  0.00    -0.206 F 
ATOM     71  C   UNL A   1      45.644  34.502  27.241  1.00  0.00     0.060 A 
BRANCH  71  72
ATOM     72  S   UNL A   1      46.230  36.190  27.006  1.00  0.00     0.124 S 
ATOM     73  O   UNL A   1      47.087  36.362  28.173  1.00  0.00    -0.237 OA
ATOM     74  O   UNL A   1      46.910  36.097  25.719  1.00  0.00    -0.237 OA
ATOM     75  O   UNL A   1      44.998  36.974  27.004  1.00  0.00    -0.744 OA
ENDBRANCH  71  72
ENDBRANCH  50  64
BRANCH  51  76
ATOM     76  C   UNL A   1      37.377  31.625  31.820  1.00  0.00     0.058 A 
ATOM     77  C   UNL A   1      36.763  31.950  33.042  1.00  0.00     0.135 A 
ATOM     78  C   UNL A   1      36.897  32.309  30.684  1.00  0.00     0.135 A 
ATOM     79  F   UNL A   1      37.164  31.358  34.177  1.00  0.00    -0.206 F 
ATOM     80  C   UNL A   1      35.781  32.942  33.143  1.00  0.00     0.059 A 
ATOM     81  C   UNL A   1      35.910  33.291  30.758  1.00  0.00     0.059 A 
ATOM     82  F   UNL A   1      37.443  32.113  29.474  1.00  0.00    -0.206 F 
ATOM     83  C   UNL A   1      35.378  33.625  31.997  1.00  0.00     0.060 A 
BRANCH  83  84
ATOM     84  S   UNL A   1      34.263  35.042  32.150  1.00  0.00     0.124 S 
ATOM     85  O   UNL A   1      33.108  34.447  32.813  1.00  0.00    -0.237 OA
ATOM     86  O   UNL A   1      35.052  35.969  32.955  1.00  0.00    -0.237 OA
ATOM     87  O   UNL A   1      34.046  35.455  30.766  1.00  0.00    -0.744 OA
ENDBRANCH  83  84
ENDBRANCH  51  76
BRANCH  63  88
ATOM     88  C   UNL A   1      42.902  29.223  33.804  1.00  0.00     0.058 A 
ATOM     89  C   UNL A   1      43.107  29.537  35.160  1.00  0.00     0.135 A 
ATOM     90  C   UNL A   1      42.379  27.951  33.522  1.00  0.00     0.135 A 
ATOM     91  F   UNL A   1      43.495  30.762  35.535  1.00  0.00    -0.206 F 
ATOM     92  C   UNL A   1      42.857  28.615  36.180  1.00  0.00     0.059 A 
ATOM     93  C   UNL A   1      42.090  27.027  34.523  1.00  0.00     0.059 A 
ATOM     94  F   UNL A   1      42.095  27.608  32.254  1.00  0.00    -0.206 F 
ATOM     95  C   UNL A   1      42.350  27.359  35.850  1.00  0.00     0.060 A 
BRANCH  95  96
ATOM     96  S   UNL A   1      41.976  26.187  37.172  1.00  0.00     0.124 S 
ATOM     97  O   UNL A   1      43.048  26.449  38.127  1.00  0.00    -0.237 OA
ATOM     98  O   UNL A   1      40.638  26.595  37.593  1.00  0.00    -0.237 OA
ATOM     99  O   UNL A   1      42.039  24.888  36.505  1.00  0.00    -0.744 OA
ENDBRANCH  95  96
ENDBRANCH  63  88
ENDBRANCH  37  38
ENDBRANCH  29  32
ENDBRANCH  27  28
ENDBRANCH  26  27
ENDBRANCH   1  26
TORSDOF 18
ENDMDL
MODEL 2
REMARK VINA RESULT:     -12.3      1.973      2.775
REMARK SMILES Cc1n[nH]c(CN(C)C(=O)N[C@](C)(C(=O)NCCCNC(=O)c2ccc(-c3c4nc(c(-c5c(F)cc(S(=O)(=O)[O-])cc5F)c5ccc([nH]5)c(-c5c(F)cc(S(=O)(=O)[O-])cc5F)c5nc(c(-c6c(F)cc(S(=O)(=O)[O-])cc6F)c6ccc3[nH]6)C=C5)C=C4)cc2)C(F)(F)F)n1
REMARK SMILES IDX 17 1 16 2 14 3 15 4 12 6 13 7 11 8 9 9 10 10 7 12 8 13 6 14
REMARK SMILES IDX 5 15 1 16 2 17 3 18 93 19 4 20 89 22 90 23 91 24 92 25 18 26
REMARK SMILES IDX 19 27 20 28 21 29 22 31 23 32 24 33 88 34 25 35 87 36 26 37
REMARK SMILES IDX 27 38 28 39 81 40 29 41 86 42 80 43 82 44 30 45 85 46 79 47
REMARK SMILES IDX 78 48 31 50 65 51 44 52 64 53 45 54 48 55 63 56 83 57 46 58
REMARK SMILES IDX 47 59 62 61 84 62 49 63 32 64 33 65 42 66 34 67 35 68 41 69
REMARK SMILES IDX 43 70 36 71 37 72 38 73 39 74 40 75 66 76 67 77 76 78 68 79
REMARK SMILES IDX 69 80 75 81 77 82 70 83 71 84 72 85 73 86 74 87 50 88 51 89
REMARK SMILES IDX 60 90 52 91 53 92 59 93 61 94 54 95 55 96 56 97 57 98 58 99
REMARK H PARENT 16 5 11 11 4 21 20 30 82 49 48 60
REMARK Flexibility Score: inf
ROOT
ATOM      1  C   UNL A   1      37.808  23.061  25.680  1.00  0.00     0.117 C 
ENDROOT
BRANCH   1   2
ATOM      2  N   UNL A   1      37.403  22.930  24.288  1.00  0.00    -0.354 N 
ATOM      3  C   UNL A   1      36.232  23.045  23.601  1.00  0.00     0.255 C 
ATOM      4  O   UNL A   1      36.374  22.954  22.377  1.00  0.00    -0.272 OA
ATOM      5  H   UNL A   1      38.160  22.704  23.701  1.00  0.00     0.163 HD
BRANCH   3   6
ATOM      6  C   UNL A   1      34.876  23.465  24.237  1.00  0.00     0.213 C 
ATOM      7  C   UNL A   1      35.027  24.471  25.385  1.00  0.00     0.056 C 
BRANCH   6   8
ATOM      8  N   UNL A   1      34.177  24.102  23.063  1.00  0.00    -0.316 N 
ATOM      9  C   UNL A   1      33.183  24.890  22.663  1.00  0.00     0.318 C 
ATOM     10  O   UNL A   1      33.256  25.184  21.460  1.00  0.00    -0.249 OA
ATOM     11  H   UNL A   1      34.657  23.813  22.254  1.00  0.00     0.166 HD
BRANCH   9  12
ATOM     12  N   UNL A   1      32.153  25.341  23.412  1.00  0.00    -0.320 N 
ATOM     13  C   UNL A   1      31.467  24.681  24.497  1.00  0.00     0.149 C 
BRANCH  12  14
ATOM     14  C   UNL A   1      31.693  26.704  23.134  1.00  0.00     0.197 C 
BRANCH  14  15
ATOM     15  C   UNL A   1      32.212  27.637  24.172  1.00  0.00     0.144 A 
ATOM     16  C   UNL A   1      32.234  29.898  26.880  1.00  0.00     0.092 C 
ATOM     17  C   UNL A   1      32.533  28.995  25.753  1.00  0.00     0.147 A 
ATOM     18  N   UNL A   1      33.775  28.599  25.453  1.00  0.00    -0.159 NA
ATOM     19  N   UNL A   1      31.549  28.458  24.963  1.00  0.00    -0.215 NA
ATOM     20  N   UNL A   1      33.542  27.716  24.469  1.00  0.00    -0.262 N 
ATOM     21  H   UNL A   1      34.242  27.190  24.018  1.00  0.00     0.192 HD
ENDBRANCH  14  15
ENDBRANCH  12  14
ENDBRANCH   9  12
ENDBRANCH   6   8
BRANCH   6  22
ATOM     22  C   UNL A   1      34.360  22.145  24.856  1.00  0.00     0.420 C 
ATOM     23  F   UNL A   1      33.070  21.904  24.508  1.00  0.00    -0.168 F 
ATOM     24  F   UNL A   1      35.045  21.075  24.374  1.00  0.00    -0.168 F 
ATOM     25  F   UNL A   1      34.448  22.101  26.201  1.00  0.00    -0.168 F 
ENDBRANCH   6  22
ENDBRANCH   3   6
ENDBRANCH   1   2
BRANCH   1  26
ATOM     26  C   UNL A   1      38.768  21.955  26.130  1.00  0.00     0.042 C 
BRANCH  26  27
ATOM     27  C   UNL A   1      40.031  22.486  26.800  1.00  0.00     0.118 C 
BRANCH  27  28
ATOM     28  N   UNL A   1      41.263  22.157  26.083  1.00  0.00    -0.352 N 
ATOM     29  C   UNL A   1      42.239  23.031  25.622  1.00  0.00     0.251 C 
ATOM     30  H   UNL A   1      41.419  21.202  25.904  1.00  0.00     0.163 HD
ATOM     31  O   UNL A   1      43.034  22.679  24.770  1.00  0.00    -0.269 OA
BRANCH  29  32
ATOM     32  C   UNL A   1      42.276  24.401  26.175  1.00  0.00     0.039 A 
ATOM     33  C   UNL A   1      41.536  25.439  25.602  1.00  0.00     0.014 A 
ATOM     34  C   UNL A   1      43.024  24.620  27.326  1.00  0.00     0.014 A 
ATOM     35  C   UNL A   1      41.480  26.669  26.258  1.00  0.00     0.010 A 
ATOM     36  C   UNL A   1      42.828  25.766  28.055  1.00  0.00     0.010 A 
ATOM     37  C   UNL A   1      42.105  26.820  27.506  1.00  0.00    -0.014 A 
BRANCH  37  38
ATOM     38  C   UNL A   1      41.928  28.041  28.293  1.00  0.00     0.031 A 
ATOM     39  C   UNL A   1      42.993  29.071  28.121  1.00  0.00     0.074 A 
ATOM     40  C   UNL A   1      40.792  28.336  28.963  1.00  0.00     0.049 A 
ATOM     41  N   UNL A   1      43.854  29.474  28.997  1.00  0.00    -0.248 NA
ATOM     42  C   UNL A   1      43.212  29.632  26.777  1.00  0.00     0.031 C 
ATOM     43  C   UNL A   1      39.527  27.592  28.996  1.00  0.00     0.029 A 
ATOM     44  N   UNL A   1      40.492  29.454  29.679  1.00  0.00    -0.354 N 
ATOM     45  C   UNL A   1      44.575  30.500  28.390  1.00  0.00     0.074 A 
ATOM     46  C   UNL A   1      44.266  30.424  26.985  1.00  0.00     0.031 C 
ATOM     47  C   UNL A   1      38.544  28.387  29.470  1.00  0.00     0.029 A 
ATOM     48  C   UNL A   1      39.138  29.620  29.949  1.00  0.00     0.049 A 
ATOM     49  H   UNL A   1      41.177  30.093  29.981  1.00  0.00     0.167 HD
ATOM     50  C   UNL A   1      45.188  31.472  29.124  1.00  0.00     0.037 A 
ATOM     51  C   UNL A   1      38.541  30.700  30.509  1.00  0.00     0.037 A 
ATOM     52  C   UNL A   1      45.297  31.089  30.511  1.00  0.00     0.049 A 
ATOM     53  C   UNL A   1      39.597  31.439  31.248  1.00  0.00     0.074 A 
ATOM     54  C   UNL A   1      45.868  30.022  31.179  1.00  0.00     0.029 A 
ATOM     55  N   UNL A   1      44.425  31.659  31.408  1.00  0.00    -0.354 N 
ATOM     56  N   UNL A   1      40.207  30.971  32.302  1.00  0.00    -0.248 NA
ATOM     57  C   UNL A   1      40.299  32.503  30.546  1.00  0.00     0.031 C 
ATOM     58  C   UNL A   1      44.947  29.707  32.223  1.00  0.00     0.029 A 
ATOM     59  C   UNL A   1      43.911  30.641  32.172  1.00  0.00     0.049 A 
ATOM     60  H   UNL A   1      44.210  32.617  31.486  1.00  0.00     0.167 HD
ATOM     61  C   UNL A   1      41.531  31.353  32.146  1.00  0.00     0.074 A 
ATOM     62  C   UNL A   1      41.507  32.375  31.101  1.00  0.00     0.031 C 
ATOM     63  C   UNL A   1      42.553  30.612  32.672  1.00  0.00     0.037 A 
BRANCH  50  64
ATOM     64  C   UNL A   1      45.369  32.905  28.674  1.00  0.00     0.058 A 
ATOM     65  C   UNL A   1      46.647  33.498  28.743  1.00  0.00     0.135 A 
ATOM     66  C   UNL A   1      44.298  33.799  28.447  1.00  0.00     0.135 A 
ATOM     67  F   UNL A   1      47.739  32.748  28.958  1.00  0.00    -0.206 F 
ATOM     68  C   UNL A   1      46.837  34.881  28.675  1.00  0.00     0.059 A 
ATOM     69  C   UNL A   1      44.471  35.173  28.321  1.00  0.00     0.059 A 
ATOM     70  F   UNL A   1      43.021  33.399  28.438  1.00  0.00    -0.206 F 
ATOM     71  C   UNL A   1      45.737  35.710  28.483  1.00  0.00     0.060 A 
BRANCH  71  72
ATOM     72  S   UNL A   1      45.957  37.498  28.516  1.00  0.00     0.124 S 
ATOM     73  O   UNL A   1      46.943  37.686  27.459  1.00  0.00    -0.237 OA
ATOM     74  O   UNL A   1      44.608  37.974  28.226  1.00  0.00    -0.237 OA
ATOM     75  O   UNL A   1      46.427  37.752  29.874  1.00  0.00    -0.744 OA
ENDBRANCH  71  72
ENDBRANCH  50  64
BRANCH  51  76
ATOM     76  C   UNL A   1      37.212  31.285  30.189  1.00  0.00     0.058 A 
ATOM     77  C   UNL A   1      36.446  31.928  31.177  1.00  0.00     0.135 A 
ATOM     78  C   UNL A   1      36.794  31.480  28.856  1.00  0.00     0.135 A 
ATOM     79  F   UNL A   1      36.778  31.808  32.471  1.00  0.00    -0.206 F 
ATOM     80  C   UNL A   1      35.372  32.766  30.860  1.00  0.00     0.059 A 
ATOM     81  C   UNL A   1      35.719  32.301  28.517  1.00  0.00     0.059 A 
ATOM     82  F   UNL A   1      37.480  30.955  27.830  1.00  0.00    -0.206 F 
ATOM     83  C   UNL A   1      35.031  32.967  29.523  1.00  0.00     0.060 A 
BRANCH  83  84
ATOM     84  S   UNL A   1      33.782  34.204  29.099  1.00  0.00     0.124 S 
ATOM     85  O   UNL A   1      32.878  33.440  28.245  1.00  0.00    -0.237 OA
ATOM     86  O   UNL A   1      33.258  34.575  30.409  1.00  0.00    -0.237 OA
ATOM     87  O   UNL A   1      34.550  35.245  28.422  1.00  0.00    -0.744 OA
ENDBRANCH  83  84
ENDBRANCH  51  76
BRANCH  63  88
ATOM     88  C   UNL A   1      42.216  29.532  33.671  1.00  0.00     0.058 A 
ATOM     89  C   UNL A   1      41.852  28.215  33.336  1.00  0.00     0.135 A 
ATOM     90  C   UNL A   1      42.402  29.809  35.035  1.00  0.00     0.135 A 
ATOM     91  F   UNL A   1      41.761  27.827  32.058  1.00  0.00    -0.206 F 
ATOM     92  C   UNL A   1      41.631  27.237  34.309  1.00  0.00     0.059 A 
ATOM     93  C   UNL A   1      42.221  28.842  36.021  1.00  0.00     0.059 A 
ATOM     94  F   UNL A   1      42.815  31.028  35.423  1.00  0.00    -0.206 F 
ATOM     95  C   UNL A   1      41.816  27.562  35.652  1.00  0.00     0.060 A 
BRANCH  95  96
ATOM     96  S   UNL A   1      41.583  26.283  36.906  1.00  0.00     0.124 S 
ATOM     97  O   UNL A   1      42.822  26.374  37.671  1.00  0.00    -0.237 OA
ATOM     98  O   UNL A   1      40.376  26.729  37.597  1.00  0.00    -0.237 OA
ATOM     99  O   UNL A   1      41.424  25.061  36.121  1.00  0.00    -0.744 OA
ENDBRANCH  95  96
ENDBRANCH  63  88
ENDBRANCH  37  38
ENDBRANCH  29  32
ENDBRANCH  27  28
ENDBRANCH  26  27
ENDBRANCH   1  26
TORSDOF 18
ENDMDL
MODEL 3
REMARK VINA RESULT:     -12.2      3.230      9.596
REMARK SMILES Cc1n[nH]c(CN(C)C(=O)N[C@](C)(C(=O)NCCCNC(=O)c2ccc(-c3c4nc(c(-c5c(F)cc(S(=O)(=O)[O-])cc5F)c5ccc([nH]5)c(-c5c(F)cc(S(=O)(=O)[O-])cc5F)c5nc(c(-c6c(F)cc(S(=O)(=O)[O-])cc6F)c6ccc3[nH]6)C=C5)C=C4)cc2)C(F)(F)F)n1
REMARK SMILES IDX 17 1 16 2 14 3 15 4 12 6 13 7 11 8 9 9 10 10 7 12 8 13 6 14
REMARK SMILES IDX 5 15 1 16 2 17 3 18 93 19 4 20 89 22 90 23 91 24 92 25 18 26
REMARK SMILES IDX 19 27 20 28 21 29 22 31 23 32 24 33 88 34 25 35 87 36 26 37
REMARK SMILES IDX 27 38 28 39 81 40 29 41 86 42 80 43 82 44 30 45 85 46 79 47
REMARK SMILES IDX 78 48 31 50 65 51 44 52 64 53 45 54 48 55 63 56 83 57 46 58
REMARK SMILES IDX 47 59 62 61 84 62 49 63 32 64 33 65 42 66 34 67 35 68 41 69
REMARK SMILES IDX 43 70 36 71 37 72 38 73 39 74 40 75 66 76 67 77 76 78 68 79
REMARK SMILES IDX 69 80 75 81 77 82 70 83 71 84 72 85 73 86 74 87 50 88 51 89
REMARK SMILES IDX 60 90 52 91 53 92 59 93 61 94 54 95 55 96 56 97 57 98 58 99
REMARK H PARENT 16 5 11 11 4 21 20 30 82 49 48 60
REMARK Flexibility Score: inf
ROOT
ATOM      1  C   UNL A   1      31.989  28.196  26.040  1.00  0.00     0.117 C 
ENDROOT
BRANCH   1   2
ATOM      2  N   UNL A   1      30.968  27.217  26.380  1.00  0.00    -0.354 N 
ATOM      3  C   UNL A   1      30.645  25.962  25.959  1.00  0.00     0.255 C 
ATOM      4  O   UNL A   1      29.738  25.444  26.619  1.00  0.00    -0.272 OA
ATOM      5  H   UNL A   1      30.363  27.541  27.086  1.00  0.00     0.163 HD
BRANCH   3   6
ATOM      6  C   UNL A   1      31.456  25.151  24.908  1.00  0.00     0.213 C 
ATOM      7  C   UNL A   1      32.969  25.376  25.000  1.00  0.00     0.056 C 
BRANCH   6   8
ATOM      8  N   UNL A   1      31.107  23.734  25.287  1.00  0.00    -0.316 N 
ATOM      9  C   UNL A   1      31.445  22.451  25.198  1.00  0.00     0.318 C 
ATOM     10  O   UNL A   1      30.774  21.723  25.946  1.00  0.00    -0.249 OA
ATOM     11  H   UNL A   1      30.284  23.776  25.825  1.00  0.00     0.166 HD
BRANCH   9  12
ATOM     12  N   UNL A   1      32.384  21.912  24.389  1.00  0.00    -0.320 N 
ATOM     13  C   UNL A   1      32.475  21.967  22.949  1.00  0.00     0.149 C 
BRANCH  12  14
ATOM     14  C   UNL A   1      33.496  21.223  25.048  1.00  0.00     0.197 C 
BRANCH  14  15
ATOM     15  C   UNL A   1      33.282  19.750  25.000  1.00  0.00     0.144 A 
ATOM     16  C   UNL A   1      33.692  16.372  24.069  1.00  0.00     0.092 C 
ATOM     17  C   UNL A   1      33.298  17.672  24.644  1.00  0.00     0.147 A 
ATOM     18  N   UNL A   1      32.498  17.778  25.712  1.00  0.00    -0.159 NA
ATOM     19  N   UNL A   1      33.767  18.863  24.154  1.00  0.00    -0.215 NA
ATOM     20  N   UNL A   1      32.529  19.102  25.936  1.00  0.00    -0.262 N 
ATOM     21  H   UNL A   1      32.067  19.549  26.682  1.00  0.00     0.192 HD
ENDBRANCH  14  15
ENDBRANCH  12  14
ENDBRANCH   9  12
ENDBRANCH   6   8
BRANCH   6  22
ATOM     22  C   UNL A   1      30.988  25.759  23.565  1.00  0.00     0.420 C 
ATOM     23  F   UNL A   1      31.882  26.663  23.091  1.00  0.00    -0.168 F 
ATOM     24  F   UNL A   1      30.920  24.811  22.594  1.00  0.00    -0.168 F 
ATOM     25  F   UNL A   1      29.779  26.353  23.627  1.00  0.00    -0.168 F 
ENDBRANCH   6  22
ENDBRANCH   3   6
ENDBRANCH   1   2
BRANCH   1  26
ATOM     26  C   UNL A   1      32.403  29.066  27.231  1.00  0.00     0.042 C 
BRANCH  26  27
ATOM     27  C   UNL A   1      33.860  29.514  27.176  1.00  0.00     0.118 C 
BRANCH  27  28
ATOM     28  N   UNL A   1      34.031  30.967  27.171  1.00  0.00    -0.352 N 
ATOM     29  C   UNL A   1      34.992  31.714  27.841  1.00  0.00     0.251 C 
ATOM     30  H   UNL A   1      33.388  31.477  26.629  1.00  0.00     0.163 HD
ATOM     31  O   UNL A   1      34.834  32.907  28.022  1.00  0.00    -0.269 OA
BRANCH  29  32
ATOM     32  C   UNL A   1      36.197  31.022  28.346  1.00  0.00     0.039 A 
ATOM     33  C   UNL A   1      36.352  29.639  28.212  1.00  0.00     0.014 A 
ATOM     34  C   UNL A   1      37.206  31.795  28.906  1.00  0.00     0.014 A 
ATOM     35  C   UNL A   1      37.575  29.063  28.558  1.00  0.00     0.010 A 
ATOM     36  C   UNL A   1      38.457  31.257  29.079  1.00  0.00     0.010 A 
ATOM     37  C   UNL A   1      38.640  29.883  28.963  1.00  0.00    -0.014 A 
BRANCH  37  38
ATOM     38  C   UNL A   1      39.978  29.328  29.175  1.00  0.00     0.031 A 
ATOM     39  C   UNL A   1      40.354  29.094  30.599  1.00  0.00     0.074 A 
ATOM     40  C   UNL A   1      40.752  28.852  28.174  1.00  0.00     0.049 A 
ATOM     41  N   UNL A   1      41.266  29.699  31.287  1.00  0.00    -0.248 NA
ATOM     42  C   UNL A   1      39.536  28.162  31.393  1.00  0.00     0.031 C 
ATOM     43  C   UNL A   1      40.427  28.715  26.748  1.00  0.00     0.029 A 
ATOM     44  N   UNL A   1      41.979  28.268  28.251  1.00  0.00    -0.354 N 
ATOM     45  C   UNL A   1      41.293  29.072  32.531  1.00  0.00     0.074 A 
ATOM     46  C   UNL A   1      40.097  28.272  32.599  1.00  0.00     0.031 C 
ATOM     47  C   UNL A   1      41.307  27.876  26.160  1.00  0.00     0.029 A 
ATOM     48  C   UNL A   1      42.358  27.570  27.111  1.00  0.00     0.049 A 
ATOM     49  H   UNL A   1      42.552  28.336  29.049  1.00  0.00     0.167 HD
ATOM     50  C   UNL A   1      42.413  29.081  33.310  1.00  0.00     0.037 A 
ATOM     51  C   UNL A   1      43.450  26.780  26.960  1.00  0.00     0.037 A 
ATOM     52  C   UNL A   1      43.350  30.084  32.865  1.00  0.00     0.049 A 
ATOM     53  C   UNL A   1      44.423  27.188  28.005  1.00  0.00     0.074 A 
ATOM     54  C   UNL A   1      43.290  31.453  32.681  1.00  0.00     0.029 A 
ATOM     55  N   UNL A   1      44.452  29.667  32.156  1.00  0.00    -0.354 N 
ATOM     56  N   UNL A   1      45.014  28.352  28.031  1.00  0.00    -0.248 NA
ATOM     57  C   UNL A   1      44.394  26.478  29.274  1.00  0.00     0.031 C 
ATOM     58  C   UNL A   1      44.028  31.695  31.484  1.00  0.00     0.029 A 
ATOM     59  C   UNL A   1      44.550  30.476  31.051  1.00  0.00     0.049 A 
ATOM     60  H   UNL A   1      45.057  28.928  32.397  1.00  0.00     0.167 HD
ATOM     61  C   UNL A   1      45.033  28.711  29.370  1.00  0.00     0.074 A 
ATOM     62  C   UNL A   1      44.729  27.478  30.095  1.00  0.00     0.031 C 
ATOM     63  C   UNL A   1      45.013  30.022  29.757  1.00  0.00     0.037 A 
BRANCH  50  64
ATOM     64  C   UNL A   1      42.821  27.963  34.243  1.00  0.00     0.058 A 
ATOM     65  C   UNL A   1      42.929  28.218  35.627  1.00  0.00     0.135 A 
ATOM     66  C   UNL A   1      43.380  26.740  33.808  1.00  0.00     0.135 A 
ATOM     67  F   UNL A   1      42.438  29.351  36.154  1.00  0.00    -0.206 F 
ATOM     68  C   UNL A   1      43.612  27.364  36.496  1.00  0.00     0.059 A 
ATOM     69  C   UNL A   1      44.015  25.849  34.666  1.00  0.00     0.059 A 
ATOM     70  F   UNL A   1      43.428  26.395  32.516  1.00  0.00    -0.206 F 
ATOM     71  C   UNL A   1      44.168  26.190  35.999  1.00  0.00     0.060 A 
BRANCH  71  72
ATOM     72  S   UNL A   1      45.152  25.145  37.087  1.00  0.00     0.124 S 
ATOM     73  O   UNL A   1      44.708  23.815  36.688  1.00  0.00    -0.237 OA
ATOM     74  O   UNL A   1      46.513  25.507  36.704  1.00  0.00    -0.237 OA
ATOM     75  O   UNL A   1      44.747  25.575  38.422  1.00  0.00    -0.744 OA
ENDBRANCH  71  72
ENDBRANCH  50  64
BRANCH  51  76
ATOM     76  C   UNL A   1      43.569  25.515  26.187  1.00  0.00     0.058 A 
ATOM     77  C   UNL A   1      44.638  25.306  25.299  1.00  0.00     0.135 A 
ATOM     78  C   UNL A   1      42.803  24.377  26.514  1.00  0.00     0.135 A 
ATOM     79  F   UNL A   1      45.428  26.330  24.942  1.00  0.00    -0.206 F 
ATOM     80  C   UNL A   1      44.970  24.035  24.816  1.00  0.00     0.059 A 
ATOM     81  C   UNL A   1      43.107  23.102  26.035  1.00  0.00     0.059 A 
ATOM     82  F   UNL A   1      41.790  24.450  27.391  1.00  0.00    -0.206 F 
ATOM     83  C   UNL A   1      44.212  22.934  25.211  1.00  0.00     0.060 A 
BRANCH  83  84
ATOM     84  S   UNL A   1      44.757  21.270  24.758  1.00  0.00     0.124 S 
ATOM     85  O   UNL A   1      44.765  21.340  23.301  1.00  0.00    -0.237 OA
ATOM     86  O   UNL A   1      46.066  21.189  25.399  1.00  0.00    -0.237 OA
ATOM     87  O   UNL A   1      43.731  20.407  25.337  1.00  0.00    -0.744 OA
ENDBRANCH  83  84
ENDBRANCH  51  76
BRANCH  63  88
ATOM     88  C   UNL A   1      45.264  31.082  28.712  1.00  0.00     0.058 A 
ATOM     89  C   UNL A   1      44.266  31.681  27.922  1.00  0.00     0.135 A 
ATOM     90  C   UNL A   1      46.560  31.612  28.602  1.00  0.00     0.135 A 
ATOM     91  F   UNL A   1      42.982  31.320  28.040  1.00  0.00    -0.206 F 
ATOM     92  C   UNL A   1      44.550  32.715  27.027  1.00  0.00     0.059 A 
ATOM     93  C   UNL A   1      46.861  32.665  27.743  1.00  0.00     0.059 A 
ATOM     94  F   UNL A   1      47.549  31.134  29.376  1.00  0.00    -0.206 F 
ATOM     95  C   UNL A   1      45.854  33.201  26.943  1.00  0.00     0.060 A 
BRANCH  95  96
ATOM     96  S   UNL A   1      46.211  34.575  25.827  1.00  0.00     0.124 S 
ATOM     97  O   UNL A   1      47.668  34.555  25.771  1.00  0.00    -0.237 OA
ATOM     98  O   UNL A   1      45.523  34.178  24.602  1.00  0.00    -0.237 OA
ATOM     99  O   UNL A   1      45.629  35.729  26.510  1.00  0.00    -0.744 OA
ENDBRANCH  95  96
ENDBRANCH  63  88
ENDBRANCH  37  38
ENDBRANCH  29  32
ENDBRANCH  27  28
ENDBRANCH  26  27
ENDBRANCH   1  26
TORSDOF 18
ENDMDL
