MODEL 1
REMARK VINA RESULT:     -12.4      0.000      0.000
REMARK SMILES C[C@@H]1CN(C(=O)Nc2ccc(O)c(C(=O)NCCCNC(=O)c3ccc(-c4c5nc(c(-c6c(F)cc(S(=O)(=O)[O-])cc6F)c6ccc([nH]6)c(-c6c(F)cc(S(=O)(=O)[O-])cc6F)c6nc(c(-c7c(F)cc(S(=O)(=O)[O-])cc7F)c7ccc4[nH]7)C=C6)C=C5)cc3)c2)C[C@@H]1C
REMARK SMILES IDX 18 1 17 2 16 3 14 4 15 5 13 7 8 8 9 9 89 10 10 11 11 12 7 13
REMARK SMILES IDX 5 14 6 15 4 17 1 18 2 19 3 20 91 21 90 22 92 23 12 24 19 26
REMARK SMILES IDX 20 27 21 28 22 30 23 31 24 32 88 33 25 34 87 35 26 36 27 37
REMARK SMILES IDX 28 38 81 39 29 40 86 41 80 42 82 43 30 44 85 45 79 46 78 47
REMARK SMILES IDX 31 49 65 50 44 51 64 52 45 53 48 54 63 55 83 56 46 57 47 58
REMARK SMILES IDX 62 60 84 61 49 62 32 63 33 64 42 65 34 66 35 67 41 68 43 69
REMARK SMILES IDX 36 70 37 71 38 72 39 73 40 74 66 75 67 76 76 77 68 78 69 79
REMARK SMILES IDX 75 80 77 81 70 82 71 83 72 84 73 85 74 86 50 87 51 88 60 89
REMARK SMILES IDX 52 90 53 91 59 92 61 93 54 94 55 95 56 96 57 97 58 98
REMARK H PARENT 16 6 7 16 12 25 20 29 82 48 48 59
REMARK Flexibility Score: inf
ROOT
ATOM      1  C   UNL A   1      40.777  21.494  27.323  1.00  0.00     0.042 C 
ENDROOT
BRANCH   1   2
ATOM      2  C   UNL A   1      41.905  20.577  27.792  1.00  0.00     0.118 C 
BRANCH   2   3
ATOM      3  N   UNL A   1      41.917  19.329  27.056  1.00  0.00    -0.352 N 
ATOM      4  C   UNL A   1      42.773  18.814  26.120  1.00  0.00     0.255 C 
ATOM      5  O   UNL A   1      42.520  17.672  25.721  1.00  0.00    -0.269 OA
ATOM      6  H   UNL A   1      41.161  18.736  27.271  1.00  0.00     0.163 HD
BRANCH   4   7
ATOM      7  C   UNL A   1      44.015  19.468  25.610  1.00  0.00     0.083 A 
ATOM      8  C   UNL A   1      44.948  21.610  24.894  1.00  0.00     0.043 A 
ATOM      9  C   UNL A   1      46.214  21.045  24.810  1.00  0.00     0.030 A 
ATOM     10  C   UNL A   1      43.881  20.852  25.374  1.00  0.00     0.044 A 
ATOM     11  C   UNL A   1      46.375  19.684  25.041  1.00  0.00     0.049 A 
ATOM     12  C   UNL A   1      45.277  18.894  25.403  1.00  0.00     0.128 A 
BRANCH   8  13
ATOM     13  N   UNL A   1      44.706  22.927  24.502  1.00  0.00    -0.308 N 
ATOM     14  C   UNL A   1      44.640  24.079  25.229  1.00  0.00     0.321 C 
ATOM     15  O   UNL A   1      44.069  25.044  24.711  1.00  0.00    -0.248 OA
ATOM     16  H   UNL A   1      44.556  23.045  23.537  1.00  0.00     0.171 HD
BRANCH  14  17
ATOM     17  N   UNL A   1      45.331  24.204  26.411  1.00  0.00    -0.324 N 
ATOM     18  C   UNL A   1      48.157  25.577  28.389  1.00  0.00     0.010 C 
ATOM     19  C   UNL A   1      46.912  24.753  28.109  1.00  0.00     0.010 C 
ATOM     20  C   UNL A   1      46.761  24.411  26.629  1.00  0.00     0.125 C 
ATOM     21  C   UNL A   1      45.555  25.377  28.459  1.00  0.00     0.010 C 
ATOM     22  C   UNL A   1      44.601  24.491  27.642  1.00  0.00     0.125 C 
ATOM     23  C   UNL A   1      45.416  26.849  28.065  1.00  0.00     0.010 C 
ENDBRANCH  14  17
ENDBRANCH   8  13
BRANCH  12  24
ATOM     24  O   UNL A   1      45.516  17.567  25.565  1.00  0.00    -0.507 OA
ATOM     25  H   UNL A   1      46.254  17.169  25.146  1.00  0.00     0.293 HD
ENDBRANCH  12  24
ENDBRANCH   4   7
ENDBRANCH   2   3
ENDBRANCH   1   2
BRANCH   1  26
ATOM     26  C   UNL A   1      41.003  22.972  27.604  1.00  0.00     0.118 C 
BRANCH  26  27
ATOM     27  N   UNL A   1      41.152  23.750  26.387  1.00  0.00    -0.352 N 
ATOM     28  C   UNL A   1      41.004  25.100  26.177  1.00  0.00     0.251 C 
ATOM     29  H   UNL A   1      41.398  23.229  25.587  1.00  0.00     0.163 HD
ATOM     30  O   UNL A   1      40.958  25.520  25.023  1.00  0.00    -0.269 OA
BRANCH  28  31
ATOM     31  C   UNL A   1      40.887  26.046  27.313  1.00  0.00     0.039 A 
ATOM     32  C   UNL A   1      41.837  27.066  27.437  1.00  0.00     0.014 A 
ATOM     33  C   UNL A   1      39.890  25.911  28.283  1.00  0.00     0.014 A 
ATOM     34  C   UNL A   1      41.758  27.973  28.498  1.00  0.00     0.010 A 
ATOM     35  C   UNL A   1      39.764  26.862  29.294  1.00  0.00     0.010 A 
ATOM     36  C   UNL A   1      40.704  27.895  29.422  1.00  0.00    -0.014 A 
BRANCH  36  37
ATOM     37  C   UNL A   1      40.579  28.871  30.536  1.00  0.00     0.031 A 
ATOM     38  C   UNL A   1      41.449  28.743  31.757  1.00  0.00     0.074 A 
ATOM     39  C   UNL A   1      39.636  29.831  30.479  1.00  0.00     0.049 A 
ATOM     40  N   UNL A   1      41.440  29.450  32.859  1.00  0.00    -0.248 NA
ATOM     41  C   UNL A   1      42.443  27.657  31.751  1.00  0.00     0.031 C 
ATOM     42  C   UNL A   1      38.695  30.026  29.372  1.00  0.00     0.029 A 
ATOM     43  N   UNL A   1      39.301  30.814  31.375  1.00  0.00    -0.354 N 
ATOM     44  C   UNL A   1      42.408  28.886  33.680  1.00  0.00     0.074 A 
ATOM     45  C   UNL A   1      42.950  27.747  32.971  1.00  0.00     0.031 C 
ATOM     46  C   UNL A   1      37.901  31.071  29.650  1.00  0.00     0.029 A 
ATOM     47  C   UNL A   1      38.250  31.600  30.966  1.00  0.00     0.049 A 
ATOM     48  H   UNL A   1      39.770  30.946  32.231  1.00  0.00     0.167 HD
ATOM     49  C   UNL A   1      42.826  29.293  34.904  1.00  0.00     0.037 A 
ATOM     50  C   UNL A   1      37.630  32.625  31.582  1.00  0.00     0.037 A 
ATOM     51  C   UNL A   1      42.297  30.440  35.595  1.00  0.00     0.049 A 
ATOM     52  C   UNL A   1      38.117  33.073  32.931  1.00  0.00     0.074 A 
ATOM     53  C   UNL A   1      42.689  30.971  36.811  1.00  0.00     0.029 A 
ATOM     54  N   UNL A   1      41.255  31.231  35.131  1.00  0.00    -0.354 N 
ATOM     55  N   UNL A   1      39.079  32.568  33.667  1.00  0.00    -0.248 NA
ATOM     56  C   UNL A   1      37.445  34.233  33.531  1.00  0.00     0.031 C 
ATOM     57  C   UNL A   1      41.860  32.061  37.100  1.00  0.00     0.029 A 
ATOM     58  C   UNL A   1      40.979  32.236  36.043  1.00  0.00     0.049 A 
ATOM     59  H   UNL A   1      40.781  31.099  34.278  1.00  0.00     0.167 HD
ATOM     60  C   UNL A   1      39.141  33.359  34.809  1.00  0.00     0.074 A 
ATOM     61  C   UNL A   1      38.127  34.384  34.659  1.00  0.00     0.031 C 
ATOM     62  C   UNL A   1      39.963  33.249  35.881  1.00  0.00     0.037 A 
BRANCH  49  63
ATOM     63  C   UNL A   1      43.906  28.481  35.568  1.00  0.00     0.058 A 
ATOM     64  C   UNL A   1      43.603  27.439  36.460  1.00  0.00     0.135 A 
ATOM     65  C   UNL A   1      45.261  28.750  35.318  1.00  0.00     0.135 A 
ATOM     66  F   UNL A   1      42.324  27.145  36.746  1.00  0.00    -0.206 F 
ATOM     67  C   UNL A   1      44.600  26.727  37.117  1.00  0.00     0.059 A 
ATOM     68  C   UNL A   1      46.278  28.031  35.942  1.00  0.00     0.059 A 
ATOM     69  F   UNL A   1      45.610  29.731  34.471  1.00  0.00    -0.206 F 
ATOM     70  C   UNL A   1      45.936  27.037  36.859  1.00  0.00     0.060 A 
BRANCH  70  71
ATOM     71  S   UNL A   1      47.221  26.131  37.746  1.00  0.00     0.124 S 
ATOM     72  O   UNL A   1      48.118  25.758  36.656  1.00  0.00    -0.237 OA
ATOM     73  O   UNL A   1      47.733  27.135  38.672  1.00  0.00    -0.237 OA
ATOM     74  O   UNL A   1      46.492  25.027  38.364  1.00  0.00    -0.744 OA
ENDBRANCH  70  71
ENDBRANCH  49  63
BRANCH  50  75
ATOM     75  C   UNL A   1      36.499  33.308  30.901  1.00  0.00     0.058 A 
ATOM     76  C   UNL A   1      35.186  33.175  31.376  1.00  0.00     0.135 A 
ATOM     77  C   UNL A   1      36.716  34.157  29.804  1.00  0.00     0.135 A 
ATOM     78  F   UNL A   1      34.928  32.370  32.418  1.00  0.00    -0.206 F 
ATOM     79  C   UNL A   1      34.127  33.861  30.790  1.00  0.00     0.059 A 
ATOM     80  C   UNL A   1      35.677  34.869  29.215  1.00  0.00     0.059 A 
ATOM     81  F   UNL A   1      37.957  34.331  29.324  1.00  0.00    -0.206 F 
ATOM     82  C   UNL A   1      34.385  34.714  29.716  1.00  0.00     0.060 A 
BRANCH  82  83
ATOM     83  S   UNL A   1      33.019  35.673  29.023  1.00  0.00     0.124 S 
ATOM     84  O   UNL A   1      33.728  36.756  28.354  1.00  0.00    -0.237 OA
ATOM     85  O   UNL A   1      32.370  34.697  28.152  1.00  0.00    -0.237 OA
ATOM     86  O   UNL A   1      32.247  36.055  30.203  1.00  0.00    -0.744 OA
ENDBRANCH  82  83
ENDBRANCH  50  75
BRANCH  62  87
ATOM     87  C   UNL A   1      39.818  34.272  36.972  1.00  0.00     0.058 A 
ATOM     88  C   UNL A   1      40.431  35.532  36.886  1.00  0.00     0.135 A 
ATOM     89  C   UNL A   1      39.014  34.007  38.092  1.00  0.00     0.135 A 
ATOM     90  F   UNL A   1      41.216  35.832  35.840  1.00  0.00    -0.206 F 
ATOM     91  C   UNL A   1      40.266  36.488  37.884  1.00  0.00     0.059 A 
ATOM     92  C   UNL A   1      38.815  34.958  39.089  1.00  0.00     0.059 A 
ATOM     93  F   UNL A   1      38.398  32.821  38.217  1.00  0.00    -0.206 F 
ATOM     94  C   UNL A   1      39.455  36.192  38.980  1.00  0.00     0.060 A 
BRANCH  94  95
ATOM     95  S   UNL A   1      39.220  37.453  40.251  1.00  0.00     0.124 S 
ATOM     96  O   UNL A   1      38.241  38.329  39.616  1.00  0.00    -0.237 OA
ATOM     97  O   UNL A   1      38.732  36.672  41.383  1.00  0.00    -0.237 OA
ATOM     98  O   UNL A   1      40.555  38.021  40.417  1.00  0.00    -0.744 OA
ENDBRANCH  94  95
ENDBRANCH  62  87
ENDBRANCH  36  37
ENDBRANCH  28  31
ENDBRANCH  26  27
ENDBRANCH   1  26
TORSDOF 16
ENDMDL
MODEL 2
REMARK VINA RESULT:     -12.3      6.921     13.769
REMARK SMILES C[C@@H]1CN(C(=O)Nc2ccc(O)c(C(=O)NCCCNC(=O)c3ccc(-c4c5nc(c(-c6c(F)cc(S(=O)(=O)[O-])cc6F)c6ccc([nH]6)c(-c6c(F)cc(S(=O)(=O)[O-])cc6F)c6nc(c(-c7c(F)cc(S(=O)(=O)[O-])cc7F)c7ccc4[nH]7)C=C6)C=C5)cc3)c2)C[C@@H]1C
REMARK SMILES IDX 18 1 17 2 16 3 14 4 15 5 13 7 8 8 9 9 89 10 10 11 11 12 7 13
REMARK SMILES IDX 5 14 6 15 4 17 1 18 2 19 3 20 91 21 90 22 92 23 12 24 19 26
REMARK SMILES IDX 20 27 21 28 22 30 23 31 24 32 88 33 25 34 87 35 26 36 27 37
REMARK SMILES IDX 28 38 81 39 29 40 86 41 80 42 82 43 30 44 85 45 79 46 78 47
REMARK SMILES IDX 31 49 65 50 44 51 64 52 45 53 48 54 63 55 83 56 46 57 47 58
REMARK SMILES IDX 62 60 84 61 49 62 32 63 33 64 42 65 34 66 35 67 41 68 43 69
REMARK SMILES IDX 36 70 37 71 38 72 39 73 40 74 66 75 67 76 76 77 68 78 69 79
REMARK SMILES IDX 75 80 77 81 70 82 71 83 72 84 73 85 74 86 50 87 51 88 60 89
REMARK SMILES IDX 52 90 53 91 59 92 61 93 54 94 55 95 56 96 57 97 58 98
REMARK H PARENT 16 6 7 16 12 25 20 29 82 48 48 59
REMARK Flexibility Score: inf
ROOT
ATOM      1  C   UNL A   1      33.828  29.035  27.220  1.00  0.00     0.042 C 
ENDROOT
BRANCH   1   2
ATOM      2  C   UNL A   1      33.166  29.838  26.102  1.00  0.00     0.118 C 
BRANCH   2   3
ATOM      3  N   UNL A   1      33.638  29.421  24.797  1.00  0.00    -0.352 N 
ATOM      4  C   UNL A   1      33.137  28.552  23.865  1.00  0.00     0.255 C 
ATOM      5  O   UNL A   1      33.771  28.462  22.809  1.00  0.00    -0.269 OA
ATOM      6  H   UNL A   1      34.484  29.847  24.527  1.00  0.00     0.163 HD
BRANCH   4   7
ATOM      7  C   UNL A   1      31.865  27.777  23.980  1.00  0.00     0.083 A 
ATOM      8  C   UNL A   1      30.661  26.186  25.391  1.00  0.00     0.043 A 
ATOM      9  C   UNL A   1      29.529  26.319  24.597  1.00  0.00     0.030 A 
ATOM     10  C   UNL A   1      31.783  26.974  25.137  1.00  0.00     0.044 A 
ATOM     11  C   UNL A   1      29.582  27.107  23.454  1.00  0.00     0.049 A 
ATOM     12  C   UNL A   1      30.753  27.803  23.128  1.00  0.00     0.128 A 
BRANCH   8  13
ATOM     13  N   UNL A   1      30.714  25.274  26.446  1.00  0.00    -0.308 N 
ATOM     14  C   UNL A   1      31.038  23.950  26.469  1.00  0.00     0.321 C 
ATOM     15  O   UNL A   1      30.671  23.293  27.448  1.00  0.00    -0.248 OA
ATOM     16  H   UNL A   1      30.477  25.650  27.324  1.00  0.00     0.171 HD
BRANCH  14  17
ATOM     17  N   UNL A   1      31.884  23.417  25.524  1.00  0.00    -0.324 N 
ATOM     18  C   UNL A   1      33.280  23.356  22.085  1.00  0.00     0.010 C 
ATOM     19  C   UNL A   1      33.073  22.909  23.522  1.00  0.00     0.010 C 
ATOM     20  C   UNL A   1      31.716  23.336  24.074  1.00  0.00     0.125 C 
ATOM     21  C   UNL A   1      34.056  23.434  24.576  1.00  0.00     0.010 C 
ATOM     22  C   UNL A   1      33.277  23.158  25.872  1.00  0.00     0.125 C 
ATOM     23  C   UNL A   1      34.393  24.921  24.440  1.00  0.00     0.010 C 
ENDBRANCH  14  17
ENDBRANCH   8  13
BRANCH  12  24
ATOM     24  O   UNL A   1      30.730  28.512  21.970  1.00  0.00    -0.507 OA
ATOM     25  H   UNL A   1      31.102  28.148  21.190  1.00  0.00     0.293 HD
ENDBRANCH  12  24
ENDBRANCH   4   7
ENDBRANCH   2   3
ENDBRANCH   1   2
BRANCH   1  26
ATOM     26  C   UNL A   1      35.229  29.499  27.590  1.00  0.00     0.118 C 
BRANCH  26  27
ATOM     27  N   UNL A   1      35.257  30.220  28.851  1.00  0.00    -0.352 N 
ATOM     28  C   UNL A   1      36.279  30.378  29.756  1.00  0.00     0.251 C 
ATOM     29  H   UNL A   1      34.412  30.665  29.095  1.00  0.00     0.163 HD
ATOM     30  O   UNL A   1      36.023  30.840  30.866  1.00  0.00    -0.269 OA
BRANCH  28  31
ATOM     31  C   UNL A   1      37.670  29.990  29.419  1.00  0.00     0.039 A 
ATOM     32  C   UNL A   1      38.539  29.640  30.460  1.00  0.00     0.014 A 
ATOM     33  C   UNL A   1      38.145  30.016  28.105  1.00  0.00     0.014 A 
ATOM     34  C   UNL A   1      39.858  29.273  30.178  1.00  0.00     0.010 A 
ATOM     35  C   UNL A   1      39.434  29.573  27.817  1.00  0.00     0.010 A 
ATOM     36  C   UNL A   1      40.311  29.211  28.851  1.00  0.00    -0.014 A 
BRANCH  36  37
ATOM     37  C   UNL A   1      41.697  28.786  28.525  1.00  0.00     0.031 A 
ATOM     38  C   UNL A   1      42.811  29.797  28.493  1.00  0.00     0.074 A 
ATOM     39  C   UNL A   1      41.941  27.504  28.192  1.00  0.00     0.049 A 
ATOM     40  N   UNL A   1      44.068  29.636  28.164  1.00  0.00    -0.248 NA
ATOM     41  C   UNL A   1      42.460  31.181  28.852  1.00  0.00     0.031 C 
ATOM     42  C   UNL A   1      40.936  26.441  28.134  1.00  0.00     0.029 A 
ATOM     43  N   UNL A   1      43.106  26.879  27.825  1.00  0.00    -0.354 N 
ATOM     44  C   UNL A   1      44.649  30.894  28.258  1.00  0.00     0.074 A 
ATOM     45  C   UNL A   1      43.599  31.818  28.625  1.00  0.00     0.031 C 
ATOM     46  C   UNL A   1      41.530  25.294  27.768  1.00  0.00     0.029 A 
ATOM     47  C   UNL A   1      42.949  25.545  27.532  1.00  0.00     0.049 A 
ATOM     48  H   UNL A   1      43.974  27.342  27.777  1.00  0.00     0.167 HD
ATOM     49  C   UNL A   1      45.947  31.246  28.077  1.00  0.00     0.037 A 
ATOM     50  C   UNL A   1      43.842  24.629  27.112  1.00  0.00     0.037 A 
ATOM     51  C   UNL A   1      46.992  30.317  27.732  1.00  0.00     0.049 A 
ATOM     52  C   UNL A   1      45.278  25.033  26.933  1.00  0.00     0.074 A 
ATOM     53  C   UNL A   1      48.345  30.559  27.582  1.00  0.00     0.029 A 
ATOM     54  N   UNL A   1      46.797  28.967  27.477  1.00  0.00    -0.354 N 
ATOM     55  N   UNL A   1      45.826  26.215  27.089  1.00  0.00    -0.248 NA
ATOM     56  C   UNL A   1      46.222  23.980  26.532  1.00  0.00     0.031 C 
ATOM     57  C   UNL A   1      48.964  29.363  27.200  1.00  0.00     0.029 A 
ATOM     58  C   UNL A   1      48.003  28.366  27.154  1.00  0.00     0.049 A 
ATOM     59  H   UNL A   1      45.929  28.503  27.519  1.00  0.00     0.167 HD
ATOM     60  C   UNL A   1      47.180  26.046  26.823  1.00  0.00     0.074 A 
ATOM     61  C   UNL A   1      47.370  24.644  26.509  1.00  0.00     0.031 C 
ATOM     62  C   UNL A   1      48.175  26.968  26.840  1.00  0.00     0.037 A 
BRANCH  49  63
ATOM     63  C   UNL A   1      46.296  32.700  28.248  1.00  0.00     0.058 A 
ATOM     64  C   UNL A   1      46.730  33.214  29.481  1.00  0.00     0.135 A 
ATOM     65  C   UNL A   1      46.193  33.593  27.170  1.00  0.00     0.135 A 
ATOM     66  F   UNL A   1      46.835  32.408  30.550  1.00  0.00    -0.206 F 
ATOM     67  C   UNL A   1      46.998  34.568  29.654  1.00  0.00     0.059 A 
ATOM     68  C   UNL A   1      46.485  34.948  27.311  1.00  0.00     0.059 A 
ATOM     69  F   UNL A   1      45.790  33.157  25.966  1.00  0.00    -0.206 F 
ATOM     70  C   UNL A   1      46.863  35.430  28.564  1.00  0.00     0.060 A 
BRANCH  70  71
ATOM     71  S   UNL A   1      47.179  37.190  28.810  1.00  0.00     0.124 S 
ATOM     72  O   UNL A   1      46.437  37.448  30.040  1.00  0.00    -0.237 OA
ATOM     73  O   UNL A   1      48.633  37.235  28.926  1.00  0.00    -0.237 OA
ATOM     74  O   UNL A   1      46.631  37.804  27.604  1.00  0.00    -0.744 OA
ENDBRANCH  70  71
ENDBRANCH  49  63
BRANCH  50  75
ATOM     75  C   UNL A   1      43.394  23.234  26.864  1.00  0.00     0.058 A 
ATOM     76  C   UNL A   1      43.309  22.726  25.559  1.00  0.00     0.135 A 
ATOM     77  C   UNL A   1      43.102  22.364  27.926  1.00  0.00     0.135 A 
ATOM     78  F   UNL A   1      43.572  23.522  24.511  1.00  0.00    -0.206 F 
ATOM     79  C   UNL A   1      42.955  21.403  25.315  1.00  0.00     0.059 A 
ATOM     80  C   UNL A   1      42.766  21.031  27.708  1.00  0.00     0.059 A 
ATOM     81  F   UNL A   1      43.185  22.798  29.192  1.00  0.00    -0.206 F 
ATOM     82  C   UNL A   1      42.695  20.561  26.397  1.00  0.00     0.060 A 
BRANCH  82  83
ATOM     83  S   UNL A   1      42.330  18.821  26.073  1.00  0.00     0.124 S 
ATOM     84  O   UNL A   1      43.268  18.517  25.000  1.00  0.00    -0.237 OA
ATOM     85  O   UNL A   1      42.614  18.203  27.365  1.00  0.00    -0.237 OA
ATOM     86  O   UNL A   1      40.919  18.839  25.696  1.00  0.00    -0.744 OA
ENDBRANCH  82  83
ENDBRANCH  50  75
BRANCH  62  87
ATOM     87  C   UNL A   1      49.565  26.488  26.530  1.00  0.00     0.058 A 
ATOM     88  C   UNL A   1      50.423  26.016  27.535  1.00  0.00     0.135 A 
ATOM     89  C   UNL A   1      50.025  26.454  25.203  1.00  0.00     0.135 A 
ATOM     90  F   UNL A   1      50.035  26.035  28.819  1.00  0.00    -0.206 F 
ATOM     91  C   UNL A   1      51.698  25.543  27.237  1.00  0.00     0.059 A 
ATOM     92  C   UNL A   1      51.286  25.962  24.881  1.00  0.00     0.059 A 
ATOM     93  F   UNL A   1      49.239  26.886  24.204  1.00  0.00    -0.206 F 
ATOM     94  C   UNL A   1      52.119  25.519  25.907  1.00  0.00     0.060 A 
BRANCH  94  95
ATOM     95  S   UNL A   1      53.762  24.870  25.530  1.00  0.00     0.124 S 
ATOM     96  O   UNL A   1      54.195  25.771  24.467  1.00  0.00    -0.237 OA
ATOM     97  O   UNL A   1      54.457  25.014  26.805  1.00  0.00    -0.237 OA
ATOM     98  O   UNL A   1      53.497  23.494  25.119  1.00  0.00    -0.744 OA
ENDBRANCH  94  95
ENDBRANCH  62  87
ENDBRANCH  36  37
ENDBRANCH  28  31
ENDBRANCH  26  27
ENDBRANCH   1  26
TORSDOF 16
ENDMDL
MODEL 3
REMARK VINA RESULT:     -12.2      4.186      6.210
REMARK SMILES C[C@@H]1CN(C(=O)Nc2ccc(O)c(C(=O)NCCCNC(=O)c3ccc(-c4c5nc(c(-c6c(F)cc(S(=O)(=O)[O-])cc6F)c6ccc([nH]6)c(-c6c(F)cc(S(=O)(=O)[O-])cc6F)c6nc(c(-c7c(F)cc(S(=O)(=O)[O-])cc7F)c7ccc4[nH]7)C=C6)C=C5)cc3)c2)C[C@@H]1C
REMARK SMILES IDX 18 1 17 2 16 3 14 4 15 5 13 7 8 8 9 9 89 10 10 11 11 12 7 13
REMARK SMILES IDX 5 14 6 15 4 17 1 18 2 19 3 20 91 21 90 22 92 23 12 24 19 26
REMARK SMILES IDX 20 27 21 28 22 30 23 31 24 32 88 33 25 34 87 35 26 36 27 37
REMARK SMILES IDX 28 38 81 39 29 40 86 41 80 42 82 43 30 44 85 45 79 46 78 47
REMARK SMILES IDX 31 49 65 50 44 51 64 52 45 53 48 54 63 55 83 56 46 57 47 58
REMARK SMILES IDX 62 60 84 61 49 62 32 63 33 64 42 65 34 66 35 67 41 68 43 69
REMARK SMILES IDX 36 70 37 71 38 72 39 73 40 74 66 75 67 76 76 77 68 78 69 79
REMARK SMILES IDX 75 80 77 81 70 82 71 83 72 84 73 85 74 86 50 87 51 88 60 89
REMARK SMILES IDX 52 90 53 91 59 92 61 93 54 94 55 95 56 96 57 97 58 98
REMARK H PARENT 16 6 7 16 12 25 20 29 82 48 48 59
REMARK Flexibility Score: inf
ROOT
ATOM      1  C   UNL A   1      37.492  23.356  25.548  1.00  0.00     0.042 C 
ENDROOT
BRANCH   1   2
ATOM      2  C   UNL A   1      36.077  23.110  26.070  1.00  0.00     0.118 C 
BRANCH   2   3
ATOM      3  N   UNL A   1      35.623  21.769  25.762  1.00  0.00    -0.352 N 
ATOM      4  C   UNL A   1      34.481  21.289  25.179  1.00  0.00     0.255 C 
ATOM      5  O   UNL A   1      34.428  20.067  25.010  1.00  0.00    -0.269 OA
ATOM      6  H   UNL A   1      36.260  21.066  26.023  1.00  0.00     0.163 HD
BRANCH   4   7
ATOM      7  C   UNL A   1      33.346  22.111  24.660  1.00  0.00     0.083 A 
ATOM      8  C   UNL A   1      32.593  23.417  22.737  1.00  0.00     0.043 A 
ATOM      9  C   UNL A   1      31.337  23.561  23.310  1.00  0.00     0.030 A 
ATOM     10  C   UNL A   1      33.556  22.626  23.364  1.00  0.00     0.044 A 
ATOM     11  C   UNL A   1      31.103  23.059  24.585  1.00  0.00     0.049 A 
ATOM     12  C   UNL A   1      32.112  22.371  25.270  1.00  0.00     0.128 A 
BRANCH   8  13
ATOM     13  N   UNL A   1      32.930  24.051  21.540  1.00  0.00    -0.308 N 
ATOM     14  C   UNL A   1      32.771  25.344  21.136  1.00  0.00     0.321 C 
ATOM     15  O   UNL A   1      32.824  25.569  19.923  1.00  0.00    -0.248 OA
ATOM     16  H   UNL A   1      33.355  23.466  20.873  1.00  0.00     0.171 HD
BRANCH  14  17
ATOM     17  N   UNL A   1      32.726  26.366  22.054  1.00  0.00    -0.324 N 
ATOM     18  C   UNL A   1      31.234  27.975  25.049  1.00  0.00     0.010 C 
ATOM     19  C   UNL A   1      32.160  27.823  23.854  1.00  0.00     0.010 C 
ATOM     20  C   UNL A   1      31.579  26.906  22.781  1.00  0.00     0.125 C 
ATOM     21  C   UNL A   1      33.549  27.223  24.105  1.00  0.00     0.010 C 
ATOM     22  C   UNL A   1      33.962  26.825  22.680  1.00  0.00     0.125 C 
ATOM     23  C   UNL A   1      33.555  26.013  25.042  1.00  0.00     0.010 C 
ENDBRANCH  14  17
ENDBRANCH   8  13
BRANCH  12  24
ATOM     24  O   UNL A   1      31.811  21.955  26.527  1.00  0.00    -0.507 OA
ATOM     25  H   UNL A   1      31.615  22.584  27.195  1.00  0.00     0.293 HD
ENDBRANCH  12  24
ENDBRANCH   4   7
ENDBRANCH   2   3
ENDBRANCH   1   2
BRANCH   1  26
ATOM     26  C   UNL A   1      38.399  24.112  26.508  1.00  0.00     0.118 C 
BRANCH  26  27
ATOM     27  N   UNL A   1      39.801  24.003  26.143  1.00  0.00    -0.352 N 
ATOM     28  C   UNL A   1      40.873  24.776  26.517  1.00  0.00     0.251 C 
ATOM     29  H   UNL A   1      40.016  23.260  25.533  1.00  0.00     0.163 HD
ATOM     30  O   UNL A   1      41.938  24.646  25.917  1.00  0.00    -0.269 OA
BRANCH  28  31
ATOM     31  C   UNL A   1      40.761  25.766  27.617  1.00  0.00     0.039 A 
ATOM     32  C   UNL A   1      41.740  26.760  27.727  1.00  0.00     0.014 A 
ATOM     33  C   UNL A   1      39.740  25.696  28.568  1.00  0.00     0.014 A 
ATOM     34  C   UNL A   1      41.667  27.706  28.753  1.00  0.00     0.010 A 
ATOM     35  C   UNL A   1      39.622  26.686  29.542  1.00  0.00     0.010 A 
ATOM     36  C   UNL A   1      40.592  27.693  29.656  1.00  0.00    -0.014 A 
BRANCH  36  37
ATOM     37  C   UNL A   1      40.473  28.712  30.731  1.00  0.00     0.031 A 
ATOM     38  C   UNL A   1      41.328  28.613  31.966  1.00  0.00     0.074 A 
ATOM     39  C   UNL A   1      39.548  29.686  30.628  1.00  0.00     0.049 A 
ATOM     40  N   UNL A   1      41.320  29.361  33.040  1.00  0.00    -0.248 NA
ATOM     41  C   UNL A   1      42.301  27.510  32.010  1.00  0.00     0.031 C 
ATOM     42  C   UNL A   1      38.623  29.857  29.506  1.00  0.00     0.029 A 
ATOM     43  N   UNL A   1      39.223  30.707  31.484  1.00  0.00    -0.354 N 
ATOM     44  C   UNL A   1      42.270  28.810  33.892  1.00  0.00     0.074 A 
ATOM     45  C   UNL A   1      42.798  27.636  33.232  1.00  0.00     0.031 C 
ATOM     46  C   UNL A   1      37.845  30.926  29.736  1.00  0.00     0.029 A 
ATOM     47  C   UNL A   1      38.190  31.497  31.035  1.00  0.00     0.049 A 
ATOM     48  H   UNL A   1      39.685  30.862  32.340  1.00  0.00     0.167 HD
ATOM     49  C   UNL A   1      42.683  29.253  35.105  1.00  0.00     0.037 A 
ATOM     50  C   UNL A   1      37.583  32.555  31.607  1.00  0.00     0.037 A 
ATOM     51  C   UNL A   1      42.168  30.435  35.748  1.00  0.00     0.049 A 
ATOM     52  C   UNL A   1      38.065  33.043  32.944  1.00  0.00     0.074 A 
ATOM     53  C   UNL A   1      42.557  31.003  36.947  1.00  0.00     0.029 A 
ATOM     54  N   UNL A   1      41.146  31.227  35.244  1.00  0.00    -0.354 N 
ATOM     55  N   UNL A   1      39.010  32.549  33.708  1.00  0.00    -0.248 NA
ATOM     56  C   UNL A   1      37.409  34.237  33.493  1.00  0.00     0.031 C 
ATOM     57  C   UNL A   1      41.745  32.118  37.187  1.00  0.00     0.029 A 
ATOM     58  C   UNL A   1      40.879  32.270  36.116  1.00  0.00     0.049 A 
ATOM     59  H   UNL A   1      40.678  31.072  34.391  1.00  0.00     0.167 HD
ATOM     60  C   UNL A   1      39.074  33.380  34.821  1.00  0.00     0.074 A 
ATOM     61  C   UNL A   1      38.081  34.417  34.622  1.00  0.00     0.031 C 
ATOM     62  C   UNL A   1      39.884  33.294  35.905  1.00  0.00     0.037 A 
BRANCH  49  63
ATOM     63  C   UNL A   1      43.741  28.448  35.811  1.00  0.00     0.058 A 
ATOM     64  C   UNL A   1      43.409  27.423  36.713  1.00  0.00     0.135 A 
ATOM     65  C   UNL A   1      45.103  28.704  35.589  1.00  0.00     0.135 A 
ATOM     66  F   UNL A   1      42.121  27.143  36.972  1.00  0.00    -0.206 F 
ATOM     67  C   UNL A   1      44.385  26.718  37.407  1.00  0.00     0.059 A 
ATOM     68  C   UNL A   1      46.099  27.990  36.251  1.00  0.00     0.059 A 
ATOM     69  F   UNL A   1      45.480  29.667  34.733  1.00  0.00    -0.206 F 
ATOM     70  C   UNL A   1      45.729  27.015  37.177  1.00  0.00     0.060 A 
BRANCH  70  71
ATOM     71  S   UNL A   1      46.986  26.117  38.111  1.00  0.00     0.124 S 
ATOM     72  O   UNL A   1      46.714  26.570  39.472  1.00  0.00    -0.237 OA
ATOM     73  O   UNL A   1      46.653  24.724  37.829  1.00  0.00    -0.237 OA
ATOM     74  O   UNL A   1      48.240  26.587  37.531  1.00  0.00    -0.744 OA
ENDBRANCH  70  71
ENDBRANCH  49  63
BRANCH  50  75
ATOM     75  C   UNL A   1      36.473  33.233  30.889  1.00  0.00     0.058 A 
ATOM     76  C   UNL A   1      35.154  33.146  31.357  1.00  0.00     0.135 A 
ATOM     77  C   UNL A   1      36.716  34.031  29.760  1.00  0.00     0.135 A 
ATOM     78  F   UNL A   1      34.871  32.390  32.429  1.00  0.00    -0.206 F 
ATOM     79  C   UNL A   1      34.114  33.829  30.735  1.00  0.00     0.059 A 
ATOM     80  C   UNL A   1      35.696  34.740  29.133  1.00  0.00     0.059 A 
ATOM     81  F   UNL A   1      37.964  34.159  29.284  1.00  0.00    -0.206 F 
ATOM     82  C   UNL A   1      34.397  34.632  29.629  1.00  0.00     0.060 A 
BRANCH  82  83
ATOM     83  S   UNL A   1      33.057  35.590  28.887  1.00  0.00     0.124 S 
ATOM     84  O   UNL A   1      33.795  36.613  28.156  1.00  0.00    -0.237 OA
ATOM     85  O   UNL A   1      32.377  34.586  28.073  1.00  0.00    -0.237 OA
ATOM     86  O   UNL A   1      32.301  36.060  30.045  1.00  0.00    -0.744 OA
ENDBRANCH  82  83
ENDBRANCH  50  75
BRANCH  62  87
ATOM     87  C   UNL A   1      39.746  34.360  36.956  1.00  0.00     0.058 A 
ATOM     88  C   UNL A   1      38.968  34.163  38.106  1.00  0.00     0.135 A 
ATOM     89  C   UNL A   1      40.443  35.573  36.833  1.00  0.00     0.135 A 
ATOM     90  F   UNL A   1      38.275  33.025  38.268  1.00  0.00    -0.206 F 
ATOM     91  C   UNL A   1      38.869  35.142  39.091  1.00  0.00     0.059 A 
ATOM     92  C   UNL A   1      40.380  36.554  37.818  1.00  0.00     0.059 A 
ATOM     93  F   UNL A   1      41.210  35.806  35.755  1.00  0.00    -0.206 F 
ATOM     94  C   UNL A   1      39.581  36.333  38.938  1.00  0.00     0.060 A 
BRANCH  94  95
ATOM     95  S   UNL A   1      39.474  37.579  40.240  1.00  0.00     0.124 S 
ATOM     96  O   UNL A   1      38.854  36.821  41.322  1.00  0.00    -0.237 OA
ATOM     97  O   UNL A   1      40.873  37.943  40.442  1.00  0.00    -0.237 OA
ATOM     98  O   UNL A   1      38.641  38.621  39.646  1.00  0.00    -0.744 OA
ENDBRANCH  94  95
ENDBRANCH  62  87
ENDBRANCH  36  37
ENDBRANCH  28  31
ENDBRANCH  26  27
ENDBRANCH   1  26
TORSDOF 16
ENDMDL
