MODEL 1
REMARK VINA RESULT:     -10.1      0.000      0.000
REMARK SMILES C[C@@H]1CCC[C@H](C)[N@H+]1Cc1cc2c(cc1Cl)C=C(C(=O)NCCCNC(=O)c1ccc(-c3c4nc(c(-c5c(F)cc(S(=O)(=O)[O-])cc5F)c5ccc([nH]5)c(-c5c(F)cc(S(=O)(=O)[O-])cc5F)c5nc(c(-c6c(F)cc(S(=O)(=O)[O-])cc6F)c6ccc3[nH]6)C=C5)C=C4)cc1)[C@@H](C(F)(F)F)O2
REMARK SMILES IDX 23 1 22 2 21 3 19 4 20 5 18 7 10 8 11 9 15 10 12 11 14 12
REMARK SMILES IDX 16 13 13 14 99 15 17 16 94 17 9 18 8 19 7 20 6 21 5 22 4 23
REMARK SMILES IDX 2 24 3 26 1 27 95 28 96 29 97 30 98 31 24 32 25 33 26 34
REMARK SMILES IDX 27 36 28 37 29 38 93 39 30 40 92 41 31 42 32 43 33 44 86 45
REMARK SMILES IDX 34 46 91 47 85 48 87 49 35 50 90 51 84 52 83 53 36 55 70 56
REMARK SMILES IDX 49 57 69 58 50 59 53 60 68 61 88 62 51 63 52 64 67 66 89 67
REMARK SMILES IDX 54 68 37 69 38 70 47 71 39 72 40 73 46 74 48 75 41 76 42 77
REMARK SMILES IDX 43 78 44 79 45 80 71 81 72 82 81 83 73 84 74 85 80 86 82 87
REMARK SMILES IDX 75 88 76 89 77 90 78 91 79 92 55 93 56 94 65 95 57 96 58 97
REMARK SMILES IDX 64 98 66 99 59 100 60 101 61 102 62 103 63 104
REMARK H PARENT 21 6 8 25 25 35 87 54 53 65
REMARK Flexibility Score: inf
ROOT
ATOM      1  C   UNL A   1      34.854  33.066  30.287  1.00  0.00     0.042 C 
ENDROOT
BRANCH   1   2
ATOM      2  C   UNL A   1      35.950  34.049  30.665  1.00  0.00     0.118 C 
BRANCH   2   3
ATOM      3  N   UNL A   1      35.771  34.561  32.014  1.00  0.00    -0.352 N 
ATOM      4  C   UNL A   1      36.302  34.318  33.233  1.00  0.00     0.251 C 
ATOM      5  O   UNL A   1      35.893  35.045  34.144  1.00  0.00    -0.270 OA
ATOM      6  H   UNL A   1      35.087  35.268  32.049  1.00  0.00     0.163 HD
BRANCH   4   7
ATOM      7  C   UNL A   1      37.304  33.261  33.528  1.00  0.00     0.067 C 
ATOM      8  C   UNL A   1      40.244  29.208  33.013  1.00  0.00     0.029 A 
ATOM      9  C   UNL A   1      40.448  30.519  33.479  1.00  0.00     0.058 A 
ATOM     10  C   UNL A   1      38.921  28.786  32.788  1.00  0.00     0.050 A 
ATOM     11  C   UNL A   1      39.389  31.417  33.529  1.00  0.00     0.128 A 
ATOM     12  C   UNL A   1      37.870  29.709  32.787  1.00  0.00     0.033 A 
ATOM     13  Cl  UNL A   1      38.506  27.137  32.478  1.00  0.00    -0.084 Cl
ATOM     14  C   UNL A   1      38.116  31.041  33.104  1.00  0.00     0.019 A 
ATOM     15  O   UNL A   1      39.671  32.691  33.940  1.00  0.00    -0.475 OA
ATOM     16  C   UNL A   1      37.104  32.074  32.925  1.00  0.00     0.025 C 
ATOM     17  C   UNL A   1      38.510  33.436  34.406  1.00  0.00     0.314 C 
BRANCH   8  18
ATOM     18  C   UNL A   1      41.461  28.374  32.672  1.00  0.00     0.301 C 
BRANCH  18  19
ATOM     19  N   UNL A   1      42.417  28.126  33.778  1.00  0.00    -0.327 N 
ATOM     20  C   UNL A   1      44.855  28.319  34.159  1.00  0.00     0.075 C 
ATOM     21  C   UNL A   1      43.739  27.618  33.370  1.00  0.00     0.181 C 
ATOM     22  C   UNL A   1      43.903  26.090  33.464  1.00  0.00     0.065 C 
ATOM     23  C   UNL A   1      43.394  25.510  34.774  1.00  0.00     0.012 C 
ATOM     24  C   UNL A   1      41.822  27.512  34.975  1.00  0.00     0.181 C 
ATOM     25  H   UNL A   1      42.656  29.061  34.107  1.00  0.00     0.348 HD
ATOM     26  C   UNL A   1      41.976  25.984  35.058  1.00  0.00     0.065 C 
ATOM     27  C   UNL A   1      42.333  28.180  36.259  1.00  0.00     0.075 C 
ENDBRANCH  18  19
ENDBRANCH   8  18
BRANCH  17  28
ATOM     28  C   UNL A   1      38.196  33.081  35.878  1.00  0.00     0.429 C 
ATOM     29  F   UNL A   1      39.325  32.735  36.542  1.00  0.00    -0.167 F 
ATOM     30  F   UNL A   1      37.656  34.128  36.552  1.00  0.00    -0.167 F 
ATOM     31  F   UNL A   1      37.321  32.058  36.005  1.00  0.00    -0.167 F 
ENDBRANCH  17  28
ENDBRANCH   4   7
ENDBRANCH   2   3
ENDBRANCH   1   2
BRANCH   1  32
ATOM     32  C   UNL A   1      34.734  32.890  28.782  1.00  0.00     0.118 C 
BRANCH  32  33
ATOM     33  N   UNL A   1      33.865  31.769  28.427  1.00  0.00    -0.352 N 
ATOM     34  C   UNL A   1      34.185  30.494  28.025  1.00  0.00     0.251 C 
ATOM     35  H   UNL A   1      32.901  31.957  28.484  1.00  0.00     0.163 HD
ATOM     36  O   UNL A   1      33.317  29.771  27.543  1.00  0.00    -0.269 OA
BRANCH  34  37
ATOM     37  C   UNL A   1      35.574  30.011  28.156  1.00  0.00     0.039 A 
ATOM     38  C   UNL A   1      36.017  29.492  29.372  1.00  0.00     0.014 A 
ATOM     39  C   UNL A   1      36.446  30.093  27.068  1.00  0.00     0.014 A 
ATOM     40  C   UNL A   1      37.370  29.261  29.564  1.00  0.00     0.010 A 
ATOM     41  C   UNL A   1      37.789  29.743  27.231  1.00  0.00     0.010 A 
ATOM     42  C   UNL A   1      38.274  29.377  28.496  1.00  0.00    -0.014 A 
BRANCH  42  43
ATOM     43  C   UNL A   1      39.716  29.115  28.745  1.00  0.00     0.031 A 
ATOM     44  C   UNL A   1      40.572  30.130  29.455  1.00  0.00     0.074 A 
ATOM     45  C   UNL A   1      40.227  27.915  28.403  1.00  0.00     0.049 A 
ATOM     46  N   UNL A   1      41.841  30.058  29.770  1.00  0.00    -0.248 NA
ATOM     47  C   UNL A   1      39.928  31.389  29.863  1.00  0.00     0.031 C 
ATOM     48  C   UNL A   1      39.483  26.844  27.731  1.00  0.00     0.029 A 
ATOM     49  N   UNL A   1      41.469  27.373  28.607  1.00  0.00    -0.354 N 
ATOM     50  C   UNL A   1      42.151  31.263  30.391  1.00  0.00     0.074 A 
ATOM     51  C   UNL A   1      40.945  32.062  30.384  1.00  0.00     0.031 C 
ATOM     52  C   UNL A   1      40.256  25.752  27.654  1.00  0.00     0.029 A 
ATOM     53  C   UNL A   1      41.575  26.067  28.189  1.00  0.00     0.049 A 
ATOM     54  H   UNL A   1      42.214  27.871  29.014  1.00  0.00     0.167 HD
ATOM     55  C   UNL A   1      43.329  31.658  30.929  1.00  0.00     0.037 A 
ATOM     56  C   UNL A   1      42.620  25.220  28.217  1.00  0.00     0.037 A 
ATOM     57  C   UNL A   1      44.516  30.843  30.956  1.00  0.00     0.049 A 
ATOM     58  C   UNL A   1      43.927  25.702  28.774  1.00  0.00     0.074 A 
ATOM     59  C   UNL A   1      45.762  31.154  31.474  1.00  0.00     0.029 A 
ATOM     60  N   UNL A   1      44.604  29.554  30.451  1.00  0.00    -0.354 N 
ATOM     61  N   UNL A   1      44.209  26.858  29.325  1.00  0.00    -0.248 NA
ATOM     62  C   UNL A   1      45.064  24.776  28.693  1.00  0.00     0.031 C 
ATOM     63  C   UNL A   1      46.612  30.065  31.251  1.00  0.00     0.029 A 
ATOM     64  C   UNL A   1      45.885  29.060  30.632  1.00  0.00     0.049 A 
ATOM     65  H   UNL A   1      43.864  29.062  30.027  1.00  0.00     0.167 HD
ATOM     66  C   UNL A   1      45.555  26.798  29.662  1.00  0.00     0.074 A 
ATOM     67  C   UNL A   1      46.025  25.483  29.272  1.00  0.00     0.031 C 
ATOM     68  C   UNL A   1      46.333  27.749  30.234  1.00  0.00     0.037 A 
BRANCH  55  69
ATOM     69  C   UNL A   1      43.401  33.036  31.530  1.00  0.00     0.058 A 
ATOM     70  C   UNL A   1      43.297  33.243  32.914  1.00  0.00     0.135 A 
ATOM     71  C   UNL A   1      43.631  34.158  30.716  1.00  0.00     0.135 A 
ATOM     72  F   UNL A   1      43.058  32.209  33.736  1.00  0.00    -0.206 F 
ATOM     73  C   UNL A   1      43.402  34.515  33.469  1.00  0.00     0.059 A 
ATOM     74  C   UNL A   1      43.763  35.437  31.252  1.00  0.00     0.059 A 
ATOM     75  F   UNL A   1      43.736  34.017  29.384  1.00  0.00    -0.206 F 
ATOM     76  C   UNL A   1      43.636  35.605  32.629  1.00  0.00     0.060 A 
BRANCH  76  77
ATOM     77  S   UNL A   1      43.779  37.245  33.371  1.00  0.00     0.124 S 
ATOM     78  O   UNL A   1      43.789  38.101  32.188  1.00  0.00    -0.237 OA
ATOM     79  O   UNL A   1      42.578  37.320  34.196  1.00  0.00    -0.237 OA
ATOM     80  O   UNL A   1      45.039  37.178  34.106  1.00  0.00    -0.744 OA
ENDBRANCH  76  77
ENDBRANCH  55  69
BRANCH  56  81
ATOM     81  C   UNL A   1      42.465  23.838  27.692  1.00  0.00     0.058 A 
ATOM     82  C   UNL A   1      42.494  23.584  26.314  1.00  0.00     0.135 A 
ATOM     83  C   UNL A   1      42.326  22.742  28.558  1.00  0.00     0.135 A 
ATOM     84  F   UNL A   1      42.619  24.600  25.446  1.00  0.00    -0.206 F 
ATOM     85  C   UNL A   1      42.390  22.292  25.811  1.00  0.00     0.059 A 
ATOM     86  C   UNL A   1      42.248  21.439  28.080  1.00  0.00     0.059 A 
ATOM     87  F   UNL A   1      42.307  22.932  29.887  1.00  0.00    -0.206 F 
ATOM     88  C   UNL A   1      42.274  21.224  26.704  1.00  0.00     0.060 A 
BRANCH  88  89
ATOM     89  S   UNL A   1      42.205  19.546  26.042  1.00  0.00     0.124 S 
ATOM     90  O   UNL A   1      43.116  19.639  24.908  1.00  0.00    -0.237 OA
ATOM     91  O   UNL A   1      42.674  18.751  27.175  1.00  0.00    -0.237 OA
ATOM     92  O   UNL A   1      40.795  19.373  25.709  1.00  0.00    -0.744 OA
ENDBRANCH  88  89
ENDBRANCH  56  81
BRANCH  68  93
ATOM     93  C   UNL A   1      47.772  27.400  30.482  1.00  0.00     0.058 A 
ATOM     94  C   UNL A   1      48.162  26.672  31.616  1.00  0.00     0.135 A 
ATOM     95  C   UNL A   1      48.760  27.745  29.546  1.00  0.00     0.135 A 
ATOM     96  F   UNL A   1      47.255  26.328  32.543  1.00  0.00    -0.206 F 
ATOM     97  C   UNL A   1      49.489  26.309  31.822  1.00  0.00     0.059 A 
ATOM     98  C   UNL A   1      50.089  27.371  29.720  1.00  0.00     0.059 A 
ATOM     99  F   UNL A   1      48.436  28.434  28.441  1.00  0.00    -0.206 F 
ATOM    100  C   UNL A   1      50.444  26.659  30.865  1.00  0.00     0.060 A 
BRANCH 100 101
ATOM    101  S   UNL A   1      52.153  26.142  31.127  1.00  0.00     0.124 S 
ATOM    102  O   UNL A   1      52.660  26.097  29.759  1.00  0.00    -0.237 OA
ATOM    103  O   UNL A   1      52.679  27.217  31.963  1.00  0.00    -0.237 OA
ATOM    104  O   UNL A   1      52.020  24.848  31.789  1.00  0.00    -0.744 OA
ENDBRANCH 100 101
ENDBRANCH  68  93
ENDBRANCH  42  43
ENDBRANCH  34  37
ENDBRANCH  32  33
ENDBRANCH   1  32
TORSDOF 16
ENDMDL
MODEL 2
REMARK VINA RESULT:      -9.6      0.639      8.035
REMARK SMILES C[C@@H]1CCC[C@H](C)[N@H+]1Cc1cc2c(cc1Cl)C=C(C(=O)NCCCNC(=O)c1ccc(-c3c4nc(c(-c5c(F)cc(S(=O)(=O)[O-])cc5F)c5ccc([nH]5)c(-c5c(F)cc(S(=O)(=O)[O-])cc5F)c5nc(c(-c6c(F)cc(S(=O)(=O)[O-])cc6F)c6ccc3[nH]6)C=C5)C=C4)cc1)[C@@H](C(F)(F)F)O2
REMARK SMILES IDX 23 1 22 2 21 3 19 4 20 5 18 7 10 8 11 9 15 10 12 11 14 12
REMARK SMILES IDX 16 13 13 14 99 15 17 16 94 17 9 18 8 19 7 20 6 21 5 22 4 23
REMARK SMILES IDX 2 24 3 26 1 27 95 28 96 29 97 30 98 31 24 32 25 33 26 34
REMARK SMILES IDX 27 36 28 37 29 38 93 39 30 40 92 41 31 42 32 43 33 44 86 45
REMARK SMILES IDX 34 46 91 47 85 48 87 49 35 50 90 51 84 52 83 53 36 55 70 56
REMARK SMILES IDX 49 57 69 58 50 59 53 60 68 61 88 62 51 63 52 64 67 66 89 67
REMARK SMILES IDX 54 68 37 69 38 70 47 71 39 72 40 73 46 74 48 75 41 76 42 77
REMARK SMILES IDX 43 78 44 79 45 80 71 81 72 82 81 83 73 84 74 85 80 86 82 87
REMARK SMILES IDX 75 88 76 89 77 90 78 91 79 92 55 93 56 94 65 95 57 96 58 97
REMARK SMILES IDX 64 98 66 99 59 100 60 101 61 102 62 103 63 104
REMARK H PARENT 21 6 8 25 25 35 87 54 53 65
REMARK Flexibility Score: inf
ROOT
ATOM      1  C   UNL A   1      34.757  33.129  30.075  1.00  0.00     0.042 C 
ENDROOT
BRANCH   1   2
ATOM      2  C   UNL A   1      35.979  33.959  30.437  1.00  0.00     0.118 C 
BRANCH   2   3
ATOM      3  N   UNL A   1      35.860  34.537  31.766  1.00  0.00    -0.352 N 
ATOM      4  C   UNL A   1      36.446  34.353  32.971  1.00  0.00     0.251 C 
ATOM      5  O   UNL A   1      36.078  35.125  33.863  1.00  0.00    -0.270 OA
ATOM      6  H   UNL A   1      35.177  35.245  31.797  1.00  0.00     0.163 HD
BRANCH   4   7
ATOM      7  C   UNL A   1      37.462  33.311  33.271  1.00  0.00     0.067 C 
ATOM      8  C   UNL A   1      40.370  29.227  32.831  1.00  0.00     0.029 A 
ATOM      9  C   UNL A   1      40.598  30.560  33.211  1.00  0.00     0.058 A 
ATOM     10  C   UNL A   1      39.037  28.797  32.698  1.00  0.00     0.050 A 
ATOM     11  C   UNL A   1      39.543  31.463  33.266  1.00  0.00     0.128 A 
ATOM     12  C   UNL A   1      37.987  29.722  32.700  1.00  0.00     0.033 A 
ATOM     13  Cl  UNL A   1      38.606  27.135  32.502  1.00  0.00    -0.084 Cl
ATOM     14  C   UNL A   1      38.250  31.069  32.929  1.00  0.00     0.019 A 
ATOM     15  O   UNL A   1      39.847  32.757  33.591  1.00  0.00    -0.475 OA
ATOM     16  C   UNL A   1      37.230  32.093  32.746  1.00  0.00     0.025 C 
ATOM     17  C   UNL A   1      38.712  33.531  34.075  1.00  0.00     0.314 C 
BRANCH   8  18
ATOM     18  C   UNL A   1      41.567  28.371  32.473  1.00  0.00     0.301 C 
BRANCH  18  19
ATOM     19  N   UNL A   1      42.303  27.767  33.610  1.00  0.00    -0.327 N 
ATOM     20  C   UNL A   1      41.870  26.088  35.377  1.00  0.00     0.075 C 
ATOM     21  C   UNL A   1      41.488  27.459  34.800  1.00  0.00     0.181 C 
ATOM     22  C   UNL A   1      41.528  28.530  35.905  1.00  0.00     0.065 C 
ATOM     23  C   UNL A   1      42.935  29.012  36.226  1.00  0.00     0.012 C 
ATOM     24  C   UNL A   1      43.630  28.350  33.860  1.00  0.00     0.181 C 
ATOM     25  H   UNL A   1      42.534  26.829  33.280  1.00  0.00     0.348 HD
ATOM     26  C   UNL A   1      43.663  29.429  34.956  1.00  0.00     0.065 C 
ATOM     27  C   UNL A   1      44.677  27.261  34.137  1.00  0.00     0.075 C 
ENDBRANCH  18  19
ENDBRANCH   8  18
BRANCH  17  28
ATOM     28  C   UNL A   1      38.475  33.259  35.579  1.00  0.00     0.429 C 
ATOM     29  F   UNL A   1      38.221  34.412  36.243  1.00  0.00    -0.167 F 
ATOM     30  F   UNL A   1      37.408  32.448  35.789  1.00  0.00    -0.167 F 
ATOM     31  F   UNL A   1      39.527  32.665  36.186  1.00  0.00    -0.167 F 
ENDBRANCH  17  28
ENDBRANCH   4   7
ENDBRANCH   2   3
ENDBRANCH   1   2
BRANCH   1  32
ATOM     32  C   UNL A   1      34.636  32.913  28.574  1.00  0.00     0.118 C 
BRANCH  32  33
ATOM     33  N   UNL A   1      33.776  31.776  28.252  1.00  0.00    -0.352 N 
ATOM     34  C   UNL A   1      34.105  30.483  27.920  1.00  0.00     0.251 C 
ATOM     35  H   UNL A   1      32.811  31.965  28.276  1.00  0.00     0.163 HD
ATOM     36  O   UNL A   1      33.250  29.737  27.451  1.00  0.00    -0.269 OA
BRANCH  34  37
ATOM     37  C   UNL A   1      35.490  30.008  28.109  1.00  0.00     0.039 A 
ATOM     38  C   UNL A   1      35.903  29.548  29.359  1.00  0.00     0.014 A 
ATOM     39  C   UNL A   1      36.390  30.039  27.040  1.00  0.00     0.014 A 
ATOM     40  C   UNL A   1      37.250  29.328  29.596  1.00  0.00     0.010 A 
ATOM     41  C   UNL A   1      37.729  29.699  27.254  1.00  0.00     0.010 A 
ATOM     42  C   UNL A   1      38.181  29.394  28.548  1.00  0.00    -0.014 A 
BRANCH  42  43
ATOM     43  C   UNL A   1      39.616  29.146  28.844  1.00  0.00     0.031 A 
ATOM     44  C   UNL A   1      40.254  27.822  28.515  1.00  0.00     0.074 A 
ATOM     45  C   UNL A   1      40.363  30.157  29.333  1.00  0.00     0.049 A 
ATOM     46  N   UNL A   1      41.494  27.442  28.689  1.00  0.00    -0.248 NA
ATOM     47  C   UNL A   1      39.392  26.789  27.917  1.00  0.00     0.031 C 
ATOM     48  C   UNL A   1      39.857  31.492  29.667  1.00  0.00     0.029 A 
ATOM     49  N   UNL A   1      41.706  30.241  29.593  1.00  0.00    -0.354 N 
ATOM     50  C   UNL A   1      41.558  26.126  28.244  1.00  0.00     0.074 A 
ATOM     51  C   UNL A   1      40.224  25.761  27.817  1.00  0.00     0.031 C 
ATOM     52  C   UNL A   1      40.886  32.281  30.008  1.00  0.00     0.029 A 
ATOM     53  C   UNL A   1      42.110  31.491  30.001  1.00  0.00     0.049 A 
ATOM     54  H   UNL A   1      42.323  29.479  29.497  1.00  0.00     0.167 HD
ATOM     55  C   UNL A   1      42.633  25.304  28.184  1.00  0.00     0.037 A 
ATOM     56  C   UNL A   1      43.327  31.948  30.348  1.00  0.00     0.037 A 
ATOM     57  C   UNL A   1      43.962  25.687  28.585  1.00  0.00     0.049 A 
ATOM     58  C   UNL A   1      44.491  31.002  30.320  1.00  0.00     0.074 A 
ATOM     59  C   UNL A   1      45.119  24.927  28.567  1.00  0.00     0.029 A 
ATOM     60  N   UNL A   1      44.315  26.939  29.067  1.00  0.00    -0.354 N 
ATOM     61  N   UNL A   1      44.523  29.751  29.928  1.00  0.00    -0.248 NA
ATOM     62  C   UNL A   1      45.778  31.520  30.800  1.00  0.00     0.031 C 
ATOM     63  C   UNL A   1      46.164  25.708  29.071  1.00  0.00     0.029 A 
ATOM     64  C   UNL A   1      45.667  26.969  29.364  1.00  0.00     0.049 A 
ATOM     65  H   UNL A   1      43.695  27.695  29.182  1.00  0.00     0.167 HD
ATOM     66  C   UNL A   1      45.835  29.331  30.110  1.00  0.00     0.074 A 
ATOM     67  C   UNL A   1      46.569  30.469  30.626  1.00  0.00     0.031 C 
ATOM     68  C   UNL A   1      46.378  28.111  29.879  1.00  0.00     0.037 A 
BRANCH  55  69
ATOM     69  C   UNL A   1      42.421  23.905  27.673  1.00  0.00     0.058 A 
ATOM     70  C   UNL A   1      42.413  23.615  26.300  1.00  0.00     0.135 A 
ATOM     71  C   UNL A   1      42.279  22.832  28.568  1.00  0.00     0.135 A 
ATOM     72  F   UNL A   1      42.526  24.605  25.399  1.00  0.00    -0.206 F 
ATOM     73  C   UNL A   1      42.255  22.314  25.831  1.00  0.00     0.059 A 
ATOM     74  C   UNL A   1      42.143  21.519  28.123  1.00  0.00     0.059 A 
ATOM     75  F   UNL A   1      42.277  23.053  29.893  1.00  0.00    -0.206 F 
ATOM     76  C   UNL A   1      42.122  21.273  26.752  1.00  0.00     0.060 A 
BRANCH  76  77
ATOM     77  S   UNL A   1      41.929  19.591  26.123  1.00  0.00     0.124 S 
ATOM     78  O   UNL A   1      42.330  18.799  27.282  1.00  0.00    -0.237 OA
ATOM     79  O   UNL A   1      40.510  19.545  25.786  1.00  0.00    -0.237 OA
ATOM     80  O   UNL A   1      42.843  19.545  24.986  1.00  0.00    -0.744 OA
ENDBRANCH  76  77
ENDBRANCH  55  69
BRANCH  56  81
ATOM     81  C   UNL A   1      43.493  33.367  30.758  1.00  0.00     0.058 A 
ATOM     82  C   UNL A   1      43.399  33.743  32.106  1.00  0.00     0.135 A 
ATOM     83  C   UNL A   1      43.789  34.367  29.818  1.00  0.00     0.135 A 
ATOM     84  F   UNL A   1      43.113  32.823  33.040  1.00  0.00    -0.206 F 
ATOM     85  C   UNL A   1      43.592  35.060  32.508  1.00  0.00     0.059 A 
ATOM     86  C   UNL A   1      44.012  35.685  30.199  1.00  0.00     0.059 A 
ATOM     87  F   UNL A   1      43.903  34.055  28.517  1.00  0.00    -0.206 F 
ATOM     88  C   UNL A   1      43.905  36.024  31.546  1.00  0.00     0.060 A 
BRANCH  88  89
ATOM     89  S   UNL A   1      44.217  37.717  32.087  1.00  0.00     0.124 S 
ATOM     90  O   UNL A   1      45.632  37.659  32.434  1.00  0.00    -0.237 OA
ATOM     91  O   UNL A   1      43.883  38.487  30.891  1.00  0.00    -0.237 OA
ATOM     92  O   UNL A   1      43.296  37.887  33.207  1.00  0.00    -0.744 OA
ENDBRANCH  88  89
ENDBRANCH  56  81
BRANCH  68  93
ATOM     93  C   UNL A   1      47.841  27.946  30.175  1.00  0.00     0.058 A 
ATOM     94  C   UNL A   1      48.286  27.487  31.424  1.00  0.00     0.135 A 
ATOM     95  C   UNL A   1      48.801  28.191  29.180  1.00  0.00     0.135 A 
ATOM     96  F   UNL A   1      47.407  27.248  32.409  1.00  0.00    -0.206 F 
ATOM     97  C   UNL A   1      49.639  27.289  31.682  1.00  0.00     0.059 A 
ATOM     98  C   UNL A   1      50.157  27.977  29.410  1.00  0.00     0.059 A 
ATOM     99  F   UNL A   1      48.425  28.624  27.968  1.00  0.00    -0.206 F 
ATOM    100  C   UNL A   1      50.565  27.533  30.667  1.00  0.00     0.060 A 
BRANCH 100 101
ATOM    101  S   UNL A   1      52.312  27.230  31.005  1.00  0.00     0.124 S 
ATOM    102  O   UNL A   1      52.876  27.221  29.659  1.00  0.00    -0.237 OA
ATOM    103  O   UNL A   1      52.671  28.375  31.836  1.00  0.00    -0.237 OA
ATOM    104  O   UNL A   1      52.307  25.942  31.692  1.00  0.00    -0.744 OA
ENDBRANCH 100 101
ENDBRANCH  68  93
ENDBRANCH  42  43
ENDBRANCH  34  37
ENDBRANCH  32  33
ENDBRANCH   1  32
TORSDOF 16
ENDMDL
MODEL 3
REMARK VINA RESULT:      -9.5      4.880      7.619
REMARK SMILES C[C@@H]1CCC[C@H](C)[N@H+]1Cc1cc2c(cc1Cl)C=C(C(=O)NCCCNC(=O)c1ccc(-c3c4nc(c(-c5c(F)cc(S(=O)(=O)[O-])cc5F)c5ccc([nH]5)c(-c5c(F)cc(S(=O)(=O)[O-])cc5F)c5nc(c(-c6c(F)cc(S(=O)(=O)[O-])cc6F)c6ccc3[nH]6)C=C5)C=C4)cc1)[C@@H](C(F)(F)F)O2
REMARK SMILES IDX 23 1 22 2 21 3 19 4 20 5 18 7 10 8 11 9 15 10 12 11 14 12
REMARK SMILES IDX 16 13 13 14 99 15 17 16 94 17 9 18 8 19 7 20 6 21 5 22 4 23
REMARK SMILES IDX 2 24 3 26 1 27 95 28 96 29 97 30 98 31 24 32 25 33 26 34
REMARK SMILES IDX 27 36 28 37 29 38 93 39 30 40 92 41 31 42 32 43 33 44 86 45
REMARK SMILES IDX 34 46 91 47 85 48 87 49 35 50 90 51 84 52 83 53 36 55 70 56
REMARK SMILES IDX 49 57 69 58 50 59 53 60 68 61 88 62 51 63 52 64 67 66 89 67
REMARK SMILES IDX 54 68 37 69 38 70 47 71 39 72 40 73 46 74 48 75 41 76 42 77
REMARK SMILES IDX 43 78 44 79 45 80 71 81 72 82 81 83 73 84 74 85 80 86 82 87
REMARK SMILES IDX 75 88 76 89 77 90 78 91 79 92 55 93 56 94 65 95 57 96 58 97
REMARK SMILES IDX 64 98 66 99 59 100 60 101 61 102 62 103 63 104
REMARK H PARENT 21 6 8 25 25 35 87 54 53 65
REMARK Flexibility Score: inf
ROOT
ATOM      1  C   UNL A   1      34.108  31.496  27.641  1.00  0.00     0.042 C 
ENDROOT
BRANCH   1   2
ATOM      2  C   UNL A   1      33.631  30.271  26.877  1.00  0.00     0.118 C 
BRANCH   2   3
ATOM      3  N   UNL A   1      32.548  29.594  27.571  1.00  0.00    -0.352 N 
ATOM      4  C   UNL A   1      31.868  28.433  27.431  1.00  0.00     0.251 C 
ATOM      5  O   UNL A   1      31.027  28.202  28.305  1.00  0.00    -0.270 OA
ATOM      6  H   UNL A   1      32.226  30.113  28.343  1.00  0.00     0.163 HD
BRANCH   4   7
ATOM      7  C   UNL A   1      32.065  27.462  26.323  1.00  0.00     0.067 C 
ATOM      8  C   UNL A   1      33.706  23.489  23.705  1.00  0.00     0.029 A 
ATOM      9  C   UNL A   1      32.449  24.088  23.900  1.00  0.00     0.058 A 
ATOM     10  C   UNL A   1      34.845  24.184  24.152  1.00  0.00     0.050 A 
ATOM     11  C   UNL A   1      32.332  25.234  24.677  1.00  0.00     0.128 A 
ATOM     12  C   UNL A   1      34.715  25.306  24.978  1.00  0.00     0.033 A 
ATOM     13  Cl  UNL A   1      36.453  23.703  23.743  1.00  0.00    -0.084 Cl
ATOM     14  C   UNL A   1      33.451  25.797  25.288  1.00  0.00     0.019 A 
ATOM     15  O   UNL A   1      31.072  25.730  24.870  1.00  0.00    -0.475 OA
ATOM     16  C   UNL A   1      33.253  26.830  26.296  1.00  0.00     0.025 C 
ATOM     17  C   UNL A   1      31.039  27.127  25.277  1.00  0.00     0.314 C 
BRANCH   8  18
ATOM     18  C   UNL A   1      33.749  22.087  23.135  1.00  0.00     0.301 C 
BRANCH  18  19
ATOM     19  N   UNL A   1      33.833  20.982  24.119  1.00  0.00    -0.327 N 
ATOM     20  C   UNL A   1      32.355  19.198  24.990  1.00  0.00     0.075 C 
ATOM     21  C   UNL A   1      32.596  20.710  24.874  1.00  0.00     0.181 C 
ATOM     22  C   UNL A   1      32.528  21.366  26.265  1.00  0.00     0.065 C 
ATOM     23  C   UNL A   1      33.801  21.185  27.077  1.00  0.00     0.012 C 
ATOM     24  C   UNL A   1      35.088  20.939  24.886  1.00  0.00     0.181 C 
ATOM     25  H   UNL A   1      33.901  20.144  23.540  1.00  0.00     0.348 HD
ATOM     26  C   UNL A   1      35.020  21.607  26.269  1.00  0.00     0.065 C 
ATOM     27  C   UNL A   1      35.625  19.505  25.000  1.00  0.00     0.075 C 
ENDBRANCH  18  19
ENDBRANCH   8  18
BRANCH  17  28
ATOM     28  C   UNL A   1      31.163  28.053  24.044  1.00  0.00     0.429 C 
ATOM     29  F   UNL A   1      30.380  29.149  24.183  1.00  0.00    -0.167 F 
ATOM     30  F   UNL A   1      32.432  28.503  23.868  1.00  0.00    -0.167 F 
ATOM     31  F   UNL A   1      30.813  27.448  22.886  1.00  0.00    -0.167 F 
ENDBRANCH  17  28
ENDBRANCH   4   7
ENDBRANCH   2   3
ENDBRANCH   1   2
BRANCH   1  32
ATOM     32  C   UNL A   1      35.519  31.322  28.179  1.00  0.00     0.118 C 
BRANCH  32  33
ATOM     33  N   UNL A   1      35.534  31.135  29.629  1.00  0.00    -0.352 N 
ATOM     34  C   UNL A   1      36.383  30.397  30.418  1.00  0.00     0.251 C 
ATOM     35  H   UNL A   1      34.823  31.611  30.116  1.00  0.00     0.163 HD
ATOM     36  O   UNL A   1      36.089  30.174  31.590  1.00  0.00    -0.269 OA
BRANCH  34  37
ATOM     37  C   UNL A   1      37.634  29.861  29.846  1.00  0.00     0.039 A 
ATOM     38  C   UNL A   1      38.555  29.215  30.669  1.00  0.00     0.014 A 
ATOM     39  C   UNL A   1      37.901  30.019  28.483  1.00  0.00     0.014 A 
ATOM     40  C   UNL A   1      39.820  28.925  30.185  1.00  0.00     0.010 A 
ATOM     41  C   UNL A   1      39.136  29.613  27.969  1.00  0.00     0.010 A 
ATOM     42  C   UNL A   1      40.128  29.113  28.828  1.00  0.00    -0.014 A 
BRANCH  42  43
ATOM     43  C   UNL A   1      41.495  28.784  28.349  1.00  0.00     0.031 A 
ATOM     44  C   UNL A   1      42.597  29.810  28.397  1.00  0.00     0.074 A 
ATOM     45  C   UNL A   1      41.758  27.523  27.952  1.00  0.00     0.049 A 
ATOM     46  N   UNL A   1      43.849  29.687  28.037  1.00  0.00    -0.248 NA
ATOM     47  C   UNL A   1      42.251  31.146  28.910  1.00  0.00     0.031 C 
ATOM     48  C   UNL A   1      40.774  26.437  27.888  1.00  0.00     0.029 A 
ATOM     49  N   UNL A   1      42.931  26.924  27.570  1.00  0.00    -0.354 N 
ATOM     50  C   UNL A   1      44.435  30.929  28.260  1.00  0.00     0.074 A 
ATOM     51  C   UNL A   1      43.394  31.802  28.759  1.00  0.00     0.031 C 
ATOM     52  C   UNL A   1      41.398  25.294  27.571  1.00  0.00     0.029 A 
ATOM     53  C   UNL A   1      42.807  25.576  27.326  1.00  0.00     0.049 A 
ATOM     54  H   UNL A   1      43.781  27.412  27.480  1.00  0.00     0.167 HD
ATOM     55  C   UNL A   1      45.724  31.301  28.077  1.00  0.00     0.037 A 
ATOM     56  C   UNL A   1      43.720  24.669  26.932  1.00  0.00     0.037 A 
ATOM     57  C   UNL A   1      46.758  30.417  27.606  1.00  0.00     0.049 A 
ATOM     58  C   UNL A   1      45.130  25.120  26.689  1.00  0.00     0.074 A 
ATOM     59  C   UNL A   1      48.096  30.697  27.384  1.00  0.00     0.029 A 
ATOM     60  N   UNL A   1      46.574  29.077  27.294  1.00  0.00    -0.354 N 
ATOM     61  N   UNL A   1      45.655  26.308  26.873  1.00  0.00    -0.248 NA
ATOM     62  C   UNL A   1      46.066  24.117  26.167  1.00  0.00     0.031 C 
ATOM     63  C   UNL A   1      48.712  29.536  26.905  1.00  0.00     0.029 A 
ATOM     64  C   UNL A   1      47.769  28.521  26.868  1.00  0.00     0.049 A 
ATOM     65  H   UNL A   1      45.720  28.592  27.366  1.00  0.00     0.167 HD
ATOM     66  C   UNL A   1      46.987  26.195  26.491  1.00  0.00     0.074 A 
ATOM     67  C   UNL A   1      47.190  24.817  26.089  1.00  0.00     0.031 C 
ATOM     68  C   UNL A   1      47.949  27.148  26.469  1.00  0.00     0.037 A 
BRANCH  55  69
ATOM     69  C   UNL A   1      46.095  32.728  28.379  1.00  0.00     0.058 A 
ATOM     70  C   UNL A   1      46.568  33.114  29.643  1.00  0.00     0.135 A 
ATOM     71  C   UNL A   1      46.026  33.710  27.378  1.00  0.00     0.135 A 
ATOM     72  F   UNL A   1      46.635  32.220  30.642  1.00  0.00    -0.206 F 
ATOM     73  C   UNL A   1      46.945  34.427  29.908  1.00  0.00     0.059 A 
ATOM     74  C   UNL A   1      46.421  35.025  27.613  1.00  0.00     0.059 A 
ATOM     75  F   UNL A   1      45.579  33.395  26.151  1.00  0.00    -0.206 F 
ATOM     76  C   UNL A   1      46.869  35.375  28.885  1.00  0.00     0.060 A 
BRANCH  76  77
ATOM     77  S   UNL A   1      47.374  37.071  29.247  1.00  0.00     0.124 S 
ATOM     78  O   UNL A   1      48.046  36.906  30.533  1.00  0.00    -0.237 OA
ATOM     79  O   UNL A   1      48.239  37.387  28.116  1.00  0.00    -0.237 OA
ATOM     80  O   UNL A   1      46.110  37.800  29.291  1.00  0.00    -0.744 OA
ENDBRANCH  76  77
ENDBRANCH  55  69
BRANCH  56  81
ATOM     81  C   UNL A   1      43.316  23.253  26.736  1.00  0.00     0.058 A 
ATOM     82  C   UNL A   1      43.212  22.703  25.450  1.00  0.00     0.135 A 
ATOM     83  C   UNL A   1      43.065  22.409  27.831  1.00  0.00     0.135 A 
ATOM     84  F   UNL A   1      43.436  23.472  24.373  1.00  0.00    -0.206 F 
ATOM     85  C   UNL A   1      42.874  21.369  25.255  1.00  0.00     0.059 A 
ATOM     86  C   UNL A   1      42.753  21.066  27.662  1.00  0.00     0.059 A 
ATOM     87  F   UNL A   1      43.165  22.884  29.083  1.00  0.00    -0.206 F 
ATOM     88  C   UNL A   1      42.653  20.556  26.369  1.00  0.00     0.060 A 
BRANCH  88  89
ATOM     89  S   UNL A   1      42.279  18.809  26.105  1.00  0.00     0.124 S 
ATOM     90  O   UNL A   1      43.198  18.471  25.025  1.00  0.00    -0.237 OA
ATOM     91  O   UNL A   1      42.586  18.230  27.410  1.00  0.00    -0.237 OA
ATOM     92  O   UNL A   1      40.862  18.819  25.751  1.00  0.00    -0.744 OA
ENDBRANCH  88  89
ENDBRANCH  56  81
BRANCH  68  93
ATOM     93  C   UNL A   1      49.314  26.733  26.001  1.00  0.00     0.058 A 
ATOM     94  C   UNL A   1      49.727  26.943  24.677  1.00  0.00     0.135 A 
ATOM     95  C   UNL A   1      50.237  26.175  26.901  1.00  0.00     0.135 A 
ATOM     96  F   UNL A   1      48.878  27.464  23.778  1.00  0.00    -0.206 F 
ATOM     97  C   UNL A   1      51.008  26.600  24.255  1.00  0.00     0.059 A 
ATOM     98  C   UNL A   1      51.531  25.847  26.506  1.00  0.00     0.059 A 
ATOM     99  F   UNL A   1      49.892  25.962  28.179  1.00  0.00    -0.206 F 
ATOM    100  C   UNL A   1      51.903  26.058  25.179  1.00  0.00     0.060 A 
BRANCH 100 101
ATOM    101  S   UNL A   1      53.575  25.659  24.626  1.00  0.00     0.124 S 
ATOM    102  O   UNL A   1      53.508  26.007  23.210  1.00  0.00    -0.237 OA
ATOM    103  O   UNL A   1      54.394  26.537  25.456  1.00  0.00    -0.237 OA
ATOM    104  O   UNL A   1      53.699  24.235  24.918  1.00  0.00    -0.744 OA
ENDBRANCH 100 101
ENDBRANCH  68  93
ENDBRANCH  42  43
ENDBRANCH  34  37
ENDBRANCH  32  33
ENDBRANCH   1  32
TORSDOF 16
ENDMDL
