MODEL 1
REMARK VINA RESULT:     -12.2      0.000      0.000
REMARK SMILES O=C(NCCCNC(=O)c1cnc(-c2ccccc2Cl)nc1)c1ccc(-c2c3nc(c(-c4c(F)cc(S(=O)(=O)[O-])cc4F)c4ccc([nH]4)c(-c4c(F)cc(S(=O)(=O)[O-])cc4F)c4nc(c(-c5c(F)cc(S(=O)(=O)[O-])cc5F)c5ccc2[nH]5)C=C4)C=C3)cc1
REMARK SMILES IDX 4 1 3 2 1 3 2 4 23 6 24 7 88 8 25 9 87 10 26 11 27 12 28 13
REMARK SMILES IDX 81 14 29 15 86 16 80 17 82 18 30 19 85 20 79 21 78 22 31 24
REMARK SMILES IDX 65 25 44 26 64 27 45 28 48 29 63 30 83 31 46 32 47 33 62 35
REMARK SMILES IDX 84 36 49 37 32 38 33 39 42 40 34 41 35 42 41 43 43 44 36 45
REMARK SMILES IDX 37 46 38 47 39 48 40 49 66 50 67 51 76 52 68 53 69 54 75 55
REMARK SMILES IDX 77 56 70 57 71 58 72 59 73 60 74 61 50 62 51 63 60 64 52 65
REMARK SMILES IDX 53 66 59 67 61 68 54 69 55 70 56 71 57 72 58 73 5 74 6 75
REMARK SMILES IDX 7 76 8 77 9 79 10 80 11 81 22 82 12 83 21 84 13 85 14 86
REMARK SMILES IDX 15 87 19 88 16 89 18 90 20 91 17 92
REMARK H PARENT 3 5 82 23 48 34 7 78
REMARK Flexibility Score: inf
ROOT
ATOM      1  C   UNL A   1      40.795  22.984  27.213  1.00  0.00     0.118 C 
ENDROOT
BRANCH   1   2
ATOM      2  N   UNL A   1      41.105  23.908  26.126  1.00  0.00    -0.352 N 
ATOM      3  O   UNL A   1      41.285  25.859  25.026  1.00  0.00    -0.269 OA
ATOM      4  C   UNL A   1      41.170  25.282  26.104  1.00  0.00     0.251 C 
ATOM      5  H   UNL A   1      41.301  23.474  25.264  1.00  0.00     0.163 HD
BRANCH   4   6
ATOM      6  C   UNL A   1      41.075  26.063  27.357  1.00  0.00     0.039 A 
ATOM      7  C   UNL A   1      40.014  25.873  28.241  1.00  0.00     0.014 A 
ATOM      8  C   UNL A   1      42.070  26.997  27.661  1.00  0.00     0.014 A 
ATOM      9  C   UNL A   1      39.836  26.748  29.306  1.00  0.00     0.010 A 
ATOM     10  C   UNL A   1      41.950  27.801  28.802  1.00  0.00     0.010 A 
ATOM     11  C   UNL A   1      40.804  27.721  29.606  1.00  0.00    -0.014 A 
BRANCH  11  12
ATOM     12  C   UNL A   1      40.589  28.616  30.775  1.00  0.00     0.031 A 
ATOM     13  C   UNL A   1      41.477  28.539  31.990  1.00  0.00     0.074 A 
ATOM     14  C   UNL A   1      39.616  29.548  30.709  1.00  0.00     0.049 A 
ATOM     15  N   UNL A   1      41.466  29.286  33.066  1.00  0.00    -0.248 NA
ATOM     16  C   UNL A   1      42.501  27.483  32.011  1.00  0.00     0.031 C 
ATOM     17  C   UNL A   1      38.681  29.711  29.593  1.00  0.00     0.029 A 
ATOM     18  N   UNL A   1      39.271  30.551  31.577  1.00  0.00    -0.354 N 
ATOM     19  C   UNL A   1      42.457  28.777  33.899  1.00  0.00     0.074 A 
ATOM     20  C   UNL A   1      43.035  27.640  33.215  1.00  0.00     0.031 C 
ATOM     21  C   UNL A   1      37.915  30.789  29.813  1.00  0.00     0.029 A 
ATOM     22  C   UNL A   1      38.259  31.356  31.111  1.00  0.00     0.049 A 
ATOM     23  H   UNL A   1      39.706  30.682  32.451  1.00  0.00     0.167 HD
ATOM     24  C   UNL A   1      42.854  29.222  35.116  1.00  0.00     0.037 A 
ATOM     25  C   UNL A   1      37.664  32.430  31.666  1.00  0.00     0.037 A 
ATOM     26  C   UNL A   1      42.295  30.374  35.778  1.00  0.00     0.049 A 
ATOM     27  C   UNL A   1      38.131  32.907  33.011  1.00  0.00     0.074 A 
ATOM     28  C   UNL A   1      42.659  30.930  36.993  1.00  0.00     0.029 A 
ATOM     29  N   UNL A   1      41.257  31.149  35.282  1.00  0.00    -0.354 N 
ATOM     30  N   UNL A   1      39.090  32.429  33.768  1.00  0.00    -0.248 NA
ATOM     31  C   UNL A   1      37.434  34.068  33.579  1.00  0.00     0.031 C 
ATOM     32  C   UNL A   1      41.813  32.014  37.252  1.00  0.00     0.029 A 
ATOM     33  C   UNL A   1      40.955  32.165  36.175  1.00  0.00     0.049 A 
ATOM     34  H   UNL A   1      40.801  30.999  34.423  1.00  0.00     0.167 HD
ATOM     35  C   UNL A   1      39.128  33.246  34.891  1.00  0.00     0.074 A 
ATOM     36  C   UNL A   1      38.104  34.256  34.707  1.00  0.00     0.031 C 
ATOM     37  C   UNL A   1      39.937  33.168  35.976  1.00  0.00     0.037 A 
BRANCH  24  38
ATOM     38  C   UNL A   1      43.935  28.451  35.827  1.00  0.00     0.058 A 
ATOM     39  C   UNL A   1      43.642  27.397  36.707  1.00  0.00     0.135 A 
ATOM     40  C   UNL A   1      45.288  28.748  35.592  1.00  0.00     0.135 A 
ATOM     41  F   UNL A   1      42.367  27.079  36.980  1.00  0.00    -0.206 F 
ATOM     42  C   UNL A   1      44.649  26.684  37.351  1.00  0.00     0.059 A 
ATOM     43  C   UNL A   1      46.312  28.031  36.205  1.00  0.00     0.059 A 
ATOM     44  F   UNL A   1      45.627  29.744  34.759  1.00  0.00    -0.206 F 
ATOM     45  C   UNL A   1      45.983  27.010  37.094  1.00  0.00     0.060 A 
BRANCH  45  46
ATOM     46  S   UNL A   1      47.279  26.078  37.939  1.00  0.00     0.124 S 
ATOM     47  O   UNL A   1      47.937  25.415  36.818  1.00  0.00    -0.237 OA
ATOM     48  O   UNL A   1      48.050  27.132  38.591  1.00  0.00    -0.237 OA
ATOM     49  O   UNL A   1      46.536  25.201  38.839  1.00  0.00    -0.744 OA
ENDBRANCH  45  46
ENDBRANCH  24  38
BRANCH  25  50
ATOM     50  C   UNL A   1      36.572  33.128  30.938  1.00  0.00     0.058 A 
ATOM     51  C   UNL A   1      35.239  33.029  31.365  1.00  0.00     0.135 A 
ATOM     52  C   UNL A   1      36.843  33.929  29.818  1.00  0.00     0.135 A 
ATOM     53  F   UNL A   1      34.930  32.273  32.430  1.00  0.00    -0.206 F 
ATOM     54  C   UNL A   1      34.211  33.687  30.698  1.00  0.00     0.059 A 
ATOM     55  C   UNL A   1      35.836  34.619  29.152  1.00  0.00     0.059 A 
ATOM     56  F   UNL A   1      38.105  34.071  29.382  1.00  0.00    -0.206 F 
ATOM     57  C   UNL A   1      34.521  34.482  29.594  1.00  0.00     0.060 A 
BRANCH  57  58
ATOM     58  S   UNL A   1      33.188  35.374  28.765  1.00  0.00     0.124 S 
ATOM     59  O   UNL A   1      32.456  35.925  29.898  1.00  0.00    -0.237 OA
ATOM     60  O   UNL A   1      33.922  36.336  27.950  1.00  0.00    -0.237 OA
ATOM     61  O   UNL A   1      32.499  34.326  28.016  1.00  0.00    -0.744 OA
ENDBRANCH  57  58
ENDBRANCH  25  50
BRANCH  37  62
ATOM     62  C   UNL A   1      39.775  34.228  37.028  1.00  0.00     0.058 A 
ATOM     63  C   UNL A   1      39.005  34.015  38.182  1.00  0.00     0.135 A 
ATOM     64  C   UNL A   1      40.419  35.468  36.888  1.00  0.00     0.135 A 
ATOM     65  F   UNL A   1      38.363  32.849  38.360  1.00  0.00    -0.206 F 
ATOM     66  C   UNL A   1      38.849  35.007  39.145  1.00  0.00     0.059 A 
ATOM     67  C   UNL A   1      40.299  36.464  37.851  1.00  0.00     0.059 A 
ATOM     68  F   UNL A   1      41.176  35.720  35.810  1.00  0.00    -0.206 F 
ATOM     69  C   UNL A   1      39.498  36.231  38.968  1.00  0.00     0.060 A 
BRANCH  69  70
ATOM     70  S   UNL A   1      39.299  37.509  40.228  1.00  0.00     0.124 S 
ATOM     71  O   UNL A   1      38.256  38.341  39.638  1.00  0.00    -0.237 OA
ATOM     72  O   UNL A   1      38.905  36.734  41.401  1.00  0.00    -0.237 OA
ATOM     73  O   UNL A   1      40.623  38.119  40.304  1.00  0.00    -0.744 OA
ENDBRANCH  69  70
ENDBRANCH  37  62
ENDBRANCH  11  12
ENDBRANCH   4   6
ENDBRANCH   1   2
BRANCH   1  74
ATOM     74  C   UNL A   1      40.023  21.757  26.748  1.00  0.00     0.042 C 
BRANCH  74  75
ATOM     75  C   UNL A   1      38.744  22.085  25.992  1.00  0.00     0.118 C 
BRANCH  75  76
ATOM     76  N   UNL A   1      38.146  20.904  25.376  1.00  0.00    -0.352 N 
ATOM     77  C   UNL A   1      36.827  20.629  25.120  1.00  0.00     0.254 C 
ATOM     78  H   UNL A   1      38.782  20.205  25.102  1.00  0.00     0.163 HD
ATOM     79  O   UNL A   1      36.473  19.505  24.776  1.00  0.00    -0.269 OA
BRANCH  77  80
ATOM     80  C   UNL A   1      35.827  21.682  25.265  1.00  0.00     0.076 A 
ATOM     81  C   UNL A   1      35.491  22.524  24.232  1.00  0.00     0.129 A 
ATOM     82  C   UNL A   1      35.160  21.883  26.448  1.00  0.00     0.129 A 
ATOM     83  N   UNL A   1      34.658  23.572  24.374  1.00  0.00    -0.236 NA
ATOM     84  N   UNL A   1      34.305  22.912  26.641  1.00  0.00    -0.236 NA
ATOM     85  C   UNL A   1      34.135  23.758  25.606  1.00  0.00     0.160 A 
BRANCH  85  86
ATOM     86  C   UNL A   1      33.356  24.985  25.806  1.00  0.00     0.038 A 
ATOM     87  C   UNL A   1      34.020  26.231  25.764  1.00  0.00     0.013 A 
ATOM     88  C   UNL A   1      31.979  24.996  26.103  1.00  0.00     0.052 A 
ATOM     89  C   UNL A   1      33.346  27.433  25.997  1.00  0.00     0.001 A 
ATOM     90  C   UNL A   1      31.304  26.204  26.334  1.00  0.00     0.021 A 
ATOM     91  Cl  UNL A   1      31.041  23.551  26.289  1.00  0.00    -0.084 Cl
ATOM     92  C   UNL A   1      31.986  27.418  26.281  1.00  0.00     0.002 A 
ENDBRANCH  85  86
ENDBRANCH  77  80
ENDBRANCH  75  76
ENDBRANCH  74  75
ENDBRANCH   1  74
TORSDOF 14
ENDMDL
MODEL 2
REMARK VINA RESULT:     -12.1      1.034      1.610
REMARK SMILES O=C(NCCCNC(=O)c1cnc(-c2ccccc2Cl)nc1)c1ccc(-c2c3nc(c(-c4c(F)cc(S(=O)(=O)[O-])cc4F)c4ccc([nH]4)c(-c4c(F)cc(S(=O)(=O)[O-])cc4F)c4nc(c(-c5c(F)cc(S(=O)(=O)[O-])cc5F)c5ccc2[nH]5)C=C4)C=C3)cc1
REMARK SMILES IDX 4 1 3 2 1 3 2 4 23 6 24 7 88 8 25 9 87 10 26 11 27 12 28 13
REMARK SMILES IDX 81 14 29 15 86 16 80 17 82 18 30 19 85 20 79 21 78 22 31 24
REMARK SMILES IDX 65 25 44 26 64 27 45 28 48 29 63 30 83 31 46 32 47 33 62 35
REMARK SMILES IDX 84 36 49 37 32 38 33 39 42 40 34 41 35 42 41 43 43 44 36 45
REMARK SMILES IDX 37 46 38 47 39 48 40 49 66 50 67 51 76 52 68 53 69 54 75 55
REMARK SMILES IDX 77 56 70 57 71 58 72 59 73 60 74 61 50 62 51 63 60 64 52 65
REMARK SMILES IDX 53 66 59 67 61 68 54 69 55 70 56 71 57 72 58 73 5 74 6 75
REMARK SMILES IDX 7 76 8 77 9 79 10 80 11 81 22 82 12 83 21 84 13 85 14 86
REMARK SMILES IDX 15 87 19 88 16 89 18 90 20 91 17 92
REMARK H PARENT 3 5 82 23 48 34 7 78
REMARK Flexibility Score: inf
ROOT
ATOM      1  C   UNL A   1      41.733  23.011  27.217  1.00  0.00     0.118 C 
ENDROOT
BRANCH   1   2
ATOM      2  N   UNL A   1      41.687  23.957  26.106  1.00  0.00    -0.352 N 
ATOM      3  O   UNL A   1      41.278  25.872  25.005  1.00  0.00    -0.269 OA
ATOM      4  C   UNL A   1      41.432  25.309  26.085  1.00  0.00     0.251 C 
ATOM      5  H   UNL A   1      41.869  23.560  25.224  1.00  0.00     0.163 HD
BRANCH   4   6
ATOM      6  C   UNL A   1      41.315  26.075  27.346  1.00  0.00     0.039 A 
ATOM      7  C   UNL A   1      40.215  25.911  28.185  1.00  0.00     0.014 A 
ATOM      8  C   UNL A   1      42.330  26.969  27.701  1.00  0.00     0.014 A 
ATOM      9  C   UNL A   1      40.027  26.776  29.256  1.00  0.00     0.010 A 
ATOM     10  C   UNL A   1      42.194  27.761  28.848  1.00  0.00     0.010 A 
ATOM     11  C   UNL A   1      41.015  27.710  29.607  1.00  0.00    -0.014 A 
BRANCH  11  12
ATOM     12  C   UNL A   1      40.787  28.596  30.780  1.00  0.00     0.031 A 
ATOM     13  C   UNL A   1      41.676  28.528  31.995  1.00  0.00     0.074 A 
ATOM     14  C   UNL A   1      39.799  29.513  30.719  1.00  0.00     0.049 A 
ATOM     15  N   UNL A   1      41.653  29.269  33.074  1.00  0.00    -0.248 NA
ATOM     16  C   UNL A   1      42.717  27.488  32.010  1.00  0.00     0.031 C 
ATOM     17  C   UNL A   1      38.860  29.667  29.604  1.00  0.00     0.029 A 
ATOM     18  N   UNL A   1      39.437  30.506  31.592  1.00  0.00    -0.354 N 
ATOM     19  C   UNL A   1      42.652  28.773  33.904  1.00  0.00     0.074 A 
ATOM     20  C   UNL A   1      43.248  27.648  33.215  1.00  0.00     0.031 C 
ATOM     21  C   UNL A   1      38.078  30.731  29.829  1.00  0.00     0.029 A 
ATOM     22  C   UNL A   1      38.412  31.297  31.131  1.00  0.00     0.049 A 
ATOM     23  H   UNL A   1      39.870  30.640  32.467  1.00  0.00     0.167 HD
ATOM     24  C   UNL A   1      43.043  29.218  35.124  1.00  0.00     0.037 A 
ATOM     25  C   UNL A   1      37.801  32.358  31.691  1.00  0.00     0.037 A 
ATOM     26  C   UNL A   1      42.466  30.358  35.791  1.00  0.00     0.049 A 
ATOM     27  C   UNL A   1      38.260  32.837  33.037  1.00  0.00     0.074 A 
ATOM     28  C   UNL A   1      42.821  30.913  37.009  1.00  0.00     0.029 A 
ATOM     29  N   UNL A   1      41.415  31.118  35.299  1.00  0.00    -0.354 N 
ATOM     30  N   UNL A   1      39.227  32.370  33.792  1.00  0.00    -0.248 NA
ATOM     31  C   UNL A   1      37.545  33.984  33.611  1.00  0.00     0.031 C 
ATOM     32  C   UNL A   1      41.958  31.982  37.274  1.00  0.00     0.029 A 
ATOM     33  C   UNL A   1      41.097  32.125  36.197  1.00  0.00     0.049 A 
ATOM     34  H   UNL A   1      40.961  30.965  34.439  1.00  0.00     0.167 HD
ATOM     35  C   UNL A   1      39.252  33.183  34.919  1.00  0.00     0.074 A 
ATOM     36  C   UNL A   1      38.212  34.177  34.740  1.00  0.00     0.031 C 
ATOM     37  C   UNL A   1      40.063  33.112  36.003  1.00  0.00     0.037 A 
BRANCH  24  38
ATOM     38  C   UNL A   1      44.136  28.461  35.830  1.00  0.00     0.058 A 
ATOM     39  C   UNL A   1      45.494  28.769  35.646  1.00  0.00     0.135 A 
ATOM     40  C   UNL A   1      43.816  27.437  36.737  1.00  0.00     0.135 A 
ATOM     41  F   UNL A   1      45.858  29.728  34.782  1.00  0.00    -0.206 F 
ATOM     42  C   UNL A   1      46.496  28.069  36.313  1.00  0.00     0.059 A 
ATOM     43  C   UNL A   1      44.801  26.741  37.434  1.00  0.00     0.059 A 
ATOM     44  F   UNL A   1      42.535  27.101  36.954  1.00  0.00    -0.206 F 
ATOM     45  C   UNL A   1      46.139  27.055  37.205  1.00  0.00     0.060 A 
BRANCH  45  46
ATOM     46  S   UNL A   1      47.450  26.155  38.061  1.00  0.00     0.124 S 
ATOM     47  O   UNL A   1      47.352  24.838  37.439  1.00  0.00    -0.237 OA
ATOM     48  O   UNL A   1      48.638  26.929  37.718  1.00  0.00    -0.237 OA
ATOM     49  O   UNL A   1      47.047  26.218  39.463  1.00  0.00    -0.744 OA
ENDBRANCH  45  46
ENDBRANCH  24  38
BRANCH  25  50
ATOM     50  C   UNL A   1      36.698  33.042  30.967  1.00  0.00     0.058 A 
ATOM     51  C   UNL A   1      35.361  32.873  31.358  1.00  0.00     0.135 A 
ATOM     52  C   UNL A   1      36.960  33.899  29.886  1.00  0.00     0.135 A 
ATOM     53  F   UNL A   1      35.059  32.063  32.385  1.00  0.00    -0.206 F 
ATOM     54  C   UNL A   1      34.322  33.518  30.695  1.00  0.00     0.059 A 
ATOM     55  C   UNL A   1      35.940  34.575  29.225  1.00  0.00     0.059 A 
ATOM     56  F   UNL A   1      38.224  34.108  29.485  1.00  0.00    -0.206 F 
ATOM     57  C   UNL A   1      34.622  34.369  29.631  1.00  0.00     0.060 A 
BRANCH  57  58
ATOM     58  S   UNL A   1      33.273  35.241  28.808  1.00  0.00     0.124 S 
ATOM     59  O   UNL A   1      32.663  34.170  28.032  1.00  0.00    -0.237 OA
ATOM     60  O   UNL A   1      32.493  35.736  29.938  1.00  0.00    -0.237 OA
ATOM     61  O   UNL A   1      33.962  36.270  28.034  1.00  0.00    -0.744 OA
ENDBRANCH  57  58
ENDBRANCH  25  50
BRANCH  37  62
ATOM     62  C   UNL A   1      39.885  34.165  37.061  1.00  0.00     0.058 A 
ATOM     63  C   UNL A   1      39.121  33.932  38.215  1.00  0.00     0.135 A 
ATOM     64  C   UNL A   1      40.506  35.416  36.925  1.00  0.00     0.135 A 
ATOM     65  F   UNL A   1      38.500  32.754  38.389  1.00  0.00    -0.206 F 
ATOM     66  C   UNL A   1      38.949  34.917  39.183  1.00  0.00     0.059 A 
ATOM     67  C   UNL A   1      40.370  36.406  37.893  1.00  0.00     0.059 A 
ATOM     68  F   UNL A   1      41.256  35.687  35.846  1.00  0.00    -0.206 F 
ATOM     69  C   UNL A   1      39.576  36.153  39.011  1.00  0.00     0.060 A 
BRANCH  69  70
ATOM     70  S   UNL A   1      39.357  37.421  40.276  1.00  0.00     0.124 S 
ATOM     71  O   UNL A   1      38.703  36.665  41.339  1.00  0.00    -0.237 OA
ATOM     72  O   UNL A   1      40.731  37.836  40.546  1.00  0.00    -0.237 OA
ATOM     73  O   UNL A   1      38.527  38.422  39.614  1.00  0.00    -0.744 OA
ENDBRANCH  69  70
ENDBRANCH  37  62
ENDBRANCH  11  12
ENDBRANCH   4   6
ENDBRANCH   1   2
BRANCH   1  74
ATOM     74  C   UNL A   1      40.413  22.285  27.435  1.00  0.00     0.042 C 
BRANCH  74  75
ATOM     75  C   UNL A   1      39.407  22.488  26.312  1.00  0.00     0.118 C 
BRANCH  75  76
ATOM     76  N   UNL A   1      38.941  21.224  25.750  1.00  0.00    -0.352 N 
ATOM     77  C   UNL A   1      37.750  20.929  25.136  1.00  0.00     0.254 C 
ATOM     78  H   UNL A   1      39.574  20.474  25.820  1.00  0.00     0.163 HD
ATOM     79  O   UNL A   1      37.435  19.767  24.896  1.00  0.00    -0.269 OA
BRANCH  77  80
ATOM     80  C   UNL A   1      36.840  22.009  24.768  1.00  0.00     0.076 A 
ATOM     81  C   UNL A   1      35.920  22.527  25.647  1.00  0.00     0.129 A 
ATOM     82  C   UNL A   1      36.861  22.572  23.516  1.00  0.00     0.129 A 
ATOM     83  N   UNL A   1      34.996  23.441  25.297  1.00  0.00    -0.236 NA
ATOM     84  N   UNL A   1      35.965  23.501  23.116  1.00  0.00    -0.236 NA
ATOM     85  C   UNL A   1      35.022  23.856  24.010  1.00  0.00     0.160 A 
BRANCH  85  86
ATOM     86  C   UNL A   1      33.923  24.729  23.584  1.00  0.00     0.038 A 
ATOM     87  C   UNL A   1      33.829  26.028  24.131  1.00  0.00     0.013 A 
ATOM     88  C   UNL A   1      32.905  24.326  22.697  1.00  0.00     0.052 A 
ATOM     89  C   UNL A   1      32.778  26.889  23.806  1.00  0.00     0.001 A 
ATOM     90  C   UNL A   1      31.853  25.194  22.370  1.00  0.00     0.021 A 
ATOM     91  Cl  UNL A   1      32.819  22.734  22.017  1.00  0.00    -0.084 Cl
ATOM     92  C   UNL A   1      31.791  26.472  22.923  1.00  0.00     0.002 A 
ENDBRANCH  85  86
ENDBRANCH  77  80
ENDBRANCH  75  76
ENDBRANCH  74  75
ENDBRANCH   1  74
TORSDOF 14
ENDMDL
MODEL 3
REMARK VINA RESULT:     -12.1      5.540     11.756
REMARK SMILES O=C(NCCCNC(=O)c1cnc(-c2ccccc2Cl)nc1)c1ccc(-c2c3nc(c(-c4c(F)cc(S(=O)(=O)[O-])cc4F)c4ccc([nH]4)c(-c4c(F)cc(S(=O)(=O)[O-])cc4F)c4nc(c(-c5c(F)cc(S(=O)(=O)[O-])cc5F)c5ccc2[nH]5)C=C4)C=C3)cc1
REMARK SMILES IDX 4 1 3 2 1 3 2 4 23 6 24 7 88 8 25 9 87 10 26 11 27 12 28 13
REMARK SMILES IDX 81 14 29 15 86 16 80 17 82 18 30 19 85 20 79 21 78 22 31 24
REMARK SMILES IDX 65 25 44 26 64 27 45 28 48 29 63 30 83 31 46 32 47 33 62 35
REMARK SMILES IDX 84 36 49 37 32 38 33 39 42 40 34 41 35 42 41 43 43 44 36 45
REMARK SMILES IDX 37 46 38 47 39 48 40 49 66 50 67 51 76 52 68 53 69 54 75 55
REMARK SMILES IDX 77 56 70 57 71 58 72 59 73 60 74 61 50 62 51 63 60 64 52 65
REMARK SMILES IDX 53 66 59 67 61 68 54 69 55 70 56 71 57 72 58 73 5 74 6 75
REMARK SMILES IDX 7 76 8 77 9 79 10 80 11 81 22 82 12 83 21 84 13 85 14 86
REMARK SMILES IDX 15 87 19 88 16 89 18 90 20 91 17 92
REMARK H PARENT 3 5 82 23 48 34 7 78
REMARK Flexibility Score: inf
ROOT
ATOM      1  C   UNL A   1      34.494  32.430  28.382  1.00  0.00     0.118 C 
ENDROOT
BRANCH   1   2
ATOM      2  N   UNL A   1      33.959  31.101  28.104  1.00  0.00    -0.352 N 
ATOM      3  O   UNL A   1      33.952  28.922  27.554  1.00  0.00    -0.269 OA
ATOM      4  C   UNL A   1      34.593  29.889  27.958  1.00  0.00     0.251 C 
ATOM      5  H   UNL A   1      32.981  31.066  28.005  1.00  0.00     0.163 HD
BRANCH   4   6
ATOM      6  C   UNL A   1      36.037  29.750  28.252  1.00  0.00     0.039 A 
ATOM      7  C   UNL A   1      36.997  30.043  27.286  1.00  0.00     0.014 A 
ATOM      8  C   UNL A   1      36.440  29.329  29.524  1.00  0.00     0.014 A 
ATOM      9  C   UNL A   1      38.329  29.721  27.515  1.00  0.00     0.010 A 
ATOM     10  C   UNL A   1      37.798  29.115  29.791  1.00  0.00     0.010 A 
ATOM     11  C   UNL A   1      38.751  29.257  28.772  1.00  0.00    -0.014 A 
BRANCH  11  12
ATOM     12  C   UNL A   1      40.192  28.953  28.983  1.00  0.00     0.031 A 
ATOM     13  C   UNL A   1      40.779  27.628  28.569  1.00  0.00     0.074 A 
ATOM     14  C   UNL A   1      40.989  29.911  29.501  1.00  0.00     0.049 A 
ATOM     15  N   UNL A   1      42.024  27.227  28.625  1.00  0.00    -0.248 NA
ATOM     16  C   UNL A   1      39.852  26.618  28.037  1.00  0.00     0.031 C 
ATOM     17  C   UNL A   1      40.536  31.229  29.955  1.00  0.00     0.029 A 
ATOM     18  N   UNL A   1      42.344  29.942  29.703  1.00  0.00    -0.354 N 
ATOM     19  C   UNL A   1      42.027  25.916  28.162  1.00  0.00     0.074 A 
ATOM     20  C   UNL A   1      40.655  25.578  27.852  1.00  0.00     0.031 C 
ATOM     21  C   UNL A   1      41.598  31.960  30.319  1.00  0.00     0.029 A 
ATOM     22  C   UNL A   1      42.800  31.146  30.186  1.00  0.00     0.049 A 
ATOM     23  H   UNL A   1      42.935  29.175  29.521  1.00  0.00     0.167 HD
ATOM     24  C   UNL A   1      43.078  25.074  28.001  1.00  0.00     0.037 A 
ATOM     25  C   UNL A   1      44.046  31.552  30.495  1.00  0.00     0.037 A 
ATOM     26  C   UNL A   1      44.447  25.428  28.281  1.00  0.00     0.049 A 
ATOM     27  C   UNL A   1      45.192  30.604  30.298  1.00  0.00     0.074 A 
ATOM     28  C   UNL A   1      45.587  24.660  28.111  1.00  0.00     0.029 A 
ATOM     29  N   UNL A   1      44.864  26.649  28.789  1.00  0.00    -0.354 N 
ATOM     30  N   UNL A   1      45.177  29.378  29.831  1.00  0.00    -0.248 NA
ATOM     31  C   UNL A   1      46.526  31.092  30.671  1.00  0.00     0.031 C 
ATOM     32  C   UNL A   1      46.688  25.401  28.555  1.00  0.00     0.029 A 
ATOM     33  C   UNL A   1      46.240  26.650  28.955  1.00  0.00     0.049 A 
ATOM     34  H   UNL A   1      44.270  27.405  29.001  1.00  0.00     0.167 HD
ATOM     35  C   UNL A   1      46.501  28.956  29.831  1.00  0.00     0.074 A 
ATOM     36  C   UNL A   1      47.291  30.063  30.332  1.00  0.00     0.031 C 
ATOM     37  C   UNL A   1      47.015  27.761  29.450  1.00  0.00     0.037 A 
BRANCH  24  38
ATOM     38  C   UNL A   1      42.791  23.678  27.516  1.00  0.00     0.058 A 
ATOM     39  C   UNL A   1      42.776  23.353  26.150  1.00  0.00     0.135 A 
ATOM     40  C   UNL A   1      42.567  22.640  28.436  1.00  0.00     0.135 A 
ATOM     41  F   UNL A   1      42.971  24.306  25.225  1.00  0.00    -0.206 F 
ATOM     42  C   UNL A   1      42.521  22.056  25.713  1.00  0.00     0.059 A 
ATOM     43  C   UNL A   1      42.335  21.331  28.022  1.00  0.00     0.059 A 
ATOM     44  F   UNL A   1      42.571  22.893  29.754  1.00  0.00    -0.206 F 
ATOM     45  C   UNL A   1      42.299  21.052  26.658  1.00  0.00     0.060 A 
BRANCH  45  46
ATOM     46  S   UNL A   1      41.966  19.374  26.076  1.00  0.00     0.124 S 
ATOM     47  O   UNL A   1      42.832  19.296  24.903  1.00  0.00    -0.237 OA
ATOM     48  O   UNL A   1      42.372  18.560  27.216  1.00  0.00    -0.237 OA
ATOM     49  O   UNL A   1      40.533  19.389  25.797  1.00  0.00    -0.744 OA
ENDBRANCH  45  46
ENDBRANCH  24  38
BRANCH  25  50
ATOM     50  C   UNL A   1      44.267  32.929  31.011  1.00  0.00     0.058 A 
ATOM     51  C   UNL A   1      44.297  33.189  32.389  1.00  0.00     0.135 A 
ATOM     52  C   UNL A   1      44.478  34.006  30.137  1.00  0.00     0.135 A 
ATOM     53  F   UNL A   1      44.098  32.191  33.265  1.00  0.00    -0.206 F 
ATOM     54  C   UNL A   1      44.514  34.471  32.883  1.00  0.00     0.059 A 
ATOM     55  C   UNL A   1      44.724  35.292  30.607  1.00  0.00     0.059 A 
ATOM     56  F   UNL A   1      44.477  33.806  28.810  1.00  0.00    -0.206 F 
ATOM     57  C   UNL A   1      44.730  35.516  31.984  1.00  0.00     0.060 A 
BRANCH  57  58
ATOM     58  S   UNL A   1      45.061  37.167  32.633  1.00  0.00     0.124 S 
ATOM     59  O   UNL A   1      46.345  37.472  32.016  1.00  0.00    -0.237 OA
ATOM     60  O   UNL A   1      43.917  37.927  32.139  1.00  0.00    -0.237 OA
ATOM     61  O   UNL A   1      45.088  36.959  34.079  1.00  0.00    -0.744 OA
ENDBRANCH  57  58
ENDBRANCH  25  50
BRANCH  37  62
ATOM     62  C   UNL A   1      48.508  27.604  29.522  1.00  0.00     0.058 A 
ATOM     63  C   UNL A   1      49.144  27.087  30.661  1.00  0.00     0.135 A 
ATOM     64  C   UNL A   1      49.310  27.958  28.425  1.00  0.00     0.135 A 
ATOM     65  F   UNL A   1      48.423  26.742  31.740  1.00  0.00    -0.206 F 
ATOM     66  C   UNL A   1      50.528  26.959  30.725  1.00  0.00     0.059 A 
ATOM     67  C   UNL A   1      50.693  27.812  28.456  1.00  0.00     0.059 A 
ATOM     68  F   UNL A   1      48.751  28.446  27.307  1.00  0.00    -0.206 F 
ATOM     69  C   UNL A   1      51.294  27.328  29.617  1.00  0.00     0.060 A 
BRANCH  69  70
ATOM     70  S   UNL A   1      53.088  27.147  29.704  1.00  0.00     0.124 S 
ATOM     71  O   UNL A   1      53.367  26.403  28.480  1.00  0.00    -0.237 OA
ATOM     72  O   UNL A   1      53.543  28.535  29.719  1.00  0.00    -0.237 OA
ATOM     73  O   UNL A   1      53.296  26.413  30.947  1.00  0.00    -0.744 OA
ENDBRANCH  69  70
ENDBRANCH  37  62
ENDBRANCH  11  12
ENDBRANCH   4   6
ENDBRANCH   1   2
BRANCH   1  74
ATOM     74  C   UNL A   1      33.432  33.520  28.334  1.00  0.00     0.042 C 
BRANCH  74  75
ATOM     75  C   UNL A   1      33.833  34.801  29.052  1.00  0.00     0.118 C 
BRANCH  75  76
ATOM     76  N   UNL A   1      32.905  35.150  30.123  1.00  0.00    -0.352 N 
ATOM     77  C   UNL A   1      33.042  34.998  31.480  1.00  0.00     0.254 C 
ATOM     78  H   UNL A   1      32.058  35.556  29.829  1.00  0.00     0.163 HD
ATOM     79  O   UNL A   1      32.087  35.161  32.232  1.00  0.00    -0.269 OA
BRANCH  77  80
ATOM     80  C   UNL A   1      34.339  34.630  32.038  1.00  0.00     0.076 A 
ATOM     81  C   UNL A   1      35.064  35.482  32.836  1.00  0.00     0.129 A 
ATOM     82  C   UNL A   1      34.904  33.401  31.799  1.00  0.00     0.129 A 
ATOM     83  N   UNL A   1      36.311  35.210  33.268  1.00  0.00    -0.236 NA
ATOM     84  N   UNL A   1      36.145  33.072  32.218  1.00  0.00    -0.236 NA
ATOM     85  C   UNL A   1      36.829  34.020  32.888  1.00  0.00     0.160 A 
BRANCH  85  86
ATOM     86  C   UNL A   1      38.239  33.787  33.220  1.00  0.00     0.038 A 
ATOM     87  C   UNL A   1      39.231  34.545  32.560  1.00  0.00     0.013 A 
ATOM     88  C   UNL A   1      38.674  32.798  34.123  1.00  0.00     0.052 A 
ATOM     89  C   UNL A   1      40.593  34.336  32.793  1.00  0.00     0.001 A 
ATOM     90  C   UNL A   1      40.042  32.592  34.357  1.00  0.00     0.021 A 
ATOM     91  Cl  UNL A   1      37.591  31.718  34.938  1.00  0.00    -0.084 Cl
ATOM     92  C   UNL A   1      40.997  33.359  33.694  1.00  0.00     0.002 A 
ENDBRANCH  85  86
ENDBRANCH  77  80
ENDBRANCH  75  76
ENDBRANCH  74  75
ENDBRANCH   1  74
TORSDOF 14
ENDMDL
