MODEL 1
REMARK VINA RESULT:     -11.9      0.000      0.000
REMARK SMILES Cc1nn(C)c(N[C@@H]2C=C[C@H](C(=O)NCCCNC(=O)c3ccc(-c4c5nc(c(-c6c(F)cc(S(=O)(=O)[O-])cc6F)c6ccc([nH]6)c(-c6c(F)cc(S(=O)(=O)[O-])cc6F)c6nc(c(-c7c(F)cc(S(=O)(=O)[O-])cc7F)c7ccc4[nH]7)C=C6)C=C5)cc3)C2)c1C#N
REMARK SMILES IDX 16 1 15 2 14 3 12 4 13 5 11 7 8 8 9 9 87 10 10 11 7 12 6 14
REMARK SMILES IDX 1 15 2 16 3 17 88 18 4 19 5 20 89 21 90 22 17 23 18 24 19 25
REMARK SMILES IDX 20 27 21 28 22 29 86 30 23 31 85 32 24 33 25 34 26 35 79 36
REMARK SMILES IDX 27 37 84 38 78 39 80 40 28 41 83 42 77 43 76 44 29 46 63 47
REMARK SMILES IDX 42 48 62 49 43 50 46 51 61 52 81 53 44 54 45 55 60 57 82 58
REMARK SMILES IDX 47 59 30 60 31 61 40 62 32 63 33 64 39 65 41 66 34 67 35 68
REMARK SMILES IDX 36 69 37 70 38 71 64 72 65 73 74 74 66 75 67 76 73 77 75 78
REMARK SMILES IDX 68 79 69 80 70 81 71 82 72 83 48 84 49 85 58 86 50 87 51 88
REMARK SMILES IDX 57 89 59 90 52 91 53 92 54 93 55 94 56 95
REMARK H PARENT 14 6 7 13 18 26 80 45 46 56
REMARK Flexibility Score: inf
ROOT
ATOM      1  C   UNL A   1      38.489  22.167  25.790  1.00  0.00     0.042 C 
ENDROOT
BRANCH   1   2
ATOM      2  C   UNL A   1      37.246  23.057  25.697  1.00  0.00     0.117 C 
BRANCH   2   3
ATOM      3  N   UNL A   1      36.146  22.638  26.571  1.00  0.00    -0.356 N 
ATOM      4  C   UNL A   1      35.019  21.895  26.353  1.00  0.00     0.227 C 
ATOM      5  O   UNL A   1      34.329  21.657  27.353  1.00  0.00    -0.274 OA
ATOM      6  H   UNL A   1      36.237  22.954  27.499  1.00  0.00     0.163 HD
BRANCH   4   7
ATOM      7  C   UNL A   1      34.564  21.338  24.977  1.00  0.00     0.103 C 
ATOM      8  C   UNL A   1      32.814  22.260  23.450  1.00  0.00     0.104 C 
ATOM      9  C   UNL A   1      32.371  21.013  24.127  1.00  0.00    -0.006 C 
ATOM     10  C   UNL A   1      34.247  22.485  23.959  1.00  0.00     0.046 C 
ATOM     11  C   UNL A   1      33.339  20.482  24.884  1.00  0.00    -0.016 C 
BRANCH   8  12
ATOM     12  N   UNL A   1      31.862  23.370  23.482  1.00  0.00    -0.363 N 
ATOM     13  H   UNL A   1      31.045  23.188  22.963  1.00  0.00     0.162 HD
BRANCH  12  14
ATOM     14  C   UNL A   1      31.851  24.611  24.075  1.00  0.00     0.142 A 
ATOM     15  C   UNL A   1      31.434  27.312  26.595  1.00  0.00     0.070 C 
ATOM     16  C   UNL A   1      31.710  26.375  25.483  1.00  0.00     0.079 A 
ATOM     17  N   UNL A   1      31.972  26.891  24.288  1.00  0.00    -0.175 NA
ATOM     18  C   UNL A   1      31.688  24.957  25.419  1.00  0.00     0.117 A 
ATOM     19  N   UNL A   1      31.877  25.842  23.462  1.00  0.00    -0.251 N 
ATOM     20  C   UNL A   1      31.630  26.163  22.098  1.00  0.00     0.176 C 
BRANCH  18  21
ATOM     21  C   UNL A   1      31.484  24.077  26.514  1.00  0.00     0.105 C 
ATOM     22  N   UNL A   1      31.330  23.353  27.418  1.00  0.00    -0.192 NA
ENDBRANCH  18  21
ENDBRANCH  12  14
ENDBRANCH   8  12
ENDBRANCH   4   7
ENDBRANCH   2   3
ENDBRANCH   1   2
BRANCH   1  23
ATOM     23  C   UNL A   1      39.631  22.782  26.589  1.00  0.00     0.118 C 
BRANCH  23  24
ATOM     24  N   UNL A   1      40.978  22.324  26.214  1.00  0.00    -0.352 N 
ATOM     25  C   UNL A   1      42.090  23.115  25.914  1.00  0.00     0.251 C 
ATOM     26  H   UNL A   1      41.111  21.350  26.169  1.00  0.00     0.163 HD
ATOM     27  O   UNL A   1      43.057  22.648  25.325  1.00  0.00    -0.269 OA
BRANCH  25  28
ATOM     28  C   UNL A   1      42.082  24.529  26.360  1.00  0.00     0.039 A 
ATOM     29  C   UNL A   1      41.431  25.570  25.687  1.00  0.00     0.014 A 
ATOM     30  C   UNL A   1      42.707  24.772  27.574  1.00  0.00     0.014 A 
ATOM     31  C   UNL A   1      41.406  26.836  26.287  1.00  0.00     0.010 A 
ATOM     32  C   UNL A   1      42.379  25.887  28.281  1.00  0.00     0.010 A 
ATOM     33  C   UNL A   1      41.892  26.982  27.598  1.00  0.00    -0.014 A 
BRANCH  33  34
ATOM     34  C   UNL A   1      41.747  28.188  28.410  1.00  0.00     0.031 A 
ATOM     35  C   UNL A   1      42.860  29.138  28.156  1.00  0.00     0.074 A 
ATOM     36  C   UNL A   1      40.598  28.497  29.072  1.00  0.00     0.049 A 
ATOM     37  N   UNL A   1      43.882  29.353  28.916  1.00  0.00    -0.248 NA
ATOM     38  C   UNL A   1      43.014  29.709  26.803  1.00  0.00     0.031 C 
ATOM     39  C   UNL A   1      39.342  27.729  29.134  1.00  0.00     0.029 A 
ATOM     40  N   UNL A   1      40.272  29.615  29.792  1.00  0.00    -0.354 N 
ATOM     41  C   UNL A   1      44.614  30.345  28.273  1.00  0.00     0.074 A 
ATOM     42  C   UNL A   1      44.209  30.301  26.897  1.00  0.00     0.031 C 
ATOM     43  C   UNL A   1      38.347  28.489  29.654  1.00  0.00     0.029 A 
ATOM     44  C   UNL A   1      38.906  29.744  30.116  1.00  0.00     0.049 A 
ATOM     45  H   UNL A   1      40.943  30.282  30.064  1.00  0.00     0.167 HD
ATOM     46  C   UNL A   1      45.206  31.333  29.002  1.00  0.00     0.037 A 
ATOM     47  C   UNL A   1      38.304  30.797  30.749  1.00  0.00     0.037 A 
ATOM     48  C   UNL A   1      45.224  30.965  30.401  1.00  0.00     0.049 A 
ATOM     49  C   UNL A   1      39.390  31.523  31.456  1.00  0.00     0.074 A 
ATOM     50  C   UNL A   1      45.783  29.949  31.148  1.00  0.00     0.029 A 
ATOM     51  N   UNL A   1      44.200  31.482  31.154  1.00  0.00    -0.354 N 
ATOM     52  N   UNL A   1      40.071  31.006  32.442  1.00  0.00    -0.248 NA
ATOM     53  C   UNL A   1      40.046  32.593  30.728  1.00  0.00     0.031 C 
ATOM     54  C   UNL A   1      44.804  29.630  32.137  1.00  0.00     0.029 A 
ATOM     55  C   UNL A   1      43.746  30.533  32.028  1.00  0.00     0.049 A 
ATOM     56  H   UNL A   1      43.846  32.398  31.078  1.00  0.00     0.167 HD
ATOM     57  C   UNL A   1      41.387  31.351  32.173  1.00  0.00     0.074 A 
ATOM     58  C   UNL A   1      41.300  32.389  31.143  1.00  0.00     0.031 C 
ATOM     59  C   UNL A   1      42.409  30.541  32.583  1.00  0.00     0.037 A 
BRANCH  46  60
ATOM     60  C   UNL A   1      45.318  32.785  28.570  1.00  0.00     0.058 A 
ATOM     61  C   UNL A   1      46.594  33.390  28.563  1.00  0.00     0.135 A 
ATOM     62  C   UNL A   1      44.231  33.682  28.443  1.00  0.00     0.135 A 
ATOM     63  F   UNL A   1      47.703  32.643  28.679  1.00  0.00    -0.206 F 
ATOM     64  C   UNL A   1      46.773  34.773  28.511  1.00  0.00     0.059 A 
ATOM     65  C   UNL A   1      44.389  35.060  28.343  1.00  0.00     0.059 A 
ATOM     66  F   UNL A   1      42.956  33.287  28.493  1.00  0.00    -0.206 F 
ATOM     67  C   UNL A   1      45.660  35.601  28.410  1.00  0.00     0.060 A 
BRANCH  67  68
ATOM     68  S   UNL A   1      45.886  37.387  28.384  1.00  0.00     0.124 S 
ATOM     69  O   UNL A   1      47.250  37.519  28.882  1.00  0.00    -0.237 OA
ATOM     70  O   UNL A   1      45.686  37.692  26.971  1.00  0.00    -0.237 OA
ATOM     71  O   UNL A   1      44.836  37.871  29.277  1.00  0.00    -0.744 OA
ENDBRANCH  67  68
ENDBRANCH  46  60
BRANCH  47  72
ATOM     72  C   UNL A   1      36.971  31.447  30.524  1.00  0.00     0.058 A 
ATOM     73  C   UNL A   1      36.177  31.926  31.593  1.00  0.00     0.135 A 
ATOM     74  C   UNL A   1      36.611  31.914  29.248  1.00  0.00     0.135 A 
ATOM     75  F   UNL A   1      36.453  31.559  32.854  1.00  0.00    -0.206 F 
ATOM     76  C   UNL A   1      35.131  32.849  31.411  1.00  0.00     0.059 A 
ATOM     77  C   UNL A   1      35.575  32.834  29.041  1.00  0.00     0.059 A 
ATOM     78  F   UNL A   1      37.324  31.563  28.169  1.00  0.00    -0.206 F 
ATOM     79  C   UNL A   1      34.853  33.318  30.129  1.00  0.00     0.060 A 
BRANCH  79  80
ATOM     80  S   UNL A   1      33.635  34.645  29.894  1.00  0.00     0.124 S 
ATOM     81  O   UNL A   1      33.230  34.934  31.265  1.00  0.00    -0.237 OA
ATOM     82  O   UNL A   1      34.423  35.680  29.232  1.00  0.00    -0.237 OA
ATOM     83  O   UNL A   1      32.610  34.020  29.061  1.00  0.00    -0.744 OA
ENDBRANCH  79  80
ENDBRANCH  47  72
BRANCH  59  84
ATOM     84  C   UNL A   1      42.096  29.477  33.609  1.00  0.00     0.058 A 
ATOM     85  C   UNL A   1      41.654  28.169  33.329  1.00  0.00     0.135 A 
ATOM     86  C   UNL A   1      42.393  29.776  34.945  1.00  0.00     0.135 A 
ATOM     87  F   UNL A   1      41.435  27.770  32.068  1.00  0.00    -0.206 F 
ATOM     88  C   UNL A   1      41.479  27.219  34.341  1.00  0.00     0.059 A 
ATOM     89  C   UNL A   1      42.256  28.840  35.963  1.00  0.00     0.059 A 
ATOM     90  F   UNL A   1      42.876  30.986  35.270  1.00  0.00    -0.206 F 
ATOM     91  C   UNL A   1      41.781  27.567  35.658  1.00  0.00     0.060 A 
BRANCH  91  92
ATOM     92  S   UNL A   1      41.593  26.342  36.973  1.00  0.00     0.124 S 
ATOM     93  O   UNL A   1      41.540  25.092  36.222  1.00  0.00    -0.237 OA
ATOM     94  O   UNL A   1      42.796  26.549  37.775  1.00  0.00    -0.237 OA
ATOM     95  O   UNL A   1      40.345  26.730  37.626  1.00  0.00    -0.744 OA
ENDBRANCH  91  92
ENDBRANCH  59  84
ENDBRANCH  33  34
ENDBRANCH  25  28
ENDBRANCH  23  24
ENDBRANCH   1  23
TORSDOF 16
ENDMDL
MODEL 2
REMARK VINA RESULT:     -11.8      3.086      9.350
REMARK SMILES Cc1nn(C)c(N[C@@H]2C=C[C@H](C(=O)NCCCNC(=O)c3ccc(-c4c5nc(c(-c6c(F)cc(S(=O)(=O)[O-])cc6F)c6ccc([nH]6)c(-c6c(F)cc(S(=O)(=O)[O-])cc6F)c6nc(c(-c7c(F)cc(S(=O)(=O)[O-])cc7F)c7ccc4[nH]7)C=C6)C=C5)cc3)C2)c1C#N
REMARK SMILES IDX 16 1 15 2 14 3 12 4 13 5 11 7 8 8 9 9 87 10 10 11 7 12 6 14
REMARK SMILES IDX 1 15 2 16 3 17 88 18 4 19 5 20 89 21 90 22 17 23 18 24 19 25
REMARK SMILES IDX 20 27 21 28 22 29 86 30 23 31 85 32 24 33 25 34 26 35 79 36
REMARK SMILES IDX 27 37 84 38 78 39 80 40 28 41 83 42 77 43 76 44 29 46 63 47
REMARK SMILES IDX 42 48 62 49 43 50 46 51 61 52 81 53 44 54 45 55 60 57 82 58
REMARK SMILES IDX 47 59 30 60 31 61 40 62 32 63 33 64 39 65 41 66 34 67 35 68
REMARK SMILES IDX 36 69 37 70 38 71 64 72 65 73 74 74 66 75 67 76 73 77 75 78
REMARK SMILES IDX 68 79 69 80 70 81 71 82 72 83 48 84 49 85 58 86 50 87 51 88
REMARK SMILES IDX 57 89 59 90 52 91 53 92 54 93 55 94 56 95
REMARK H PARENT 14 6 7 13 18 26 80 45 46 56
REMARK Flexibility Score: inf
ROOT
ATOM      1  C   UNL A   1      34.343  30.056  27.376  1.00  0.00     0.042 C 
ENDROOT
BRANCH   1   2
ATOM      2  C   UNL A   1      33.158  30.282  26.433  1.00  0.00     0.117 C 
BRANCH   2   3
ATOM      3  N   UNL A   1      33.334  29.694  25.102  1.00  0.00    -0.356 N 
ATOM      4  C   UNL A   1      32.485  29.026  24.263  1.00  0.00     0.227 C 
ATOM      5  O   UNL A   1      32.946  28.731  23.153  1.00  0.00    -0.274 OA
ATOM      6  H   UNL A   1      34.243  29.800  24.741  1.00  0.00     0.163 HD
BRANCH   4   7
ATOM      7  C   UNL A   1      31.021  28.633  24.595  1.00  0.00     0.103 C 
ATOM      8  C   UNL A   1      30.018  26.345  24.643  1.00  0.00     0.104 C 
ATOM      9  C   UNL A   1      29.564  27.134  23.469  1.00  0.00    -0.006 C 
ATOM     10  C   UNL A   1      30.945  27.299  25.412  1.00  0.00     0.046 C 
ATOM     11  C   UNL A   1      30.043  28.385  23.489  1.00  0.00    -0.016 C 
BRANCH   8  12
ATOM     12  N   UNL A   1      30.474  24.985  24.353  1.00  0.00    -0.363 N 
ATOM     13  H   UNL A   1      29.953  24.552  23.637  1.00  0.00     0.162 HD
BRANCH  12  14
ATOM     14  C   UNL A   1      31.466  24.176  24.855  1.00  0.00     0.142 A 
ATOM     15  C   UNL A   1      33.372  21.924  27.116  1.00  0.00     0.070 C 
ATOM     16  C   UNL A   1      32.746  22.762  26.069  1.00  0.00     0.079 A 
ATOM     17  N   UNL A   1      33.500  23.134  25.041  1.00  0.00    -0.175 NA
ATOM     18  C   UNL A   1      31.450  23.329  25.967  1.00  0.00     0.117 A 
ATOM     19  N   UNL A   1      32.777  24.092  24.449  1.00  0.00    -0.251 N 
ATOM     20  C   UNL A   1      33.516  24.995  23.635  1.00  0.00     0.176 C 
BRANCH  18  21
ATOM     21  C   UNL A   1      30.372  23.109  26.864  1.00  0.00     0.105 C 
ATOM     22  N   UNL A   1      29.483  22.943  27.605  1.00  0.00    -0.192 NA
ENDBRANCH  18  21
ENDBRANCH  12  14
ENDBRANCH   8  12
ENDBRANCH   4   7
ENDBRANCH   2   3
ENDBRANCH   1   2
BRANCH   1  23
ATOM     23  C   UNL A   1      35.181  31.303  27.627  1.00  0.00     0.118 C 
BRANCH  23  24
ATOM     24  N   UNL A   1      34.786  32.100  28.800  1.00  0.00    -0.352 N 
ATOM     25  C   UNL A   1      35.192  31.916  30.124  1.00  0.00     0.251 C 
ATOM     26  H   UNL A   1      34.166  32.845  28.633  1.00  0.00     0.163 HD
ATOM     27  O   UNL A   1      34.575  32.430  31.050  1.00  0.00    -0.269 OA
BRANCH  25  28
ATOM     28  C   UNL A   1      36.410  31.111  30.377  1.00  0.00     0.039 A 
ATOM     29  C   UNL A   1      36.443  29.712  30.418  1.00  0.00     0.014 A 
ATOM     30  C   UNL A   1      37.587  31.836  30.495  1.00  0.00     0.014 A 
ATOM     31  C   UNL A   1      37.687  29.080  30.547  1.00  0.00     0.010 A 
ATOM     32  C   UNL A   1      38.777  31.216  30.273  1.00  0.00     0.010 A 
ATOM     33  C   UNL A   1      38.859  29.853  30.476  1.00  0.00    -0.014 A 
BRANCH  33  34
ATOM     34  C   UNL A   1      40.212  29.308  30.397  1.00  0.00     0.031 A 
ATOM     35  C   UNL A   1      40.792  29.124  31.751  1.00  0.00     0.074 A 
ATOM     36  C   UNL A   1      40.730  28.783  29.252  1.00  0.00     0.049 A 
ATOM     37  N   UNL A   1      41.667  29.878  32.328  1.00  0.00    -0.248 NA
ATOM     38  C   UNL A   1      40.144  28.174  32.679  1.00  0.00     0.031 C 
ATOM     39  C   UNL A   1      40.096  28.674  27.927  1.00  0.00     0.029 A 
ATOM     40  N   UNL A   1      41.930  28.159  29.035  1.00  0.00    -0.354 N 
ATOM     41  C   UNL A   1      41.917  29.276  33.557  1.00  0.00     0.074 A 
ATOM     42  C   UNL A   1      40.777  28.447  33.824  1.00  0.00     0.031 C 
ATOM     43  C   UNL A   1      40.813  27.848  27.125  1.00  0.00     0.029 A 
ATOM     44  C   UNL A   1      42.042  27.484  27.802  1.00  0.00     0.049 A 
ATOM     45  H   UNL A   1      42.661  28.180  29.693  1.00  0.00     0.167 HD
ATOM     46  C   UNL A   1      43.186  29.243  34.052  1.00  0.00     0.037 A 
ATOM     47  C   UNL A   1      43.091  26.717  27.374  1.00  0.00     0.037 A 
ATOM     48  C   UNL A   1      44.023  30.164  33.314  1.00  0.00     0.049 A 
ATOM     49  C   UNL A   1      44.256  27.123  28.199  1.00  0.00     0.074 A 
ATOM     50  C   UNL A   1      44.041  31.527  33.100  1.00  0.00     0.029 A 
ATOM     51  N   UNL A   1      44.760  29.602  32.303  1.00  0.00    -0.354 N 
ATOM     52  N   UNL A   1      44.790  28.313  28.146  1.00  0.00    -0.248 NA
ATOM     53  C   UNL A   1      44.478  26.386  29.430  1.00  0.00     0.031 C 
ATOM     54  C   UNL A   1      44.440  31.685  31.737  1.00  0.00     0.029 A 
ATOM     55  C   UNL A   1      44.758  30.430  31.215  1.00  0.00     0.049 A 
ATOM     56  H   UNL A   1      45.221  28.733  32.352  1.00  0.00     0.167 HD
ATOM     57  C   UNL A   1      45.009  28.654  29.472  1.00  0.00     0.074 A 
ATOM     58  C   UNL A   1      44.864  27.398  30.212  1.00  0.00     0.031 C 
ATOM     59  C   UNL A   1      44.975  29.964  29.862  1.00  0.00     0.037 A 
BRANCH  46  60
ATOM     60  C   UNL A   1      43.787  28.083  34.826  1.00  0.00     0.058 A 
ATOM     61  C   UNL A   1      44.455  28.358  36.041  1.00  0.00     0.135 A 
ATOM     62  C   UNL A   1      43.992  26.781  34.313  1.00  0.00     0.135 A 
ATOM     63  F   UNL A   1      44.340  29.560  36.626  1.00  0.00    -0.206 F 
ATOM     64  C   UNL A   1      45.315  27.444  36.653  1.00  0.00     0.059 A 
ATOM     65  C   UNL A   1      44.808  25.839  34.931  1.00  0.00     0.059 A 
ATOM     66  F   UNL A   1      43.487  26.374  33.145  1.00  0.00    -0.206 F 
ATOM     67  C   UNL A   1      45.491  26.187  36.083  1.00  0.00     0.060 A 
BRANCH  67  68
ATOM     68  S   UNL A   1      46.630  25.021  36.847  1.00  0.00     0.124 S 
ATOM     69  O   UNL A   1      47.920  25.633  36.551  1.00  0.00    -0.237 OA
ATOM     70  O   UNL A   1      46.206  25.062  38.243  1.00  0.00    -0.237 OA
ATOM     71  O   UNL A   1      46.347  23.770  36.149  1.00  0.00    -0.744 OA
ENDBRANCH  67  68
ENDBRANCH  46  60
BRANCH  47  72
ATOM     72  C   UNL A   1      43.118  25.438  26.591  1.00  0.00     0.058 A 
ATOM     73  C   UNL A   1      43.868  25.301  25.399  1.00  0.00     0.135 A 
ATOM     74  C   UNL A   1      42.686  24.234  27.174  1.00  0.00     0.135 A 
ATOM     75  F   UNL A   1      44.347  26.389  24.775  1.00  0.00    -0.206 F 
ATOM     76  C   UNL A   1      44.211  24.050  24.856  1.00  0.00     0.059 A 
ATOM     77  C   UNL A   1      43.016  22.978  26.653  1.00  0.00     0.059 A 
ATOM     78  F   UNL A   1      42.009  24.244  28.331  1.00  0.00    -0.206 F 
ATOM     79  C   UNL A   1      43.801  22.889  25.507  1.00  0.00     0.060 A 
BRANCH  79  80
ATOM     80  S   UNL A   1      44.387  21.270  24.928  1.00  0.00     0.124 S 
ATOM     81  O   UNL A   1      43.279  20.394  25.293  1.00  0.00    -0.237 OA
ATOM     82  O   UNL A   1      44.575  21.497  23.500  1.00  0.00    -0.237 OA
ATOM     83  O   UNL A   1      45.618  21.065  25.689  1.00  0.00    -0.744 OA
ENDBRANCH  79  80
ENDBRANCH  47  72
BRANCH  59  84
ATOM     84  C   UNL A   1      45.037  31.021  28.784  1.00  0.00     0.058 A 
ATOM     85  C   UNL A   1      46.194  31.417  28.085  1.00  0.00     0.135 A 
ATOM     86  C   UNL A   1      43.818  31.563  28.355  1.00  0.00     0.135 A 
ATOM     87  F   UNL A   1      47.389  30.879  28.369  1.00  0.00    -0.206 F 
ATOM     88  C   UNL A   1      46.140  32.340  27.035  1.00  0.00     0.059 A 
ATOM     89  C   UNL A   1      43.737  32.458  27.295  1.00  0.00     0.059 A 
ATOM     90  F   UNL A   1      42.672  31.181  28.941  1.00  0.00    -0.206 F 
ATOM     91  C   UNL A   1      44.903  32.857  26.649  1.00  0.00     0.060 A 
BRANCH  91  92
ATOM     92  S   UNL A   1      44.812  34.024  25.272  1.00  0.00     0.124 S 
ATOM     93  O   UNL A   1      44.313  33.181  24.190  1.00  0.00    -0.237 OA
ATOM     94  O   UNL A   1      43.881  35.033  25.771  1.00  0.00    -0.237 OA
ATOM     95  O   UNL A   1      46.191  34.481  25.120  1.00  0.00    -0.744 OA
ENDBRANCH  91  92
ENDBRANCH  59  84
ENDBRANCH  33  34
ENDBRANCH  25  28
ENDBRANCH  23  24
ENDBRANCH   1  23
TORSDOF 16
ENDMDL
MODEL 3
REMARK VINA RESULT:     -11.7      2.978      8.459
REMARK SMILES Cc1nn(C)c(N[C@@H]2C=C[C@H](C(=O)NCCCNC(=O)c3ccc(-c4c5nc(c(-c6c(F)cc(S(=O)(=O)[O-])cc6F)c6ccc([nH]6)c(-c6c(F)cc(S(=O)(=O)[O-])cc6F)c6nc(c(-c7c(F)cc(S(=O)(=O)[O-])cc7F)c7ccc4[nH]7)C=C6)C=C5)cc3)C2)c1C#N
REMARK SMILES IDX 16 1 15 2 14 3 12 4 13 5 11 7 8 8 9 9 87 10 10 11 7 12 6 14
REMARK SMILES IDX 1 15 2 16 3 17 88 18 4 19 5 20 89 21 90 22 17 23 18 24 19 25
REMARK SMILES IDX 20 27 21 28 22 29 86 30 23 31 85 32 24 33 25 34 26 35 79 36
REMARK SMILES IDX 27 37 84 38 78 39 80 40 28 41 83 42 77 43 76 44 29 46 63 47
REMARK SMILES IDX 42 48 62 49 43 50 46 51 61 52 81 53 44 54 45 55 60 57 82 58
REMARK SMILES IDX 47 59 30 60 31 61 40 62 32 63 33 64 39 65 41 66 34 67 35 68
REMARK SMILES IDX 36 69 37 70 38 71 64 72 65 73 74 74 66 75 67 76 73 77 75 78
REMARK SMILES IDX 68 79 69 80 70 81 71 82 72 83 48 84 49 85 58 86 50 87 51 88
REMARK SMILES IDX 57 89 59 90 52 91 53 92 54 93 55 94 56 95
REMARK H PARENT 14 6 7 13 18 26 80 45 46 56
REMARK Flexibility Score: inf
ROOT
ATOM      1  C   UNL A   1      31.580  32.133  26.497  1.00  0.00     0.042 C 
ENDROOT
BRANCH   1   2
ATOM      2  C   UNL A   1      31.623  30.604  26.425  1.00  0.00     0.117 C 
BRANCH   2   3
ATOM      3  N   UNL A   1      32.544  30.080  25.412  1.00  0.00    -0.356 N 
ATOM      4  C   UNL A   1      33.175  28.876  25.266  1.00  0.00     0.227 C 
ATOM      5  O   UNL A   1      33.834  28.735  24.228  1.00  0.00    -0.274 OA
ATOM      6  H   UNL A   1      32.750  30.723  24.696  1.00  0.00     0.163 HD
BRANCH   4   7
ATOM      7  C   UNL A   1      33.114  27.702  26.280  1.00  0.00     0.103 C 
ATOM      8  C   UNL A   1      32.569  25.307  25.825  1.00  0.00     0.104 C 
ATOM      9  C   UNL A   1      31.470  26.009  26.537  1.00  0.00    -0.006 C 
ATOM     10  C   UNL A   1      33.666  26.371  25.667  1.00  0.00     0.046 C 
ATOM     11  C   UNL A   1      31.797  27.270  26.846  1.00  0.00    -0.016 C 
BRANCH   8  12
ATOM     12  N   UNL A   1      32.166  24.517  24.661  1.00  0.00    -0.363 N 
ATOM     13  H   UNL A   1      31.526  23.803  24.887  1.00  0.00     0.162 HD
BRANCH  12  14
ATOM     14  C   UNL A   1      32.481  24.547  23.323  1.00  0.00     0.142 A 
ATOM     15  C   UNL A   1      32.540  25.519  19.736  1.00  0.00     0.070 C 
ATOM     16  C   UNL A   1      32.690  25.027  21.123  1.00  0.00     0.079 A 
ATOM     17  N   UNL A   1      33.381  23.909  21.313  1.00  0.00    -0.175 NA
ATOM     18  C   UNL A   1      32.165  25.502  22.353  1.00  0.00     0.117 A 
ATOM     19  N   UNL A   1      33.092  23.569  22.574  1.00  0.00    -0.251 N 
ATOM     20  C   UNL A   1      33.287  22.196  22.893  1.00  0.00     0.176 C 
BRANCH  18  21
ATOM     21  C   UNL A   1      31.415  26.694  22.533  1.00  0.00     0.105 C 
ATOM     22  N   UNL A   1      30.810  27.683  22.683  1.00  0.00    -0.192 NA
ENDBRANCH  18  21
ENDBRANCH  12  14
ENDBRANCH   8  12
ENDBRANCH   4   7
ENDBRANCH   2   3
ENDBRANCH   1   2
BRANCH   1  23
ATOM     23  C   UNL A   1      32.727  32.749  27.288  1.00  0.00     0.118 C 
BRANCH  23  24
ATOM     24  N   UNL A   1      32.486  34.112  27.787  1.00  0.00    -0.352 N 
ATOM     25  C   UNL A   1      33.100  34.738  28.874  1.00  0.00     0.251 C 
ATOM     26  H   UNL A   1      31.815  34.642  27.299  1.00  0.00     0.163 HD
ATOM     27  O   UNL A   1      32.614  35.742  29.382  1.00  0.00    -0.269 OA
BRANCH  25  28
ATOM     28  C   UNL A   1      34.377  34.176  29.374  1.00  0.00     0.039 A 
ATOM     29  C   UNL A   1      34.477  33.183  30.355  1.00  0.00     0.014 A 
ATOM     30  C   UNL A   1      35.519  34.639  28.738  1.00  0.00     0.014 A 
ATOM     31  C   UNL A   1      35.744  32.658  30.645  1.00  0.00     0.010 A 
ATOM     32  C   UNL A   1      36.657  33.894  28.783  1.00  0.00     0.010 A 
ATOM     33  C   UNL A   1      36.839  33.031  29.844  1.00  0.00    -0.014 A 
BRANCH  33  34
ATOM     34  C   UNL A   1      38.162  32.416  29.907  1.00  0.00     0.031 A 
ATOM     35  C   UNL A   1      38.118  31.008  29.437  1.00  0.00     0.074 A 
ATOM     36  C   UNL A   1      39.302  33.138  30.093  1.00  0.00     0.049 A 
ATOM     37  N   UNL A   1      38.140  29.946  30.172  1.00  0.00    -0.248 NA
ATOM     38  C   UNL A   1      37.732  30.736  28.038  1.00  0.00     0.031 C 
ATOM     39  C   UNL A   1      39.444  34.591  30.283  1.00  0.00     0.029 A 
ATOM     40  N   UNL A   1      40.610  32.731  30.087  1.00  0.00    -0.354 N 
ATOM     41  C   UNL A   1      38.117  28.881  29.278  1.00  0.00     0.074 A 
ATOM     42  C   UNL A   1      37.580  29.408  28.056  1.00  0.00     0.031 C 
ATOM     43  C   UNL A   1      40.743  34.961  30.155  1.00  0.00     0.029 A 
ATOM     44  C   UNL A   1      41.562  33.771  30.033  1.00  0.00     0.049 A 
ATOM     45  H   UNL A   1      40.868  31.782  30.117  1.00  0.00     0.167 HD
ATOM     46  C   UNL A   1      38.873  27.773  29.521  1.00  0.00     0.037 A 
ATOM     47  C   UNL A   1      42.920  33.641  29.932  1.00  0.00     0.037 A 
ATOM     48  C   UNL A   1      39.335  27.788  30.892  1.00  0.00     0.049 A 
ATOM     49  C   UNL A   1      43.233  32.261  30.382  1.00  0.00     0.074 A 
ATOM     50  C   UNL A   1      38.738  27.770  32.136  1.00  0.00     0.029 A 
ATOM     51  N   UNL A   1      40.601  28.283  31.076  1.00  0.00    -0.354 N 
ATOM     52  N   UNL A   1      43.041  31.847  31.604  1.00  0.00    -0.248 NA
ATOM     53  C   UNL A   1      43.257  31.229  29.362  1.00  0.00     0.031 C 
ATOM     54  C   UNL A   1      39.529  28.643  32.942  1.00  0.00     0.029 A 
ATOM     55  C   UNL A   1      40.632  29.064  32.198  1.00  0.00     0.049 A 
ATOM     56  H   UNL A   1      41.372  28.103  30.490  1.00  0.00     0.167 HD
ATOM     57  C   UNL A   1      42.469  30.592  31.460  1.00  0.00     0.074 A 
ATOM     58  C   UNL A   1      42.695  30.236  30.057  1.00  0.00     0.031 C 
ATOM     59  C   UNL A   1      41.605  30.115  32.406  1.00  0.00     0.037 A 
BRANCH  46  60
ATOM     60  C   UNL A   1      39.591  26.960  28.459  1.00  0.00     0.058 A 
ATOM     61  C   UNL A   1      39.532  25.551  28.534  1.00  0.00     0.135 A 
ATOM     62  C   UNL A   1      40.553  27.470  27.556  1.00  0.00     0.135 A 
ATOM     63  F   UNL A   1      38.660  24.947  29.357  1.00  0.00    -0.206 F 
ATOM     64  C   UNL A   1      40.406  24.720  27.830  1.00  0.00     0.059 A 
ATOM     65  C   UNL A   1      41.403  26.659  26.810  1.00  0.00     0.059 A 
ATOM     66  F   UNL A   1      40.785  28.777  27.406  1.00  0.00    -0.206 F 
ATOM     67  C   UNL A   1      41.346  25.287  26.976  1.00  0.00     0.060 A 
BRANCH  67  68
ATOM     68  S   UNL A   1      42.502  24.221  26.099  1.00  0.00     0.124 S 
ATOM     69  O   UNL A   1      42.742  24.986  24.881  1.00  0.00    -0.237 OA
ATOM     70  O   UNL A   1      43.614  24.150  27.042  1.00  0.00    -0.237 OA
ATOM     71  O   UNL A   1      41.751  22.980  25.930  1.00  0.00    -0.744 OA
ENDBRANCH  67  68
ENDBRANCH  46  60
BRANCH  47  72
ATOM     72  C   UNL A   1      43.928  34.441  29.162  1.00  0.00     0.058 A 
ATOM     73  C   UNL A   1      45.285  34.519  29.555  1.00  0.00     0.135 A 
ATOM     74  C   UNL A   1      43.655  34.860  27.849  1.00  0.00     0.135 A 
ATOM     75  F   UNL A   1      45.656  34.121  30.782  1.00  0.00    -0.206 F 
ATOM     76  C   UNL A   1      46.308  34.934  28.683  1.00  0.00     0.059 A 
ATOM     77  C   UNL A   1      44.655  35.276  26.961  1.00  0.00     0.059 A 
ATOM     78  F   UNL A   1      42.411  34.783  27.355  1.00  0.00    -0.206 F 
ATOM     79  C   UNL A   1      45.985  35.288  27.374  1.00  0.00     0.060 A 
BRANCH  79  80
ATOM     80  S   UNL A   1      47.305  35.647  26.180  1.00  0.00     0.124 S 
ATOM     81  O   UNL A   1      48.499  35.591  27.018  1.00  0.00    -0.237 OA
ATOM     82  O   UNL A   1      47.156  34.566  25.213  1.00  0.00    -0.237 OA
ATOM     83  O   UNL A   1      46.958  36.976  25.681  1.00  0.00    -0.744 OA
ENDBRANCH  79  80
ENDBRANCH  47  72
BRANCH  59  84
ATOM     84  C   UNL A   1      41.563  30.821  33.741  1.00  0.00     0.058 A 
ATOM     85  C   UNL A   1      40.608  31.777  34.137  1.00  0.00     0.135 A 
ATOM     86  C   UNL A   1      42.478  30.395  34.714  1.00  0.00     0.135 A 
ATOM     87  F   UNL A   1      39.639  32.172  33.299  1.00  0.00    -0.206 F 
ATOM     88  C   UNL A   1      40.592  32.310  35.431  1.00  0.00     0.059 A 
ATOM     89  C   UNL A   1      42.462  30.889  36.013  1.00  0.00     0.059 A 
ATOM     90  F   UNL A   1      43.376  29.443  34.417  1.00  0.00    -0.206 F 
ATOM     91  C   UNL A   1      41.528  31.860  36.362  1.00  0.00     0.060 A 
BRANCH  91  92
ATOM     92  S   UNL A   1      41.501  32.513  38.047  1.00  0.00     0.124 S 
ATOM     93  O   UNL A   1      42.114  33.826  37.876  1.00  0.00    -0.237 OA
ATOM     94  O   UNL A   1      40.076  32.514  38.364  1.00  0.00    -0.237 OA
ATOM     95  O   UNL A   1      42.298  31.547  38.800  1.00  0.00    -0.744 OA
ENDBRANCH  91  92
ENDBRANCH  59  84
ENDBRANCH  33  34
ENDBRANCH  25  28
ENDBRANCH  23  24
ENDBRANCH   1  23
TORSDOF 16
ENDMDL
