MODEL 1
REMARK VINA RESULT:     -14.0      0.000      0.000
REMARK SMILES Cc1ccc([C@H](C)Nc2ccc(C(=O)NCCCNC(=O)c3ccc(-c4c5nc(c(-c6c(F)cc(S(=O)(=O)[O-])cc6F)c6ccc([nH]6)c(-c6c(F)cc(S(=O)(=O)[O-])cc6F)c6nc(c(-c7c(F)cc(S(=O)(=O)[O-])cc7F)c7ccc4[nH]7)C=C6)C=C5)cc3)cc2Cl)cc1F
REMARK SMILES IDX 17 1 16 2 15 3 13 4 14 5 12 7 9 8 10 9 89 10 11 11 88 12
REMARK SMILES IDX 90 13 8 14 6 16 7 17 5 18 1 19 2 20 3 21 92 22 4 23 91 24
REMARK SMILES IDX 93 25 18 26 19 27 20 28 21 30 22 31 23 32 87 33 24 34 86 35
REMARK SMILES IDX 25 36 26 37 27 38 80 39 28 40 85 41 79 42 81 43 29 44 84 45
REMARK SMILES IDX 78 46 77 47 30 49 64 50 43 51 63 52 44 53 47 54 62 55 82 56
REMARK SMILES IDX 45 57 46 58 61 60 83 61 48 62 31 63 32 64 41 65 33 66 34 67
REMARK SMILES IDX 40 68 42 69 35 70 36 71 37 72 38 73 39 74 65 75 66 76 75 77
REMARK SMILES IDX 67 78 68 79 74 80 76 81 69 82 70 83 71 84 72 85 73 86 49 87
REMARK SMILES IDX 50 88 59 89 51 90 52 91 58 92 60 93 53 94 54 95 55 96 56 97
REMARK SMILES IDX 57 98
REMARK H PARENT 15 6 8 15 19 29 81 48 47 59
REMARK Flexibility Score: inf
ROOT
ATOM      1  C   UNL A   1      33.705  30.359  26.711  1.00  0.00     0.042 C 
ENDROOT
BRANCH   1   2
ATOM      2  C   UNL A   1      32.363  29.618  26.837  1.00  0.00     0.118 C 
BRANCH   2   3
ATOM      3  N   UNL A   1      31.490  29.875  25.696  1.00  0.00    -0.352 N 
ATOM      4  C   UNL A   1      31.185  29.140  24.573  1.00  0.00     0.251 C 
ATOM      5  O   UNL A   1      30.367  29.615  23.783  1.00  0.00    -0.269 OA
ATOM      6  H   UNL A   1      31.028  30.744  25.738  1.00  0.00     0.163 HD
BRANCH   4   7
ATOM      7  C   UNL A   1      31.785  27.806  24.264  1.00  0.00     0.041 A 
ATOM      8  C   UNL A   1      32.984  25.256  23.709  1.00  0.00     0.053 A 
ATOM      9  C   UNL A   1      33.752  26.394  24.039  1.00  0.00     0.028 A 
ATOM     10  C   UNL A   1      31.603  25.442  23.645  1.00  0.00     0.065 A 
ATOM     11  C   UNL A   1      33.169  27.646  24.310  1.00  0.00     0.016 A 
ATOM     12  C   UNL A   1      31.047  26.684  23.929  1.00  0.00     0.036 A 
ATOM     13  Cl  UNL A   1      30.402  24.238  23.294  1.00  0.00    -0.082 Cl
BRANCH   8  14
ATOM     14  N   UNL A   1      33.667  24.089  23.425  1.00  0.00    -0.377 N 
ATOM     15  H   UNL A   1      34.128  24.040  22.557  1.00  0.00     0.161 HD
BRANCH  14  16
ATOM     16  C   UNL A   1      33.763  22.923  24.293  1.00  0.00     0.106 C 
ATOM     17  C   UNL A   1      32.862  21.843  23.682  1.00  0.00     0.036 C 
BRANCH  16  18
ATOM     18  C   UNL A   1      35.227  22.577  24.552  1.00  0.00    -0.023 A 
ATOM     19  C   UNL A   1      39.202  21.711  26.065  1.00  0.00     0.047 C 
ATOM     20  C   UNL A   1      37.855  21.995  25.480  1.00  0.00    -0.015 A 
ATOM     21  C   UNL A   1      36.999  20.972  25.063  1.00  0.00     0.007 A 
ATOM     22  C   UNL A   1      37.403  23.308  25.395  1.00  0.00     0.126 A 
ATOM     23  C   UNL A   1      35.701  21.260  24.609  1.00  0.00     0.006 A 
ATOM     24  C   UNL A   1      36.129  23.597  24.918  1.00  0.00     0.045 A 
ATOM     25  F   UNL A   1      38.187  24.313  25.809  1.00  0.00    -0.207 F 
ENDBRANCH  16  18
ENDBRANCH  14  16
ENDBRANCH   8  14
ENDBRANCH   4   7
ENDBRANCH   2   3
ENDBRANCH   1   2
BRANCH   1  26
ATOM     26  C   UNL A   1      34.766  29.733  27.554  1.00  0.00     0.118 C 
BRANCH  26  27
ATOM     27  N   UNL A   1      35.681  30.741  28.075  1.00  0.00    -0.352 N 
ATOM     28  C   UNL A   1      36.367  30.410  29.241  1.00  0.00     0.251 C 
ATOM     29  H   UNL A   1      35.807  31.608  27.628  1.00  0.00     0.163 HD
ATOM     30  O   UNL A   1      35.919  30.599  30.350  1.00  0.00    -0.269 OA
BRANCH  28  31
ATOM     31  C   UNL A   1      37.527  29.509  28.987  1.00  0.00     0.039 A 
ATOM     32  C   UNL A   1      38.408  29.724  27.926  1.00  0.00     0.014 A 
ATOM     33  C   UNL A   1      37.838  28.587  29.985  1.00  0.00     0.014 A 
ATOM     34  C   UNL A   1      39.629  29.048  27.914  1.00  0.00     0.010 A 
ATOM     35  C   UNL A   1      39.097  28.111  30.094  1.00  0.00     0.010 A 
ATOM     36  C   UNL A   1      39.969  28.274  29.026  1.00  0.00    -0.014 A 
BRANCH  36  37
ATOM     37  C   UNL A   1      41.214  27.572  29.258  1.00  0.00     0.031 A 
ATOM     38  C   UNL A   1      41.389  26.207  28.767  1.00  0.00     0.074 A 
ATOM     39  C   UNL A   1      42.243  28.354  29.656  1.00  0.00     0.049 A 
ATOM     40  N   UNL A   1      42.312  25.415  29.175  1.00  0.00    -0.248 NA
ATOM     41  C   UNL A   1      40.531  25.623  27.742  1.00  0.00     0.031 C 
ATOM     42  C   UNL A   1      43.674  28.116  29.637  1.00  0.00     0.029 A 
ATOM     43  N   UNL A   1      42.121  29.589  30.291  1.00  0.00    -0.354 N 
ATOM     44  C   UNL A   1      42.377  24.364  28.288  1.00  0.00     0.074 A 
ATOM     45  C   UNL A   1      41.190  24.491  27.470  1.00  0.00     0.031 C 
ATOM     46  C   UNL A   1      44.259  28.991  30.481  1.00  0.00     0.029 A 
ATOM     47  C   UNL A   1      43.195  29.719  31.166  1.00  0.00     0.049 A 
ATOM     48  H   UNL A   1      41.405  30.250  30.147  1.00  0.00     0.167 HD
ATOM     49  C   UNL A   1      43.515  23.611  28.257  1.00  0.00     0.037 A 
ATOM     50  C   UNL A   1      42.899  29.635  32.501  1.00  0.00     0.037 A 
ATOM     51  C   UNL A   1      44.465  24.104  29.264  1.00  0.00     0.049 A 
ATOM     52  C   UNL A   1      43.432  28.353  33.098  1.00  0.00     0.074 A 
ATOM     53  C   UNL A   1      45.545  24.970  29.172  1.00  0.00     0.029 A 
ATOM     54  N   UNL A   1      44.130  24.045  30.616  1.00  0.00    -0.354 N 
ATOM     55  N   UNL A   1      43.687  27.268  32.416  1.00  0.00    -0.248 NA
ATOM     56  C   UNL A   1      43.813  28.236  34.499  1.00  0.00     0.031 C 
ATOM     57  C   UNL A   1      45.783  25.514  30.464  1.00  0.00     0.029 A 
ATOM     58  C   UNL A   1      44.867  24.964  31.347  1.00  0.00     0.049 A 
ATOM     59  H   UNL A   1      43.461  23.433  30.999  1.00  0.00     0.167 HD
ATOM     60  C   UNL A   1      44.272  26.336  33.230  1.00  0.00     0.074 A 
ATOM     61  C   UNL A   1      44.337  26.997  34.524  1.00  0.00     0.031 C 
ATOM     62  C   UNL A   1      44.675  25.106  32.786  1.00  0.00     0.037 A 
BRANCH  49  63
ATOM     63  C   UNL A   1      43.879  22.654  27.137  1.00  0.00     0.058 A 
ATOM     64  C   UNL A   1      43.138  21.469  26.926  1.00  0.00     0.135 A 
ATOM     65  C   UNL A   1      44.958  22.830  26.245  1.00  0.00     0.135 A 
ATOM     66  F   UNL A   1      42.041  21.192  27.643  1.00  0.00    -0.206 F 
ATOM     67  C   UNL A   1      43.483  20.508  25.971  1.00  0.00     0.059 A 
ATOM     68  C   UNL A   1      45.355  21.860  25.316  1.00  0.00     0.059 A 
ATOM     69  F   UNL A   1      45.639  23.983  26.196  1.00  0.00    -0.206 F 
ATOM     70  C   UNL A   1      44.609  20.699  25.184  1.00  0.00     0.060 A 
BRANCH  70  71
ATOM     71  S   UNL A   1      45.047  19.438  23.971  1.00  0.00     0.124 S 
ATOM     72  O   UNL A   1      44.332  18.267  24.470  1.00  0.00    -0.237 OA
ATOM     73  O   UNL A   1      44.532  20.016  22.734  1.00  0.00    -0.237 OA
ATOM     74  O   UNL A   1      46.502  19.362  24.066  1.00  0.00    -0.744 OA
ENDBRANCH  70  71
ENDBRANCH  49  63
BRANCH  50  75
ATOM     75  C   UNL A   1      41.588  30.317  32.818  1.00  0.00     0.058 A 
ATOM     76  C   UNL A   1      40.514  29.473  33.182  1.00  0.00     0.135 A 
ATOM     77  C   UNL A   1      41.533  31.641  33.289  1.00  0.00     0.135 A 
ATOM     78  F   UNL A   1      40.488  28.202  32.745  1.00  0.00    -0.206 F 
ATOM     79  C   UNL A   1      39.558  29.850  34.126  1.00  0.00     0.059 A 
ATOM     80  C   UNL A   1      40.572  32.045  34.232  1.00  0.00     0.059 A 
ATOM     81  F   UNL A   1      42.498  32.514  32.962  1.00  0.00    -0.206 F 
ATOM     82  C   UNL A   1      39.645  31.112  34.707  1.00  0.00     0.060 A 
BRANCH  82  83
ATOM     83  S   UNL A   1      38.622  31.445  36.169  1.00  0.00     0.124 S 
ATOM     84  O   UNL A   1      37.513  32.206  35.605  1.00  0.00    -0.237 OA
ATOM     85  O   UNL A   1      38.279  30.096  36.627  1.00  0.00    -0.237 OA
ATOM     86  O   UNL A   1      39.513  32.193  37.047  1.00  0.00    -0.744 OA
ENDBRANCH  82  83
ENDBRANCH  50  75
BRANCH  62  87
ATOM     87  C   UNL A   1      45.024  23.938  33.682  1.00  0.00     0.058 A 
ATOM     88  C   UNL A   1      44.138  22.887  33.974  1.00  0.00     0.135 A 
ATOM     89  C   UNL A   1      46.349  23.764  34.158  1.00  0.00     0.135 A 
ATOM     90  F   UNL A   1      42.894  22.856  33.475  1.00  0.00    -0.206 F 
ATOM     91  C   UNL A   1      44.507  21.790  34.748  1.00  0.00     0.059 A 
ATOM     92  C   UNL A   1      46.758  22.639  34.867  1.00  0.00     0.059 A 
ATOM     93  F   UNL A   1      47.306  24.675  33.929  1.00  0.00    -0.206 F 
ATOM     94  C   UNL A   1      45.820  21.671  35.188  1.00  0.00     0.060 A 
BRANCH  94  95
ATOM     95  S   UNL A   1      46.311  20.217  36.125  1.00  0.00     0.124 S 
ATOM     96  O   UNL A   1      45.639  19.155  35.382  1.00  0.00    -0.237 OA
ATOM     97  O   UNL A   1      47.767  20.240  36.015  1.00  0.00    -0.237 OA
ATOM     98  O   UNL A   1      45.788  20.486  37.460  1.00  0.00    -0.744 OA
ENDBRANCH  94  95
ENDBRANCH  62  87
ENDBRANCH  36  37
ENDBRANCH  28  31
ENDBRANCH  26  27
ENDBRANCH   1  26
TORSDOF 16
ENDMDL
MODEL 2
REMARK VINA RESULT:     -14.0      1.379      2.110
REMARK SMILES Cc1ccc([C@H](C)Nc2ccc(C(=O)NCCCNC(=O)c3ccc(-c4c5nc(c(-c6c(F)cc(S(=O)(=O)[O-])cc6F)c6ccc([nH]6)c(-c6c(F)cc(S(=O)(=O)[O-])cc6F)c6nc(c(-c7c(F)cc(S(=O)(=O)[O-])cc7F)c7ccc4[nH]7)C=C6)C=C5)cc3)cc2Cl)cc1F
REMARK SMILES IDX 17 1 16 2 15 3 13 4 14 5 12 7 9 8 10 9 89 10 11 11 88 12
REMARK SMILES IDX 90 13 8 14 6 16 7 17 5 18 1 19 2 20 3 21 92 22 4 23 91 24
REMARK SMILES IDX 93 25 18 26 19 27 20 28 21 30 22 31 23 32 87 33 24 34 86 35
REMARK SMILES IDX 25 36 26 37 27 38 80 39 28 40 85 41 79 42 81 43 29 44 84 45
REMARK SMILES IDX 78 46 77 47 30 49 64 50 43 51 63 52 44 53 47 54 62 55 82 56
REMARK SMILES IDX 45 57 46 58 61 60 83 61 48 62 31 63 32 64 41 65 33 66 34 67
REMARK SMILES IDX 40 68 42 69 35 70 36 71 37 72 38 73 39 74 65 75 66 76 75 77
REMARK SMILES IDX 67 78 68 79 74 80 76 81 69 82 70 83 71 84 72 85 73 86 49 87
REMARK SMILES IDX 50 88 59 89 51 90 52 91 58 92 60 93 53 94 54 95 55 96 56 97
REMARK SMILES IDX 57 98
REMARK H PARENT 15 6 8 15 19 29 81 48 47 59
REMARK Flexibility Score: inf
ROOT
ATOM      1  C   UNL A   1      33.370  29.918  26.846  1.00  0.00     0.042 C 
ENDROOT
BRANCH   1   2
ATOM      2  C   UNL A   1      33.216  29.404  25.405  1.00  0.00     0.118 C 
BRANCH   2   3
ATOM      3  N   UNL A   1      31.925  29.770  24.831  1.00  0.00    -0.352 N 
ATOM      4  C   UNL A   1      30.965  29.047  24.160  1.00  0.00     0.251 C 
ATOM      5  O   UNL A   1      29.938  29.636  23.819  1.00  0.00    -0.269 OA
ATOM      6  H   UNL A   1      31.695  30.720  24.947  1.00  0.00     0.163 HD
BRANCH   4   7
ATOM      7  C   UNL A   1      31.099  27.594  23.828  1.00  0.00     0.041 A 
ATOM      8  C   UNL A   1      31.398  24.820  23.149  1.00  0.00     0.053 A 
ATOM      9  C   UNL A   1      31.583  25.852  22.203  1.00  0.00     0.028 A 
ATOM     10  C   UNL A   1      31.039  25.222  24.437  1.00  0.00     0.065 A 
ATOM     11  C   UNL A   1      31.436  27.212  22.531  1.00  0.00     0.016 A 
ATOM     12  C   UNL A   1      30.912  26.571  24.741  1.00  0.00     0.036 A 
ATOM     13  Cl  UNL A   1      30.770  24.197  25.813  1.00  0.00    -0.082 Cl
BRANCH   8  14
ATOM     14  N   UNL A   1      31.532  23.519  22.706  1.00  0.00    -0.377 N 
ATOM     15  H   UNL A   1      30.718  23.073  22.373  1.00  0.00     0.161 HD
BRANCH  14  16
ATOM     16  C   UNL A   1      32.765  22.744  22.688  1.00  0.00     0.106 C 
ATOM     17  C   UNL A   1      33.866  23.657  23.242  1.00  0.00     0.036 C 
BRANCH  16  18
ATOM     18  C   UNL A   1      32.548  21.390  23.358  1.00  0.00    -0.023 A 
ATOM     19  C   UNL A   1      32.639  17.344  24.926  1.00  0.00     0.047 C 
ATOM     20  C   UNL A   1      32.548  18.748  24.420  1.00  0.00    -0.015 A 
ATOM     21  C   UNL A   1      32.838  19.848  25.233  1.00  0.00     0.007 A 
ATOM     22  C   UNL A   1      32.224  18.981  23.088  1.00  0.00     0.126 A 
ATOM     23  C   UNL A   1      32.842  21.151  24.707  1.00  0.00     0.006 A 
ATOM     24  C   UNL A   1      32.197  20.273  22.573  1.00  0.00     0.045 A 
ATOM     25  F   UNL A   1      31.964  17.950  22.272  1.00  0.00    -0.207 F 
ENDBRANCH  16  18
ENDBRANCH  14  16
ENDBRANCH   8  14
ENDBRANCH   4   7
ENDBRANCH   2   3
ENDBRANCH   1   2
BRANCH   1  26
ATOM     26  C   UNL A   1      34.620  29.413  27.486  1.00  0.00     0.118 C 
BRANCH  26  27
ATOM     27  N   UNL A   1      35.533  30.509  27.785  1.00  0.00    -0.352 N 
ATOM     28  C   UNL A   1      36.324  30.362  28.921  1.00  0.00     0.251 C 
ATOM     29  H   UNL A   1      35.587  31.309  27.215  1.00  0.00     0.163 HD
ATOM     30  O   UNL A   1      35.961  30.690  30.029  1.00  0.00    -0.269 OA
BRANCH  28  31
ATOM     31  C   UNL A   1      37.495  29.469  28.692  1.00  0.00     0.039 A 
ATOM     32  C   UNL A   1      38.401  29.693  27.654  1.00  0.00     0.014 A 
ATOM     33  C   UNL A   1      37.787  28.544  29.694  1.00  0.00     0.014 A 
ATOM     34  C   UNL A   1      39.625  29.023  27.669  1.00  0.00     0.010 A 
ATOM     35  C   UNL A   1      39.046  28.075  29.831  1.00  0.00     0.010 A 
ATOM     36  C   UNL A   1      39.943  28.247  28.786  1.00  0.00    -0.014 A 
BRANCH  36  37
ATOM     37  C   UNL A   1      41.186  27.552  29.045  1.00  0.00     0.031 A 
ATOM     38  C   UNL A   1      41.367  26.177  28.583  1.00  0.00     0.074 A 
ATOM     39  C   UNL A   1      42.209  28.342  29.439  1.00  0.00     0.049 A 
ATOM     40  N   UNL A   1      42.287  25.395  29.016  1.00  0.00    -0.248 NA
ATOM     41  C   UNL A   1      40.521  25.572  27.560  1.00  0.00     0.031 C 
ATOM     42  C   UNL A   1      43.641  28.105  29.441  1.00  0.00     0.029 A 
ATOM     43  N   UNL A   1      42.079  29.589  30.049  1.00  0.00    -0.354 N 
ATOM     44  C   UNL A   1      42.362  24.326  28.150  1.00  0.00     0.074 A 
ATOM     45  C   UNL A   1      41.185  24.437  27.317  1.00  0.00     0.031 C 
ATOM     46  C   UNL A   1      44.215  28.997  30.275  1.00  0.00     0.029 A 
ATOM     47  C   UNL A   1      43.143  29.737  30.934  1.00  0.00     0.049 A 
ATOM     48  H   UNL A   1      41.364  30.246  29.884  1.00  0.00     0.167 HD
ATOM     49  C   UNL A   1      43.502  23.574  28.147  1.00  0.00     0.037 A 
ATOM     50  C   UNL A   1      42.832  29.679  32.266  1.00  0.00     0.037 A 
ATOM     51  C   UNL A   1      44.440  24.088  29.154  1.00  0.00     0.049 A 
ATOM     52  C   UNL A   1      43.360  28.409  32.893  1.00  0.00     0.074 A 
ATOM     53  C   UNL A   1      45.519  24.954  29.058  1.00  0.00     0.029 A 
ATOM     54  N   UNL A   1      44.090  24.054  30.504  1.00  0.00    -0.354 N 
ATOM     55  N   UNL A   1      43.623  27.311  32.236  1.00  0.00    -0.248 NA
ATOM     56  C   UNL A   1      43.726  28.319  34.301  1.00  0.00     0.031 C 
ATOM     57  C   UNL A   1      45.743  25.522  30.342  1.00  0.00     0.029 A 
ATOM     58  C   UNL A   1      44.817  24.988  31.224  1.00  0.00     0.049 A 
ATOM     59  H   UNL A   1      43.417  23.449  30.891  1.00  0.00     0.167 HD
ATOM     60  C   UNL A   1      44.200  26.396  33.074  1.00  0.00     0.074 A 
ATOM     61  C   UNL A   1      44.250  27.082  34.356  1.00  0.00     0.031 C 
ATOM     62  C   UNL A   1      44.609  25.158  32.659  1.00  0.00     0.037 A 
BRANCH  49  63
ATOM     63  C   UNL A   1      43.879  22.596  27.049  1.00  0.00     0.058 A 
ATOM     64  C   UNL A   1      43.082  21.459  26.786  1.00  0.00     0.135 A 
ATOM     65  C   UNL A   1      45.023  22.706  26.231  1.00  0.00     0.135 A 
ATOM     66  F   UNL A   1      41.925  21.250  27.428  1.00  0.00    -0.206 F 
ATOM     67  C   UNL A   1      43.430  20.479  25.851  1.00  0.00     0.059 A 
ATOM     68  C   UNL A   1      45.421  21.712  25.326  1.00  0.00     0.059 A 
ATOM     69  F   UNL A   1      45.776  23.814  26.232  1.00  0.00    -0.206 F 
ATOM     70  C   UNL A   1      44.615  20.599  25.142  1.00  0.00     0.060 A 
BRANCH  70  71
ATOM     71  S   UNL A   1      45.053  19.313  23.955  1.00  0.00     0.124 S 
ATOM     72  O   UNL A   1      44.564  19.873  22.698  1.00  0.00    -0.237 OA
ATOM     73  O   UNL A   1      46.504  19.250  24.099  1.00  0.00    -0.237 OA
ATOM     74  O   UNL A   1      44.327  18.142  24.436  1.00  0.00    -0.744 OA
ENDBRANCH  70  71
ENDBRANCH  49  63
BRANCH  50  75
ATOM     75  C   UNL A   1      41.517  30.364  32.555  1.00  0.00     0.058 A 
ATOM     76  C   UNL A   1      40.439  29.526  32.921  1.00  0.00     0.135 A 
ATOM     77  C   UNL A   1      41.455  31.697  33.002  1.00  0.00     0.135 A 
ATOM     78  F   UNL A   1      40.419  28.248  32.506  1.00  0.00    -0.206 F 
ATOM     79  C   UNL A   1      39.472  29.919  33.846  1.00  0.00     0.059 A 
ATOM     80  C   UNL A   1      40.483  32.116  33.927  1.00  0.00     0.059 A 
ATOM     81  F   UNL A   1      42.424  32.565  32.672  1.00  0.00    -0.206 F 
ATOM     82  C   UNL A   1      39.551  31.191  34.406  1.00  0.00     0.060 A 
BRANCH  82  83
ATOM     83  S   UNL A   1      38.510  31.548  35.850  1.00  0.00     0.124 S 
ATOM     84  O   UNL A   1      39.275  32.586  36.534  1.00  0.00    -0.237 OA
ATOM     85  O   UNL A   1      37.262  32.003  35.235  1.00  0.00    -0.237 OA
ATOM     86  O   UNL A   1      38.434  30.268  36.543  1.00  0.00    -0.744 OA
ENDBRANCH  82  83
ENDBRANCH  50  75
BRANCH  62  87
ATOM     87  C   UNL A   1      44.949  24.008  33.581  1.00  0.00     0.058 A 
ATOM     88  C   UNL A   1      44.035  23.005  33.948  1.00  0.00     0.135 A 
ATOM     89  C   UNL A   1      46.285  23.794  34.006  1.00  0.00     0.135 A 
ATOM     90  F   UNL A   1      42.770  23.009  33.503  1.00  0.00    -0.206 F 
ATOM     91  C   UNL A   1      44.393  21.921  34.744  1.00  0.00     0.059 A 
ATOM     92  C   UNL A   1      46.679  22.679  34.738  1.00  0.00     0.059 A 
ATOM     93  F   UNL A   1      47.268  24.656  33.705  1.00  0.00    -0.206 F 
ATOM     94  C   UNL A   1      45.717  21.762  35.133  1.00  0.00     0.060 A 
BRANCH  94  95
ATOM     95  S   UNL A   1      46.189  20.322  36.101  1.00  0.00     0.124 S 
ATOM     96  O   UNL A   1      47.634  20.298  35.897  1.00  0.00    -0.237 OA
ATOM     97  O   UNL A   1      45.748  20.680  37.446  1.00  0.00    -0.237 OA
ATOM     98  O   UNL A   1      45.442  19.237  35.474  1.00  0.00    -0.744 OA
ENDBRANCH  94  95
ENDBRANCH  62  87
ENDBRANCH  36  37
ENDBRANCH  28  31
ENDBRANCH  26  27
ENDBRANCH   1  26
TORSDOF 16
ENDMDL
MODEL 3
REMARK VINA RESULT:     -13.6      5.216     11.575
REMARK SMILES Cc1ccc([C@H](C)Nc2ccc(C(=O)NCCCNC(=O)c3ccc(-c4c5nc(c(-c6c(F)cc(S(=O)(=O)[O-])cc6F)c6ccc([nH]6)c(-c6c(F)cc(S(=O)(=O)[O-])cc6F)c6nc(c(-c7c(F)cc(S(=O)(=O)[O-])cc7F)c7ccc4[nH]7)C=C6)C=C5)cc3)cc2Cl)cc1F
REMARK SMILES IDX 17 1 16 2 15 3 13 4 14 5 12 7 9 8 10 9 89 10 11 11 88 12
REMARK SMILES IDX 90 13 8 14 6 16 7 17 5 18 1 19 2 20 3 21 92 22 4 23 91 24
REMARK SMILES IDX 93 25 18 26 19 27 20 28 21 30 22 31 23 32 87 33 24 34 86 35
REMARK SMILES IDX 25 36 26 37 27 38 80 39 28 40 85 41 79 42 81 43 29 44 84 45
REMARK SMILES IDX 78 46 77 47 30 49 64 50 43 51 63 52 44 53 47 54 62 55 82 56
REMARK SMILES IDX 45 57 46 58 61 60 83 61 48 62 31 63 32 64 41 65 33 66 34 67
REMARK SMILES IDX 40 68 42 69 35 70 36 71 37 72 38 73 39 74 65 75 66 76 75 77
REMARK SMILES IDX 67 78 68 79 74 80 76 81 69 82 70 83 71 84 72 85 73 86 49 87
REMARK SMILES IDX 50 88 59 89 51 90 52 91 58 92 60 93 53 94 54 95 55 96 56 97
REMARK SMILES IDX 57 98
REMARK H PARENT 15 6 8 15 19 29 81 48 47 59
REMARK Flexibility Score: inf
ROOT
ATOM      1  C   UNL A   1      37.056  23.081  25.972  1.00  0.00     0.042 C 
ENDROOT
BRANCH   1   2
ATOM      2  C   UNL A   1      36.310  22.766  24.664  1.00  0.00     0.118 C 
BRANCH   2   3
ATOM      3  N   UNL A   1      35.692  21.444  24.693  1.00  0.00    -0.352 N 
ATOM      4  C   UNL A   1      34.383  21.026  24.617  1.00  0.00     0.251 C 
ATOM      5  O   UNL A   1      34.167  19.813  24.635  1.00  0.00    -0.269 OA
ATOM      6  H   UNL A   1      36.338  20.707  24.785  1.00  0.00     0.163 HD
BRANCH   4   7
ATOM      7  C   UNL A   1      33.217  21.957  24.511  1.00  0.00     0.041 A 
ATOM      8  C   UNL A   1      30.978  23.736  24.247  1.00  0.00     0.053 A 
ATOM      9  C   UNL A   1      31.927  23.561  23.217  1.00  0.00     0.028 A 
ATOM     10  C   UNL A   1      31.198  23.008  25.418  1.00  0.00     0.065 A 
ATOM     11  C   UNL A   1      33.027  22.692  23.342  1.00  0.00     0.016 A 
ATOM     12  C   UNL A   1      32.283  22.146  25.515  1.00  0.00     0.036 A 
ATOM     13  Cl  UNL A   1      30.200  22.990  26.839  1.00  0.00    -0.082 Cl
BRANCH   8  14
ATOM     14  N   UNL A   1      29.960  24.643  24.027  1.00  0.00    -0.377 N 
ATOM     15  H   UNL A   1      29.040  24.292  24.021  1.00  0.00     0.161 HD
BRANCH  14  16
ATOM     16  C   UNL A   1      30.125  26.073  23.800  1.00  0.00     0.106 C 
ATOM     17  C   UNL A   1      28.726  26.695  23.877  1.00  0.00     0.036 C 
BRANCH  16  18
ATOM     18  C   UNL A   1      31.212  26.631  24.716  1.00  0.00    -0.023 A 
ATOM     19  C   UNL A   1      34.055  28.937  27.048  1.00  0.00     0.047 C 
ATOM     20  C   UNL A   1      33.100  28.084  26.274  1.00  0.00    -0.015 A 
ATOM     21  C   UNL A   1      31.962  27.526  26.864  1.00  0.00     0.007 A 
ATOM     22  C   UNL A   1      33.304  27.880  24.914  1.00  0.00     0.126 A 
ATOM     23  C   UNL A   1      31.029  26.813  26.093  1.00  0.00     0.006 A 
ATOM     24  C   UNL A   1      32.397  27.148  24.156  1.00  0.00     0.045 A 
ATOM     25  F   UNL A   1      34.371  28.421  24.309  1.00  0.00    -0.207 F 
ENDBRANCH  16  18
ENDBRANCH  14  16
ENDBRANCH   8  14
ENDBRANCH   4   7
ENDBRANCH   2   3
ENDBRANCH   1   2
BRANCH   1  26
ATOM     26  C   UNL A   1      38.215  23.992  25.745  1.00  0.00     0.118 C 
BRANCH  26  27
ATOM     27  N   UNL A   1      39.248  23.785  26.752  1.00  0.00    -0.352 N 
ATOM     28  C   UNL A   1      40.275  24.724  26.788  1.00  0.00     0.251 C 
ATOM     29  H   UNL A   1      39.221  23.022  27.373  1.00  0.00     0.163 HD
ATOM     30  O   UNL A   1      41.272  24.643  26.105  1.00  0.00    -0.269 OA
BRANCH  28  31
ATOM     31  C   UNL A   1      39.876  25.983  27.478  1.00  0.00     0.039 A 
ATOM     32  C   UNL A   1      39.358  25.980  28.775  1.00  0.00     0.014 A 
ATOM     33  C   UNL A   1      40.261  27.181  26.876  1.00  0.00     0.014 A 
ATOM     34  C   UNL A   1      39.290  27.184  29.477  1.00  0.00     0.010 A 
ATOM     35  C   UNL A   1      40.407  28.294  27.626  1.00  0.00     0.010 A 
ATOM     36  C   UNL A   1      39.854  28.323  28.899  1.00  0.00    -0.014 A 
BRANCH  36  37
ATOM     37  C   UNL A   1      39.975  29.639  29.490  1.00  0.00     0.031 A 
ATOM     38  C   UNL A   1      38.866  30.587  29.401  1.00  0.00     0.074 A 
ATOM     39  C   UNL A   1      41.006  29.784  30.351  1.00  0.00     0.049 A 
ATOM     40  N   UNL A   1      38.985  31.846  29.619  1.00  0.00    -0.248 NA
ATOM     41  C   UNL A   1      37.505  30.179  29.072  1.00  0.00     0.031 C 
ATOM     42  C   UNL A   1      41.245  30.776  31.382  1.00  0.00     0.029 A 
ATOM     43  N   UNL A   1      42.167  29.012  30.359  1.00  0.00    -0.354 N 
ATOM     44  C   UNL A   1      37.716  32.362  29.765  1.00  0.00     0.074 A 
ATOM     45  C   UNL A   1      36.831  31.306  29.325  1.00  0.00     0.031 C 
ATOM     46  C   UNL A   1      42.557  30.750  31.699  1.00  0.00     0.029 A 
ATOM     47  C   UNL A   1      43.213  29.832  30.773  1.00  0.00     0.049 A 
ATOM     48  H   UNL A   1      42.235  28.060  30.115  1.00  0.00     0.167 HD
ATOM     49  C   UNL A   1      37.574  33.565  30.394  1.00  0.00     0.037 A 
ATOM     50  C   UNL A   1      44.124  30.180  29.811  1.00  0.00     0.037 A 
ATOM     51  C   UNL A   1      38.895  34.087  30.772  1.00  0.00     0.049 A 
ATOM     52  C   UNL A   1      44.005  31.644  29.455  1.00  0.00     0.074 A 
ATOM     53  C   UNL A   1      39.608  34.031  31.961  1.00  0.00     0.029 A 
ATOM     54  N   UNL A   1      39.822  34.401  29.779  1.00  0.00    -0.354 N 
ATOM     55  N   UNL A   1      42.929  32.365  29.627  1.00  0.00    -0.248 NA
ATOM     56  C   UNL A   1      45.132  32.430  28.969  1.00  0.00     0.031 C 
ATOM     57  C   UNL A   1      40.985  34.206  31.656  1.00  0.00     0.029 A 
ATOM     58  C   UNL A   1      41.111  34.390  30.288  1.00  0.00     0.049 A 
ATOM     59  H   UNL A   1      39.592  34.604  28.844  1.00  0.00     0.167 HD
ATOM     60  C   UNL A   1      43.193  33.672  29.321  1.00  0.00     0.074 A 
ATOM     61  C   UNL A   1      44.592  33.660  28.923  1.00  0.00     0.031 C 
ATOM     62  C   UNL A   1      42.260  34.667  29.431  1.00  0.00     0.037 A 
BRANCH  49  63
ATOM     63  C   UNL A   1      36.259  34.103  30.928  1.00  0.00     0.058 A 
ATOM     64  C   UNL A   1      35.202  34.431  30.051  1.00  0.00     0.135 A 
ATOM     65  C   UNL A   1      35.979  34.338  32.291  1.00  0.00     0.135 A 
ATOM     66  F   UNL A   1      35.285  34.199  28.734  1.00  0.00    -0.206 F 
ATOM     67  C   UNL A   1      34.005  35.015  30.478  1.00  0.00     0.059 A 
ATOM     68  C   UNL A   1      34.811  34.969  32.738  1.00  0.00     0.059 A 
ATOM     69  F   UNL A   1      36.804  33.910  33.255  1.00  0.00    -0.206 F 
ATOM     70  C   UNL A   1      33.825  35.305  31.822  1.00  0.00     0.060 A 
BRANCH  70  71
ATOM     71  S   UNL A   1      32.282  36.075  32.348  1.00  0.00     0.124 S 
ATOM     72  O   UNL A   1      32.738  37.020  33.363  1.00  0.00    -0.237 OA
ATOM     73  O   UNL A   1      31.798  36.665  31.105  1.00  0.00    -0.237 OA
ATOM     74  O   UNL A   1      31.496  34.954  32.855  1.00  0.00    -0.744 OA
ENDBRANCH  70  71
ENDBRANCH  49  63
BRANCH  50  75
ATOM     75  C   UNL A   1      44.400  29.029  28.871  1.00  0.00     0.058 A 
ATOM     76  C   UNL A   1      43.931  29.174  27.546  1.00  0.00     0.135 A 
ATOM     77  C   UNL A   1      45.492  28.161  29.060  1.00  0.00     0.135 A 
ATOM     78  F   UNL A   1      42.875  29.966  27.296  1.00  0.00    -0.206 F 
ATOM     79  C   UNL A   1      44.628  28.664  26.450  1.00  0.00     0.059 A 
ATOM     80  C   UNL A   1      46.202  27.629  27.969  1.00  0.00     0.059 A 
ATOM     81  F   UNL A   1      45.977  27.946  30.292  1.00  0.00    -0.206 F 
ATOM     82  C   UNL A   1      45.810  27.961  26.670  1.00  0.00     0.060 A 
BRANCH  82  83
ATOM     83  S   UNL A   1      46.872  27.620  25.238  1.00  0.00     0.124 S 
ATOM     84  O   UNL A   1      46.207  26.476  24.624  1.00  0.00    -0.237 OA
ATOM     85  O   UNL A   1      46.785  28.869  24.477  1.00  0.00    -0.237 OA
ATOM     86  O   UNL A   1      48.172  27.343  25.834  1.00  0.00    -0.744 OA
ENDBRANCH  82  83
ENDBRANCH  50  75
BRANCH  62  87
ATOM     87  C   UNL A   1      42.389  36.043  28.815  1.00  0.00     0.058 A 
ATOM     88  C   UNL A   1      43.023  37.125  29.450  1.00  0.00     0.135 A 
ATOM     89  C   UNL A   1      42.005  36.271  27.469  1.00  0.00     0.135 A 
ATOM     90  F   UNL A   1      43.557  37.008  30.675  1.00  0.00    -0.206 F 
ATOM     91  C   UNL A   1      43.188  38.362  28.834  1.00  0.00     0.059 A 
ATOM     92  C   UNL A   1      42.229  37.475  26.810  1.00  0.00     0.059 A 
ATOM     93  F   UNL A   1      41.414  35.318  26.734  1.00  0.00    -0.206 F 
ATOM     94  C   UNL A   1      42.792  38.529  27.513  1.00  0.00     0.060 A 
BRANCH  94  95
ATOM     95  S   UNL A   1      43.072  40.107  26.697  1.00  0.00     0.124 S 
ATOM     96  O   UNL A   1      43.342  40.977  27.838  1.00  0.00    -0.237 OA
ATOM     97  O   UNL A   1      44.216  39.825  25.835  1.00  0.00    -0.237 OA
ATOM     98  O   UNL A   1      41.816  40.350  25.996  1.00  0.00    -0.744 OA
ENDBRANCH  94  95
ENDBRANCH  62  87
ENDBRANCH  36  37
ENDBRANCH  28  31
ENDBRANCH  26  27
ENDBRANCH   1  26
TORSDOF 16
ENDMDL
