MODEL 1
REMARK VINA RESULT:     -12.5      0.000      0.000
REMARK SMILES O=C(NCCCNC(=O)c1c(F)cccc1NC(=O)c1ccc[nH]c1=O)c1ccc(-c2c3nc(c(-c4c(F)cc(S(=O)(=O)[O-])cc4F)c4ccc([nH]4)c(-c4c(F)cc(S(=O)(=O)[O-])cc4F)c4nc(c(-c5c(F)cc(S(=O)(=O)[O-])cc5F)c5ccc2[nH]5)C=C4)C=C3)cc1
REMARK SMILES IDX 4 1 3 2 1 3 2 4 27 6 28 7 92 8 29 9 91 10 30 11 31 12 32 13
REMARK SMILES IDX 85 14 33 15 90 16 84 17 86 18 34 19 89 20 83 21 82 22 35 24
REMARK SMILES IDX 69 25 48 26 68 27 49 28 52 29 67 30 87 31 50 32 51 33 66 35
REMARK SMILES IDX 88 36 53 37 36 38 37 39 46 40 38 41 39 42 45 43 47 44 40 45
REMARK SMILES IDX 41 46 42 47 43 48 44 49 70 50 71 51 80 52 72 53 73 54 79 55
REMARK SMILES IDX 81 56 74 57 75 58 76 59 77 60 78 61 54 62 55 63 64 64 56 65
REMARK SMILES IDX 57 66 63 67 65 68 58 69 59 70 60 71 61 72 62 73 5 74 6 75
REMARK SMILES IDX 7 76 8 77 9 79 10 80 11 81 16 82 12 83 13 84 15 85 14 86
REMARK SMILES IDX 17 87 18 88 19 90 20 91 21 92 25 93 22 94 24 95 26 96 23 97
REMARK H PARENT 3 5 86 23 52 34 7 78 17 89 24 98
REMARK Flexibility Score: inf
ROOT
ATOM      1  C   UNL A   1      38.380  23.969  26.653  1.00  0.00     0.118 C 
ENDROOT
BRANCH   1   2
ATOM      2  N   UNL A   1      39.772  23.944  26.223  1.00  0.00    -0.352 N 
ATOM      3  O   UNL A   1      41.842  24.739  25.855  1.00  0.00    -0.269 OA
ATOM      4  C   UNL A   1      40.799  24.814  26.500  1.00  0.00     0.251 C 
ATOM      5  H   UNL A   1      40.015  23.186  25.645  1.00  0.00     0.163 HD
BRANCH   4   6
ATOM      6  C   UNL A   1      40.649  25.836  27.558  1.00  0.00     0.039 A 
ATOM      7  C   UNL A   1      39.722  25.665  28.587  1.00  0.00     0.014 A 
ATOM      8  C   UNL A   1      41.487  26.957  27.554  1.00  0.00     0.014 A 
ATOM      9  C   UNL A   1      39.536  26.666  29.530  1.00  0.00     0.010 A 
ATOM     10  C   UNL A   1      41.370  27.917  28.563  1.00  0.00     0.010 A 
ATOM     11  C   UNL A   1      40.385  27.783  29.553  1.00  0.00    -0.014 A 
BRANCH  11  12
ATOM     12  C   UNL A   1      40.308  28.715  30.704  1.00  0.00     0.031 A 
ATOM     13  C   UNL A   1      41.209  28.569  31.894  1.00  0.00     0.074 A 
ATOM     14  C   UNL A   1      39.410  29.720  30.639  1.00  0.00     0.049 A 
ATOM     15  N   UNL A   1      41.255  29.303  32.977  1.00  0.00    -0.248 NA
ATOM     16  C   UNL A   1      42.180  27.463  31.879  1.00  0.00     0.031 C 
ATOM     17  C   UNL A   1      38.475  29.941  29.530  1.00  0.00     0.029 A 
ATOM     18  N   UNL A   1      39.140  30.748  31.504  1.00  0.00    -0.354 N 
ATOM     19  C   UNL A   1      42.244  28.745  33.776  1.00  0.00     0.074 A 
ATOM     20  C   UNL A   1      42.767  27.598  33.064  1.00  0.00     0.031 C 
ATOM     21  C   UNL A   1      37.765  31.052  29.763  1.00  0.00     0.029 A 
ATOM     22  C   UNL A   1      38.139  31.585  31.067  1.00  0.00     0.049 A 
ATOM     23  H   UNL A   1      39.616  30.876  32.356  1.00  0.00     0.167 HD
ATOM     24  C   UNL A   1      42.675  29.164  34.988  1.00  0.00     0.037 A 
ATOM     25  C   UNL A   1      37.559  32.644  31.661  1.00  0.00     0.037 A 
ATOM     26  C   UNL A   1      42.159  30.324  35.671  1.00  0.00     0.049 A 
ATOM     27  C   UNL A   1      38.034  33.059  33.021  1.00  0.00     0.074 A 
ATOM     28  C   UNL A   1      42.576  30.863  36.877  1.00  0.00     0.029 A 
ATOM     29  N   UNL A   1      41.119  31.121  35.216  1.00  0.00    -0.354 N 
ATOM     30  N   UNL A   1      39.002  32.545  33.742  1.00  0.00    -0.248 NA
ATOM     31  C   UNL A   1      37.336  34.183  33.658  1.00  0.00     0.031 C 
ATOM     32  C   UNL A   1      41.755  31.953  37.175  1.00  0.00     0.029 A 
ATOM     33  C   UNL A   1      40.855  32.122  36.135  1.00  0.00     0.049 A 
ATOM     34  H   UNL A   1      40.639  30.992  34.366  1.00  0.00     0.167 HD
ATOM     35  C   UNL A   1      39.025  33.278  34.920  1.00  0.00     0.074 A 
ATOM     36  C   UNL A   1      37.997  34.292  34.804  1.00  0.00     0.031 C 
ATOM     37  C   UNL A   1      39.820  33.117  36.005  1.00  0.00     0.037 A 
BRANCH  24  38
ATOM     38  C   UNL A   1      43.759  28.387  35.680  1.00  0.00     0.058 A 
ATOM     39  C   UNL A   1      43.437  27.461  36.687  1.00  0.00     0.135 A 
ATOM     40  C   UNL A   1      45.116  28.666  35.456  1.00  0.00     0.135 A 
ATOM     41  F   UNL A   1      42.154  27.154  36.935  1.00  0.00    -0.206 F 
ATOM     42  C   UNL A   1      44.420  26.869  37.472  1.00  0.00     0.059 A 
ATOM     43  C   UNL A   1      46.118  28.071  36.220  1.00  0.00     0.059 A 
ATOM     44  F   UNL A   1      45.478  29.529  34.493  1.00  0.00    -0.206 F 
ATOM     45  C   UNL A   1      45.757  27.192  37.241  1.00  0.00     0.060 A 
BRANCH  45  46
ATOM     46  S   UNL A   1      47.019  26.442  38.294  1.00  0.00     0.124 S 
ATOM     47  O   UNL A   1      47.592  25.436  37.408  1.00  0.00    -0.237 OA
ATOM     48  O   UNL A   1      47.875  27.583  38.604  1.00  0.00    -0.237 OA
ATOM     49  O   UNL A   1      46.251  25.923  39.423  1.00  0.00    -0.744 OA
ENDBRANCH  45  46
ENDBRANCH  24  38
BRANCH  25  50
ATOM     50  C   UNL A   1      36.437  33.345  30.984  1.00  0.00     0.058 A 
ATOM     51  C   UNL A   1      36.671  34.176  29.876  1.00  0.00     0.135 A 
ATOM     52  C   UNL A   1      35.119  33.222  31.442  1.00  0.00     0.135 A 
ATOM     53  F   UNL A   1      37.918  34.337  29.406  1.00  0.00    -0.206 F 
ATOM     54  C   UNL A   1      35.643  34.881  29.264  1.00  0.00     0.059 A 
ATOM     55  C   UNL A   1      34.066  33.894  30.826  1.00  0.00     0.059 A 
ATOM     56  F   UNL A   1      34.844  32.431  32.490  1.00  0.00    -0.206 F 
ATOM     57  C   UNL A   1      34.342  34.733  29.747  1.00  0.00     0.060 A 
BRANCH  57  58
ATOM     58  S   UNL A   1      33.017  35.640  28.924  1.00  0.00     0.124 S 
ATOM     59  O   UNL A   1      32.380  34.583  28.146  1.00  0.00    -0.237 OA
ATOM     60  O   UNL A   1      32.245  36.150  30.053  1.00  0.00    -0.237 OA
ATOM     61  O   UNL A   1      33.731  36.649  28.149  1.00  0.00    -0.744 OA
ENDBRANCH  57  58
ENDBRANCH  25  50
BRANCH  37  62
ATOM     62  C   UNL A   1      39.605  34.047  37.163  1.00  0.00     0.058 A 
ATOM     63  C   UNL A   1      40.224  35.305  37.198  1.00  0.00     0.135 A 
ATOM     64  C   UNL A   1      38.853  33.649  38.281  1.00  0.00     0.135 A 
ATOM     65  F   UNL A   1      40.955  35.729  36.155  1.00  0.00    -0.206 F 
ATOM     66  C   UNL A   1      40.129  36.128  38.314  1.00  0.00     0.059 A 
ATOM     67  C   UNL A   1      38.724  34.467  39.398  1.00  0.00     0.059 A 
ATOM     68  F   UNL A   1      38.229  32.460  38.285  1.00  0.00    -0.206 F 
ATOM     69  C   UNL A   1      39.384  35.696  39.412  1.00  0.00     0.060 A 
BRANCH  69  70
ATOM     70  S   UNL A   1      39.281  36.772  40.858  1.00  0.00     0.124 S 
ATOM     71  O   UNL A   1      40.689  36.949  41.198  1.00  0.00    -0.237 OA
ATOM     72  O   UNL A   1      38.605  37.948  40.319  1.00  0.00    -0.237 OA
ATOM     73  O   UNL A   1      38.498  35.989  41.810  1.00  0.00    -0.744 OA
ENDBRANCH  69  70
ENDBRANCH  37  62
ENDBRANCH  11  12
ENDBRANCH   4   6
ENDBRANCH   1   2
BRANCH   1  74
ATOM     74  C   UNL A   1      37.419  23.759  25.494  1.00  0.00     0.042 C 
BRANCH  74  75
ATOM     75  C   UNL A   1      36.613  22.474  25.610  1.00  0.00     0.118 C 
BRANCH  75  76
ATOM     76  N   UNL A   1      35.570  22.556  26.628  1.00  0.00    -0.352 N 
ATOM     77  C   UNL A   1      34.255  22.935  26.486  1.00  0.00     0.256 C 
ATOM     78  H   UNL A   1      35.845  22.306  27.540  1.00  0.00     0.163 HD
ATOM     79  O   UNL A   1      33.542  23.108  27.471  1.00  0.00    -0.269 OA
BRANCH  77  80
ATOM     80  C   UNL A   1      33.745  23.249  25.142  1.00  0.00     0.099 A 
ATOM     81  C   UNL A   1      33.350  22.194  24.316  1.00  0.00     0.138 A 
ATOM     82  C   UNL A   1      33.774  24.564  24.656  1.00  0.00     0.057 A 
ATOM     83  F   UNL A   1      33.235  20.948  24.800  1.00  0.00    -0.206 F 
ATOM     84  C   UNL A   1      33.156  22.392  22.957  1.00  0.00     0.040 A 
ATOM     85  C   UNL A   1      33.695  24.724  23.267  1.00  0.00     0.027 A 
ATOM     86  C   UNL A   1      33.383  23.652  22.423  1.00  0.00     0.005 A 
BRANCH  82  87
ATOM     87  N   UNL A   1      33.875  25.644  25.571  1.00  0.00    -0.321 N 
ATOM     88  C   UNL A   1      32.983  26.605  25.974  1.00  0.00     0.261 C 
ATOM     89  H   UNL A   1      34.758  25.718  26.000  1.00  0.00     0.170 HD
ATOM     90  O   UNL A   1      33.344  27.498  26.743  1.00  0.00    -0.269 OA
BRANCH  88  91
ATOM     91  C   UNL A   1      31.597  26.596  25.471  1.00  0.00     0.105 A 
ATOM     92  C   UNL A   1      31.272  27.507  24.535  1.00  0.00     0.021 A 
ATOM     93  C   UNL A   1      30.591  25.571  25.875  1.00  0.00     0.260 A 
ATOM     94  C   UNL A   1      30.003  27.438  23.846  1.00  0.00     0.019 A 
ATOM     95  N   UNL A   1      29.434  25.548  25.122  1.00  0.00    -0.328 N 
ATOM     96  O   UNL A   1      30.776  24.766  26.781  1.00  0.00    -0.269 OA
ATOM     97  C   UNL A   1      29.144  26.452  24.133  1.00  0.00     0.086 A 
ATOM     98  H   UNL A   1      28.776  24.840  25.308  1.00  0.00     0.169 HD
ENDBRANCH  88  91
ENDBRANCH  82  87
ENDBRANCH  77  80
ENDBRANCH  75  76
ENDBRANCH  74  75
ENDBRANCH   1  74
TORSDOF 15
ENDMDL
MODEL 2
REMARK VINA RESULT:     -12.4      5.208     10.476
REMARK SMILES O=C(NCCCNC(=O)c1c(F)cccc1NC(=O)c1ccc[nH]c1=O)c1ccc(-c2c3nc(c(-c4c(F)cc(S(=O)(=O)[O-])cc4F)c4ccc([nH]4)c(-c4c(F)cc(S(=O)(=O)[O-])cc4F)c4nc(c(-c5c(F)cc(S(=O)(=O)[O-])cc5F)c5ccc2[nH]5)C=C4)C=C3)cc1
REMARK SMILES IDX 4 1 3 2 1 3 2 4 27 6 28 7 92 8 29 9 91 10 30 11 31 12 32 13
REMARK SMILES IDX 85 14 33 15 90 16 84 17 86 18 34 19 89 20 83 21 82 22 35 24
REMARK SMILES IDX 69 25 48 26 68 27 49 28 52 29 67 30 87 31 50 32 51 33 66 35
REMARK SMILES IDX 88 36 53 37 36 38 37 39 46 40 38 41 39 42 45 43 47 44 40 45
REMARK SMILES IDX 41 46 42 47 43 48 44 49 70 50 71 51 80 52 72 53 73 54 79 55
REMARK SMILES IDX 81 56 74 57 75 58 76 59 77 60 78 61 54 62 55 63 64 64 56 65
REMARK SMILES IDX 57 66 63 67 65 68 58 69 59 70 60 71 61 72 62 73 5 74 6 75
REMARK SMILES IDX 7 76 8 77 9 79 10 80 11 81 16 82 12 83 13 84 15 85 14 86
REMARK SMILES IDX 17 87 18 88 19 90 20 91 21 92 25 93 22 94 24 95 26 96 23 97
REMARK H PARENT 3 5 86 23 52 34 7 78 17 89 24 98
REMARK Flexibility Score: inf
ROOT
ATOM      1  C   UNL A   1      33.733  28.551  27.253  1.00  0.00     0.118 C 
ENDROOT
BRANCH   1   2
ATOM      2  N   UNL A   1      33.615  29.936  27.689  1.00  0.00    -0.352 N 
ATOM      3  O   UNL A   1      34.123  31.794  28.848  1.00  0.00    -0.269 OA
ATOM      4  C   UNL A   1      34.504  30.724  28.378  1.00  0.00     0.251 C 
ATOM      5  H   UNL A   1      32.767  30.375  27.454  1.00  0.00     0.163 HD
BRANCH   4   6
ATOM      6  C   UNL A   1      35.906  30.289  28.560  1.00  0.00     0.039 A 
ATOM      7  C   UNL A   1      36.839  30.446  27.535  1.00  0.00     0.014 A 
ATOM      8  C   UNL A   1      36.307  29.766  29.795  1.00  0.00     0.014 A 
ATOM      9  C   UNL A   1      38.131  29.963  27.690  1.00  0.00     0.010 A 
ATOM     10  C   UNL A   1      37.636  29.374  29.985  1.00  0.00     0.010 A 
ATOM     11  C   UNL A   1      38.555  29.460  28.929  1.00  0.00    -0.014 A 
BRANCH  11  12
ATOM     12  C   UNL A   1      39.995  29.167  29.126  1.00  0.00     0.031 A 
ATOM     13  C   UNL A   1      40.935  30.191  29.689  1.00  0.00     0.074 A 
ATOM     14  C   UNL A   1      40.435  27.934  28.801  1.00  0.00     0.049 A 
ATOM     15  N   UNL A   1      42.219  30.083  29.913  1.00  0.00    -0.248 NA
ATOM     16  C   UNL A   1      40.374  31.505  30.042  1.00  0.00     0.031 C 
ATOM     17  C   UNL A   1      39.603  26.867  28.230  1.00  0.00     0.029 A 
ATOM     18  N   UNL A   1      41.673  27.357  28.910  1.00  0.00    -0.354 N 
ATOM     19  C   UNL A   1      42.625  31.311  30.420  1.00  0.00     0.074 A 
ATOM     20  C   UNL A   1      41.454  32.160  30.457  1.00  0.00     0.031 C 
ATOM     21  C   UNL A   1      40.342  25.761  28.078  1.00  0.00     0.029 A 
ATOM     22  C   UNL A   1      41.715  26.055  28.470  1.00  0.00     0.049 A 
ATOM     23  H   UNL A   1      42.459  27.830  29.271  1.00  0.00     0.167 HD
ATOM     24  C   UNL A   1      43.862  31.682  30.822  1.00  0.00     0.037 A 
ATOM     25  C   UNL A   1      42.747  25.198  28.358  1.00  0.00     0.037 A 
ATOM     26  C   UNL A   1      45.012  30.813  30.802  1.00  0.00     0.049 A 
ATOM     27  C   UNL A   1      44.111  25.654  28.778  1.00  0.00     0.074 A 
ATOM     28  C   UNL A   1      46.296  31.081  31.247  1.00  0.00     0.029 A 
ATOM     29  N   UNL A   1      45.023  29.516  30.310  1.00  0.00    -0.354 N 
ATOM     30  N   UNL A   1      44.467  26.805  29.297  1.00  0.00    -0.248 NA
ATOM     31  C   UNL A   1      45.219  24.709  28.586  1.00  0.00     0.031 C 
ATOM     32  C   UNL A   1      47.093  29.966  30.978  1.00  0.00     0.029 A 
ATOM     33  C   UNL A   1      46.299  28.985  30.406  1.00  0.00     0.049 A 
ATOM     34  H   UNL A   1      44.240  29.043  29.946  1.00  0.00     0.167 HD
ATOM     35  C   UNL A   1      45.839  26.726  29.488  1.00  0.00     0.074 A 
ATOM     36  C   UNL A   1      46.246  25.404  29.060  1.00  0.00     0.031 C 
ATOM     37  C   UNL A   1      46.686  27.669  29.965  1.00  0.00     0.037 A 
BRANCH  24  38
ATOM     38  C   UNL A   1      44.070  33.081  31.329  1.00  0.00     0.058 A 
ATOM     39  C   UNL A   1      43.692  33.425  32.637  1.00  0.00     0.135 A 
ATOM     40  C   UNL A   1      44.500  34.111  30.478  1.00  0.00     0.135 A 
ATOM     41  F   UNL A   1      43.281  32.476  33.492  1.00  0.00    -0.206 F 
ATOM     42  C   UNL A   1      43.696  34.746  33.072  1.00  0.00     0.059 A 
ATOM     43  C   UNL A   1      44.528  35.439  30.898  1.00  0.00     0.059 A 
ATOM     44  F   UNL A   1      44.891  33.832  29.224  1.00  0.00    -0.206 F 
ATOM     45  C   UNL A   1      44.102  35.748  32.189  1.00  0.00     0.060 A 
BRANCH  45  46
ATOM     46  S   UNL A   1      44.065  37.463  32.758  1.00  0.00     0.124 S 
ATOM     47  O   UNL A   1      43.735  38.179  31.532  1.00  0.00    -0.237 OA
ATOM     48  O   UNL A   1      43.020  37.424  33.776  1.00  0.00    -0.237 OA
ATOM     49  O   UNL A   1      45.417  37.678  33.269  1.00  0.00    -0.744 OA
ENDBRANCH  45  46
ENDBRANCH  24  38
BRANCH  25  50
ATOM     50  C   UNL A   1      42.522  23.846  27.783  1.00  0.00     0.058 A 
ATOM     51  C   UNL A   1      42.346  22.729  28.615  1.00  0.00     0.135 A 
ATOM     52  C   UNL A   1      42.506  23.639  26.397  1.00  0.00     0.135 A 
ATOM     53  F   UNL A   1      42.365  22.873  29.949  1.00  0.00    -0.206 F 
ATOM     54  C   UNL A   1      42.189  21.450  28.095  1.00  0.00     0.059 A 
ATOM     55  C   UNL A   1      42.320  22.371  25.852  1.00  0.00     0.059 A 
ATOM     56  F   UNL A   1      42.660  24.677  25.561  1.00  0.00    -0.206 F 
ATOM     57  C   UNL A   1      42.177  21.282  26.711  1.00  0.00     0.060 A 
BRANCH  57  58
ATOM     58  S   UNL A   1      41.950  19.616  26.054  1.00  0.00     0.124 S 
ATOM     59  O   UNL A   1      40.522  19.615  25.753  1.00  0.00    -0.237 OA
ATOM     60  O   UNL A   1      42.842  19.615  24.899  1.00  0.00    -0.237 OA
ATOM     61  O   UNL A   1      42.361  18.760  27.161  1.00  0.00    -0.744 OA
ENDBRANCH  57  58
ENDBRANCH  25  50
BRANCH  37  62
ATOM     62  C   UNL A   1      48.142  27.316  30.038  1.00  0.00     0.058 A 
ATOM     63  C   UNL A   1      48.690  26.768  31.207  1.00  0.00     0.135 A 
ATOM     64  C   UNL A   1      49.012  27.606  28.974  1.00  0.00     0.135 A 
ATOM     65  F   UNL A   1      47.900  26.476  32.252  1.00  0.00    -0.206 F 
ATOM     66  C   UNL A   1      50.056  26.545  31.332  1.00  0.00     0.059 A 
ATOM     67  C   UNL A   1      50.379  27.367  29.067  1.00  0.00     0.059 A 
ATOM     68  F   UNL A   1      48.530  28.115  27.829  1.00  0.00    -0.206 F 
ATOM     69  C   UNL A   1      50.894  26.856  30.259  1.00  0.00     0.060 A 
BRANCH  69  70
ATOM     70  S   UNL A   1      52.666  26.571  30.442  1.00  0.00     0.124 S 
ATOM     71  O   UNL A   1      53.124  27.861  30.948  1.00  0.00    -0.237 OA
ATOM     72  O   UNL A   1      52.704  25.465  31.393  1.00  0.00    -0.237 OA
ATOM     73  O   UNL A   1      53.098  26.238  29.087  1.00  0.00    -0.744 OA
ENDBRANCH  69  70
ENDBRANCH  37  62
ENDBRANCH  11  12
ENDBRANCH   4   6
ENDBRANCH   1   2
BRANCH   1  74
ATOM     74  C   UNL A   1      34.296  28.439  25.845  1.00  0.00     0.042 C 
BRANCH  74  75
ATOM     75  C   UNL A   1      33.362  28.995  24.781  1.00  0.00     0.118 C 
BRANCH  75  76
ATOM     76  N   UNL A   1      33.711  28.545  23.438  1.00  0.00    -0.352 N 
ATOM     77  C   UNL A   1      33.284  27.424  22.765  1.00  0.00     0.256 C 
ATOM     78  H   UNL A   1      34.339  29.123  22.946  1.00  0.00     0.163 HD
ATOM     79  O   UNL A   1      33.796  27.098  21.698  1.00  0.00    -0.269 OA
BRANCH  77  80
ATOM     80  C   UNL A   1      32.285  26.550  23.401  1.00  0.00     0.099 A 
ATOM     81  C   UNL A   1      30.932  26.790  23.150  1.00  0.00     0.138 A 
ATOM     82  C   UNL A   1      32.677  25.579  24.335  1.00  0.00     0.057 A 
ATOM     83  F   UNL A   1      30.553  27.652  22.195  1.00  0.00    -0.206 F 
ATOM     84  C   UNL A   1      29.951  26.213  23.943  1.00  0.00     0.040 A 
ATOM     85  C   UNL A   1      31.686  25.102  25.201  1.00  0.00     0.027 A 
ATOM     86  C   UNL A   1      30.334  25.409  25.007  1.00  0.00     0.005 A 
BRANCH  82  87
ATOM     87  N   UNL A   1      34.024  25.134  24.355  1.00  0.00    -0.321 N 
ATOM     88  C   UNL A   1      34.615  23.946  24.004  1.00  0.00     0.261 C 
ATOM     89  H   UNL A   1      34.660  25.810  24.686  1.00  0.00     0.170 HD
ATOM     90  O   UNL A   1      35.822  23.779  24.188  1.00  0.00    -0.269 OA
BRANCH  88  91
ATOM     91  C   UNL A   1      33.808  22.852  23.431  1.00  0.00     0.105 A 
ATOM     92  C   UNL A   1      33.605  21.766  24.199  1.00  0.00     0.021 A 
ATOM     93  C   UNL A   1      33.138  22.945  22.101  1.00  0.00     0.260 A 
ATOM     94  C   UNL A   1      32.665  20.743  23.797  1.00  0.00     0.019 A 
ATOM     95  N   UNL A   1      32.218  21.951  21.832  1.00  0.00    -0.328 N 
ATOM     96  O   UNL A   1      33.342  23.855  21.306  1.00  0.00    -0.269 OA
ATOM     97  C   UNL A   1      31.982  20.880  22.654  1.00  0.00     0.086 A 
ATOM     98  H   UNL A   1      31.700  22.016  20.997  1.00  0.00     0.169 HD
ENDBRANCH  88  91
ENDBRANCH  82  87
ENDBRANCH  77  80
ENDBRANCH  75  76
ENDBRANCH  74  75
ENDBRANCH   1  74
TORSDOF 15
ENDMDL
MODEL 3
REMARK VINA RESULT:     -12.4      4.942      9.899
REMARK SMILES O=C(NCCCNC(=O)c1c(F)cccc1NC(=O)c1ccc[nH]c1=O)c1ccc(-c2c3nc(c(-c4c(F)cc(S(=O)(=O)[O-])cc4F)c4ccc([nH]4)c(-c4c(F)cc(S(=O)(=O)[O-])cc4F)c4nc(c(-c5c(F)cc(S(=O)(=O)[O-])cc5F)c5ccc2[nH]5)C=C4)C=C3)cc1
REMARK SMILES IDX 4 1 3 2 1 3 2 4 27 6 28 7 92 8 29 9 91 10 30 11 31 12 32 13
REMARK SMILES IDX 85 14 33 15 90 16 84 17 86 18 34 19 89 20 83 21 82 22 35 24
REMARK SMILES IDX 69 25 48 26 68 27 49 28 52 29 67 30 87 31 50 32 51 33 66 35
REMARK SMILES IDX 88 36 53 37 36 38 37 39 46 40 38 41 39 42 45 43 47 44 40 45
REMARK SMILES IDX 41 46 42 47 43 48 44 49 70 50 71 51 80 52 72 53 73 54 79 55
REMARK SMILES IDX 81 56 74 57 75 58 76 59 77 60 78 61 54 62 55 63 64 64 56 65
REMARK SMILES IDX 57 66 63 67 65 68 58 69 59 70 60 71 61 72 62 73 5 74 6 75
REMARK SMILES IDX 7 76 8 77 9 79 10 80 11 81 16 82 12 83 13 84 15 85 14 86
REMARK SMILES IDX 17 87 18 88 19 90 20 91 21 92 25 93 22 94 24 95 26 96 23 97
REMARK H PARENT 3 5 86 23 52 34 7 78 17 89 24 98
REMARK Flexibility Score: inf
ROOT
ATOM      1  C   UNL A   1      33.555  28.523  27.453  1.00  0.00     0.118 C 
ENDROOT
BRANCH   1   2
ATOM      2  N   UNL A   1      33.543  29.956  27.720  1.00  0.00    -0.352 N 
ATOM      3  O   UNL A   1      34.219  31.902  28.619  1.00  0.00    -0.269 OA
ATOM      4  C   UNL A   1      34.511  30.760  28.270  1.00  0.00     0.251 C 
ATOM      5  H   UNL A   1      32.713  30.418  27.467  1.00  0.00     0.163 HD
BRANCH   4   6
ATOM      6  C   UNL A   1      35.890  30.258  28.446  1.00  0.00     0.039 A 
ATOM      7  C   UNL A   1      36.822  30.357  27.412  1.00  0.00     0.014 A 
ATOM      8  C   UNL A   1      36.276  29.731  29.684  1.00  0.00     0.014 A 
ATOM      9  C   UNL A   1      38.089  29.811  27.563  1.00  0.00     0.010 A 
ATOM     10  C   UNL A   1      37.585  29.276  29.870  1.00  0.00     0.010 A 
ATOM     11  C   UNL A   1      38.498  29.303  28.805  1.00  0.00    -0.014 A 
BRANCH  11  12
ATOM     12  C   UNL A   1      39.923  28.941  28.995  1.00  0.00     0.031 A 
ATOM     13  C   UNL A   1      40.451  27.593  28.598  1.00  0.00     0.074 A 
ATOM     14  C   UNL A   1      40.744  29.874  29.520  1.00  0.00     0.049 A 
ATOM     15  N   UNL A   1      41.670  27.131  28.707  1.00  0.00    -0.248 NA
ATOM     16  C   UNL A   1      39.499  26.638  28.009  1.00  0.00     0.031 C 
ATOM     17  C   UNL A   1      40.326  31.212  29.954  1.00  0.00     0.029 A 
ATOM     18  N   UNL A   1      42.091  29.857  29.767  1.00  0.00    -0.354 N 
ATOM     19  C   UNL A   1      41.633  25.833  28.216  1.00  0.00     0.074 A 
ATOM     20  C   UNL A   1      40.266  25.569  27.820  1.00  0.00     0.031 C 
ATOM     21  C   UNL A   1      41.397  31.897  30.375  1.00  0.00     0.029 A 
ATOM     22  C   UNL A   1      42.565  31.028  30.312  1.00  0.00     0.049 A 
ATOM     23  H   UNL A   1      42.666  29.081  29.574  1.00  0.00     0.167 HD
ATOM     24  C   UNL A   1      42.654  24.952  28.101  1.00  0.00     0.037 A 
ATOM     25  C   UNL A   1      43.795  31.360  30.745  1.00  0.00     0.037 A 
ATOM     26  C   UNL A   1      44.015  25.242  28.477  1.00  0.00     0.049 A 
ATOM     27  C   UNL A   1      44.896  30.348  30.639  1.00  0.00     0.074 A 
ATOM     28  C   UNL A   1      45.131  24.433  28.342  1.00  0.00     0.029 A 
ATOM     29  N   UNL A   1      44.447  26.423  29.062  1.00  0.00    -0.354 N 
ATOM     30  N   UNL A   1      44.850  29.140  30.129  1.00  0.00    -0.248 NA
ATOM     31  C   UNL A   1      46.208  30.729  31.176  1.00  0.00     0.031 C 
ATOM     32  C   UNL A   1      46.227  25.104  28.891  1.00  0.00     0.029 A 
ATOM     33  C   UNL A   1      45.804  26.349  29.329  1.00  0.00     0.049 A 
ATOM     34  H   UNL A   1      43.873  27.198  29.260  1.00  0.00     0.167 HD
ATOM     35  C   UNL A   1      46.125  28.615  30.290  1.00  0.00     0.074 A 
ATOM     36  C   UNL A   1      46.928  29.646  30.914  1.00  0.00     0.031 C 
ATOM     37  C   UNL A   1      46.584  27.384  29.960  1.00  0.00     0.037 A 
BRANCH  24  38
ATOM     38  C   UNL A   1      42.373  23.584  27.547  1.00  0.00     0.058 A 
ATOM     39  C   UNL A   1      42.237  22.484  28.410  1.00  0.00     0.135 A 
ATOM     40  C   UNL A   1      42.388  23.337  26.166  1.00  0.00     0.135 A 
ATOM     41  F   UNL A   1      42.208  22.668  29.739  1.00  0.00    -0.206 F 
ATOM     42  C   UNL A   1      42.165  21.183  27.924  1.00  0.00     0.059 A 
ATOM     43  C   UNL A   1      42.300  22.043  25.657  1.00  0.00     0.059 A 
ATOM     44  F   UNL A   1      42.497  24.356  25.299  1.00  0.00    -0.206 F 
ATOM     45  C   UNL A   1      42.212  20.971  26.545  1.00  0.00     0.060 A 
BRANCH  45  46
ATOM     46  S   UNL A   1      42.155  19.273  25.932  1.00  0.00     0.124 S 
ATOM     47  O   UNL A   1      42.656  18.523  27.077  1.00  0.00    -0.237 OA
ATOM     48  O   UNL A   1      40.736  19.106  25.631  1.00  0.00    -0.237 OA
ATOM     49  O   UNL A   1      43.034  19.306  24.766  1.00  0.00    -0.744 OA
ENDBRANCH  45  46
ENDBRANCH  24  38
BRANCH  25  50
ATOM     50  C   UNL A   1      44.024  32.695  31.358  1.00  0.00     0.058 A 
ATOM     51  C   UNL A   1      43.877  32.887  32.741  1.00  0.00     0.135 A 
ATOM     52  C   UNL A   1      44.365  33.806  30.576  1.00  0.00     0.135 A 
ATOM     53  F   UNL A   1      43.540  31.857  33.533  1.00  0.00    -0.206 F 
ATOM     54  C   UNL A   1      44.034  34.138  33.324  1.00  0.00     0.059 A 
ATOM     55  C   UNL A   1      44.557  35.064  31.141  1.00  0.00     0.059 A 
ATOM     56  F   UNL A   1      44.526  33.670  29.251  1.00  0.00    -0.206 F 
ATOM     57  C   UNL A   1      44.375  35.222  32.515  1.00  0.00     0.060 A 
BRANCH  57  58
ATOM     58  S   UNL A   1      44.596  36.835  33.293  1.00  0.00     0.124 S 
ATOM     59  O   UNL A   1      45.437  36.493  34.436  1.00  0.00    -0.237 OA
ATOM     60  O   UNL A   1      45.244  37.602  32.235  1.00  0.00    -0.237 OA
ATOM     61  O   UNL A   1      43.232  37.243  33.614  1.00  0.00    -0.744 OA
ENDBRANCH  57  58
ENDBRANCH  25  50
BRANCH  37  62
ATOM     62  C   UNL A   1      48.017  27.073  30.277  1.00  0.00     0.058 A 
ATOM     63  C   UNL A   1      48.374  26.521  31.516  1.00  0.00     0.135 A 
ATOM     64  C   UNL A   1      49.046  27.407  29.382  1.00  0.00     0.135 A 
ATOM     65  F   UNL A   1      47.427  26.187  32.406  1.00  0.00    -0.206 F 
ATOM     66  C   UNL A   1      49.705  26.336  31.871  1.00  0.00     0.059 A 
ATOM     67  C   UNL A   1      50.384  27.208  29.705  1.00  0.00     0.059 A 
ATOM     68  F   UNL A   1      48.752  27.923  28.177  1.00  0.00    -0.206 F 
ATOM     69  C   UNL A   1      50.703  26.690  30.961  1.00  0.00     0.060 A 
BRANCH  69  70
ATOM     70  S   UNL A   1      52.427  26.455  31.442  1.00  0.00     0.124 S 
ATOM     71  O   UNL A   1      53.122  26.689  30.180  1.00  0.00    -0.237 OA
ATOM     72  O   UNL A   1      52.604  27.481  32.465  1.00  0.00    -0.237 OA
ATOM     73  O   UNL A   1      52.458  25.079  31.931  1.00  0.00    -0.744 OA
ENDBRANCH  69  70
ENDBRANCH  37  62
ENDBRANCH  11  12
ENDBRANCH   4   6
ENDBRANCH   1   2
BRANCH   1  74
ATOM     74  C   UNL A   1      33.989  28.209  26.031  1.00  0.00     0.042 C 
BRANCH  74  75
ATOM     75  C   UNL A   1      33.799  26.747  25.656  1.00  0.00     0.118 C 
BRANCH  75  76
ATOM     76  N   UNL A   1      32.442  26.274  25.913  1.00  0.00    -0.352 N 
ATOM     77  C   UNL A   1      31.748  25.263  25.289  1.00  0.00     0.256 C 
ATOM     78  H   UNL A   1      31.957  26.743  26.631  1.00  0.00     0.163 HD
ATOM     79  O   UNL A   1      30.553  25.092  25.511  1.00  0.00    -0.269 OA
BRANCH  77  80
ATOM     80  C   UNL A   1      32.430  24.463  24.260  1.00  0.00     0.099 A 
ATOM     81  C   UNL A   1      32.569  25.003  22.978  1.00  0.00     0.138 A 
ATOM     82  C   UNL A   1      32.819  23.141  24.523  1.00  0.00     0.057 A 
ATOM     83  F   UNL A   1      32.283  26.292  22.742  1.00  0.00    -0.206 F 
ATOM     84  C   UNL A   1      32.917  24.198  21.904  1.00  0.00     0.040 A 
ATOM     85  C   UNL A   1      33.049  22.319  23.414  1.00  0.00     0.027 A 
ATOM     86  C   UNL A   1      33.104  22.840  22.115  1.00  0.00     0.005 A 
BRANCH  82  87
ATOM     87  N   UNL A   1      32.961  22.711  25.868  1.00  0.00    -0.321 N 
ATOM     88  C   UNL A   1      34.050  22.324  26.608  1.00  0.00     0.261 C 
ATOM     89  H   UNL A   1      32.113  22.684  26.367  1.00  0.00     0.170 HD
ATOM     90  O   UNL A   1      33.898  21.915  27.761  1.00  0.00    -0.269 OA
BRANCH  88  91
ATOM     91  C   UNL A   1      35.403  22.367  26.024  1.00  0.00     0.105 A 
ATOM     92  C   UNL A   1      36.119  23.493  26.203  1.00  0.00     0.021 A 
ATOM     93  C   UNL A   1      36.035  21.198  25.346  1.00  0.00     0.260 A 
ATOM     94  C   UNL A   1      37.517  23.544  25.842  1.00  0.00     0.019 A 
ATOM     95  N   UNL A   1      37.387  21.321  25.092  1.00  0.00    -0.328 N 
ATOM     96  O   UNL A   1      35.426  20.172  25.064  1.00  0.00    -0.269 OA
ATOM     97  C   UNL A   1      38.113  22.458  25.333  1.00  0.00     0.086 A 
ATOM     98  H   UNL A   1      37.858  20.544  24.713  1.00  0.00     0.169 HD
ENDBRANCH  88  91
ENDBRANCH  82  87
ENDBRANCH  77  80
ENDBRANCH  75  76
ENDBRANCH  74  75
ENDBRANCH   1  74
TORSDOF 15
ENDMDL
