MODEL 1
REMARK VINA RESULT:     -10.2      0.000      0.000
REMARK SMILES O=C(NCCCNC(=O)[C@H](F)Sc1cc2ccccc2[nH]1)c1ccc(-c2c3nc(c(-c4c(F)cc(S(=O)(=O)[O-])cc4F)c4ccc([nH]4)c(-c4c(F)cc(S(=O)(=O)[O-])cc4F)c4nc(c(-c5c(F)cc(S(=O)(=O)[O-])cc5F)c5ccc2[nH]5)C=C4)C=C3)cc1
REMARK SMILES IDX 4 1 3 2 1 3 2 4 22 6 23 7 87 8 24 9 86 10 25 11 26 12 27 13
REMARK SMILES IDX 80 14 28 15 85 16 79 17 81 18 29 19 84 20 78 21 77 22 30 24
REMARK SMILES IDX 64 25 43 26 63 27 44 28 47 29 62 30 82 31 45 32 46 33 61 35
REMARK SMILES IDX 83 36 48 37 31 38 32 39 41 40 33 41 34 42 40 43 42 44 35 45
REMARK SMILES IDX 36 46 37 47 38 48 39 49 65 50 66 51 75 52 67 53 68 54 74 55
REMARK SMILES IDX 76 56 69 57 70 58 71 59 72 60 73 61 49 62 50 63 59 64 51 65
REMARK SMILES IDX 52 66 58 67 60 68 53 69 54 70 55 71 56 72 57 73 5 74 6 75
REMARK SMILES IDX 7 76 8 77 9 79 10 80 11 81 12 82 13 83 14 84 21 85 15 86
REMARK SMILES IDX 20 87 16 89 19 90 17 91 18 92
REMARK H PARENT 3 5 81 23 47 34 7 78 21 88
REMARK Flexibility Score: inf
ROOT
ATOM      1  C   UNL A   1      34.667  33.105  29.006  1.00  0.00     0.118 C 
ENDROOT
BRANCH   1   2
ATOM      2  N   UNL A   1      33.912  31.977  28.466  1.00  0.00    -0.352 N 
ATOM      3  O   UNL A   1      33.474  30.112  27.321  1.00  0.00    -0.269 OA
ATOM      4  C   UNL A   1      34.300  30.750  27.974  1.00  0.00     0.251 C 
ATOM      5  H   UNL A   1      32.939  32.121  28.450  1.00  0.00     0.163 HD
BRANCH   4   6
ATOM      6  C   UNL A   1      35.654  30.175  28.200  1.00  0.00     0.039 A 
ATOM      7  C   UNL A   1      36.662  30.251  27.245  1.00  0.00     0.014 A 
ATOM      8  C   UNL A   1      35.966  29.637  29.461  1.00  0.00     0.014 A 
ATOM      9  C   UNL A   1      37.903  29.663  27.469  1.00  0.00     0.010 A 
ATOM     10  C   UNL A   1      37.258  29.163  29.738  1.00  0.00     0.010 A 
ATOM     11  C   UNL A   1      38.235  29.166  28.736  1.00  0.00    -0.014 A 
BRANCH  11  12
ATOM     12  C   UNL A   1      39.661  28.848  29.008  1.00  0.00     0.031 A 
ATOM     13  C   UNL A   1      40.273  27.538  28.611  1.00  0.00     0.074 A 
ATOM     14  C   UNL A   1      40.413  29.810  29.583  1.00  0.00     0.049 A 
ATOM     15  N   UNL A   1      41.518  27.149  28.721  1.00  0.00    -0.248 NA
ATOM     16  C   UNL A   1      39.383  26.529  28.020  1.00  0.00     0.031 C 
ATOM     17  C   UNL A   1      39.908  31.117  30.026  1.00  0.00     0.029 A 
ATOM     18  N   UNL A   1      41.750  29.861  29.875  1.00  0.00    -0.354 N 
ATOM     19  C   UNL A   1      41.561  25.853  28.221  1.00  0.00     0.074 A 
ATOM     20  C   UNL A   1      40.212  25.511  27.822  1.00  0.00     0.031 C 
ATOM     21  C   UNL A   1      40.927  31.854  30.485  1.00  0.00     0.029 A 
ATOM     22  C   UNL A   1      42.142  31.051  30.444  1.00  0.00     0.049 A 
ATOM     23  H   UNL A   1      42.370  29.119  29.695  1.00  0.00     0.167 HD
ATOM     24  C   UNL A   1      42.632  25.031  28.111  1.00  0.00     0.037 A 
ATOM     25  C   UNL A   1      43.340  31.445  30.914  1.00  0.00     0.037 A 
ATOM     26  C   UNL A   1      43.969  25.393  28.514  1.00  0.00     0.049 A 
ATOM     27  C   UNL A   1      44.498  30.496  30.807  1.00  0.00     0.074 A 
ATOM     28  C   UNL A   1      45.132  24.649  28.401  1.00  0.00     0.029 A 
ATOM     29  N   UNL A   1      44.321  26.590  29.121  1.00  0.00    -0.354 N 
ATOM     30  N   UNL A   1      44.530  29.298  30.273  1.00  0.00    -0.248 NA
ATOM     31  C   UNL A   1      45.777  30.946  31.368  1.00  0.00     0.031 C 
ATOM     32  C   UNL A   1      46.172  25.369  28.994  1.00  0.00     0.029 A 
ATOM     33  C   UNL A   1      45.674  26.588  29.425  1.00  0.00     0.049 A 
ATOM     34  H   UNL A   1      43.701  27.332  29.309  1.00  0.00     0.167 HD
ATOM     35  C   UNL A   1      45.837  28.853  30.427  1.00  0.00     0.074 A 
ATOM     36  C   UNL A   1      46.569  29.924  31.074  1.00  0.00     0.031 C 
ATOM     37  C   UNL A   1      46.381  27.664  30.072  1.00  0.00     0.037 A 
BRANCH  24  38
ATOM     38  C   UNL A   1      42.423  23.648  27.555  1.00  0.00     0.058 A 
ATOM     39  C   UNL A   1      42.490  23.385  26.179  1.00  0.00     0.135 A 
ATOM     40  C   UNL A   1      42.263  22.554  28.422  1.00  0.00     0.135 A 
ATOM     41  F   UNL A   1      42.627  24.393  25.303  1.00  0.00    -0.206 F 
ATOM     42  C   UNL A   1      42.412  22.087  25.682  1.00  0.00     0.059 A 
ATOM     43  C   UNL A   1      42.202  21.247  27.950  1.00  0.00     0.059 A 
ATOM     44  F   UNL A   1      42.186  22.750  29.749  1.00  0.00    -0.206 F 
ATOM     45  C   UNL A   1      42.277  21.023  26.576  1.00  0.00     0.060 A 
BRANCH  45  46
ATOM     46  S   UNL A   1      42.236  19.340  25.920  1.00  0.00     0.124 S 
ATOM     47  O   UNL A   1      42.781  18.577  27.038  1.00  0.00    -0.237 OA
ATOM     48  O   UNL A   1      40.812  19.145  25.655  1.00  0.00    -0.237 OA
ATOM     49  O   UNL A   1      43.085  19.413  24.736  1.00  0.00    -0.744 OA
ENDBRANCH  45  46
ENDBRANCH  24  38
BRANCH  25  50
ATOM     50  C   UNL A   1      43.484  32.773  31.567  1.00  0.00     0.058 A 
ATOM     51  C   UNL A   1      43.424  32.915  32.960  1.00  0.00     0.135 A 
ATOM     52  C   UNL A   1      43.682  33.933  30.801  1.00  0.00     0.135 A 
ATOM     53  F   UNL A   1      43.236  31.837  33.738  1.00  0.00    -0.206 F 
ATOM     54  C   UNL A   1      43.522  34.162  33.569  1.00  0.00     0.059 A 
ATOM     55  C   UNL A   1      43.818  35.186  31.387  1.00  0.00     0.059 A 
ATOM     56  F   UNL A   1      43.770  33.851  29.463  1.00  0.00    -0.206 F 
ATOM     57  C   UNL A   1      43.715  35.292  32.772  1.00  0.00     0.060 A 
BRANCH  57  58
ATOM     58  S   UNL A   1      43.850  36.907  33.569  1.00  0.00     0.124 S 
ATOM     59  O   UNL A   1      42.523  37.055  34.153  1.00  0.00    -0.237 OA
ATOM     60  O   UNL A   1      44.945  36.694  34.512  1.00  0.00    -0.237 OA
ATOM     61  O   UNL A   1      44.156  37.803  32.457  1.00  0.00    -0.744 OA
ENDBRANCH  57  58
ENDBRANCH  25  50
BRANCH  37  62
ATOM     62  C   UNL A   1      47.842  27.470  30.364  1.00  0.00     0.058 A 
ATOM     63  C   UNL A   1      48.280  26.913  31.576  1.00  0.00     0.135 A 
ATOM     64  C   UNL A   1      48.810  27.816  29.409  1.00  0.00     0.135 A 
ATOM     65  F   UNL A   1      47.393  26.577  32.526  1.00  0.00    -0.206 F 
ATOM     66  C   UNL A   1      49.633  26.733  31.843  1.00  0.00     0.059 A 
ATOM     67  C   UNL A   1      50.167  27.615  29.643  1.00  0.00     0.059 A 
ATOM     68  F   UNL A   1      48.442  28.345  28.232  1.00  0.00    -0.206 F 
ATOM     69  C   UNL A   1      50.568  27.086  30.869  1.00  0.00     0.060 A 
BRANCH  69  70
ATOM     70  S   UNL A   1      52.318  26.821  31.217  1.00  0.00     0.124 S 
ATOM     71  O   UNL A   1      52.743  28.158  31.621  1.00  0.00    -0.237 OA
ATOM     72  O   UNL A   1      52.278  25.821  32.279  1.00  0.00    -0.237 OA
ATOM     73  O   UNL A   1      52.852  26.351  29.942  1.00  0.00    -0.744 OA
ENDBRANCH  69  70
ENDBRANCH  37  62
ENDBRANCH  11  12
ENDBRANCH   4   6
ENDBRANCH   1   2
BRANCH   1  74
ATOM     74  C   UNL A   1      34.793  33.015  30.515  1.00  0.00     0.042 C 
BRANCH  74  75
ATOM     75  C   UNL A   1      35.997  33.761  31.071  1.00  0.00     0.118 C 
BRANCH  75  76
ATOM     76  N   UNL A   1      35.569  34.893  31.873  1.00  0.00    -0.353 N 
ATOM     77  C   UNL A   1      35.439  35.005  33.230  1.00  0.00     0.265 C 
ATOM     78  H   UNL A   1      35.337  35.703  31.362  1.00  0.00     0.163 HD
ATOM     79  O   UNL A   1      34.862  36.019  33.646  1.00  0.00    -0.271 OA
BRANCH  77  80
ATOM     80  C   UNL A   1      36.005  33.962  34.205  1.00  0.00     0.319 C 
ATOM     81  F   UNL A   1      35.541  34.056  35.486  1.00  0.00    -0.224 F 
BRANCH  80  82
ATOM     82  S   UNL A   1      37.818  33.880  34.177  1.00  0.00    -0.061 SA
BRANCH  82  83
ATOM     83  C   UNL A   1      38.196  32.208  33.946  1.00  0.00     0.076 A 
ATOM     84  C   UNL A   1      37.402  31.163  33.540  1.00  0.00     0.043 A 
ATOM     85  N   UNL A   1      39.445  31.713  34.200  1.00  0.00    -0.350 N 
ATOM     86  C   UNL A   1      38.258  30.044  33.322  1.00  0.00     0.001 A 
ATOM     87  C   UNL A   1      39.542  30.424  33.720  1.00  0.00     0.046 A 
ATOM     88  H   UNL A   1      40.166  32.202  34.658  1.00  0.00     0.167 HD
ATOM     89  C   UNL A   1      38.072  28.768  32.760  1.00  0.00     0.010 A 
ATOM     90  C   UNL A   1      40.663  29.605  33.542  1.00  0.00     0.027 A 
ATOM     91  C   UNL A   1      39.188  27.950  32.552  1.00  0.00     0.001 A 
ATOM     92  C   UNL A   1      40.464  28.370  32.922  1.00  0.00     0.002 A 
ENDBRANCH  82  83
ENDBRANCH  80  82
ENDBRANCH  77  80
ENDBRANCH  75  76
ENDBRANCH  74  75
ENDBRANCH   1  74
TORSDOF 15
ENDMDL
MODEL 2
REMARK VINA RESULT:     -10.1      1.255      1.766
REMARK SMILES O=C(NCCCNC(=O)[C@H](F)Sc1cc2ccccc2[nH]1)c1ccc(-c2c3nc(c(-c4c(F)cc(S(=O)(=O)[O-])cc4F)c4ccc([nH]4)c(-c4c(F)cc(S(=O)(=O)[O-])cc4F)c4nc(c(-c5c(F)cc(S(=O)(=O)[O-])cc5F)c5ccc2[nH]5)C=C4)C=C3)cc1
REMARK SMILES IDX 4 1 3 2 1 3 2 4 22 6 23 7 87 8 24 9 86 10 25 11 26 12 27 13
REMARK SMILES IDX 80 14 28 15 85 16 79 17 81 18 29 19 84 20 78 21 77 22 30 24
REMARK SMILES IDX 64 25 43 26 63 27 44 28 47 29 62 30 82 31 45 32 46 33 61 35
REMARK SMILES IDX 83 36 48 37 31 38 32 39 41 40 33 41 34 42 40 43 42 44 35 45
REMARK SMILES IDX 36 46 37 47 38 48 39 49 65 50 66 51 75 52 67 53 68 54 74 55
REMARK SMILES IDX 76 56 69 57 70 58 71 59 72 60 73 61 49 62 50 63 59 64 51 65
REMARK SMILES IDX 52 66 58 67 60 68 53 69 54 70 55 71 56 72 57 73 5 74 6 75
REMARK SMILES IDX 7 76 8 77 9 79 10 80 11 81 12 82 13 83 14 84 21 85 15 86
REMARK SMILES IDX 20 87 16 89 19 90 17 91 18 92
REMARK H PARENT 3 5 81 23 47 34 7 78 21 88
REMARK Flexibility Score: inf
ROOT
ATOM      1  C   UNL A   1      34.655  33.063  29.194  1.00  0.00     0.118 C 
ENDROOT
BRANCH   1   2
ATOM      2  N   UNL A   1      33.903  31.944  28.634  1.00  0.00    -0.352 N 
ATOM      3  O   UNL A   1      33.466  30.109  27.440  1.00  0.00    -0.269 OA
ATOM      4  C   UNL A   1      34.296  30.737  28.096  1.00  0.00     0.251 C 
ATOM      5  H   UNL A   1      32.928  32.076  28.640  1.00  0.00     0.163 HD
BRANCH   4   6
ATOM      6  C   UNL A   1      35.660  30.172  28.281  1.00  0.00     0.039 A 
ATOM      7  C   UNL A   1      36.641  30.265  27.299  1.00  0.00     0.014 A 
ATOM      8  C   UNL A   1      36.012  29.626  29.527  1.00  0.00     0.014 A 
ATOM      9  C   UNL A   1      37.892  29.686  27.483  1.00  0.00     0.010 A 
ATOM     10  C   UNL A   1      37.315  29.161  29.765  1.00  0.00     0.010 A 
ATOM     11  C   UNL A   1      38.264  29.180  28.737  1.00  0.00    -0.014 A 
BRANCH  11  12
ATOM     12  C   UNL A   1      39.699  28.873  28.965  1.00  0.00     0.031 A 
ATOM     13  C   UNL A   1      40.304  27.558  28.572  1.00  0.00     0.074 A 
ATOM     14  C   UNL A   1      40.466  29.848  29.499  1.00  0.00     0.049 A 
ATOM     15  N   UNL A   1      41.553  27.176  28.646  1.00  0.00    -0.248 NA
ATOM     16  C   UNL A   1      39.399  26.536  28.028  1.00  0.00     0.031 C 
ATOM     17  C   UNL A   1      39.970  31.160  29.936  1.00  0.00     0.029 A 
ATOM     18  N   UNL A   1      41.812  29.909  29.745  1.00  0.00    -0.354 N 
ATOM     19  C   UNL A   1      41.585  25.871  28.168  1.00  0.00     0.074 A 
ATOM     20  C   UNL A   1      40.225  25.518  27.820  1.00  0.00     0.031 C 
ATOM     21  C   UNL A   1      41.001  31.908  30.348  1.00  0.00     0.029 A 
ATOM     22  C   UNL A   1      42.217  31.110  30.280  1.00  0.00     0.049 A 
ATOM     23  H   UNL A   1      42.429  29.166  29.557  1.00  0.00     0.167 HD
ATOM     24  C   UNL A   1      42.656  25.052  28.036  1.00  0.00     0.037 A 
ATOM     25  C   UNL A   1      43.429  31.516  30.703  1.00  0.00     0.037 A 
ATOM     26  C   UNL A   1      44.004  25.426  28.388  1.00  0.00     0.049 A 
ATOM     27  C   UNL A   1      44.587  30.570  30.574  1.00  0.00     0.074 A 
ATOM     28  C   UNL A   1      45.165  24.684  28.249  1.00  0.00     0.029 A 
ATOM     29  N   UNL A   1      44.371  26.634  28.963  1.00  0.00    -0.354 N 
ATOM     30  N   UNL A   1      44.606  29.363  30.060  1.00  0.00    -0.248 NA
ATOM     31  C   UNL A   1      45.881  31.034  31.084  1.00  0.00     0.031 C 
ATOM     32  C   UNL A   1      46.221  25.419  28.795  1.00  0.00     0.029 A 
ATOM     33  C   UNL A   1      45.732  26.643  29.221  1.00  0.00     0.049 A 
ATOM     34  H   UNL A   1      43.753  27.377  29.158  1.00  0.00     0.167 HD
ATOM     35  C   UNL A   1      45.919  28.926  30.178  1.00  0.00     0.074 A 
ATOM     36  C   UNL A   1      46.667  30.011  30.781  1.00  0.00     0.031 C 
ATOM     37  C   UNL A   1      46.456  27.732  29.825  1.00  0.00     0.037 A 
BRANCH  24  38
ATOM     38  C   UNL A   1      42.434  23.658  27.511  1.00  0.00     0.058 A 
ATOM     39  C   UNL A   1      42.461  23.371  26.139  1.00  0.00     0.135 A 
ATOM     40  C   UNL A   1      42.302  22.580  28.403  1.00  0.00     0.135 A 
ATOM     41  F   UNL A   1      42.569  24.364  25.241  1.00  0.00    -0.206 F 
ATOM     42  C   UNL A   1      42.371  22.064  25.668  1.00  0.00     0.059 A 
ATOM     43  C   UNL A   1      42.231  21.264  27.956  1.00  0.00     0.059 A 
ATOM     44  F   UNL A   1      42.265  22.800  29.727  1.00  0.00    -0.206 F 
ATOM     45  C   UNL A   1      42.266  21.016  26.584  1.00  0.00     0.060 A 
BRANCH  45  46
ATOM     46  S   UNL A   1      42.210  19.322  25.960  1.00  0.00     0.124 S 
ATOM     47  O   UNL A   1      43.105  19.405  24.809  1.00  0.00    -0.237 OA
ATOM     48  O   UNL A   1      42.712  18.555  27.097  1.00  0.00    -0.237 OA
ATOM     49  O   UNL A   1      40.801  19.119  25.645  1.00  0.00    -0.744 OA
ENDBRANCH  45  46
ENDBRANCH  24  38
BRANCH  25  50
ATOM     50  C   UNL A   1      43.589  32.856  31.328  1.00  0.00     0.058 A 
ATOM     51  C   UNL A   1      43.482  33.035  32.714  1.00  0.00     0.135 A 
ATOM     52  C   UNL A   1      43.849  33.990  30.541  1.00  0.00     0.135 A 
ATOM     53  F   UNL A   1      43.233  31.984  33.510  1.00  0.00    -0.206 F 
ATOM     54  C   UNL A   1      43.595  34.294  33.294  1.00  0.00     0.059 A 
ATOM     55  C   UNL A   1      44.001  35.252  31.100  1.00  0.00     0.059 A 
ATOM     56  F   UNL A   1      43.984  33.870  29.210  1.00  0.00    -0.206 F 
ATOM     57  C   UNL A   1      43.852  35.397  32.478  1.00  0.00     0.060 A 
BRANCH  57  58
ATOM     58  S   UNL A   1      44.006  37.028  33.238  1.00  0.00     0.124 S 
ATOM     59  O   UNL A   1      42.795  37.087  34.048  1.00  0.00    -0.237 OA
ATOM     60  O   UNL A   1      45.262  36.907  33.974  1.00  0.00    -0.237 OA
ATOM     61  O   UNL A   1      44.045  37.929  32.091  1.00  0.00    -0.744 OA
ENDBRANCH  57  58
ENDBRANCH  25  50
BRANCH  37  62
ATOM     62  C   UNL A   1      47.926  27.549  30.072  1.00  0.00     0.058 A 
ATOM     63  C   UNL A   1      48.406  26.998  31.270  1.00  0.00     0.135 A 
ATOM     64  C   UNL A   1      48.862  27.900  29.087  1.00  0.00     0.135 A 
ATOM     65  F   UNL A   1      47.552  26.657  32.248  1.00  0.00    -0.206 F 
ATOM     66  C   UNL A   1      49.768  26.828  31.495  1.00  0.00     0.059 A 
ATOM     67  C   UNL A   1      50.227  27.708  29.278  1.00  0.00     0.059 A 
ATOM     68  F   UNL A   1      48.454  28.423  27.920  1.00  0.00    -0.206 F 
ATOM     69  C   UNL A   1      50.670  27.184  30.491  1.00  0.00     0.060 A 
BRANCH  69  70
ATOM     70  S   UNL A   1      52.432  26.932  30.785  1.00  0.00     0.124 S 
ATOM     71  O   UNL A   1      52.758  28.082  31.624  1.00  0.00    -0.237 OA
ATOM     72  O   UNL A   1      52.455  25.634  31.452  1.00  0.00    -0.237 OA
ATOM     73  O   UNL A   1      53.007  26.951  29.444  1.00  0.00    -0.744 OA
ENDBRANCH  69  70
ENDBRANCH  37  62
ENDBRANCH  11  12
ENDBRANCH   4   6
ENDBRANCH   1   2
BRANCH   1  74
ATOM     74  C   UNL A   1      34.322  34.363  28.484  1.00  0.00     0.042 C 
BRANCH  74  75
ATOM     75  C   UNL A   1      32.965  34.935  28.866  1.00  0.00     0.118 C 
BRANCH  75  76
ATOM     76  N   UNL A   1      33.114  36.258  29.444  1.00  0.00    -0.353 N 
ATOM     77  C   UNL A   1      33.011  36.660  30.747  1.00  0.00     0.265 C 
ATOM     78  H   UNL A   1      33.320  36.974  28.799  1.00  0.00     0.163 HD
ATOM     79  O   UNL A   1      32.986  37.883  30.946  1.00  0.00    -0.271 OA
BRANCH  77  80
ATOM     80  C   UNL A   1      32.969  35.669  31.919  1.00  0.00     0.319 C 
ATOM     81  F   UNL A   1      31.734  35.479  32.471  1.00  0.00    -0.224 F 
BRANCH  80  82
ATOM     82  S   UNL A   1      34.201  36.037  33.200  1.00  0.00    -0.061 SA
BRANCH  82  83
ATOM     83  C   UNL A   1      35.151  34.598  33.347  1.00  0.00     0.076 A 
ATOM     84  C   UNL A   1      34.871  33.304  32.976  1.00  0.00     0.043 A 
ATOM     85  N   UNL A   1      36.385  34.609  33.934  1.00  0.00    -0.350 N 
ATOM     86  C   UNL A   1      36.071  32.552  33.136  1.00  0.00     0.001 A 
ATOM     87  C   UNL A   1      37.016  33.403  33.715  1.00  0.00     0.046 A 
ATOM     88  H   UNL A   1      36.767  35.365  34.437  1.00  0.00     0.167 HD
ATOM     89  C   UNL A   1      36.461  31.249  32.780  1.00  0.00     0.010 A 
ATOM     90  C   UNL A   1      38.350  33.028  33.917  1.00  0.00     0.027 A 
ATOM     91  C   UNL A   1      37.797  30.870  32.951  1.00  0.00     0.001 A 
ATOM     92  C   UNL A   1      38.729  31.752  33.495  1.00  0.00     0.002 A 
ENDBRANCH  82  83
ENDBRANCH  80  82
ENDBRANCH  77  80
ENDBRANCH  75  76
ENDBRANCH  74  75
ENDBRANCH   1  74
TORSDOF 15
ENDMDL
MODEL 3
REMARK VINA RESULT:     -10.1      3.055      5.517
REMARK SMILES O=C(NCCCNC(=O)[C@H](F)Sc1cc2ccccc2[nH]1)c1ccc(-c2c3nc(c(-c4c(F)cc(S(=O)(=O)[O-])cc4F)c4ccc([nH]4)c(-c4c(F)cc(S(=O)(=O)[O-])cc4F)c4nc(c(-c5c(F)cc(S(=O)(=O)[O-])cc5F)c5ccc2[nH]5)C=C4)C=C3)cc1
REMARK SMILES IDX 4 1 3 2 1 3 2 4 22 6 23 7 87 8 24 9 86 10 25 11 26 12 27 13
REMARK SMILES IDX 80 14 28 15 85 16 79 17 81 18 29 19 84 20 78 21 77 22 30 24
REMARK SMILES IDX 64 25 43 26 63 27 44 28 47 29 62 30 82 31 45 32 46 33 61 35
REMARK SMILES IDX 83 36 48 37 31 38 32 39 41 40 33 41 34 42 40 43 42 44 35 45
REMARK SMILES IDX 36 46 37 47 38 48 39 49 65 50 66 51 75 52 67 53 68 54 74 55
REMARK SMILES IDX 76 56 69 57 70 58 71 59 72 60 73 61 49 62 50 63 59 64 51 65
REMARK SMILES IDX 52 66 58 67 60 68 53 69 54 70 55 71 56 72 57 73 5 74 6 75
REMARK SMILES IDX 7 76 8 77 9 79 10 80 11 81 12 82 13 83 14 84 21 85 15 86
REMARK SMILES IDX 20 87 16 89 19 90 17 91 18 92
REMARK H PARENT 3 5 81 23 47 34 7 78 21 88
REMARK Flexibility Score: inf
ROOT
ATOM      1  C   UNL A   1      33.223  28.693  27.258  1.00  0.00     0.118 C 
ENDROOT
BRANCH   1   2
ATOM      2  N   UNL A   1      33.412  30.092  27.630  1.00  0.00    -0.352 N 
ATOM      3  O   UNL A   1      34.214  31.881  28.699  1.00  0.00    -0.269 OA
ATOM      4  C   UNL A   1      34.445  30.756  28.256  1.00  0.00     0.251 C 
ATOM      5  H   UNL A   1      32.656  30.674  27.388  1.00  0.00     0.163 HD
BRANCH   4   6
ATOM      6  C   UNL A   1      35.807  30.177  28.410  1.00  0.00     0.039 A 
ATOM      7  C   UNL A   1      36.742  30.193  27.380  1.00  0.00     0.014 A 
ATOM      8  C   UNL A   1      36.209  29.698  29.670  1.00  0.00     0.014 A 
ATOM      9  C   UNL A   1      37.991  29.602  27.540  1.00  0.00     0.010 A 
ATOM     10  C   UNL A   1      37.514  29.224  29.874  1.00  0.00     0.010 A 
ATOM     11  C   UNL A   1      38.413  29.165  28.803  1.00  0.00    -0.014 A 
BRANCH  11  12
ATOM     12  C   UNL A   1      39.853  28.844  28.982  1.00  0.00     0.031 A 
ATOM     13  C   UNL A   1      40.430  27.521  28.577  1.00  0.00     0.074 A 
ATOM     14  C   UNL A   1      40.648  29.815  29.481  1.00  0.00     0.049 A 
ATOM     15  N   UNL A   1      41.677  27.127  28.610  1.00  0.00    -0.248 NA
ATOM     16  C   UNL A   1      39.496  26.504  28.074  1.00  0.00     0.031 C 
ATOM     17  C   UNL A   1      40.181  31.136  29.925  1.00  0.00     0.029 A 
ATOM     18  N   UNL A   1      42.002  29.865  29.679  1.00  0.00    -0.354 N 
ATOM     19  C   UNL A   1      41.679  25.819  28.141  1.00  0.00     0.074 A 
ATOM     20  C   UNL A   1      40.304  25.476  27.844  1.00  0.00     0.031 C 
ATOM     21  C   UNL A   1      41.234  31.877  30.295  1.00  0.00     0.029 A 
ATOM     22  C   UNL A   1      42.438  31.065  30.190  1.00  0.00     0.049 A 
ATOM     23  H   UNL A   1      42.605  29.114  29.474  1.00  0.00     0.167 HD
ATOM     24  C   UNL A   1      42.737  24.987  27.977  1.00  0.00     0.037 A 
ATOM     25  C   UNL A   1      43.668  31.462  30.566  1.00  0.00     0.037 A 
ATOM     26  C   UNL A   1      44.100  25.350  28.278  1.00  0.00     0.049 A 
ATOM     27  C   UNL A   1      44.811  30.504  30.402  1.00  0.00     0.074 A 
ATOM     28  C   UNL A   1      45.248  24.596  28.103  1.00  0.00     0.029 A 
ATOM     29  N   UNL A   1      44.499  26.559  28.829  1.00  0.00    -0.354 N 
ATOM     30  N   UNL A   1      44.801  29.293  29.897  1.00  0.00    -0.248 NA
ATOM     31  C   UNL A   1      46.128  30.959  30.862  1.00  0.00     0.031 C 
ATOM     32  C   UNL A   1      46.331  25.324  28.605  1.00  0.00     0.029 A 
ATOM     33  C   UNL A   1      45.869  26.556  29.038  1.00  0.00     0.049 A 
ATOM     34  H   UNL A   1      43.897  27.309  29.041  1.00  0.00     0.167 HD
ATOM     35  C   UNL A   1      46.112  28.843  29.971  1.00  0.00     0.074 A 
ATOM     36  C   UNL A   1      46.893  29.925  30.539  1.00  0.00     0.031 C 
ATOM     37  C   UNL A   1      46.625  27.642  29.608  1.00  0.00     0.037 A 
BRANCH  24  38
ATOM     38  C   UNL A   1      42.483  23.593  27.471  1.00  0.00     0.058 A 
ATOM     39  C   UNL A   1      42.504  23.286  26.102  1.00  0.00     0.135 A 
ATOM     40  C   UNL A   1      42.325  22.530  28.376  1.00  0.00     0.135 A 
ATOM     41  F   UNL A   1      42.636  24.264  25.191  1.00  0.00    -0.206 F 
ATOM     42  C   UNL A   1      42.384  21.975  25.648  1.00  0.00     0.059 A 
ATOM     43  C   UNL A   1      42.223  21.210  27.948  1.00  0.00     0.059 A 
ATOM     44  F   UNL A   1      42.292  22.768  29.698  1.00  0.00    -0.206 F 
ATOM     45  C   UNL A   1      42.253  20.942  26.579  1.00  0.00     0.060 A 
BRANCH  45  46
ATOM     46  S   UNL A   1      42.158  19.242  25.978  1.00  0.00     0.124 S 
ATOM     47  O   UNL A   1      40.729  19.106  25.711  1.00  0.00    -0.237 OA
ATOM     48  O   UNL A   1      43.020  19.281  24.799  1.00  0.00    -0.237 OA
ATOM     49  O   UNL A   1      42.665  18.454  27.095  1.00  0.00    -0.744 OA
ENDBRANCH  45  46
ENDBRANCH  24  38
BRANCH  25  50
ATOM     50  C   UNL A   1      43.864  32.805  31.175  1.00  0.00     0.058 A 
ATOM     51  C   UNL A   1      44.073  33.943  30.385  1.00  0.00     0.135 A 
ATOM     52  C   UNL A   1      43.849  32.972  32.569  1.00  0.00     0.135 A 
ATOM     53  F   UNL A   1      44.097  33.838  29.047  1.00  0.00    -0.206 F 
ATOM     54  C   UNL A   1      44.293  35.193  30.954  1.00  0.00     0.059 A 
ATOM     55  C   UNL A   1      44.031  34.215  33.162  1.00  0.00     0.059 A 
ATOM     56  F   UNL A   1      43.630  31.917  33.372  1.00  0.00    -0.206 F 
ATOM     57  C   UNL A   1      44.273  35.317  32.345  1.00  0.00     0.060 A 
BRANCH  57  58
ATOM     58  S   UNL A   1      44.551  36.944  33.079  1.00  0.00     0.124 S 
ATOM     59  O   UNL A   1      43.220  37.269  33.577  1.00  0.00    -0.237 OA
ATOM     60  O   UNL A   1      45.561  36.655  34.093  1.00  0.00    -0.237 OA
ATOM     61  O   UNL A   1      45.018  37.744  31.951  1.00  0.00    -0.744 OA
ENDBRANCH  57  58
ENDBRANCH  25  50
BRANCH  37  62
ATOM     62  C   UNL A   1      48.101  27.446  29.804  1.00  0.00     0.058 A 
ATOM     63  C   UNL A   1      49.030  27.839  28.828  1.00  0.00     0.135 A 
ATOM     64  C   UNL A   1      48.593  26.889  30.994  1.00  0.00     0.135 A 
ATOM     65  F   UNL A   1      48.608  28.367  27.667  1.00  0.00    -0.206 F 
ATOM     66  C   UNL A   1      50.396  27.658  29.013  1.00  0.00     0.059 A 
ATOM     67  C   UNL A   1      49.958  26.728  31.214  1.00  0.00     0.059 A 
ATOM     68  F   UNL A   1      47.747  26.504  31.963  1.00  0.00    -0.206 F 
ATOM     69  C   UNL A   1      50.850  27.104  30.210  1.00  0.00     0.060 A 
BRANCH  69  70
ATOM     70  S   UNL A   1      52.626  26.900  30.449  1.00  0.00     0.124 S 
ATOM     71  O   UNL A   1      53.072  26.593  29.093  1.00  0.00    -0.237 OA
ATOM     72  O   UNL A   1      53.024  28.206  30.966  1.00  0.00    -0.237 OA
ATOM     73  O   UNL A   1      52.718  25.800  31.404  1.00  0.00    -0.744 OA
ENDBRANCH  69  70
ENDBRANCH  37  62
ENDBRANCH  11  12
ENDBRANCH   4   6
ENDBRANCH   1   2
BRANCH   1  74
ATOM     74  C   UNL A   1      31.755  28.313  27.263  1.00  0.00     0.042 C 
BRANCH  74  75
ATOM     75  C   UNL A   1      31.421  27.160  26.327  1.00  0.00     0.118 C 
BRANCH  75  76
ATOM     76  N   UNL A   1      31.740  25.889  26.952  1.00  0.00    -0.353 N 
ATOM     77  C   UNL A   1      31.682  24.622  26.438  1.00  0.00     0.265 C 
ATOM     78  H   UNL A   1      32.045  25.947  27.886  1.00  0.00     0.163 HD
ATOM     79  O   UNL A   1      31.817  23.693  27.246  1.00  0.00    -0.271 OA
BRANCH  77  80
ATOM     80  C   UNL A   1      31.499  24.344  24.938  1.00  0.00     0.319 C 
ATOM     81  F   UNL A   1      31.132  23.066  24.628  1.00  0.00    -0.224 F 
BRANCH  80  82
ATOM     82  S   UNL A   1      32.926  24.867  23.945  1.00  0.00    -0.061 SA
BRANCH  82  83
ATOM     83  C   UNL A   1      34.261  23.943  24.540  1.00  0.00     0.076 A 
ATOM     84  C   UNL A   1      34.609  22.633  24.313  1.00  0.00     0.043 A 
ATOM     85  N   UNL A   1      35.175  24.477  25.406  1.00  0.00    -0.350 N 
ATOM     86  C   UNL A   1      35.903  22.438  24.879  1.00  0.00     0.001 A 
ATOM     87  C   UNL A   1      36.247  23.621  25.537  1.00  0.00     0.046 A 
ATOM     88  H   UNL A   1      35.081  25.342  25.866  1.00  0.00     0.167 HD
ATOM     89  C   UNL A   1      36.840  21.390  24.834  1.00  0.00     0.010 A 
ATOM     90  C   UNL A   1      37.504  23.826  26.119  1.00  0.00     0.027 A 
ATOM     91  C   UNL A   1      38.110  21.592  25.387  1.00  0.00     0.001 A 
ATOM     92  C   UNL A   1      38.441  22.796  26.003  1.00  0.00     0.002 A 
ENDBRANCH  82  83
ENDBRANCH  80  82
ENDBRANCH  77  80
ENDBRANCH  75  76
ENDBRANCH  74  75
ENDBRANCH   1  74
TORSDOF 15
ENDMDL
