MODEL 1
REMARK VINA RESULT:     -13.2      0.000      0.000
REMARK SMILES COc1ccc2c(c1)c(CC(=O)NCCCNC(=O)c1ccc(-c3c4nc(c(-c5c(F)cc(S(=O)(=O)[O-])cc5F)c5ccc([nH]5)c(-c5c(F)cc(S(=O)(=O)[O-])cc5F)c5nc(c(-c6c(F)cc(S(=O)(=O)[O-])cc6F)c6ccc3[nH]6)C=C5)C=C4)cc1)c(C)n2Cc1ccn(C(F)F)c(=O)c1
REMARK SMILES IDX 14 1 13 2 11 3 12 4 10 6 9 7 3 8 4 9 8 10 5 11 7 12 6 13
REMARK SMILES IDX 88 14 86 15 87 16 2 17 1 18 89 19 90 20 91 21 99 22 92 23
REMARK SMILES IDX 97 24 93 25 98 26 94 27 95 28 96 29 15 30 16 31 17 32 18 33
REMARK SMILES IDX 19 35 20 36 21 37 85 38 22 39 84 40 23 41 24 42 25 43 78 44
REMARK SMILES IDX 26 45 83 46 77 47 79 48 27 49 82 50 76 51 75 52 28 54 62 55
REMARK SMILES IDX 41 56 61 57 42 58 45 59 60 60 80 61 43 62 44 63 59 65 81 66
REMARK SMILES IDX 46 67 29 68 30 69 39 70 31 71 32 72 38 73 40 74 33 75 34 76
REMARK SMILES IDX 35 77 36 78 37 79 63 80 64 81 73 82 65 83 66 84 72 85 74 86
REMARK SMILES IDX 67 87 68 88 69 89 70 90 71 91 47 92 48 93 57 94 49 95 50 96
REMARK SMILES IDX 56 97 58 98 51 99 52 100 53 101 54 102 55 103
REMARK H PARENT 13 5 17 34 79 53 45 64
REMARK Flexibility Score: inf
ROOT
ATOM      1  C   UNL A   1      31.508  28.320  26.397  1.00  0.00     0.117 C 
ENDROOT
BRANCH   1   2
ATOM      2  N   UNL A   1      31.205  26.945  26.772  1.00  0.00    -0.356 N 
ATOM      3  C   UNL A   1      31.904  25.794  26.540  1.00  0.00     0.224 C 
ATOM      4  O   UNL A   1      31.457  24.743  27.010  1.00  0.00    -0.275 OA
ATOM      5  H   UNL A   1      30.364  26.827  27.270  1.00  0.00     0.163 HD
BRANCH   3   6
ATOM      6  C   UNL A   1      33.233  25.813  25.800  1.00  0.00     0.138 C 
BRANCH   6   7
ATOM      7  C   UNL A   1      33.505  24.562  25.023  1.00  0.00    -0.010 A 
ATOM      8  C   UNL A   1      36.850  22.853  25.668  1.00  0.00     0.119 A 
ATOM      9  C   UNL A   1      36.583  21.705  24.930  1.00  0.00     0.048 A 
ATOM     10  C   UNL A   1      35.880  23.844  25.815  1.00  0.00     0.057 A 
ATOM     11  C   UNL A   1      35.367  21.557  24.250  1.00  0.00     0.031 A 
ATOM     12  C   UNL A   1      34.659  23.730  25.115  1.00  0.00     0.007 A 
ATOM     13  C   UNL A   1      34.429  22.603  24.320  1.00  0.00     0.049 A 
ATOM     14  N   UNL A   1      33.188  22.773  23.719  1.00  0.00    -0.340 N 
ATOM     15  C   UNL A   1      32.712  24.040  24.012  1.00  0.00     0.020 A 
ATOM     16  C   UNL A   1      31.525  24.674  23.372  1.00  0.00     0.065 C 
BRANCH   8  17
ATOM     17  O   UNL A   1      38.038  23.047  26.325  1.00  0.00    -0.497 OA
ATOM     18  C   UNL A   1      39.070  22.205  25.814  1.00  0.00     0.278 C 
ENDBRANCH   8  17
BRANCH  14  19
ATOM     19  C   UNL A   1      32.510  21.765  22.886  1.00  0.00     0.158 C 
BRANCH  19  20
ATOM     20  C   UNL A   1      32.519  20.401  23.528  1.00  0.00    -0.021 A 
ATOM     21  C   UNL A   1      32.399  20.320  24.968  1.00  0.00     0.024 A 
ATOM     22  C   UNL A   1      32.624  19.263  22.824  1.00  0.00     0.077 A 
ATOM     23  C   UNL A   1      32.566  19.158  25.602  1.00  0.00     0.095 A 
ATOM     24  C   UNL A   1      32.809  17.951  23.512  1.00  0.00     0.255 A 
ATOM     25  N   UNL A   1      32.772  17.993  24.900  1.00  0.00    -0.258 N 
ATOM     26  O   UNL A   1      33.041  16.981  22.812  1.00  0.00    -0.269 OA
BRANCH  25  27
ATOM     27  C   UNL A   1      33.032  16.788  25.637  1.00  0.00     0.451 C 
ATOM     28  F   UNL A   1      32.192  15.796  25.291  1.00  0.00    -0.185 F 
ATOM     29  F   UNL A   1      34.307  16.392  25.393  1.00  0.00    -0.185 F 
ENDBRANCH  25  27
ENDBRANCH  19  20
ENDBRANCH  14  19
ENDBRANCH   6   7
ENDBRANCH   3   6
ENDBRANCH   1   2
BRANCH   1  30
ATOM     30  C   UNL A   1      32.448  29.026  27.381  1.00  0.00     0.042 C 
BRANCH  30  31
ATOM     31  C   UNL A   1      33.769  29.505  26.773  1.00  0.00     0.118 C 
BRANCH  31  32
ATOM     32  N   UNL A   1      34.119  30.879  27.094  1.00  0.00    -0.352 N 
ATOM     33  C   UNL A   1      35.213  31.548  27.572  1.00  0.00     0.251 C 
ATOM     34  H   UNL A   1      33.367  31.492  26.922  1.00  0.00     0.163 HD
ATOM     35  O   UNL A   1      35.124  32.781  27.541  1.00  0.00    -0.269 OA
BRANCH  33  36
ATOM     36  C   UNL A   1      36.428  30.944  28.187  1.00  0.00     0.039 A 
ATOM     37  C   UNL A   1      37.481  31.639  28.767  1.00  0.00     0.014 A 
ATOM     38  C   UNL A   1      36.539  29.540  28.067  1.00  0.00     0.014 A 
ATOM     39  C   UNL A   1      38.670  30.968  29.055  1.00  0.00     0.010 A 
ATOM     40  C   UNL A   1      37.728  28.872  28.351  1.00  0.00     0.010 A 
ATOM     41  C   UNL A   1      38.832  29.607  28.752  1.00  0.00    -0.014 A 
BRANCH  41  42
ATOM     42  C   UNL A   1      40.177  29.028  28.885  1.00  0.00     0.031 A 
ATOM     43  C   UNL A   1      40.689  28.995  30.283  1.00  0.00     0.074 A 
ATOM     44  C   UNL A   1      40.924  28.563  27.855  1.00  0.00     0.049 A 
ATOM     45  N   UNL A   1      41.723  29.594  30.777  1.00  0.00    -0.248 NA
ATOM     46  C   UNL A   1      39.853  28.316  31.287  1.00  0.00     0.031 C 
ATOM     47  C   UNL A   1      40.521  28.346  26.462  1.00  0.00     0.029 A 
ATOM     48  N   UNL A   1      42.219  28.118  27.857  1.00  0.00    -0.354 N 
ATOM     49  C   UNL A   1      41.766  29.240  32.121  1.00  0.00     0.074 A 
ATOM     50  C   UNL A   1      40.523  28.572  32.409  1.00  0.00     0.031 C 
ATOM     51  C   UNL A   1      41.458  27.600  25.832  1.00  0.00     0.029 A 
ATOM     52  C   UNL A   1      42.584  27.391  26.726  1.00  0.00     0.049 A 
ATOM     53  H   UNL A   1      42.841  28.296  28.598  1.00  0.00     0.167 HD
ATOM     54  C   UNL A   1      42.907  29.339  32.855  1.00  0.00     0.037 A 
ATOM     55  C   UNL A   1      43.694  26.620  26.562  1.00  0.00     0.037 A 
ATOM     56  C   UNL A   1      43.834  30.274  32.278  1.00  0.00     0.049 A 
ATOM     57  C   UNL A   1      44.701  27.093  27.546  1.00  0.00     0.074 A 
ATOM     58  C   UNL A   1      43.792  31.628  32.007  1.00  0.00     0.029 A 
ATOM     59  N   UNL A   1      44.896  29.781  31.560  1.00  0.00    -0.354 N 
ATOM     60  N   UNL A   1      45.291  28.255  27.486  1.00  0.00    -0.248 NA
ATOM     61  C   UNL A   1      44.716  26.447  28.850  1.00  0.00     0.031 C 
ATOM     62  C   UNL A   1      44.506  31.784  30.785  1.00  0.00     0.029 A 
ATOM     63  C   UNL A   1      44.990  30.528  30.415  1.00  0.00     0.049 A 
ATOM     64  H   UNL A   1      45.481  29.032  31.820  1.00  0.00     0.167 HD
ATOM     65  C   UNL A   1      45.366  28.677  28.805  1.00  0.00     0.074 A 
ATOM     66  C   UNL A   1      45.057  27.493  29.605  1.00  0.00     0.031 C 
ATOM     67  C   UNL A   1      45.405  30.000  29.133  1.00  0.00     0.037 A 
BRANCH  54  68
ATOM     68  C   UNL A   1      43.306  28.322  33.893  1.00  0.00     0.058 A 
ATOM     69  C   UNL A   1      43.562  26.990  33.509  1.00  0.00     0.135 A 
ATOM     70  C   UNL A   1      43.159  28.540  35.282  1.00  0.00     0.135 A 
ATOM     71  F   UNL A   1      43.705  26.666  32.213  1.00  0.00    -0.206 F 
ATOM     72  C   UNL A   1      43.599  25.944  34.432  1.00  0.00     0.059 A 
ATOM     73  C   UNL A   1      43.246  27.522  36.221  1.00  0.00     0.059 A 
ATOM     74  F   UNL A   1      42.824  29.733  35.788  1.00  0.00    -0.206 F 
ATOM     75  C   UNL A   1      43.423  26.220  35.785  1.00  0.00     0.060 A 
BRANCH  75  76
ATOM     76  S   UNL A   1      43.345  24.864  36.965  1.00  0.00     0.124 S 
ATOM     77  O   UNL A   1      43.850  23.753  36.167  1.00  0.00    -0.237 OA
ATOM     78  O   UNL A   1      44.224  25.341  38.029  1.00  0.00    -0.237 OA
ATOM     79  O   UNL A   1      41.928  24.800  37.312  1.00  0.00    -0.744 OA
ENDBRANCH  75  76
ENDBRANCH  54  68
BRANCH  55  80
ATOM     80  C   UNL A   1      43.787  25.277  25.909  1.00  0.00     0.058 A 
ATOM     81  C   UNL A   1      44.905  24.909  25.133  1.00  0.00     0.135 A 
ATOM     82  C   UNL A   1      42.920  24.223  26.265  1.00  0.00     0.135 A 
ATOM     83  F   UNL A   1      45.800  25.836  24.756  1.00  0.00    -0.206 F 
ATOM     84  C   UNL A   1      45.173  23.577  24.782  1.00  0.00     0.059 A 
ATOM     85  C   UNL A   1      43.161  22.893  25.919  1.00  0.00     0.059 A 
ATOM     86  F   UNL A   1      41.851  24.437  27.045  1.00  0.00    -0.206 F 
ATOM     87  C   UNL A   1      44.304  22.572  25.201  1.00  0.00     0.060 A 
BRANCH  87  88
ATOM     88  S   UNL A   1      44.724  20.836  24.903  1.00  0.00     0.124 S 
ATOM     89  O   UNL A   1      46.095  20.766  25.397  1.00  0.00    -0.237 OA
ATOM     90  O   UNL A   1      43.722  20.136  25.700  1.00  0.00    -0.237 OA
ATOM     91  O   UNL A   1      44.575  20.694  23.457  1.00  0.00    -0.744 OA
ENDBRANCH  87  88
ENDBRANCH  55  80
BRANCH  67  92
ATOM     92  C   UNL A   1      45.657  31.017  28.051  1.00  0.00     0.058 A 
ATOM     93  C   UNL A   1      44.670  31.501  27.174  1.00  0.00     0.135 A 
ATOM     94  C   UNL A   1      46.894  31.682  28.057  1.00  0.00     0.135 A 
ATOM     95  F   UNL A   1      43.437  30.975  27.153  1.00  0.00    -0.206 F 
ATOM     96  C   UNL A   1      44.906  32.603  26.346  1.00  0.00     0.059 A 
ATOM     97  C   UNL A   1      47.139  32.798  27.263  1.00  0.00     0.059 A 
ATOM     98  F   UNL A   1      47.861  31.292  28.905  1.00  0.00    -0.206 F 
ATOM     99  C   UNL A   1      46.136  33.257  26.412  1.00  0.00     0.060 A 
BRANCH  99 100
ATOM    100  S   UNL A   1      46.374  34.769  25.452  1.00  0.00     0.124 S 
ATOM    101  O   UNL A   1      45.485  34.557  24.315  1.00  0.00    -0.237 OA
ATOM    102  O   UNL A   1      45.957  35.811  26.390  1.00  0.00    -0.237 OA
ATOM    103  O   UNL A   1      47.801  34.760  25.141  1.00  0.00    -0.744 OA
ENDBRANCH  99 100
ENDBRANCH  67  92
ENDBRANCH  41  42
ENDBRANCH  33  36
ENDBRANCH  31  32
ENDBRANCH  30  31
ENDBRANCH   1  30
TORSDOF 18
ENDMDL
MODEL 2
REMARK VINA RESULT:     -12.9      1.454      2.291
REMARK SMILES COc1ccc2c(c1)c(CC(=O)NCCCNC(=O)c1ccc(-c3c4nc(c(-c5c(F)cc(S(=O)(=O)[O-])cc5F)c5ccc([nH]5)c(-c5c(F)cc(S(=O)(=O)[O-])cc5F)c5nc(c(-c6c(F)cc(S(=O)(=O)[O-])cc6F)c6ccc3[nH]6)C=C5)C=C4)cc1)c(C)n2Cc1ccn(C(F)F)c(=O)c1
REMARK SMILES IDX 14 1 13 2 11 3 12 4 10 6 9 7 3 8 4 9 8 10 5 11 7 12 6 13
REMARK SMILES IDX 88 14 86 15 87 16 2 17 1 18 89 19 90 20 91 21 99 22 92 23
REMARK SMILES IDX 97 24 93 25 98 26 94 27 95 28 96 29 15 30 16 31 17 32 18 33
REMARK SMILES IDX 19 35 20 36 21 37 85 38 22 39 84 40 23 41 24 42 25 43 78 44
REMARK SMILES IDX 26 45 83 46 77 47 79 48 27 49 82 50 76 51 75 52 28 54 62 55
REMARK SMILES IDX 41 56 61 57 42 58 45 59 60 60 80 61 43 62 44 63 59 65 81 66
REMARK SMILES IDX 46 67 29 68 30 69 39 70 31 71 32 72 38 73 40 74 33 75 34 76
REMARK SMILES IDX 35 77 36 78 37 79 63 80 64 81 73 82 65 83 66 84 72 85 74 86
REMARK SMILES IDX 67 87 68 88 69 89 70 90 71 91 47 92 48 93 57 94 49 95 50 96
REMARK SMILES IDX 56 97 58 98 51 99 52 100 53 101 54 102 55 103
REMARK H PARENT 13 5 17 34 79 53 45 64
REMARK Flexibility Score: inf
ROOT
ATOM      1  C   UNL A   1      31.841  27.808  26.208  1.00  0.00     0.117 C 
ENDROOT
BRANCH   1   2
ATOM      2  N   UNL A   1      31.056  27.867  24.981  1.00  0.00    -0.356 N 
ATOM      3  C   UNL A   1      30.174  26.967  24.456  1.00  0.00     0.224 C 
ATOM      4  O   UNL A   1      29.589  27.274  23.412  1.00  0.00    -0.275 OA
ATOM      5  H   UNL A   1      31.184  28.684  24.447  1.00  0.00     0.163 HD
BRANCH   3   6
ATOM      6  C   UNL A   1      29.852  25.664  25.173  1.00  0.00     0.138 C 
BRANCH   6   7
ATOM      7  C   UNL A   1      30.945  24.645  25.084  1.00  0.00    -0.010 A 
ATOM      8  C   UNL A   1      33.324  24.956  22.123  1.00  0.00     0.119 A 
ATOM      9  C   UNL A   1      34.229  23.990  22.548  1.00  0.00     0.048 A 
ATOM     10  C   UNL A   1      32.226  25.296  22.912  1.00  0.00     0.057 A 
ATOM     11  C   UNL A   1      34.013  23.279  23.736  1.00  0.00     0.031 A 
ATOM     12  C   UNL A   1      31.973  24.573  24.098  1.00  0.00     0.007 A 
ATOM     13  C   UNL A   1      32.853  23.556  24.480  1.00  0.00     0.049 A 
ATOM     14  N   UNL A   1      32.342  22.989  25.642  1.00  0.00    -0.340 N 
ATOM     15  C   UNL A   1      31.097  23.537  25.904  1.00  0.00     0.020 A 
ATOM     16  C   UNL A   1      30.142  23.030  26.930  1.00  0.00     0.065 C 
BRANCH   8  17
ATOM     17  O   UNL A   1      33.487  25.654  20.953  1.00  0.00    -0.497 OA
ATOM     18  C   UNL A   1      32.296  25.656  20.168  1.00  0.00     0.278 C 
ENDBRANCH   8  17
BRANCH  14  19
ATOM     19  C   UNL A   1      33.019  21.955  26.442  1.00  0.00     0.158 C 
BRANCH  19  20
ATOM     20  C   UNL A   1      33.373  20.743  25.617  1.00  0.00    -0.021 A 
ATOM     21  C   UNL A   1      32.298  19.976  25.028  1.00  0.00     0.024 A 
ATOM     22  C   UNL A   1      34.639  20.355  25.398  1.00  0.00     0.077 A 
ATOM     23  C   UNL A   1      32.541  18.808  24.429  1.00  0.00     0.095 A 
ATOM     24  C   UNL A   1      34.935  19.053  24.727  1.00  0.00     0.255 A 
ATOM     25  N   UNL A   1      33.827  18.345  24.281  1.00  0.00    -0.258 N 
ATOM     26  O   UNL A   1      36.100  18.696  24.691  1.00  0.00    -0.269 OA
BRANCH  25  27
ATOM     27  C   UNL A   1      34.023  17.043  23.707  1.00  0.00     0.451 C 
ATOM     28  F   UNL A   1      32.995  16.217  23.971  1.00  0.00    -0.185 F 
ATOM     29  F   UNL A   1      34.152  17.171  22.362  1.00  0.00    -0.185 F 
ENDBRANCH  25  27
ENDBRANCH  19  20
ENDBRANCH  14  19
ENDBRANCH   6   7
ENDBRANCH   3   6
ENDBRANCH   1   2
BRANCH   1  30
ATOM     30  C   UNL A   1      32.193  29.190  26.771  1.00  0.00     0.042 C 
BRANCH  30  31
ATOM     31  C   UNL A   1      33.693  29.479  26.870  1.00  0.00     0.118 C 
BRANCH  31  32
ATOM     32  N   UNL A   1      34.024  30.859  27.186  1.00  0.00    -0.352 N 
ATOM     33  C   UNL A   1      35.100  31.542  27.681  1.00  0.00     0.251 C 
ATOM     34  H   UNL A   1      33.270  31.463  26.993  1.00  0.00     0.163 HD
ATOM     35  O   UNL A   1      35.001  32.773  27.637  1.00  0.00    -0.269 OA
BRANCH  33  36
ATOM     36  C   UNL A   1      36.308  30.955  28.326  1.00  0.00     0.039 A 
ATOM     37  C   UNL A   1      37.379  31.663  28.853  1.00  0.00     0.014 A 
ATOM     38  C   UNL A   1      36.389  29.543  28.298  1.00  0.00     0.014 A 
ATOM     39  C   UNL A   1      38.557  30.989  29.177  1.00  0.00     0.010 A 
ATOM     40  C   UNL A   1      37.567  28.871  28.618  1.00  0.00     0.010 A 
ATOM     41  C   UNL A   1      38.689  29.607  28.963  1.00  0.00    -0.014 A 
BRANCH  41  42
ATOM     42  C   UNL A   1      40.023  29.011  29.125  1.00  0.00     0.031 A 
ATOM     43  C   UNL A   1      40.472  28.903  30.541  1.00  0.00     0.074 A 
ATOM     44  C   UNL A   1      40.811  28.592  28.107  1.00  0.00     0.049 A 
ATOM     45  N   UNL A   1      41.488  29.467  31.109  1.00  0.00    -0.248 NA
ATOM     46  C   UNL A   1      39.588  28.182  31.471  1.00  0.00     0.031 C 
ATOM     47  C   UNL A   1      40.469  28.448  26.688  1.00  0.00     0.029 A 
ATOM     48  N   UNL A   1      42.102  28.135  28.143  1.00  0.00    -0.354 N 
ATOM     49  C   UNL A   1      41.469  29.046  32.434  1.00  0.00     0.074 A 
ATOM     50  C   UNL A   1      40.210  28.375  32.634  1.00  0.00     0.031 C 
ATOM     51  C   UNL A   1      41.428  27.727  26.063  1.00  0.00     0.029 A 
ATOM     52  C   UNL A   1      42.512  27.464  26.994  1.00  0.00     0.049 A 
ATOM     53  H   UNL A   1      42.692  28.271  28.918  1.00  0.00     0.167 HD
ATOM     54  C   UNL A   1      42.577  29.098  33.221  1.00  0.00     0.037 A 
ATOM     55  C   UNL A   1      43.622  26.691  26.839  1.00  0.00     0.037 A 
ATOM     56  C   UNL A   1      43.535  30.052  32.734  1.00  0.00     0.049 A 
ATOM     57  C   UNL A   1      44.589  27.106  27.889  1.00  0.00     0.074 A 
ATOM     58  C   UNL A   1      43.514  31.419  32.529  1.00  0.00     0.029 A 
ATOM     59  N   UNL A   1      44.624  29.587  32.039  1.00  0.00    -0.354 N 
ATOM     60  N   UNL A   1      45.188  28.265  27.914  1.00  0.00    -0.248 NA
ATOM     61  C   UNL A   1      44.542  26.395  29.158  1.00  0.00     0.031 C 
ATOM     62  C   UNL A   1      44.282  31.629  31.350  1.00  0.00     0.029 A 
ATOM     63  C   UNL A   1      44.773  30.390  30.938  1.00  0.00     0.049 A 
ATOM     64  H   UNL A   1      45.192  28.821  32.286  1.00  0.00     0.167 HD
ATOM     65  C   UNL A   1      45.208  28.619  29.255  1.00  0.00     0.074 A 
ATOM     66  C   UNL A   1      44.856  27.399  29.979  1.00  0.00     0.031 C 
ATOM     67  C   UNL A   1      45.241  29.923  29.650  1.00  0.00     0.037 A 
BRANCH  54  68
ATOM     68  C   UNL A   1      42.923  28.026  34.223  1.00  0.00     0.058 A 
ATOM     69  C   UNL A   1      43.071  28.358  35.584  1.00  0.00     0.135 A 
ATOM     70  C   UNL A   1      43.399  26.748  33.850  1.00  0.00     0.135 A 
ATOM     71  F   UNL A   1      42.666  29.553  36.046  1.00  0.00    -0.206 F 
ATOM     72  C   UNL A   1      43.710  27.512  36.491  1.00  0.00     0.059 A 
ATOM     73  C   UNL A   1      43.988  25.869  34.748  1.00  0.00     0.059 A 
ATOM     74  F   UNL A   1      43.409  26.330  32.579  1.00  0.00    -0.206 F 
ATOM     75  C   UNL A   1      44.179  26.275  36.057  1.00  0.00     0.060 A 
BRANCH  75  76
ATOM     76  S   UNL A   1      45.112  25.232  37.189  1.00  0.00     0.124 S 
ATOM     77  O   UNL A   1      45.119  23.960  36.475  1.00  0.00    -0.237 OA
ATOM     78  O   UNL A   1      46.389  25.934  37.261  1.00  0.00    -0.237 OA
ATOM     79  O   UNL A   1      44.314  25.264  38.412  1.00  0.00    -0.744 OA
ENDBRANCH  75  76
ENDBRANCH  54  68
BRANCH  55  80
ATOM     80  C   UNL A   1      43.735  25.383  26.123  1.00  0.00     0.058 A 
ATOM     81  C   UNL A   1      44.787  25.122  25.222  1.00  0.00     0.135 A 
ATOM     82  C   UNL A   1      42.983  24.258  26.522  1.00  0.00     0.135 A 
ATOM     83  F   UNL A   1      45.574  26.123  24.795  1.00  0.00    -0.206 F 
ATOM     84  C   UNL A   1      45.105  23.826  24.789  1.00  0.00     0.059 A 
ATOM     85  C   UNL A   1      43.275  22.962  26.097  1.00  0.00     0.059 A 
ATOM     86  F   UNL A   1      41.991  24.368  27.416  1.00  0.00    -0.206 F 
ATOM     87  C   UNL A   1      44.355  22.747  25.253  1.00  0.00     0.060 A 
BRANCH  87  88
ATOM     88  S   UNL A   1      44.855  21.057  24.839  1.00  0.00     0.124 S 
ATOM     89  O   UNL A   1      44.599  21.008  23.404  1.00  0.00    -0.237 OA
ATOM     90  O   UNL A   1      46.258  21.046  25.237  1.00  0.00    -0.237 OA
ATOM     91  O   UNL A   1      43.971  20.231  25.658  1.00  0.00    -0.744 OA
ENDBRANCH  87  88
ENDBRANCH  55  80
BRANCH  67  92
ATOM     92  C   UNL A   1      45.547  30.991  28.633  1.00  0.00     0.058 A 
ATOM     93  C   UNL A   1      44.607  31.516  27.729  1.00  0.00     0.135 A 
ATOM     94  C   UNL A   1      46.780  31.655  28.737  1.00  0.00     0.135 A 
ATOM     95  F   UNL A   1      43.378  30.991  27.617  1.00  0.00    -0.206 F 
ATOM     96  C   UNL A   1      44.883  32.656  26.968  1.00  0.00     0.059 A 
ATOM     97  C   UNL A   1      47.064  32.809  28.011  1.00  0.00     0.059 A 
ATOM     98  F   UNL A   1      47.701  31.226  29.616  1.00  0.00    -0.206 F 
ATOM     99  C   UNL A   1      46.106  33.307  27.132  1.00  0.00     0.060 A 
BRANCH  99 100
ATOM    100  S   UNL A   1      46.390  34.864  26.259  1.00  0.00     0.124 S 
ATOM    101  O   UNL A   1      47.312  34.462  25.202  1.00  0.00    -0.237 OA
ATOM    102  O   UNL A   1      45.046  35.230  25.814  1.00  0.00    -0.237 OA
ATOM    103  O   UNL A   1      46.956  35.736  27.284  1.00  0.00    -0.744 OA
ENDBRANCH  99 100
ENDBRANCH  67  92
ENDBRANCH  41  42
ENDBRANCH  33  36
ENDBRANCH  31  32
ENDBRANCH  30  31
ENDBRANCH   1  30
TORSDOF 18
ENDMDL
MODEL 3
REMARK VINA RESULT:     -12.5      1.348      2.557
REMARK SMILES COc1ccc2c(c1)c(CC(=O)NCCCNC(=O)c1ccc(-c3c4nc(c(-c5c(F)cc(S(=O)(=O)[O-])cc5F)c5ccc([nH]5)c(-c5c(F)cc(S(=O)(=O)[O-])cc5F)c5nc(c(-c6c(F)cc(S(=O)(=O)[O-])cc6F)c6ccc3[nH]6)C=C5)C=C4)cc1)c(C)n2Cc1ccn(C(F)F)c(=O)c1
REMARK SMILES IDX 14 1 13 2 11 3 12 4 10 6 9 7 3 8 4 9 8 10 5 11 7 12 6 13
REMARK SMILES IDX 88 14 86 15 87 16 2 17 1 18 89 19 90 20 91 21 99 22 92 23
REMARK SMILES IDX 97 24 93 25 98 26 94 27 95 28 96 29 15 30 16 31 17 32 18 33
REMARK SMILES IDX 19 35 20 36 21 37 85 38 22 39 84 40 23 41 24 42 25 43 78 44
REMARK SMILES IDX 26 45 83 46 77 47 79 48 27 49 82 50 76 51 75 52 28 54 62 55
REMARK SMILES IDX 41 56 61 57 42 58 45 59 60 60 80 61 43 62 44 63 59 65 81 66
REMARK SMILES IDX 46 67 29 68 30 69 39 70 31 71 32 72 38 73 40 74 33 75 34 76
REMARK SMILES IDX 35 77 36 78 37 79 63 80 64 81 73 82 65 83 66 84 72 85 74 86
REMARK SMILES IDX 67 87 68 88 69 89 70 90 71 91 47 92 48 93 57 94 49 95 50 96
REMARK SMILES IDX 56 97 58 98 51 99 52 100 53 101 54 102 55 103
REMARK H PARENT 13 5 17 34 79 53 45 64
REMARK Flexibility Score: inf
ROOT
ATOM      1  C   UNL A   1      32.123  27.983  27.175  1.00  0.00     0.117 C 
ENDROOT
BRANCH   1   2
ATOM      2  N   UNL A   1      30.987  27.224  26.665  1.00  0.00    -0.356 N 
ATOM      3  C   UNL A   1      30.784  25.875  26.607  1.00  0.00     0.224 C 
ATOM      4  O   UNL A   1      29.701  25.473  26.169  1.00  0.00    -0.275 OA
ATOM      5  H   UNL A   1      30.252  27.771  26.305  1.00  0.00     0.163 HD
BRANCH   3   6
ATOM      6  C   UNL A   1      31.818  24.896  27.143  1.00  0.00     0.138 C 
BRANCH   6   7
ATOM      7  C   UNL A   1      32.610  24.214  26.072  1.00  0.00    -0.010 A 
ATOM      8  C   UNL A   1      32.073  25.455  22.508  1.00  0.00     0.119 A 
ATOM      9  C   UNL A   1      33.101  24.719  21.930  1.00  0.00     0.048 A 
ATOM     10  C   UNL A   1      31.854  25.408  23.885  1.00  0.00     0.057 A 
ATOM     11  C   UNL A   1      33.885  23.853  22.704  1.00  0.00     0.031 A 
ATOM     12  C   UNL A   1      32.611  24.521  24.679  1.00  0.00     0.007 A 
ATOM     13  C   UNL A   1      33.597  23.735  24.076  1.00  0.00     0.049 A 
ATOM     14  N   UNL A   1      34.145  22.932  25.070  1.00  0.00    -0.340 N 
ATOM     15  C   UNL A   1      33.423  23.103  26.239  1.00  0.00     0.020 A 
ATOM     16  C   UNL A   1      33.562  22.256  27.458  1.00  0.00     0.065 C 
BRANCH   8  17
ATOM     17  O   UNL A   1      31.267  26.293  21.780  1.00  0.00    -0.497 OA
ATOM     18  C   UNL A   1      30.601  27.241  22.611  1.00  0.00     0.278 C 
ENDBRANCH   8  17
BRANCH  14  19
ATOM     19  C   UNL A   1      35.295  22.030  24.886  1.00  0.00     0.158 C 
BRANCH  19  20
ATOM     20  C   UNL A   1      34.868  20.591  24.743  1.00  0.00    -0.021 A 
ATOM     21  C   UNL A   1      35.865  19.559  24.927  1.00  0.00     0.024 A 
ATOM     22  C   UNL A   1      33.606  20.228  24.464  1.00  0.00     0.077 A 
ATOM     23  C   UNL A   1      35.585  18.283  24.652  1.00  0.00     0.095 A 
ATOM     24  C   UNL A   1      33.269  18.806  24.156  1.00  0.00     0.255 A 
ATOM     25  N   UNL A   1      34.319  17.905  24.269  1.00  0.00    -0.258 N 
ATOM     26  O   UNL A   1      32.137  18.572  23.770  1.00  0.00    -0.269 OA
BRANCH  25  27
ATOM     27  C   UNL A   1      34.098  16.534  23.902  1.00  0.00     0.451 C 
ATOM     28  F   UNL A   1      34.372  16.310  22.605  1.00  0.00    -0.185 F 
ATOM     29  F   UNL A   1      34.893  15.742  24.665  1.00  0.00    -0.185 F 
ENDBRANCH  25  27
ENDBRANCH  19  20
ENDBRANCH  14  19
ENDBRANCH   6   7
ENDBRANCH   3   6
ENDBRANCH   1   2
BRANCH   1  30
ATOM     30  C   UNL A   1      32.395  29.271  26.390  1.00  0.00     0.042 C 
BRANCH  30  31
ATOM     31  C   UNL A   1      33.801  29.849  26.573  1.00  0.00     0.118 C 
BRANCH  31  32
ATOM     32  N   UNL A   1      33.849  31.102  27.308  1.00  0.00    -0.352 N 
ATOM     33  C   UNL A   1      34.739  31.756  28.116  1.00  0.00     0.251 C 
ATOM     34  H   UNL A   1      33.018  31.619  27.193  1.00  0.00     0.163 HD
ATOM     35  O   UNL A   1      34.422  32.915  28.408  1.00  0.00    -0.269 OA
BRANCH  33  36
ATOM     36  C   UNL A   1      35.972  31.186  28.726  1.00  0.00     0.039 A 
ATOM     37  C   UNL A   1      37.033  31.911  29.252  1.00  0.00     0.014 A 
ATOM     38  C   UNL A   1      36.091  29.779  28.662  1.00  0.00     0.014 A 
ATOM     39  C   UNL A   1      38.234  31.261  29.539  1.00  0.00     0.010 A 
ATOM     40  C   UNL A   1      37.292  29.132  28.945  1.00  0.00     0.010 A 
ATOM     41  C   UNL A   1      38.399  29.890  29.289  1.00  0.00    -0.014 A 
BRANCH  41  42
ATOM     42  C   UNL A   1      39.752  29.326  29.414  1.00  0.00     0.031 A 
ATOM     43  C   UNL A   1      40.191  29.108  30.820  1.00  0.00     0.074 A 
ATOM     44  C   UNL A   1      40.563  29.025  28.372  1.00  0.00     0.049 A 
ATOM     45  N   UNL A   1      41.182  29.653  31.448  1.00  0.00    -0.248 NA
ATOM     46  C   UNL A   1      39.324  28.278  31.672  1.00  0.00     0.031 C 
ATOM     47  C   UNL A   1      40.239  28.997  26.942  1.00  0.00     0.029 A 
ATOM     48  N   UNL A   1      41.868  28.611  28.383  1.00  0.00    -0.354 N 
ATOM     49  C   UNL A   1      41.165  29.116  32.730  1.00  0.00     0.074 A 
ATOM     50  C   UNL A   1      39.929  28.388  32.854  1.00  0.00     0.031 C 
ATOM     51  C   UNL A   1      41.228  28.366  26.267  1.00  0.00     0.029 A 
ATOM     52  C   UNL A   1      42.311  28.058  27.184  1.00  0.00     0.049 A 
ATOM     53  H   UNL A   1      42.447  28.697  29.174  1.00  0.00     0.167 HD
ATOM     54  C   UNL A   1      42.264  29.135  33.532  1.00  0.00     0.037 A 
ATOM     55  C   UNL A   1      43.449  27.340  26.976  1.00  0.00     0.037 A 
ATOM     56  C   UNL A   1      43.193  30.160  33.143  1.00  0.00     0.049 A 
ATOM     57  C   UNL A   1      44.391  27.691  28.069  1.00  0.00     0.074 A 
ATOM     58  C   UNL A   1      43.127  31.538  33.060  1.00  0.00     0.029 A 
ATOM     59  N   UNL A   1      44.304  29.794  32.423  1.00  0.00    -0.354 N 
ATOM     60  N   UNL A   1      44.950  28.863  28.204  1.00  0.00    -0.248 NA
ATOM     61  C   UNL A   1      44.357  26.870  29.270  1.00  0.00     0.031 C 
ATOM     62  C   UNL A   1      43.898  31.877  31.913  1.00  0.00     0.029 A 
ATOM     63  C   UNL A   1      44.435  30.696  31.398  1.00  0.00     0.049 A 
ATOM     64  H   UNL A   1      44.895  29.029  32.608  1.00  0.00     0.167 HD
ATOM     65  C   UNL A   1      44.945  29.097  29.571  1.00  0.00     0.074 A 
ATOM     66  C   UNL A   1      44.629  27.806  30.180  1.00  0.00     0.031 C 
ATOM     67  C   UNL A   1      44.930  30.362  30.080  1.00  0.00     0.037 A 
BRANCH  54  68
ATOM     68  C   UNL A   1      42.637  27.990  34.439  1.00  0.00     0.058 A 
ATOM     69  C   UNL A   1      42.754  28.203  35.827  1.00  0.00     0.135 A 
ATOM     70  C   UNL A   1      43.168  26.770  33.962  1.00  0.00     0.135 A 
ATOM     71  F   UNL A   1      42.297  29.336  36.387  1.00  0.00    -0.206 F 
ATOM     72  C   UNL A   1      43.412  27.302  36.666  1.00  0.00     0.059 A 
ATOM     73  C   UNL A   1      43.778  25.836  34.787  1.00  0.00     0.059 A 
ATOM     74  F   UNL A   1      43.211  26.469  32.658  1.00  0.00    -0.206 F 
ATOM     75  C   UNL A   1      43.935  26.128  36.130  1.00  0.00     0.060 A 
BRANCH  75  76
ATOM     76  S   UNL A   1      44.892  25.023  37.179  1.00  0.00     0.124 S 
ATOM     77  O   UNL A   1      46.206  25.656  37.149  1.00  0.00    -0.237 OA
ATOM     78  O   UNL A   1      44.168  25.108  38.444  1.00  0.00    -0.237 OA
ATOM     79  O   UNL A   1      44.795  23.738  36.493  1.00  0.00    -0.744 OA
ENDBRANCH  75  76
ENDBRANCH  54  68
BRANCH  55  80
ATOM     80  C   UNL A   1      43.613  26.104  26.148  1.00  0.00     0.058 A 
ATOM     81  C   UNL A   1      44.790  25.860  25.410  1.00  0.00     0.135 A 
ATOM     82  C   UNL A   1      42.745  25.002  26.291  1.00  0.00     0.135 A 
ATOM     83  F   UNL A   1      45.690  26.840  25.233  1.00  0.00    -0.206 F 
ATOM     84  C   UNL A   1      45.108  24.595  24.896  1.00  0.00     0.059 A 
ATOM     85  C   UNL A   1      43.035  23.737  25.779  1.00  0.00     0.059 A 
ATOM     86  F   UNL A   1      41.621  25.094  27.014  1.00  0.00    -0.206 F 
ATOM     87  C   UNL A   1      44.232  23.531  25.107  1.00  0.00     0.060 A 
BRANCH  87  88
ATOM     88  S   UNL A   1      44.704  21.859  24.598  1.00  0.00     0.124 S 
ATOM     89  O   UNL A   1      44.579  21.938  23.146  1.00  0.00    -0.237 OA
ATOM     90  O   UNL A   1      46.064  21.753  25.116  1.00  0.00    -0.237 OA
ATOM     91  O   UNL A   1      43.719  21.010  25.263  1.00  0.00    -0.744 OA
ENDBRANCH  87  88
ENDBRANCH  55  80
BRANCH  67  92
ATOM     92  C   UNL A   1      45.209  31.525  29.165  1.00  0.00     0.058 A 
ATOM     93  C   UNL A   1      46.497  31.972  28.821  1.00  0.00     0.135 A 
ATOM     94  C   UNL A   1      44.129  32.057  28.442  1.00  0.00     0.135 A 
ATOM     95  F   UNL A   1      47.591  31.465  29.408  1.00  0.00    -0.206 F 
ATOM     96  C   UNL A   1      46.697  32.903  27.798  1.00  0.00     0.059 A 
ATOM     97  C   UNL A   1      44.309  32.962  27.400  1.00  0.00     0.059 A 
ATOM     98  F   UNL A   1      42.878  31.636  28.697  1.00  0.00    -0.206 F 
ATOM     99  C   UNL A   1      45.599  33.376  27.079  1.00  0.00     0.060 A 
BRANCH  99 100
ATOM    100  S   UNL A   1      45.884  34.458  25.660  1.00  0.00     0.124 S 
ATOM    101  O   UNL A   1      45.016  33.872  24.645  1.00  0.00    -0.237 OA
ATOM    102  O   UNL A   1      45.465  35.765  26.167  1.00  0.00    -0.237 OA
ATOM    103  O   UNL A   1      47.317  34.328  25.409  1.00  0.00    -0.744 OA
ENDBRANCH  99 100
ENDBRANCH  67  92
ENDBRANCH  41  42
ENDBRANCH  33  36
ENDBRANCH  31  32
ENDBRANCH  30  31
ENDBRANCH   1  30
TORSDOF 18
ENDMDL
