MODEL 1
REMARK VINA RESULT:     -12.4      0.000      0.000
REMARK SMILES N#C/C(=C\c1ccc(-c2cc(C(F)(F)F)ccc2Cl)o1)C(=O)NCCCNC(=O)c1ccc(-c2c3nc(c(-c4c(F)cc(S(=O)(=O)[O-])cc4F)c4ccc([nH]4)c(-c4c(F)cc(S(=O)(=O)[O-])cc4F)c4nc(c(-c5c(F)cc(S(=O)(=O)[O-])cc5F)c5ccc2[nH]5)C=C4)C=C3)cc1
REMARK SMILES IDX 25 1 24 2 23 3 21 4 22 5 3 7 4 8 2 9 1 10 5 11 6 12 20 13
REMARK SMILES IDX 7 14 8 15 9 16 10 17 18 18 11 19 17 20 19 21 16 22 12 23
REMARK SMILES IDX 13 24 14 25 15 26 26 27 27 28 28 29 29 31 30 32 31 33 95 34
REMARK SMILES IDX 32 35 94 36 33 37 34 38 35 39 88 40 36 41 93 42 87 43 89 44
REMARK SMILES IDX 37 45 92 46 86 47 85 48 38 50 72 51 51 52 71 53 52 54 55 55
REMARK SMILES IDX 70 56 90 57 53 58 54 59 69 61 91 62 56 63 39 64 40 65 49 66
REMARK SMILES IDX 41 67 42 68 48 69 50 70 43 71 44 72 45 73 46 74 47 75 73 76
REMARK SMILES IDX 74 77 83 78 75 79 76 80 82 81 84 82 77 83 78 84 79 85 80 86
REMARK SMILES IDX 81 87 57 88 58 89 67 90 59 91 60 92 66 93 68 94 61 95 62 96
REMARK SMILES IDX 63 97 64 98 65 99
REMARK H PARENT 23 6 27 30 89 49 55 60
REMARK Flexibility Score: inf
ROOT
ATOM      1  C   UNL A   1      38.023  22.788  26.148  1.00  0.00     0.042 C 
ENDROOT
BRANCH   1   2
ATOM      2  C   UNL A   1      36.655  23.046  25.513  1.00  0.00     0.118 C 
BRANCH   2   3
ATOM      3  N   UNL A   1      35.569  22.860  26.461  1.00  0.00    -0.351 N 
ATOM      4  C   UNL A   1      34.305  23.357  26.550  1.00  0.00     0.262 C 
ATOM      5  O   UNL A   1      33.600  22.919  27.462  1.00  0.00    -0.268 OA
ATOM      6  H   UNL A   1      35.796  22.243  27.195  1.00  0.00     0.163 HD
BRANCH   4   7
ATOM      7  C   UNL A   1      33.742  24.365  25.615  1.00  0.00     0.120 C 
ATOM      8  C   UNL A   1      33.872  25.713  25.672  1.00  0.00     0.072 C 
BRANCH   7   9
ATOM      9  C   UNL A   1      32.827  23.862  24.511  1.00  0.00     0.105 C 
ATOM     10  N   UNL A   1      32.067  23.446  23.595  1.00  0.00    -0.192 NA
ENDBRANCH   7   9
BRANCH   8  11
ATOM     11  C   UNL A   1      33.248  26.612  24.736  1.00  0.00     0.129 A 
ATOM     12  C   UNL A   1      33.786  27.236  23.613  1.00  0.00     0.051 A 
ATOM     13  O   UNL A   1      31.915  26.989  24.811  1.00  0.00    -0.457 OA
ATOM     14  C   UNL A   1      32.785  28.038  23.029  1.00  0.00     0.051 A 
ATOM     15  C   UNL A   1      31.646  27.836  23.770  1.00  0.00     0.136 A 
BRANCH  15  16
ATOM     16  C   UNL A   1      30.277  28.326  23.624  1.00  0.00     0.036 A 
ATOM     17  C   UNL A   1      30.034  29.707  23.510  1.00  0.00     0.026 A 
ATOM     18  C   UNL A   1      29.187  27.445  23.497  1.00  0.00     0.052 A 
ATOM     19  C   UNL A   1      28.740  30.206  23.250  1.00  0.00     0.056 A 
ATOM     20  C   UNL A   1      27.897  27.932  23.253  1.00  0.00     0.022 A 
ATOM     21  Cl  UNL A   1      29.353  25.726  23.633  1.00  0.00    -0.084 Cl
ATOM     22  C   UNL A   1      27.676  29.302  23.126  1.00  0.00     0.014 A 
BRANCH  19  23
ATOM     23  C   UNL A   1      28.507  31.690  23.089  1.00  0.00     0.416 C 
ATOM     24  F   UNL A   1      28.726  32.120  21.816  1.00  0.00    -0.166 F 
ATOM     25  F   UNL A   1      27.231  32.054  23.395  1.00  0.00    -0.166 F 
ATOM     26  F   UNL A   1      29.308  32.456  23.883  1.00  0.00    -0.166 F 
ENDBRANCH  19  23
ENDBRANCH  15  16
ENDBRANCH   8  11
ENDBRANCH   4   7
ENDBRANCH   2   3
ENDBRANCH   1   2
BRANCH   1  27
ATOM     27  C   UNL A   1      38.753  24.068  26.565  1.00  0.00     0.118 C 
BRANCH  27  28
ATOM     28  N   UNL A   1      40.119  24.099  26.060  1.00  0.00    -0.352 N 
ATOM     29  C   UNL A   1      41.152  24.961  26.332  1.00  0.00     0.251 C 
ATOM     30  H   UNL A   1      40.337  23.385  25.420  1.00  0.00     0.163 HD
ATOM     31  O   UNL A   1      42.137  24.954  25.598  1.00  0.00    -0.269 OA
BRANCH  29  32
ATOM     32  C   UNL A   1      41.093  25.887  27.482  1.00  0.00     0.039 A 
ATOM     33  C   UNL A   1      42.070  26.882  27.595  1.00  0.00     0.014 A 
ATOM     34  C   UNL A   1      40.124  25.746  28.481  1.00  0.00     0.014 A 
ATOM     35  C   UNL A   1      42.038  27.772  28.672  1.00  0.00     0.010 A 
ATOM     36  C   UNL A   1      40.059  26.669  29.524  1.00  0.00     0.010 A 
ATOM     37  C   UNL A   1      41.011  27.695  29.626  1.00  0.00    -0.014 A 
BRANCH  37  38
ATOM     38  C   UNL A   1      40.893  28.704  30.710  1.00  0.00     0.031 A 
ATOM     39  C   UNL A   1      41.731  28.594  31.954  1.00  0.00     0.074 A 
ATOM     40  C   UNL A   1      39.966  29.677  30.598  1.00  0.00     0.049 A 
ATOM     41  N   UNL A   1      41.698  29.329  33.035  1.00  0.00    -0.248 NA
ATOM     42  C   UNL A   1      42.719  27.503  32.000  1.00  0.00     0.031 C 
ATOM     43  C   UNL A   1      39.057  29.852  29.461  1.00  0.00     0.029 A 
ATOM     44  N   UNL A   1      39.617  30.690  31.456  1.00  0.00    -0.354 N 
ATOM     45  C   UNL A   1      42.643  28.783  33.896  1.00  0.00     0.074 A 
ATOM     46  C   UNL A   1      43.210  27.633  33.226  1.00  0.00     0.031 C 
ATOM     47  C   UNL A   1      38.263  30.910  29.689  1.00  0.00     0.029 A 
ATOM     48  C   UNL A   1      38.576  31.466  31.001  1.00  0.00     0.049 A 
ATOM     49  H   UNL A   1      40.071  30.847  32.316  1.00  0.00     0.167 HD
ATOM     50  C   UNL A   1      43.013  29.214  35.126  1.00  0.00     0.037 A 
ATOM     51  C   UNL A   1      37.933  32.496  31.583  1.00  0.00     0.037 A 
ATOM     52  C   UNL A   1      42.468  30.381  35.772  1.00  0.00     0.049 A 
ATOM     53  C   UNL A   1      38.372  32.957  32.945  1.00  0.00     0.074 A 
ATOM     54  C   UNL A   1      42.838  30.947  36.980  1.00  0.00     0.029 A 
ATOM     55  N   UNL A   1      41.436  31.158  35.268  1.00  0.00    -0.354 N 
ATOM     56  N   UNL A   1      39.324  32.477  33.709  1.00  0.00    -0.248 NA
ATOM     57  C   UNL A   1      37.655  34.101  33.524  1.00  0.00     0.031 C 
ATOM     58  C   UNL A   1      42.001  32.039  37.227  1.00  0.00     0.029 A 
ATOM     59  C   UNL A   1      41.139  32.182  36.153  1.00  0.00     0.049 A 
ATOM     60  H   UNL A   1      40.983  31.005  34.407  1.00  0.00     0.167 HD
ATOM     61  C   UNL A   1      39.331  33.270  34.851  1.00  0.00     0.074 A 
ATOM     62  C   UNL A   1      38.304  34.274  34.668  1.00  0.00     0.031 C 
ATOM     63  C   UNL A   1      40.114  33.174  35.953  1.00  0.00     0.037 A 
BRANCH  50  64
ATOM     64  C   UNL A   1      44.067  28.434  35.864  1.00  0.00     0.058 A 
ATOM     65  C   UNL A   1      45.430  28.736  35.734  1.00  0.00     0.135 A 
ATOM     66  C   UNL A   1      43.702  27.432  36.778  1.00  0.00     0.135 A 
ATOM     67  F   UNL A   1      45.836  29.675  34.864  1.00  0.00    -0.206 F 
ATOM     68  C   UNL A   1      46.398  28.066  36.478  1.00  0.00     0.059 A 
ATOM     69  C   UNL A   1      44.650  26.764  37.549  1.00  0.00     0.059 A 
ATOM     70  F   UNL A   1      42.411  27.101  36.939  1.00  0.00    -0.206 F 
ATOM     71  C   UNL A   1      45.998  27.086  37.387  1.00  0.00     0.060 A 
BRANCH  71  72
ATOM     72  S   UNL A   1      47.262  26.258  38.375  1.00  0.00     0.124 S 
ATOM     73  O   UNL A   1      48.461  26.508  37.581  1.00  0.00    -0.237 OA
ATOM     74  O   UNL A   1      47.183  26.973  39.645  1.00  0.00    -0.237 OA
ATOM     75  O   UNL A   1      46.813  24.871  38.411  1.00  0.00    -0.744 OA
ENDBRANCH  71  72
ENDBRANCH  50  64
BRANCH  51  76
ATOM     76  C   UNL A   1      36.801  33.160  30.885  1.00  0.00     0.058 A 
ATOM     77  C   UNL A   1      37.028  34.094  29.863  1.00  0.00     0.135 A 
ATOM     78  C   UNL A   1      35.469  32.884  31.233  1.00  0.00     0.135 A 
ATOM     79  F   UNL A   1      38.283  34.395  29.497  1.00  0.00    -0.206 F 
ATOM     80  C   UNL A   1      35.979  34.753  29.230  1.00  0.00     0.059 A 
ATOM     81  C   UNL A   1      34.402  33.509  30.596  1.00  0.00     0.059 A 
ATOM     82  F   UNL A   1      35.196  31.982  32.189  1.00  0.00    -0.206 F 
ATOM     83  C   UNL A   1      34.668  34.455  29.607  1.00  0.00     0.060 A 
BRANCH  83  84
ATOM     84  S   UNL A   1      33.310  35.297  28.766  1.00  0.00     0.124 S 
ATOM     85  O   UNL A   1      32.711  34.204  28.010  1.00  0.00    -0.237 OA
ATOM     86  O   UNL A   1      32.523  35.806  29.886  1.00  0.00    -0.237 OA
ATOM     87  O   UNL A   1      33.989  36.317  27.974  1.00  0.00    -0.744 OA
ENDBRANCH  83  84
ENDBRANCH  51  76
BRANCH  63  88
ATOM     88  C   UNL A   1      39.902  34.191  37.039  1.00  0.00     0.058 A 
ATOM     89  C   UNL A   1      40.482  35.467  36.972  1.00  0.00     0.135 A 
ATOM     90  C   UNL A   1      39.073  33.901  38.136  1.00  0.00     0.135 A 
ATOM     91  F   UNL A   1      41.288  35.790  35.949  1.00  0.00    -0.206 F 
ATOM     92  C   UNL A   1      40.266  36.415  37.967  1.00  0.00     0.059 A 
ATOM     93  C   UNL A   1      38.823  34.843  39.128  1.00  0.00     0.059 A 
ATOM     94  F   UNL A   1      38.487  32.699  38.242  1.00  0.00    -0.206 F 
ATOM     95  C   UNL A   1      39.433  36.094  39.041  1.00  0.00     0.060 A 
BRANCH  95  96
ATOM     96  S   UNL A   1      39.136  37.344  40.309  1.00  0.00     0.124 S 
ATOM     97  O   UNL A   1      40.488  37.831  40.563  1.00  0.00    -0.237 OA
ATOM     98  O   UNL A   1      38.243  38.276  39.627  1.00  0.00    -0.237 OA
ATOM     99  O   UNL A   1      38.527  36.584  41.397  1.00  0.00    -0.744 OA
ENDBRANCH  95  96
ENDBRANCH  63  88
ENDBRANCH  37  38
ENDBRANCH  29  32
ENDBRANCH  27  28
ENDBRANCH   1  27
TORSDOF 17
ENDMDL
MODEL 2
REMARK VINA RESULT:     -12.4      2.218      8.537
REMARK SMILES N#C/C(=C\c1ccc(-c2cc(C(F)(F)F)ccc2Cl)o1)C(=O)NCCCNC(=O)c1ccc(-c2c3nc(c(-c4c(F)cc(S(=O)(=O)[O-])cc4F)c4ccc([nH]4)c(-c4c(F)cc(S(=O)(=O)[O-])cc4F)c4nc(c(-c5c(F)cc(S(=O)(=O)[O-])cc5F)c5ccc2[nH]5)C=C4)C=C3)cc1
REMARK SMILES IDX 25 1 24 2 23 3 21 4 22 5 3 7 4 8 2 9 1 10 5 11 6 12 20 13
REMARK SMILES IDX 7 14 8 15 9 16 10 17 18 18 11 19 17 20 19 21 16 22 12 23
REMARK SMILES IDX 13 24 14 25 15 26 26 27 27 28 28 29 29 31 30 32 31 33 95 34
REMARK SMILES IDX 32 35 94 36 33 37 34 38 35 39 88 40 36 41 93 42 87 43 89 44
REMARK SMILES IDX 37 45 92 46 86 47 85 48 38 50 72 51 51 52 71 53 52 54 55 55
REMARK SMILES IDX 70 56 90 57 53 58 54 59 69 61 91 62 56 63 39 64 40 65 49 66
REMARK SMILES IDX 41 67 42 68 48 69 50 70 43 71 44 72 45 73 46 74 47 75 73 76
REMARK SMILES IDX 74 77 83 78 75 79 76 80 82 81 84 82 77 83 78 84 79 85 80 86
REMARK SMILES IDX 81 87 57 88 58 89 67 90 59 91 60 92 66 93 68 94 61 95 62 96
REMARK SMILES IDX 63 97 64 98 65 99
REMARK H PARENT 23 6 27 30 89 49 55 60
REMARK Flexibility Score: inf
ROOT
ATOM      1  C   UNL A   1      40.351  21.836  26.864  1.00  0.00     0.042 C 
ENDROOT
BRANCH   1   2
ATOM      2  C   UNL A   1      39.059  22.181  26.119  1.00  0.00     0.118 C 
BRANCH   2   3
ATOM      3  N   UNL A   1      38.388  20.996  25.610  1.00  0.00    -0.351 N 
ATOM      4  C   UNL A   1      37.165  20.775  25.056  1.00  0.00     0.262 C 
ATOM      5  O   UNL A   1      36.939  19.634  24.650  1.00  0.00    -0.268 OA
ATOM      6  H   UNL A   1      38.936  20.180  25.681  1.00  0.00     0.163 HD
BRANCH   4   7
ATOM      7  C   UNL A   1      36.120  21.821  24.908  1.00  0.00     0.120 C 
ATOM      8  C   UNL A   1      36.232  23.026  24.295  1.00  0.00     0.072 C 
BRANCH   7   9
ATOM      9  C   UNL A   1      34.788  21.585  25.601  1.00  0.00     0.105 C 
ATOM     10  N   UNL A   1      33.684  21.388  26.177  1.00  0.00    -0.192 NA
ENDBRANCH   7   9
BRANCH   8  11
ATOM     11  C   UNL A   1      35.167  23.992  24.243  1.00  0.00     0.129 A 
ATOM     12  C   UNL A   1      34.210  24.204  23.253  1.00  0.00     0.051 A 
ATOM     13  O   UNL A   1      34.907  24.899  25.259  1.00  0.00    -0.457 OA
ATOM     14  C   UNL A   1      33.393  25.282  23.650  1.00  0.00     0.051 A 
ATOM     15  C   UNL A   1      33.828  25.659  24.897  1.00  0.00     0.136 A 
BRANCH  15  16
ATOM     16  C   UNL A   1      33.345  26.658  25.847  1.00  0.00     0.036 A 
ATOM     17  C   UNL A   1      34.227  27.628  26.356  1.00  0.00     0.026 A 
ATOM     18  C   UNL A   1      31.985  26.741  26.204  1.00  0.00     0.052 A 
ATOM     19  C   UNL A   1      33.769  28.677  27.182  1.00  0.00     0.056 A 
ATOM     20  C   UNL A   1      31.525  27.769  27.035  1.00  0.00     0.022 A 
ATOM     21  Cl  UNL A   1      30.804  25.598  25.657  1.00  0.00    -0.084 Cl
ATOM     22  C   UNL A   1      32.409  28.733  27.516  1.00  0.00     0.014 A 
BRANCH  19  23
ATOM     23  C   UNL A   1      34.724  29.734  27.683  1.00  0.00     0.416 C 
ATOM     24  F   UNL A   1      35.322  29.389  28.856  1.00  0.00    -0.166 F 
ATOM     25  F   UNL A   1      35.734  29.983  26.805  1.00  0.00    -0.166 F 
ATOM     26  F   UNL A   1      34.131  30.941  27.910  1.00  0.00    -0.166 F 
ENDBRANCH  19  23
ENDBRANCH  15  16
ENDBRANCH   8  11
ENDBRANCH   4   7
ENDBRANCH   2   3
ENDBRANCH   1   2
BRANCH   1  27
ATOM     27  C   UNL A   1      41.102  23.064  27.384  1.00  0.00     0.118 C 
BRANCH  27  28
ATOM     28  N   UNL A   1      41.624  23.878  26.295  1.00  0.00    -0.352 N 
ATOM     29  C   UNL A   1      41.645  25.240  26.128  1.00  0.00     0.251 C 
ATOM     30  H   UNL A   1      42.029  23.367  25.557  1.00  0.00     0.163 HD
ATOM     31  O   UNL A   1      41.901  25.697  25.017  1.00  0.00    -0.269 OA
BRANCH  29  32
ATOM     32  C   UNL A   1      41.364  26.153  27.256  1.00  0.00     0.039 A 
ATOM     33  C   UNL A   1      40.253  25.899  28.067  1.00  0.00     0.014 A 
ATOM     34  C   UNL A   1      42.147  27.289  27.484  1.00  0.00     0.014 A 
ATOM     35  C   UNL A   1      39.964  26.745  29.140  1.00  0.00     0.010 A 
ATOM     36  C   UNL A   1      41.893  28.100  28.590  1.00  0.00     0.010 A 
ATOM     37  C   UNL A   1      40.804  27.832  29.432  1.00  0.00    -0.014 A 
BRANCH  37  38
ATOM     38  C   UNL A   1      40.581  28.672  30.638  1.00  0.00     0.031 A 
ATOM     39  C   UNL A   1      39.525  29.743  30.641  1.00  0.00     0.074 A 
ATOM     40  C   UNL A   1      41.393  28.513  31.702  1.00  0.00     0.049 A 
ATOM     41  N   UNL A   1      39.252  30.625  31.567  1.00  0.00    -0.248 NA
ATOM     42  C   UNL A   1      38.681  29.853  29.440  1.00  0.00     0.031 C 
ATOM     43  C   UNL A   1      42.489  27.543  31.794  1.00  0.00     0.029 A 
ATOM     44  N   UNL A   1      41.440  29.176  32.904  1.00  0.00    -0.354 N 
ATOM     45  C   UNL A   1      38.220  31.405  31.059  1.00  0.00     0.074 A 
ATOM     46  C   UNL A   1      37.938  30.915  29.727  1.00  0.00     0.031 C 
ATOM     47  C   UNL A   1      43.092  27.669  32.985  1.00  0.00     0.029 A 
ATOM     48  C   UNL A   1      42.456  28.752  33.729  1.00  0.00     0.049 A 
ATOM     49  H   UNL A   1      40.806  29.887  33.151  1.00  0.00     0.167 HD
ATOM     50  C   UNL A   1      37.560  32.426  31.655  1.00  0.00     0.037 A 
ATOM     51  C   UNL A   1      42.843  29.197  34.939  1.00  0.00     0.037 A 
ATOM     52  C   UNL A   1      37.824  32.885  32.996  1.00  0.00     0.049 A 
ATOM     53  C   UNL A   1      42.086  30.326  35.581  1.00  0.00     0.074 A 
ATOM     54  C   UNL A   1      37.152  33.855  33.720  1.00  0.00     0.029 A 
ATOM     55  N   UNL A   1      38.841  32.412  33.812  1.00  0.00    -0.354 N 
ATOM     56  N   UNL A   1      41.060  30.997  35.116  1.00  0.00    -0.248 NA
ATOM     57  C   UNL A   1      42.534  30.756  36.912  1.00  0.00     0.031 C 
ATOM     58  C   UNL A   1      37.790  34.000  34.955  1.00  0.00     0.029 A 
ATOM     59  C   UNL A   1      38.831  33.089  35.020  1.00  0.00     0.049 A 
ATOM     60  H   UNL A   1      39.474  31.699  33.567  1.00  0.00     0.167 HD
ATOM     61  C   UNL A   1      40.729  31.918  36.104  1.00  0.00     0.074 A 
ATOM     62  C   UNL A   1      41.649  31.702  37.200  1.00  0.00     0.031 C 
ATOM     63  C   UNL A   1      39.754  32.859  36.102  1.00  0.00     0.037 A 
BRANCH  50  64
ATOM     64  C   UNL A   1      36.475  33.121  30.880  1.00  0.00     0.058 A 
ATOM     65  C   UNL A   1      35.117  32.894  31.150  1.00  0.00     0.135 A 
ATOM     66  C   UNL A   1      36.798  34.089  29.914  1.00  0.00     0.135 A 
ATOM     67  F   UNL A   1      34.752  31.969  32.053  1.00  0.00    -0.206 F 
ATOM     68  C   UNL A   1      34.116  33.596  30.485  1.00  0.00     0.059 A 
ATOM     69  C   UNL A   1      35.813  34.820  29.253  1.00  0.00     0.059 A 
ATOM     70  F   UNL A   1      38.081  34.344  29.615  1.00  0.00    -0.206 F 
ATOM     71  C   UNL A   1      34.474  34.561  29.543  1.00  0.00     0.060 A 
BRANCH  71  72
ATOM     72  S   UNL A   1      33.163  35.493  28.722  1.00  0.00     0.124 S 
ATOM     73  O   UNL A   1      32.506  34.446  27.944  1.00  0.00    -0.237 OA
ATOM     74  O   UNL A   1      32.399  36.016  29.851  1.00  0.00    -0.237 OA
ATOM     75  O   UNL A   1      33.889  36.490  27.944  1.00  0.00    -0.744 OA
ENDBRANCH  71  72
ENDBRANCH  50  64
BRANCH  51  76
ATOM     76  C   UNL A   1      44.010  28.579  35.624  1.00  0.00     0.058 A 
ATOM     77  C   UNL A   1      45.318  29.012  35.356  1.00  0.00     0.135 A 
ATOM     78  C   UNL A   1      43.843  27.537  36.549  1.00  0.00     0.135 A 
ATOM     79  F   UNL A   1      45.529  30.002  34.477  1.00  0.00    -0.206 F 
ATOM     80  C   UNL A   1      46.421  28.415  35.959  1.00  0.00     0.059 A 
ATOM     81  C   UNL A   1      44.928  26.943  37.185  1.00  0.00     0.059 A 
ATOM     82  F   UNL A   1      42.612  27.100  36.856  1.00  0.00    -0.206 F 
ATOM     83  C   UNL A   1      46.215  27.378  36.870  1.00  0.00     0.060 A 
BRANCH  83  84
ATOM     84  S   UNL A   1      47.650  26.623  37.665  1.00  0.00     0.124 S 
ATOM     85  O   UNL A   1      48.746  27.366  37.057  1.00  0.00    -0.237 OA
ATOM     86  O   UNL A   1      47.398  26.895  39.078  1.00  0.00    -0.237 OA
ATOM     87  O   UNL A   1      47.545  25.219  37.278  1.00  0.00    -0.744 OA
ENDBRANCH  83  84
ENDBRANCH  51  76
BRANCH  63  88
ATOM     88  C   UNL A   1      39.622  33.715  37.330  1.00  0.00     0.058 A 
ATOM     89  C   UNL A   1      40.299  34.938  37.449  1.00  0.00     0.135 A 
ATOM     90  C   UNL A   1      38.773  33.328  38.381  1.00  0.00     0.135 A 
ATOM     91  F   UNL A   1      41.128  35.349  36.477  1.00  0.00    -0.206 F 
ATOM     92  C   UNL A   1      40.157  35.739  38.577  1.00  0.00     0.059 A 
ATOM     93  C   UNL A   1      38.596  34.126  39.506  1.00  0.00     0.059 A 
ATOM     94  F   UNL A   1      38.096  32.171  38.313  1.00  0.00    -0.206 F 
ATOM     95  C   UNL A   1      39.302  35.325  39.600  1.00  0.00     0.060 A 
BRANCH  95  96
ATOM     96  S   UNL A   1      39.103  36.389  41.044  1.00  0.00     0.124 S 
ATOM     97  O   UNL A   1      38.011  35.726  41.750  1.00  0.00    -0.237 OA
ATOM     98  O   UNL A   1      40.414  36.303  41.681  1.00  0.00    -0.237 OA
ATOM     99  O   UNL A   1      38.778  37.690  40.465  1.00  0.00    -0.744 OA
ENDBRANCH  95  96
ENDBRANCH  63  88
ENDBRANCH  37  38
ENDBRANCH  29  32
ENDBRANCH  27  28
ENDBRANCH   1  27
TORSDOF 17
ENDMDL
MODEL 3
REMARK VINA RESULT:     -12.3      7.130     12.280
REMARK SMILES N#C/C(=C\c1ccc(-c2cc(C(F)(F)F)ccc2Cl)o1)C(=O)NCCCNC(=O)c1ccc(-c2c3nc(c(-c4c(F)cc(S(=O)(=O)[O-])cc4F)c4ccc([nH]4)c(-c4c(F)cc(S(=O)(=O)[O-])cc4F)c4nc(c(-c5c(F)cc(S(=O)(=O)[O-])cc5F)c5ccc2[nH]5)C=C4)C=C3)cc1
REMARK SMILES IDX 25 1 24 2 23 3 21 4 22 5 3 7 4 8 2 9 1 10 5 11 6 12 20 13
REMARK SMILES IDX 7 14 8 15 9 16 10 17 18 18 11 19 17 20 19 21 16 22 12 23
REMARK SMILES IDX 13 24 14 25 15 26 26 27 27 28 28 29 29 31 30 32 31 33 95 34
REMARK SMILES IDX 32 35 94 36 33 37 34 38 35 39 88 40 36 41 93 42 87 43 89 44
REMARK SMILES IDX 37 45 92 46 86 47 85 48 38 50 72 51 51 52 71 53 52 54 55 55
REMARK SMILES IDX 70 56 90 57 53 58 54 59 69 61 91 62 56 63 39 64 40 65 49 66
REMARK SMILES IDX 41 67 42 68 48 69 50 70 43 71 44 72 45 73 46 74 47 75 73 76
REMARK SMILES IDX 74 77 83 78 75 79 76 80 82 81 84 82 77 83 78 84 79 85 80 86
REMARK SMILES IDX 81 87 57 88 58 89 67 90 59 91 60 92 66 93 68 94 61 95 62 96
REMARK SMILES IDX 63 97 64 98 65 99
REMARK H PARENT 23 6 27 30 89 49 55 60
REMARK Flexibility Score: inf
ROOT
ATOM      1  C   UNL A   1      35.273  29.584  27.983  1.00  0.00     0.042 C 
ENDROOT
BRANCH   1   2
ATOM      2  C   UNL A   1      34.161  29.629  26.932  1.00  0.00     0.118 C 
BRANCH   2   3
ATOM      3  N   UNL A   1      32.872  29.246  27.483  1.00  0.00    -0.351 N 
ATOM      4  C   UNL A   1      32.095  28.134  27.368  1.00  0.00     0.262 C 
ATOM      5  O   UNL A   1      31.069  28.102  28.051  1.00  0.00    -0.268 OA
ATOM      6  H   UNL A   1      32.477  29.937  28.064  1.00  0.00     0.163 HD
BRANCH   4   7
ATOM      7  C   UNL A   1      32.423  26.980  26.492  1.00  0.00     0.120 C 
ATOM      8  C   UNL A   1      33.613  26.690  25.910  1.00  0.00     0.072 C 
BRANCH   7   9
ATOM      9  C   UNL A   1      31.285  26.050  26.103  1.00  0.00     0.105 C 
ATOM     10  N   UNL A   1      30.341  25.279  25.780  1.00  0.00    -0.192 NA
ENDBRANCH   7   9
BRANCH   8  11
ATOM     11  C   UNL A   1      33.818  25.564  25.038  1.00  0.00     0.129 A 
ATOM     12  C   UNL A   1      33.703  25.483  23.652  1.00  0.00     0.051 A 
ATOM     13  O   UNL A   1      34.215  24.312  25.486  1.00  0.00    -0.457 OA
ATOM     14  C   UNL A   1      33.984  24.159  23.260  1.00  0.00     0.051 A 
ATOM     15  C   UNL A   1      34.326  23.481  24.405  1.00  0.00     0.136 A 
BRANCH  15  16
ATOM     16  C   UNL A   1      34.781  22.112  24.638  1.00  0.00     0.036 A 
ATOM     17  C   UNL A   1      33.866  21.046  24.562  1.00  0.00     0.026 A 
ATOM     18  C   UNL A   1      36.140  21.811  24.848  1.00  0.00     0.052 A 
ATOM     19  C   UNL A   1      34.293  19.704  24.666  1.00  0.00     0.056 A 
ATOM     20  C   UNL A   1      36.569  20.484  24.966  1.00  0.00     0.022 A 
ATOM     21  Cl  UNL A   1      37.359  23.035  24.976  1.00  0.00    -0.084 Cl
ATOM     22  C   UNL A   1      35.653  19.438  24.871  1.00  0.00     0.014 A 
BRANCH  19  23
ATOM     23  C   UNL A   1      33.302  18.571  24.538  1.00  0.00     0.416 C 
ATOM     24  F   UNL A   1      33.663  17.662  23.592  1.00  0.00    -0.166 F 
ATOM     25  F   UNL A   1      33.157  17.871  25.697  1.00  0.00    -0.166 F 
ATOM     26  F   UNL A   1      32.046  18.982  24.198  1.00  0.00    -0.166 F 
ENDBRANCH  19  23
ENDBRANCH  15  16
ENDBRANCH   8  11
ENDBRANCH   4   7
ENDBRANCH   2   3
ENDBRANCH   1   2
BRANCH   1  27
ATOM     27  C   UNL A   1      35.603  30.953  28.581  1.00  0.00     0.118 C 
BRANCH  27  28
ATOM     28  N   UNL A   1      35.604  30.920  30.038  1.00  0.00    -0.352 N 
ATOM     29  C   UNL A   1      36.551  30.464  30.920  1.00  0.00     0.251 C 
ATOM     30  H   UNL A   1      34.792  31.285  30.459  1.00  0.00     0.163 HD
ATOM     31  O   UNL A   1      36.234  30.296  32.095  1.00  0.00    -0.269 OA
BRANCH  29  32
ATOM     32  C   UNL A   1      37.932  30.175  30.478  1.00  0.00     0.039 A 
ATOM     33  C   UNL A   1      38.803  29.537  31.367  1.00  0.00     0.014 A 
ATOM     34  C   UNL A   1      38.393  30.582  29.223  1.00  0.00     0.014 A 
ATOM     35  C   UNL A   1      40.113  29.251  30.976  1.00  0.00     0.010 A 
ATOM     36  C   UNL A   1      39.683  30.245  28.811  1.00  0.00     0.010 A 
ATOM     37  C   UNL A   1      40.552  29.571  29.681  1.00  0.00    -0.014 A 
BRANCH  37  38
ATOM     38  C   UNL A   1      41.902  29.168  29.208  1.00  0.00     0.031 A 
ATOM     39  C   UNL A   1      43.003  30.185  29.077  1.00  0.00     0.074 A 
ATOM     40  C   UNL A   1      42.104  27.893  28.820  1.00  0.00     0.049 A 
ATOM     41  N   UNL A   1      44.210  30.032  28.599  1.00  0.00    -0.248 NA
ATOM     42  C   UNL A   1      42.702  31.557  29.519  1.00  0.00     0.031 C 
ATOM     43  C   UNL A   1      41.096  26.829  28.850  1.00  0.00     0.029 A 
ATOM     44  N   UNL A   1      43.217  27.275  28.307  1.00  0.00    -0.354 N 
ATOM     45  C   UNL A   1      44.808  31.285  28.664  1.00  0.00     0.074 A 
ATOM     46  C   UNL A   1      43.819  32.197  29.197  1.00  0.00     0.031 C 
ATOM     47  C   UNL A   1      41.637  25.694  28.384  1.00  0.00     0.029 A 
ATOM     48  C   UNL A   1      43.016  25.952  27.986  1.00  0.00     0.049 A 
ATOM     49  H   UNL A   1      44.079  27.735  28.180  1.00  0.00     0.167 HD
ATOM     50  C   UNL A   1      46.072  31.637  28.325  1.00  0.00     0.037 A 
ATOM     51  C   UNL A   1      43.843  25.054  27.417  1.00  0.00     0.037 A 
ATOM     52  C   UNL A   1      47.062  30.716  27.829  1.00  0.00     0.049 A 
ATOM     53  C   UNL A   1      45.243  25.472  27.059  1.00  0.00     0.074 A 
ATOM     54  C   UNL A   1      48.393  30.959  27.538  1.00  0.00     0.029 A 
ATOM     55  N   UNL A   1      46.830  29.378  27.544  1.00  0.00    -0.354 N 
ATOM     56  N   UNL A   1      45.814  26.643  27.205  1.00  0.00    -0.248 NA
ATOM     57  C   UNL A   1      46.112  24.447  26.465  1.00  0.00     0.031 C 
ATOM     58  C   UNL A   1      48.954  29.781  27.036  1.00  0.00     0.029 A 
ATOM     59  C   UNL A   1      47.986  28.791  27.056  1.00  0.00     0.049 A 
ATOM     60  H   UNL A   1      45.970  28.915  27.672  1.00  0.00     0.167 HD
ATOM     61  C   UNL A   1      47.114  26.492  26.736  1.00  0.00     0.074 A 
ATOM     62  C   UNL A   1      47.251  25.111  26.323  1.00  0.00     0.031 C 
ATOM     63  C   UNL A   1      48.104  27.414  26.652  1.00  0.00     0.037 A 
BRANCH  50  64
ATOM     64  C   UNL A   1      46.476  33.077  28.486  1.00  0.00     0.058 A 
ATOM     65  C   UNL A   1      47.040  33.553  29.679  1.00  0.00     0.135 A 
ATOM     66  C   UNL A   1      46.375  33.970  27.407  1.00  0.00     0.135 A 
ATOM     67  F   UNL A   1      47.146  32.747  30.748  1.00  0.00    -0.206 F 
ATOM     68  C   UNL A   1      47.486  34.866  29.800  1.00  0.00     0.059 A 
ATOM     69  C   UNL A   1      46.835  35.282  27.497  1.00  0.00     0.059 A 
ATOM     70  F   UNL A   1      45.840  33.567  26.244  1.00  0.00    -0.206 F 
ATOM     71  C   UNL A   1      47.385  35.722  28.701  1.00  0.00     0.060 A 
BRANCH  71  72
ATOM     72  S   UNL A   1      48.008  37.409  28.861  1.00  0.00     0.124 S 
ATOM     73  O   UNL A   1      46.802  38.126  29.268  1.00  0.00    -0.237 OA
ATOM     74  O   UNL A   1      49.035  37.265  29.888  1.00  0.00    -0.237 OA
ATOM     75  O   UNL A   1      48.500  37.719  27.524  1.00  0.00    -0.744 OA
ENDBRANCH  71  72
ENDBRANCH  50  64
BRANCH  51  76
ATOM     76  C   UNL A   1      43.369  23.672  27.142  1.00  0.00     0.058 A 
ATOM     77  C   UNL A   1      42.936  23.296  25.862  1.00  0.00     0.135 A 
ATOM     78  C   UNL A   1      43.328  22.702  28.156  1.00  0.00     0.135 A 
ATOM     79  F   UNL A   1      42.952  24.189  24.860  1.00  0.00    -0.206 F 
ATOM     80  C   UNL A   1      42.452  22.018  25.601  1.00  0.00     0.059 A 
ATOM     81  C   UNL A   1      42.874  21.410  27.914  1.00  0.00     0.059 A 
ATOM     82  F   UNL A   1      43.752  23.003  29.394  1.00  0.00    -0.206 F 
ATOM     83  C   UNL A   1      42.422  21.082  26.636  1.00  0.00     0.060 A 
BRANCH  83  84
ATOM     84  S   UNL A   1      41.813  19.419  26.287  1.00  0.00     0.124 S 
ATOM     85  O   UNL A   1      40.389  19.663  26.095  1.00  0.00    -0.237 OA
ATOM     86  O   UNL A   1      42.567  19.060  25.088  1.00  0.00    -0.237 OA
ATOM     87  O   UNL A   1      42.172  18.673  27.488  1.00  0.00    -0.744 OA
ENDBRANCH  83  84
ENDBRANCH  51  76
BRANCH  63  88
ATOM     88  C   UNL A   1      49.428  26.954  26.107  1.00  0.00     0.058 A 
ATOM     89  C   UNL A   1      49.783  27.166  24.767  1.00  0.00     0.135 A 
ATOM     90  C   UNL A   1      50.368  26.335  26.948  1.00  0.00     0.135 A 
ATOM     91  F   UNL A   1      48.917  27.746  23.921  1.00  0.00    -0.206 F 
ATOM     92  C   UNL A   1      51.017  26.760  24.271  1.00  0.00     0.059 A 
ATOM     93  C   UNL A   1      51.618  25.945  26.479  1.00  0.00     0.059 A 
ATOM     94  F   UNL A   1      50.080  26.117  28.241  1.00  0.00    -0.206 F 
ATOM     95  C   UNL A   1      51.930  26.151  25.136  1.00  0.00     0.060 A 
BRANCH  95  96
ATOM     96  S   UNL A   1      53.540  25.658  24.487  1.00  0.00     0.124 S 
ATOM     97  O   UNL A   1      53.671  24.307  25.022  1.00  0.00    -0.237 OA
ATOM     98  O   UNL A   1      53.339  25.751  23.044  1.00  0.00    -0.237 OA
ATOM     99  O   UNL A   1      54.451  26.649  25.052  1.00  0.00    -0.744 OA
ENDBRANCH  95  96
ENDBRANCH  63  88
ENDBRANCH  37  38
ENDBRANCH  29  32
ENDBRANCH  27  28
ENDBRANCH   1  27
TORSDOF 17
ENDMDL
