MODEL 1
REMARK VINA RESULT:     -11.3      0.000      0.000
REMARK SMILES CO[C@H](C)c1noc(C[C@](C)(C(=O)NCCCNC(=O)c2ccc(-c3c4nc(c(-c5c(F)cc(S(=O)(=O)[O-])cc5F)c5ccc([nH]5)c(-c5c(F)cc(S(=O)(=O)[O-])cc5F)c5nc(c(-c6c(F)cc(S(=O)(=O)[O-])cc6F)c6ccc3[nH]6)C=C5)C=C4)cc2)c2ccccc2)n1
REMARK SMILES IDX 15 1 14 2 12 3 13 4 10 6 11 7 9 8 8 9 5 10 6 11 93 12 7 13
REMARK SMILES IDX 3 14 4 15 2 16 1 17 87 18 88 19 92 20 89 21 91 22 90 23
REMARK SMILES IDX 16 24 17 25 18 26 19 27 20 29 21 30 22 31 86 32 23 33 85 34
REMARK SMILES IDX 24 35 25 36 26 37 79 38 27 39 84 40 78 41 80 42 28 43 83 44
REMARK SMILES IDX 77 45 76 46 29 48 63 49 42 50 62 51 43 52 46 53 61 54 81 55
REMARK SMILES IDX 44 56 45 57 60 59 82 60 47 61 30 62 31 63 40 64 32 65 33 66
REMARK SMILES IDX 39 67 41 68 34 69 35 70 36 71 37 72 38 73 64 74 65 75 74 76
REMARK SMILES IDX 66 77 67 78 73 79 75 80 68 81 69 82 70 83 71 84 72 85 48 86
REMARK SMILES IDX 49 87 58 88 50 89 51 90 57 91 59 92 52 93 53 94 54 95 55 96
REMARK SMILES IDX 56 97
REMARK H PARENT 14 5 18 28 80 47 46 58
REMARK Flexibility Score: inf
ROOT
ATOM      1  C   UNL A   1      31.559  27.000  26.535  1.00  0.00     0.117 C 
ENDROOT
BRANCH   1   2
ATOM      2  N   UNL A   1      32.663  26.633  25.660  1.00  0.00    -0.355 N 
ATOM      3  C   UNL A   1      32.753  26.161  24.384  1.00  0.00     0.230 C 
ATOM      4  O   UNL A   1      33.912  26.099  23.959  1.00  0.00    -0.274 OA
ATOM      5  H   UNL A   1      33.543  26.751  26.085  1.00  0.00     0.163 HD
BRANCH   3   6
ATOM      6  C   UNL A   1      31.510  25.778  23.520  1.00  0.00     0.080 C 
ATOM      7  C   UNL A   1      31.983  25.335  22.115  1.00  0.00     0.027 C 
BRANCH   6   8
ATOM      8  C   UNL A   1      30.795  24.606  24.255  1.00  0.00     0.122 C 
BRANCH   8   9
ATOM      9  C   UNL A   1      31.685  23.610  24.917  1.00  0.00     0.228 A 
ATOM     10  C   UNL A   1      32.950  22.022  25.427  1.00  0.00     0.200 A 
ATOM     11  N   UNL A   1      32.561  22.504  26.617  1.00  0.00    -0.060 NA
ATOM     12  N   UNL A   1      32.458  22.716  24.344  1.00  0.00    -0.193 NA
ATOM     13  O   UNL A   1      31.722  23.564  26.278  1.00  0.00    -0.339 OA
BRANCH  10  14
ATOM     14  C   UNL A   1      33.872  20.846  25.258  1.00  0.00     0.186 C 
ATOM     15  C   UNL A   1      33.240  19.703  24.459  1.00  0.00     0.047 C 
BRANCH  14  16
ATOM     16  O   UNL A   1      35.108  21.262  24.643  1.00  0.00    -0.374 OA
ATOM     17  C   UNL A   1      36.231  20.483  25.024  1.00  0.00     0.195 C 
ENDBRANCH  14  16
ENDBRANCH  10  14
ENDBRANCH   8   9
ENDBRANCH   6   8
BRANCH   6  18
ATOM     18  C   UNL A   1      30.543  26.972  23.228  1.00  0.00    -0.032 A 
ATOM     19  C   UNL A   1      30.987  28.150  22.600  1.00  0.00     0.005 A 
ATOM     20  C   UNL A   1      29.168  26.898  23.538  1.00  0.00     0.005 A 
ATOM     21  C   UNL A   1      30.129  29.236  22.399  1.00  0.00     0.000 A 
ATOM     22  C   UNL A   1      28.312  27.984  23.344  1.00  0.00     0.000 A 
ATOM     23  C   UNL A   1      28.797  29.161  22.789  1.00  0.00     0.000 A 
ENDBRANCH   6  18
ENDBRANCH   3   6
ENDBRANCH   1   2
BRANCH   1  24
ATOM     24  C   UNL A   1      31.954  28.044  27.570  1.00  0.00     0.042 C 
BRANCH  24  25
ATOM     25  C   UNL A   1      33.340  28.644  27.352  1.00  0.00     0.118 C 
BRANCH  25  26
ATOM     26  N   UNL A   1      33.405  30.060  27.698  1.00  0.00    -0.352 N 
ATOM     27  C   UNL A   1      34.420  30.789  28.269  1.00  0.00     0.251 C 
ATOM     28  H   UNL A   1      32.593  30.575  27.488  1.00  0.00     0.163 HD
ATOM     29  O   UNL A   1      34.204  31.935  28.655  1.00  0.00    -0.269 OA
BRANCH  27  30
ATOM     30  C   UNL A   1      35.759  30.188  28.447  1.00  0.00     0.039 A 
ATOM     31  C   UNL A   1      36.637  30.149  27.361  1.00  0.00     0.014 A 
ATOM     32  C   UNL A   1      36.152  29.676  29.685  1.00  0.00     0.014 A 
ATOM     33  C   UNL A   1      37.946  29.695  27.546  1.00  0.00     0.010 A 
ATOM     34  C   UNL A   1      37.476  29.298  29.886  1.00  0.00     0.010 A 
ATOM     35  C   UNL A   1      38.392  29.321  28.823  1.00  0.00    -0.014 A 
BRANCH  35  36
ATOM     36  C   UNL A   1      39.816  28.999  29.093  1.00  0.00     0.031 A 
ATOM     37  C   UNL A   1      40.751  30.064  29.592  1.00  0.00     0.074 A 
ATOM     38  C   UNL A   1      40.286  27.773  28.784  1.00  0.00     0.049 A 
ATOM     39  N   UNL A   1      42.050  30.016  29.745  1.00  0.00    -0.248 NA
ATOM     40  C   UNL A   1      40.152  31.363  29.939  1.00  0.00     0.031 C 
ATOM     41  C   UNL A   1      39.486  26.669  28.251  1.00  0.00     0.029 A 
ATOM     42  N   UNL A   1      41.558  27.257  28.848  1.00  0.00    -0.354 N 
ATOM     43  C   UNL A   1      42.426  31.279  30.186  1.00  0.00     0.074 A 
ATOM     44  C   UNL A   1      41.224  32.085  30.237  1.00  0.00     0.031 C 
ATOM     45  C   UNL A   1      40.280  25.606  28.047  1.00  0.00     0.029 A 
ATOM     46  C   UNL A   1      41.652  25.965  28.385  1.00  0.00     0.049 A 
ATOM     47  H   UNL A   1      42.327  27.764  29.191  1.00  0.00     0.167 HD
ATOM     48  C   UNL A   1      43.657  31.720  30.534  1.00  0.00     0.037 A 
ATOM     49  C   UNL A   1      42.726  25.167  28.228  1.00  0.00     0.037 A 
ATOM     50  C   UNL A   1      44.844  30.905  30.505  1.00  0.00     0.049 A 
ATOM     51  C   UNL A   1      44.088  25.687  28.596  1.00  0.00     0.074 A 
ATOM     52  C   UNL A   1      46.125  31.236  30.910  1.00  0.00     0.029 A 
ATOM     53  N   UNL A   1      44.897  29.599  30.038  1.00  0.00    -0.354 N 
ATOM     54  N   UNL A   1      44.415  26.863  29.075  1.00  0.00    -0.248 NA
ATOM     55  C   UNL A   1      45.226  24.780  28.394  1.00  0.00     0.031 C 
ATOM     56  C   UNL A   1      46.961  30.146  30.648  1.00  0.00     0.029 A 
ATOM     57  C   UNL A   1      46.195  29.121  30.117  1.00  0.00     0.049 A 
ATOM     58  H   UNL A   1      44.126  29.088  29.702  1.00  0.00     0.167 HD
ATOM     59  C   UNL A   1      45.794  26.833  29.244  1.00  0.00     0.074 A 
ATOM     60  C   UNL A   1      46.238  25.517  28.832  1.00  0.00     0.031 C 
ATOM     61  C   UNL A   1      46.620  27.809  29.698  1.00  0.00     0.037 A 
BRANCH  48  62
ATOM     62  C   UNL A   1      43.787  33.149  30.983  1.00  0.00     0.058 A 
ATOM     63  C   UNL A   1      43.604  33.518  32.325  1.00  0.00     0.135 A 
ATOM     64  C   UNL A   1      44.133  34.158  30.069  1.00  0.00     0.135 A 
ATOM     65  F   UNL A   1      43.258  32.596  33.238  1.00  0.00    -0.206 F 
ATOM     66  C   UNL A   1      43.733  34.839  32.741  1.00  0.00     0.059 A 
ATOM     67  C   UNL A   1      44.292  35.482  30.467  1.00  0.00     0.059 A 
ATOM     68  F   UNL A   1      44.318  33.859  28.773  1.00  0.00    -0.206 F 
ATOM     69  C   UNL A   1      44.075  35.814  31.803  1.00  0.00     0.060 A 
BRANCH  69  70
ATOM     70  S   UNL A   1      44.242  37.523  32.360  1.00  0.00     0.124 S 
ATOM     71  O   UNL A   1      43.289  37.561  33.466  1.00  0.00    -0.237 OA
ATOM     72  O   UNL A   1      45.650  37.594  32.737  1.00  0.00    -0.237 OA
ATOM     73  O   UNL A   1      43.869  38.303  31.184  1.00  0.00    -0.744 OA
ENDBRANCH  69  70
ENDBRANCH  48  62
BRANCH  49  74
ATOM     74  C   UNL A   1      42.555  23.790  27.692  1.00  0.00     0.058 A 
ATOM     75  C   UNL A   1      42.474  22.689  28.555  1.00  0.00     0.135 A 
ATOM     76  C   UNL A   1      42.444  23.552  26.313  1.00  0.00     0.135 A 
ATOM     77  F   UNL A   1      42.582  22.866  29.880  1.00  0.00    -0.206 F 
ATOM     78  C   UNL A   1      42.301  21.396  28.071  1.00  0.00     0.059 A 
ATOM     79  C   UNL A   1      42.248  22.271  25.806  1.00  0.00     0.059 A 
ATOM     80  F   UNL A   1      42.498  24.576  25.446  1.00  0.00    -0.206 F 
ATOM     81  C   UNL A   1      42.184  21.198  26.694  1.00  0.00     0.060 A 
BRANCH  81  82
ATOM     82  S   UNL A   1      41.899  19.523  26.080  1.00  0.00     0.124 S 
ATOM     83  O   UNL A   1      42.352  18.717  27.206  1.00  0.00    -0.237 OA
ATOM     84  O   UNL A   1      40.460  19.527  25.834  1.00  0.00    -0.237 OA
ATOM     85  O   UNL A   1      42.730  19.462  24.881  1.00  0.00    -0.744 OA
ENDBRANCH  81  82
ENDBRANCH  49  74
BRANCH  61  86
ATOM     86  C   UNL A   1      48.086  27.494  29.780  1.00  0.00     0.058 A 
ATOM     87  C   UNL A   1      48.973  27.885  28.766  1.00  0.00     0.135 A 
ATOM     88  C   UNL A   1      48.620  26.863  30.915  1.00  0.00     0.135 A 
ATOM     89  F   UNL A   1      48.511  28.481  27.655  1.00  0.00    -0.206 F 
ATOM     90  C   UNL A   1      50.341  27.658  28.873  1.00  0.00     0.059 A 
ATOM     91  C   UNL A   1      49.987  26.647  31.053  1.00  0.00     0.059 A 
ATOM     92  F   UNL A   1      47.812  26.475  31.914  1.00  0.00    -0.206 F 
ATOM     93  C   UNL A   1      50.839  27.044  30.024  1.00  0.00     0.060 A 
BRANCH  93  94
ATOM     94  S   UNL A   1      52.623  26.813  30.176  1.00  0.00     0.124 S 
ATOM     95  O   UNL A   1      52.705  25.871  31.288  1.00  0.00    -0.237 OA
ATOM     96  O   UNL A   1      52.982  26.280  28.866  1.00  0.00    -0.237 OA
ATOM     97  O   UNL A   1      53.117  28.158  30.455  1.00  0.00    -0.744 OA
ENDBRANCH  93  94
ENDBRANCH  61  86
ENDBRANCH  35  36
ENDBRANCH  27  30
ENDBRANCH  25  26
ENDBRANCH  24  25
ENDBRANCH   1  24
TORSDOF 18
ENDMDL
MODEL 2
REMARK VINA RESULT:     -11.2      3.482      7.772
REMARK SMILES CO[C@H](C)c1noc(C[C@](C)(C(=O)NCCCNC(=O)c2ccc(-c3c4nc(c(-c5c(F)cc(S(=O)(=O)[O-])cc5F)c5ccc([nH]5)c(-c5c(F)cc(S(=O)(=O)[O-])cc5F)c5nc(c(-c6c(F)cc(S(=O)(=O)[O-])cc6F)c6ccc3[nH]6)C=C5)C=C4)cc2)c2ccccc2)n1
REMARK SMILES IDX 15 1 14 2 12 3 13 4 10 6 11 7 9 8 8 9 5 10 6 11 93 12 7 13
REMARK SMILES IDX 3 14 4 15 2 16 1 17 87 18 88 19 92 20 89 21 91 22 90 23
REMARK SMILES IDX 16 24 17 25 18 26 19 27 20 29 21 30 22 31 86 32 23 33 85 34
REMARK SMILES IDX 24 35 25 36 26 37 79 38 27 39 84 40 78 41 80 42 28 43 83 44
REMARK SMILES IDX 77 45 76 46 29 48 63 49 42 50 62 51 43 52 46 53 61 54 81 55
REMARK SMILES IDX 44 56 45 57 60 59 82 60 47 61 30 62 31 63 40 64 32 65 33 66
REMARK SMILES IDX 39 67 41 68 34 69 35 70 36 71 37 72 38 73 64 74 65 75 74 76
REMARK SMILES IDX 66 77 67 78 73 79 75 80 68 81 69 82 70 83 71 84 72 85 48 86
REMARK SMILES IDX 49 87 58 88 50 89 51 90 57 91 59 92 52 93 53 94 54 95 55 96
REMARK SMILES IDX 56 97
REMARK H PARENT 14 5 18 28 80 47 46 58
REMARK Flexibility Score: inf
ROOT
ATOM      1  C   UNL A   1      36.825  22.107  25.285  1.00  0.00     0.117 C 
ENDROOT
BRANCH   1   2
ATOM      2  N   UNL A   1      35.922  21.818  26.388  1.00  0.00    -0.355 N 
ATOM      3  C   UNL A   1      34.571  21.890  26.560  1.00  0.00     0.230 C 
ATOM      4  O   UNL A   1      34.183  21.419  27.634  1.00  0.00    -0.274 OA
ATOM      5  H   UNL A   1      36.391  21.499  27.193  1.00  0.00     0.163 HD
BRANCH   3   6
ATOM      6  C   UNL A   1      33.599  22.470  25.485  1.00  0.00     0.080 C 
ATOM      7  C   UNL A   1      34.273  22.392  24.094  1.00  0.00     0.027 C 
BRANCH   6   8
ATOM      8  C   UNL A   1      32.312  21.596  25.523  1.00  0.00     0.122 C 
BRANCH   8   9
ATOM      9  C   UNL A   1      32.365  20.321  24.751  1.00  0.00     0.228 A 
ATOM     10  C   UNL A   1      32.670  18.378  24.035  1.00  0.00     0.200 A 
ATOM     11  N   UNL A   1      32.267  19.050  22.947  1.00  0.00    -0.060 NA
ATOM     12  N   UNL A   1      32.700  19.129  25.189  1.00  0.00    -0.193 NA
ATOM     13  O   UNL A   1      32.060  20.344  23.424  1.00  0.00    -0.339 OA
BRANCH  10  14
ATOM     14  C   UNL A   1      33.033  16.918  24.034  1.00  0.00     0.186 C 
ATOM     15  C   UNL A   1      34.226  16.602  23.128  1.00  0.00     0.047 C 
BRANCH  14  16
ATOM     16  O   UNL A   1      33.292  16.464  25.378  1.00  0.00    -0.374 OA
ATOM     17  C   UNL A   1      32.452  15.400  25.797  1.00  0.00     0.195 C 
ENDBRANCH  14  16
ENDBRANCH  10  14
ENDBRANCH   8   9
ENDBRANCH   6   8
BRANCH   6  18
ATOM     18  C   UNL A   1      33.286  23.993  25.662  1.00  0.00    -0.032 A 
ATOM     19  C   UNL A   1      34.223  24.987  25.328  1.00  0.00     0.005 A 
ATOM     20  C   UNL A   1      32.026  24.436  26.118  1.00  0.00     0.005 A 
ATOM     21  C   UNL A   1      33.957  26.342  25.547  1.00  0.00     0.000 A 
ATOM     22  C   UNL A   1      31.762  25.789  26.345  1.00  0.00     0.000 A 
ATOM     23  C   UNL A   1      32.735  26.742  26.075  1.00  0.00     0.000 A 
ENDBRANCH   6  18
ENDBRANCH   3   6
ENDBRANCH   1   2
BRANCH   1  24
ATOM     24  C   UNL A   1      37.881  21.027  25.093  1.00  0.00     0.042 C 
BRANCH  24  25
ATOM     25  C   UNL A   1      39.075  21.149  26.035  1.00  0.00     0.118 C 
BRANCH  25  26
ATOM     26  N   UNL A   1      39.925  19.964  26.029  1.00  0.00    -0.352 N 
ATOM     27  C   UNL A   1      41.292  19.851  26.118  1.00  0.00     0.251 C 
ATOM     28  H   UNL A   1      39.443  19.110  25.949  1.00  0.00     0.163 HD
ATOM     29  O   UNL A   1      41.828  18.767  25.901  1.00  0.00    -0.269 OA
BRANCH  27  30
ATOM     30  C   UNL A   1      42.117  21.033  26.445  1.00  0.00     0.039 A 
ATOM     31  C   UNL A   1      42.607  21.830  25.407  1.00  0.00     0.014 A 
ATOM     32  C   UNL A   1      42.397  21.362  27.773  1.00  0.00     0.014 A 
ATOM     33  C   UNL A   1      43.286  23.014  25.705  1.00  0.00     0.010 A 
ATOM     34  C   UNL A   1      43.003  22.579  28.069  1.00  0.00     0.010 A 
ATOM     35  C   UNL A   1      43.437  23.427  27.038  1.00  0.00    -0.014 A 
BRANCH  35  36
ATOM     36  C   UNL A   1      43.996  24.757  27.388  1.00  0.00     0.031 A 
ATOM     37  C   UNL A   1      43.086  25.868  27.829  1.00  0.00     0.074 A 
ATOM     38  C   UNL A   1      45.312  24.990  27.202  1.00  0.00     0.049 A 
ATOM     39  N   UNL A   1      43.364  27.130  28.035  1.00  0.00    -0.248 NA
ATOM     40  C   UNL A   1      41.671  25.522  28.042  1.00  0.00     0.031 C 
ATOM     41  C   UNL A   1      46.289  24.004  26.736  1.00  0.00     0.029 A 
ATOM     42  N   UNL A   1      46.050  26.138  27.358  1.00  0.00    -0.354 N 
ATOM     43  C   UNL A   1      42.160  27.732  28.381  1.00  0.00     0.074 A 
ATOM     44  C   UNL A   1      41.141  26.705  28.317  1.00  0.00     0.031 C 
ATOM     45  C   UNL A   1      47.497  24.585  26.653  1.00  0.00     0.029 A 
ATOM     46  C   UNL A   1      47.374  25.993  27.012  1.00  0.00     0.049 A 
ATOM     47  H   UNL A   1      45.669  26.983  27.686  1.00  0.00     0.167 HD
ATOM     48  C   UNL A   1      41.930  29.017  28.736  1.00  0.00     0.037 A 
ATOM     49  C   UNL A   1      48.372  26.897  26.963  1.00  0.00     0.037 A 
ATOM     50  C   UNL A   1      42.954  30.026  28.822  1.00  0.00     0.049 A 
ATOM     51  C   UNL A   1      48.086  28.326  27.336  1.00  0.00     0.074 A 
ATOM     52  C   UNL A   1      42.835  31.339  29.245  1.00  0.00     0.029 A 
ATOM     53  N   UNL A   1      44.282  29.838  28.470  1.00  0.00    -0.354 N 
ATOM     54  N   UNL A   1      46.954  28.862  27.725  1.00  0.00    -0.248 NA
ATOM     55  C   UNL A   1      49.207  29.273  27.256  1.00  0.00     0.031 C 
ATOM     56  C   UNL A   1      44.082  31.956  29.108  1.00  0.00     0.029 A 
ATOM     57  C   UNL A   1      44.988  31.019  28.637  1.00  0.00     0.049 A 
ATOM     58  H   UNL A   1      44.667  28.991  28.149  1.00  0.00     0.167 HD
ATOM     59  C   UNL A   1      47.229  30.206  27.949  1.00  0.00     0.074 A 
ATOM     60  C   UNL A   1      48.637  30.398  27.668  1.00  0.00     0.031 C 
ATOM     61  C   UNL A   1      46.389  31.193  28.349  1.00  0.00     0.037 A 
BRANCH  48  62
ATOM     62  C   UNL A   1      40.517  29.408  29.066  1.00  0.00     0.058 A 
ATOM     63  C   UNL A   1      40.098  29.605  30.391  1.00  0.00     0.135 A 
ATOM     64  C   UNL A   1      39.577  29.625  28.044  1.00  0.00     0.135 A 
ATOM     65  F   UNL A   1      40.951  29.399  31.407  1.00  0.00    -0.206 F 
ATOM     66  C   UNL A   1      38.792  29.976  30.695  1.00  0.00     0.059 A 
ATOM     67  C   UNL A   1      38.272  30.020  28.323  1.00  0.00     0.059 A 
ATOM     68  F   UNL A   1      39.924  29.449  26.759  1.00  0.00    -0.206 F 
ATOM     69  C   UNL A   1      37.886  30.179  29.653  1.00  0.00     0.060 A 
BRANCH  69  70
ATOM     70  S   UNL A   1      36.196  30.664  30.065  1.00  0.00     0.124 S 
ATOM     71  O   UNL A   1      35.928  29.819  31.225  1.00  0.00    -0.237 OA
ATOM     72  O   UNL A   1      36.337  32.090  30.339  1.00  0.00    -0.237 OA
ATOM     73  O   UNL A   1      35.443  30.330  28.859  1.00  0.00    -0.744 OA
ENDBRANCH  69  70
ENDBRANCH  48  62
BRANCH  49  74
ATOM     74  C   UNL A   1      49.734  26.477  26.540  1.00  0.00     0.058 A 
ATOM     75  C   UNL A   1      50.608  25.861  27.446  1.00  0.00     0.135 A 
ATOM     76  C   UNL A   1      50.178  26.660  25.222  1.00  0.00     0.135 A 
ATOM     77  F   UNL A   1      50.231  25.670  28.719  1.00  0.00    -0.206 F 
ATOM     78  C   UNL A   1      51.881  25.449  27.064  1.00  0.00     0.059 A 
ATOM     79  C   UNL A   1      51.438  26.237  24.810  1.00  0.00     0.059 A 
ATOM     80  F   UNL A   1      49.372  27.231  24.312  1.00  0.00    -0.206 F 
ATOM     81  C   UNL A   1      52.285  25.638  25.741  1.00  0.00     0.060 A 
BRANCH  81  82
ATOM     82  S   UNL A   1      53.917  25.046  25.240  1.00  0.00     0.124 S 
ATOM     83  O   UNL A   1      54.006  25.550  23.876  1.00  0.00    -0.237 OA
ATOM     84  O   UNL A   1      54.790  25.690  26.217  1.00  0.00    -0.237 OA
ATOM     85  O   UNL A   1      53.802  23.598  25.375  1.00  0.00    -0.744 OA
ENDBRANCH  81  82
ENDBRANCH  49  74
BRANCH  61  86
ATOM     86  C   UNL A   1      46.966  32.570  28.512  1.00  0.00     0.058 A 
ATOM     87  C   UNL A   1      46.900  33.516  27.478  1.00  0.00     0.135 A 
ATOM     88  C   UNL A   1      47.522  32.972  29.737  1.00  0.00     0.135 A 
ATOM     89  F   UNL A   1      46.388  33.178  26.284  1.00  0.00    -0.206 F 
ATOM     90  C   UNL A   1      47.370  34.813  27.652  1.00  0.00     0.059 A 
ATOM     91  C   UNL A   1      47.977  34.271  29.941  1.00  0.00     0.059 A 
ATOM     92  F   UNL A   1      47.603  32.104  30.759  1.00  0.00    -0.206 F 
ATOM     93  C   UNL A   1      47.901  35.183  28.890  1.00  0.00     0.060 A 
BRANCH  93  94
ATOM     94  S   UNL A   1      48.448  36.888  29.120  1.00  0.00     0.124 S 
ATOM     95  O   UNL A   1      47.296  37.480  29.791  1.00  0.00    -0.237 OA
ATOM     96  O   UNL A   1      49.645  36.724  29.940  1.00  0.00    -0.237 OA
ATOM     97  O   UNL A   1      48.689  37.354  27.758  1.00  0.00    -0.744 OA
ENDBRANCH  93  94
ENDBRANCH  61  86
ENDBRANCH  35  36
ENDBRANCH  27  30
ENDBRANCH  25  26
ENDBRANCH  24  25
ENDBRANCH   1  24
TORSDOF 18
ENDMDL
MODEL 3
REMARK VINA RESULT:     -11.2      1.462      3.612
REMARK SMILES CO[C@H](C)c1noc(C[C@](C)(C(=O)NCCCNC(=O)c2ccc(-c3c4nc(c(-c5c(F)cc(S(=O)(=O)[O-])cc5F)c5ccc([nH]5)c(-c5c(F)cc(S(=O)(=O)[O-])cc5F)c5nc(c(-c6c(F)cc(S(=O)(=O)[O-])cc6F)c6ccc3[nH]6)C=C5)C=C4)cc2)c2ccccc2)n1
REMARK SMILES IDX 15 1 14 2 12 3 13 4 10 6 11 7 9 8 8 9 5 10 6 11 93 12 7 13
REMARK SMILES IDX 3 14 4 15 2 16 1 17 87 18 88 19 92 20 89 21 91 22 90 23
REMARK SMILES IDX 16 24 17 25 18 26 19 27 20 29 21 30 22 31 86 32 23 33 85 34
REMARK SMILES IDX 24 35 25 36 26 37 79 38 27 39 84 40 78 41 80 42 28 43 83 44
REMARK SMILES IDX 77 45 76 46 29 48 63 49 42 50 62 51 43 52 46 53 61 54 81 55
REMARK SMILES IDX 44 56 45 57 60 59 82 60 47 61 30 62 31 63 40 64 32 65 33 66
REMARK SMILES IDX 39 67 41 68 34 69 35 70 36 71 37 72 38 73 64 74 65 75 74 76
REMARK SMILES IDX 66 77 67 78 73 79 75 80 68 81 69 82 70 83 71 84 72 85 48 86
REMARK SMILES IDX 49 87 58 88 50 89 51 90 57 91 59 92 52 93 53 94 54 95 55 96
REMARK SMILES IDX 56 97
REMARK H PARENT 14 5 18 28 80 47 46 58
REMARK Flexibility Score: inf
ROOT
ATOM      1  C   UNL A   1      33.148  28.086  25.050  1.00  0.00     0.117 C 
ENDROOT
BRANCH   1   2
ATOM      2  N   UNL A   1      31.949  27.531  25.661  1.00  0.00    -0.355 N 
ATOM      3  C   UNL A   1      31.274  26.353  25.541  1.00  0.00     0.230 C 
ATOM      4  O   UNL A   1      30.352  26.225  26.353  1.00  0.00    -0.274 OA
ATOM      5  H   UNL A   1      31.530  28.146  26.305  1.00  0.00     0.163 HD
BRANCH   3   6
ATOM      6  C   UNL A   1      31.657  25.246  24.508  1.00  0.00     0.080 C 
ATOM      7  C   UNL A   1      30.696  24.043  24.671  1.00  0.00     0.027 C 
BRANCH   6   8
ATOM      8  C   UNL A   1      31.510  25.880  23.094  1.00  0.00     0.122 C 
BRANCH   8   9
ATOM      9  C   UNL A   1      30.486  26.955  22.963  1.00  0.00     0.228 A 
ATOM     10  C   UNL A   1      29.416  28.737  22.716  1.00  0.00     0.200 A 
ATOM     11  N   UNL A   1      28.500  27.891  23.210  1.00  0.00    -0.060 NA
ATOM     12  N   UNL A   1      30.656  28.176  22.507  1.00  0.00    -0.193 NA
ATOM     13  O   UNL A   1      29.211  26.702  23.371  1.00  0.00    -0.339 OA
BRANCH  10  14
ATOM     14  C   UNL A   1      29.134  30.176  22.378  1.00  0.00     0.186 C 
ATOM     15  C   UNL A   1      27.999  30.337  21.363  1.00  0.00     0.047 C 
BRANCH  14  16
ATOM     16  O   UNL A   1      28.844  30.925  23.575  1.00  0.00    -0.374 OA
ATOM     17  C   UNL A   1      27.535  31.471  23.609  1.00  0.00     0.195 C 
ENDBRANCH  14  16
ENDBRANCH  10  14
ENDBRANCH   8   9
ENDBRANCH   6   8
BRANCH   6  18
ATOM     18  C   UNL A   1      33.074  24.624  24.734  1.00  0.00    -0.032 A 
ATOM     19  C   UNL A   1      33.527  24.257  26.014  1.00  0.00     0.005 A 
ATOM     20  C   UNL A   1      33.941  24.356  23.653  1.00  0.00     0.005 A 
ATOM     21  C   UNL A   1      34.819  23.759  26.215  1.00  0.00     0.000 A 
ATOM     22  C   UNL A   1      35.234  23.866  23.853  1.00  0.00     0.000 A 
ATOM     23  C   UNL A   1      35.679  23.583  25.137  1.00  0.00     0.000 A 
ENDBRANCH   6  18
ENDBRANCH   3   6
ENDBRANCH   1   2
BRANCH   1  24
ATOM     24  C   UNL A   1      34.157  28.575  26.079  1.00  0.00     0.042 C 
BRANCH  24  25
ATOM     25  C   UNL A   1      33.582  28.753  27.480  1.00  0.00     0.118 C 
BRANCH  25  26
ATOM     26  N   UNL A   1      33.641  30.135  27.946  1.00  0.00    -0.352 N 
ATOM     27  C   UNL A   1      34.657  30.819  28.569  1.00  0.00     0.251 C 
ATOM     28  H   UNL A   1      32.824  30.660  27.788  1.00  0.00     0.163 HD
ATOM     29  O   UNL A   1      34.437  31.927  29.053  1.00  0.00    -0.269 OA
BRANCH  27  30
ATOM     30  C   UNL A   1      36.002  30.215  28.682  1.00  0.00     0.039 A 
ATOM     31  C   UNL A   1      36.843  30.211  27.566  1.00  0.00     0.014 A 
ATOM     32  C   UNL A   1      36.436  29.664  29.890  1.00  0.00     0.014 A 
ATOM     33  C   UNL A   1      38.157  29.753  27.693  1.00  0.00     0.010 A 
ATOM     34  C   UNL A   1      37.766  29.282  30.034  1.00  0.00     0.010 A 
ATOM     35  C   UNL A   1      38.646  29.340  28.942  1.00  0.00    -0.014 A 
BRANCH  35  36
ATOM     36  C   UNL A   1      40.079  29.011  29.154  1.00  0.00     0.031 A 
ATOM     37  C   UNL A   1      41.038  30.072  29.615  1.00  0.00     0.074 A 
ATOM     38  C   UNL A   1      40.530  27.783  28.825  1.00  0.00     0.049 A 
ATOM     39  N   UNL A   1      42.341  30.018  29.715  1.00  0.00    -0.248 NA
ATOM     40  C   UNL A   1      40.459  31.373  29.987  1.00  0.00     0.031 C 
ATOM     41  C   UNL A   1      39.704  26.683  28.326  1.00  0.00     0.029 A 
ATOM     42  N   UNL A   1      41.801  27.262  28.837  1.00  0.00    -0.354 N 
ATOM     43  C   UNL A   1      42.741  31.279  30.141  1.00  0.00     0.074 A 
ATOM     44  C   UNL A   1      41.545  32.090  30.241  1.00  0.00     0.031 C 
ATOM     45  C   UNL A   1      40.484  25.616  28.088  1.00  0.00     0.029 A 
ATOM     46  C   UNL A   1      41.871  25.969  28.371  1.00  0.00     0.049 A 
ATOM     47  H   UNL A   1      42.586  27.765  29.150  1.00  0.00     0.167 HD
ATOM     48  C   UNL A   1      43.987  31.714  30.439  1.00  0.00     0.037 A 
ATOM     49  C   UNL A   1      42.934  25.166  28.170  1.00  0.00     0.037 A 
ATOM     50  C   UNL A   1      45.168  30.894  30.361  1.00  0.00     0.049 A 
ATOM     51  C   UNL A   1      44.311  25.681  28.482  1.00  0.00     0.074 A 
ATOM     52  C   UNL A   1      46.466  31.219  30.714  1.00  0.00     0.029 A 
ATOM     53  N   UNL A   1      45.196  29.589  29.892  1.00  0.00    -0.354 N 
ATOM     54  N   UNL A   1      44.664  26.855  28.948  1.00  0.00    -0.248 NA
ATOM     55  C   UNL A   1      45.436  24.768  28.234  1.00  0.00     0.031 C 
ATOM     56  C   UNL A   1      47.286  30.126  30.418  1.00  0.00     0.029 A 
ATOM     57  C   UNL A   1      46.494  29.104  29.917  1.00  0.00     0.049 A 
ATOM     58  H   UNL A   1      44.410  29.081  29.587  1.00  0.00     0.167 HD
ATOM     59  C   UNL A   1      46.048  26.819  29.061  1.00  0.00     0.074 A 
ATOM     60  C   UNL A   1      46.469  25.501  28.631  1.00  0.00     0.031 C 
ATOM     61  C   UNL A   1      46.896  27.790  29.482  1.00  0.00     0.037 A 
BRANCH  48  62
ATOM     62  C   UNL A   1      44.141  33.142  30.882  1.00  0.00     0.058 A 
ATOM     63  C   UNL A   1      44.169  33.491  32.242  1.00  0.00     0.135 A 
ATOM     64  C   UNL A   1      44.299  34.172  29.939  1.00  0.00     0.135 A 
ATOM     65  F   UNL A   1      44.009  32.549  33.184  1.00  0.00    -0.206 F 
ATOM     66  C   UNL A   1      44.321  34.812  32.651  1.00  0.00     0.059 A 
ATOM     67  C   UNL A   1      44.477  35.497  30.326  1.00  0.00     0.059 A 
ATOM     68  F   UNL A   1      44.278  33.893  28.626  1.00  0.00    -0.206 F 
ATOM     69  C   UNL A   1      44.472  35.807  31.685  1.00  0.00     0.060 A 
BRANCH  69  70
ATOM     70  S   UNL A   1      44.671  37.517  32.234  1.00  0.00     0.124 S 
ATOM     71  O   UNL A   1      44.713  38.227  30.959  1.00  0.00    -0.237 OA
ATOM     72  O   UNL A   1      43.471  37.729  33.037  1.00  0.00    -0.237 OA
ATOM     73  O   UNL A   1      45.925  37.490  32.979  1.00  0.00    -0.744 OA
ENDBRANCH  69  70
ENDBRANCH  48  62
BRANCH  49  74
ATOM     74  C   UNL A   1      42.734  23.791  27.641  1.00  0.00     0.058 A 
ATOM     75  C   UNL A   1      42.589  22.702  28.510  1.00  0.00     0.135 A 
ATOM     76  C   UNL A   1      42.662  23.543  26.261  1.00  0.00     0.135 A 
ATOM     77  F   UNL A   1      42.658  22.888  29.837  1.00  0.00    -0.206 F 
ATOM     78  C   UNL A   1      42.389  21.410  28.033  1.00  0.00     0.059 A 
ATOM     79  C   UNL A   1      42.440  22.264  25.760  1.00  0.00     0.059 A 
ATOM     80  F   UNL A   1      42.778  24.555  25.387  1.00  0.00    -0.206 F 
ATOM     81  C   UNL A   1      42.311  21.202  26.654  1.00  0.00     0.060 A 
BRANCH  81  82
ATOM     82  S   UNL A   1      41.991  19.532  26.046  1.00  0.00     0.124 S 
ATOM     83  O   UNL A   1      40.574  19.606  25.715  1.00  0.00    -0.237 OA
ATOM     84  O   UNL A   1      42.908  19.437  24.914  1.00  0.00    -0.237 OA
ATOM     85  O   UNL A   1      42.332  18.690  27.189  1.00  0.00    -0.744 OA
ENDBRANCH  81  82
ENDBRANCH  49  74
BRANCH  61  86
ATOM     86  C   UNL A   1      48.362  27.469  29.503  1.00  0.00     0.058 A 
ATOM     87  C   UNL A   1      49.162  27.632  28.362  1.00  0.00     0.135 A 
ATOM     88  C   UNL A   1      48.989  27.068  30.694  1.00  0.00     0.135 A 
ATOM     89  F   UNL A   1      48.609  28.003  27.196  1.00  0.00    -0.206 F 
ATOM     90  C   UNL A   1      50.533  27.403  28.399  1.00  0.00     0.059 A 
ATOM     91  C   UNL A   1      50.362  26.856  30.760  1.00  0.00     0.059 A 
ATOM     92  F   UNL A   1      48.268  26.903  31.814  1.00  0.00    -0.206 F 
ATOM     93  C   UNL A   1      51.125  27.022  29.605  1.00  0.00     0.060 A 
BRANCH  93  94
ATOM     94  S   UNL A   1      52.915  26.790  29.653  1.00  0.00     0.124 S 
ATOM     95  O   UNL A   1      53.389  28.169  29.719  1.00  0.00    -0.237 OA
ATOM     96  O   UNL A   1      53.096  25.998  30.865  1.00  0.00    -0.237 OA
ATOM     97  O   UNL A   1      53.199  26.087  28.405  1.00  0.00    -0.744 OA
ENDBRANCH  93  94
ENDBRANCH  61  86
ENDBRANCH  35  36
ENDBRANCH  27  30
ENDBRANCH  25  26
ENDBRANCH  24  25
ENDBRANCH   1  24
TORSDOF 18
ENDMDL
