MODEL 1
REMARK VINA RESULT:     -12.4      0.000      0.000
REMARK SMILES CN1CCN(C(=O)N2CCC[C@H]2CC(=O)NCCCNC(=O)c2ccc(-c3c4nc(c(-c5c(F)cc(S(=O)(=O)[O-])cc5F)c5ccc([nH]5)c(-c5c(F)cc(S(=O)(=O)[O-])cc5F)c5nc(c(-c6c(F)cc(S(=O)(=O)[O-])cc6F)c6ccc3[nH]6)C=C5)C=C4)cc2)C(C)(C)C1=O
REMARK SMILES IDX 18 1 17 2 16 3 14 4 15 5 13 7 12 8 8 9 9 10 10 11 11 12 6 13
REMARK SMILES IDX 7 14 5 15 1 16 2 17 3 18 92 19 4 20 89 21 93 22 90 23 91 24
REMARK SMILES IDX 19 25 20 26 21 27 22 29 23 30 24 31 88 32 25 33 87 34 26 35
REMARK SMILES IDX 27 36 28 37 81 38 29 39 86 40 80 41 82 42 30 43 85 44 79 45
REMARK SMILES IDX 78 46 31 48 65 49 44 50 64 51 45 52 48 53 63 54 83 55 46 56
REMARK SMILES IDX 47 57 62 59 84 60 49 61 32 62 33 63 42 64 34 65 35 66 41 67
REMARK SMILES IDX 43 68 36 69 37 70 38 71 39 72 40 73 66 74 67 75 76 76 68 77
REMARK SMILES IDX 69 78 75 79 77 80 70 81 71 82 72 83 73 84 74 85 50 86 51 87
REMARK SMILES IDX 60 88 52 89 53 90 59 91 61 92 54 93 55 94 56 95 57 96 58 97
REMARK H PARENT 16 6 20 28 82 47 48 58
REMARK Flexibility Score: inf
ROOT
ATOM      1  C   UNL A   1      34.387  30.996  27.421  1.00  0.00     0.042 C 
ENDROOT
BRANCH   1   2
ATOM      2  C   UNL A   1      34.217  29.471  27.308  1.00  0.00     0.117 C 
BRANCH   2   3
ATOM      3  N   UNL A   1      32.971  28.941  27.855  1.00  0.00    -0.356 N 
ATOM      4  C   UNL A   1      31.994  28.142  27.334  1.00  0.00     0.222 C 
ATOM      5  O   UNL A   1      31.108  27.768  28.105  1.00  0.00    -0.275 OA
ATOM      6  H   UNL A   1      32.802  29.214  28.786  1.00  0.00     0.163 HD
BRANCH   4   7
ATOM      7  C   UNL A   1      31.981  27.735  25.872  1.00  0.00     0.125 C 
BRANCH   7   8
ATOM      8  C   UNL A   1      32.878  26.549  25.473  1.00  0.00     0.096 C 
ATOM      9  N   UNL A   1      32.198  25.315  25.099  1.00  0.00    -0.321 N 
ATOM     10  C   UNL A   1      31.839  25.346  23.691  1.00  0.00     0.122 C 
ATOM     11  C   UNL A   1      32.869  26.284  23.060  1.00  0.00     0.024 C 
ATOM     12  C   UNL A   1      33.723  26.778  24.234  1.00  0.00     0.027 C 
BRANCH   9  13
ATOM     13  C   UNL A   1      32.117  24.268  25.975  1.00  0.00     0.321 C 
ATOM     14  O   UNL A   1      31.576  24.403  27.075  1.00  0.00    -0.248 OA
BRANCH  13  15
ATOM     15  N   UNL A   1      32.683  23.054  25.591  1.00  0.00    -0.309 N 
ATOM     16  C   UNL A   1      33.996  18.989  24.859  1.00  0.00     0.146 C 
ATOM     17  N   UNL A   1      33.562  20.325  25.220  1.00  0.00    -0.342 N 
ATOM     18  C   UNL A   1      32.225  20.737  24.827  1.00  0.00     0.140 C 
ATOM     19  C   UNL A   1      34.533  21.275  25.517  1.00  0.00     0.247 C 
ATOM     20  C   UNL A   1      31.716  21.959  25.575  1.00  0.00     0.144 C 
ATOM     21  C   UNL A   1      34.045  22.643  26.102  1.00  0.00     0.118 C 
ATOM     22  O   UNL A   1      35.730  20.972  25.502  1.00  0.00    -0.272 OA
ATOM     23  C   UNL A   1      33.986  22.446  27.637  1.00  0.00     0.045 C 
ATOM     24  C   UNL A   1      35.184  23.637  25.833  1.00  0.00     0.045 C 
ENDBRANCH  13  15
ENDBRANCH   9  13
ENDBRANCH   7   8
ENDBRANCH   4   7
ENDBRANCH   2   3
ENDBRANCH   1   2
BRANCH   1  25
ATOM     25  C   UNL A   1      35.669  31.482  28.092  1.00  0.00     0.118 C 
BRANCH  25  26
ATOM     26  N   UNL A   1      35.617  31.277  29.526  1.00  0.00    -0.352 N 
ATOM     27  C   UNL A   1      36.387  30.459  30.316  1.00  0.00     0.251 C 
ATOM     28  H   UNL A   1      34.930  31.799  30.002  1.00  0.00     0.163 HD
ATOM     29  O   UNL A   1      35.979  30.166  31.437  1.00  0.00    -0.269 OA
BRANCH  27  30
ATOM     30  C   UNL A   1      37.694  29.929  29.845  1.00  0.00     0.039 A 
ATOM     31  C   UNL A   1      38.649  29.566  30.801  1.00  0.00     0.014 A 
ATOM     32  C   UNL A   1      38.030  29.888  28.488  1.00  0.00     0.014 A 
ATOM     33  C   UNL A   1      39.927  29.158  30.401  1.00  0.00     0.010 A 
ATOM     34  C   UNL A   1      39.287  29.423  28.087  1.00  0.00     0.010 A 
ATOM     35  C   UNL A   1      40.260  29.080  29.039  1.00  0.00    -0.014 A 
BRANCH  35  36
ATOM     36  C   UNL A   1      41.633  28.693  28.612  1.00  0.00     0.031 A 
ATOM     37  C   UNL A   1      42.735  29.721  28.564  1.00  0.00     0.074 A 
ATOM     38  C   UNL A   1      41.893  27.422  28.247  1.00  0.00     0.049 A 
ATOM     39  N   UNL A   1      43.986  29.577  28.207  1.00  0.00    -0.248 NA
ATOM     40  C   UNL A   1      42.379  31.096  28.950  1.00  0.00     0.031 C 
ATOM     41  C   UNL A   1      40.912  26.336  28.206  1.00  0.00     0.029 A 
ATOM     42  N   UNL A   1      43.061  26.828  27.835  1.00  0.00    -0.354 N 
ATOM     43  C   UNL A   1      44.561  30.840  28.308  1.00  0.00     0.074 A 
ATOM     44  C   UNL A   1      43.511  31.746  28.719  1.00  0.00     0.031 C 
ATOM     45  C   UNL A   1      41.521  25.207  27.810  1.00  0.00     0.029 A 
ATOM     46  C   UNL A   1      42.930  25.491  27.546  1.00  0.00     0.049 A 
ATOM     47  H   UNL A   1      43.913  27.315  27.755  1.00  0.00     0.167 HD
ATOM     48  C   UNL A   1      45.848  31.210  28.099  1.00  0.00     0.037 A 
ATOM     49  C   UNL A   1      43.839  24.592  27.117  1.00  0.00     0.037 A 
ATOM     50  C   UNL A   1      46.904  30.304  27.724  1.00  0.00     0.049 A 
ATOM     51  C   UNL A   1      45.267  25.019  26.919  1.00  0.00     0.074 A 
ATOM     52  C   UNL A   1      48.250  30.576  27.550  1.00  0.00     0.029 A 
ATOM     53  N   UNL A   1      46.734  28.952  27.467  1.00  0.00    -0.354 N 
ATOM     54  N   UNL A   1      45.802  26.206  27.077  1.00  0.00    -0.248 NA
ATOM     55  C   UNL A   1      46.218  23.982  26.494  1.00  0.00     0.031 C 
ATOM     56  C   UNL A   1      48.889  29.394  27.158  1.00  0.00     0.029 A 
ATOM     57  C   UNL A   1      47.947  28.378  27.123  1.00  0.00     0.049 A 
ATOM     58  H   UNL A   1      45.877  28.471  27.520  1.00  0.00     0.167 HD
ATOM     59  C   UNL A   1      47.155  26.054  26.792  1.00  0.00     0.074 A 
ATOM     60  C   UNL A   1      47.359  24.658  26.465  1.00  0.00     0.031 C 
ATOM     61  C   UNL A   1      48.139  26.986  26.802  1.00  0.00     0.037 A 
BRANCH  48  62
ATOM     62  C   UNL A   1      46.191  32.664  28.279  1.00  0.00     0.058 A 
ATOM     63  C   UNL A   1      46.034  33.591  27.237  1.00  0.00     0.135 A 
ATOM     64  C   UNL A   1      46.655  33.141  29.516  1.00  0.00     0.135 A 
ATOM     65  F   UNL A   1      45.606  33.186  26.030  1.00  0.00    -0.206 F 
ATOM     66  C   UNL A   1      46.355  34.935  27.404  1.00  0.00     0.059 A 
ATOM     67  C   UNL A   1      46.958  34.485  29.713  1.00  0.00     0.059 A 
ATOM     68  F   UNL A   1      46.821  32.297  30.547  1.00  0.00    -0.206 F 
ATOM     69  C   UNL A   1      46.819  35.372  28.646  1.00  0.00     0.060 A 
BRANCH  69  70
ATOM     70  S   UNL A   1      47.236  37.117  28.847  1.00  0.00     0.124 S 
ATOM     71  O   UNL A   1      48.040  37.363  27.654  1.00  0.00    -0.237 OA
ATOM     72  O   UNL A   1      45.924  37.754  28.870  1.00  0.00    -0.237 OA
ATOM     73  O   UNL A   1      47.965  37.147  30.113  1.00  0.00    -0.744 OA
ENDBRANCH  69  70
ENDBRANCH  48  62
BRANCH  49  74
ATOM     74  C   UNL A   1      43.427  23.184  26.876  1.00  0.00     0.058 A 
ATOM     75  C   UNL A   1      43.372  22.662  25.575  1.00  0.00     0.135 A 
ATOM     76  C   UNL A   1      43.100  22.331  27.940  1.00  0.00     0.135 A 
ATOM     77  F   UNL A   1      43.668  23.444  24.526  1.00  0.00    -0.206 F 
ATOM     78  C   UNL A   1      42.998  21.344  25.336  1.00  0.00     0.059 A 
ATOM     79  C   UNL A   1      42.744  21.003  27.727  1.00  0.00     0.059 A 
ATOM     80  F   UNL A   1      43.153  22.781  29.204  1.00  0.00    -0.206 F 
ATOM     81  C   UNL A   1      42.688  20.521  26.420  1.00  0.00     0.060 A 
BRANCH  81  82
ATOM     82  S   UNL A   1      42.267  18.793  26.105  1.00  0.00     0.124 S 
ATOM     83  O   UNL A   1      42.560  18.179  27.395  1.00  0.00    -0.237 OA
ATOM     84  O   UNL A   1      40.855  18.880  25.745  1.00  0.00    -0.237 OA
ATOM     85  O   UNL A   1      43.162  18.426  25.011  1.00  0.00    -0.744 OA
ENDBRANCH  81  82
ENDBRANCH  49  74
BRANCH  61  86
ATOM     86  C   UNL A   1      49.531  26.523  26.473  1.00  0.00     0.058 A 
ATOM     87  C   UNL A   1      50.049  26.617  25.172  1.00  0.00     0.135 A 
ATOM     88  C   UNL A   1      50.366  26.010  27.478  1.00  0.00     0.135 A 
ATOM     89  F   UNL A   1      49.290  27.096  24.175  1.00  0.00    -0.206 F 
ATOM     90  C   UNL A   1      51.340  26.191  24.873  1.00  0.00     0.059 A 
ATOM     91  C   UNL A   1      51.668  25.599  27.206  1.00  0.00     0.059 A 
ATOM     92  F   UNL A   1      49.922  25.909  28.740  1.00  0.00    -0.206 F 
ATOM     93  C   UNL A   1      52.141  25.679  25.896  1.00  0.00     0.060 A 
BRANCH  93  94
ATOM     94  S   UNL A   1      53.819  25.144  25.503  1.00  0.00     0.124 S 
ATOM     95  O   UNL A   1      54.560  25.625  26.664  1.00  0.00    -0.237 OA
ATOM     96  O   UNL A   1      53.673  23.695  25.401  1.00  0.00    -0.237 OA
ATOM     97  O   UNL A   1      54.106  25.827  24.245  1.00  0.00    -0.744 OA
ENDBRANCH  93  94
ENDBRANCH  61  86
ENDBRANCH  35  36
ENDBRANCH  27  30
ENDBRANCH  25  26
ENDBRANCH   1  25
TORSDOF 16
ENDMDL
MODEL 2
REMARK VINA RESULT:     -12.3      6.546     12.146
REMARK SMILES CN1CCN(C(=O)N2CCC[C@H]2CC(=O)NCCCNC(=O)c2ccc(-c3c4nc(c(-c5c(F)cc(S(=O)(=O)[O-])cc5F)c5ccc([nH]5)c(-c5c(F)cc(S(=O)(=O)[O-])cc5F)c5nc(c(-c6c(F)cc(S(=O)(=O)[O-])cc6F)c6ccc3[nH]6)C=C5)C=C4)cc2)C(C)(C)C1=O
REMARK SMILES IDX 18 1 17 2 16 3 14 4 15 5 13 7 12 8 8 9 9 10 10 11 11 12 6 13
REMARK SMILES IDX 7 14 5 15 1 16 2 17 3 18 92 19 4 20 89 21 93 22 90 23 91 24
REMARK SMILES IDX 19 25 20 26 21 27 22 29 23 30 24 31 88 32 25 33 87 34 26 35
REMARK SMILES IDX 27 36 28 37 81 38 29 39 86 40 80 41 82 42 30 43 85 44 79 45
REMARK SMILES IDX 78 46 31 48 65 49 44 50 64 51 45 52 48 53 63 54 83 55 46 56
REMARK SMILES IDX 47 57 62 59 84 60 49 61 32 62 33 63 42 64 34 65 35 66 41 67
REMARK SMILES IDX 43 68 36 69 37 70 38 71 39 72 40 73 66 74 67 75 76 76 68 77
REMARK SMILES IDX 69 78 75 79 77 80 70 81 71 82 72 83 73 84 74 85 50 86 51 87
REMARK SMILES IDX 60 88 52 89 53 90 59 91 61 92 54 93 55 94 56 95 57 96 58 97
REMARK H PARENT 16 6 20 28 82 47 48 58
REMARK Flexibility Score: inf
ROOT
ATOM      1  C   UNL A   1      39.420  22.070  26.479  1.00  0.00     0.042 C 
ENDROOT
BRANCH   1   2
ATOM      2  C   UNL A   1      38.188  22.737  25.843  1.00  0.00     0.117 C 
BRANCH   2   3
ATOM      3  N   UNL A   1      36.970  21.933  25.853  1.00  0.00    -0.356 N 
ATOM      4  C   UNL A   1      35.831  21.964  25.099  1.00  0.00     0.222 C 
ATOM      5  O   UNL A   1      35.017  21.055  25.280  1.00  0.00    -0.275 OA
ATOM      6  H   UNL A   1      36.969  21.227  26.539  1.00  0.00     0.163 HD
BRANCH   4   7
ATOM      7  C   UNL A   1      35.561  23.066  24.091  1.00  0.00     0.125 C 
BRANCH   7   8
ATOM      8  C   UNL A   1      34.832  24.318  24.611  1.00  0.00     0.096 C 
ATOM      9  N   UNL A   1      33.530  24.605  24.022  1.00  0.00    -0.321 N 
ATOM     10  C   UNL A   1      32.490  23.871  24.720  1.00  0.00     0.122 C 
ATOM     11  C   UNL A   1      33.052  23.667  26.127  1.00  0.00     0.024 C 
ATOM     12  C   UNL A   1      34.460  24.275  26.081  1.00  0.00     0.027 C 
BRANCH   9  13
ATOM     13  C   UNL A   1      33.394  25.576  23.067  1.00  0.00     0.321 C 
ATOM     14  O   UNL A   1      34.070  25.549  22.035  1.00  0.00    -0.248 OA
BRANCH  13  15
ATOM     15  N   UNL A   1      32.482  26.601  23.309  1.00  0.00    -0.309 N 
ATOM     16  C   UNL A   1      29.692  29.917  23.370  1.00  0.00     0.146 C 
ATOM     17  N   UNL A   1      30.697  28.874  23.282  1.00  0.00    -0.342 N 
ATOM     18  C   UNL A   1      30.339  27.638  22.608  1.00  0.00     0.140 C 
ATOM     19  C   UNL A   1      31.758  28.906  24.180  1.00  0.00     0.247 C 
ATOM     20  C   UNL A   1      31.536  26.788  22.212  1.00  0.00     0.144 C 
ATOM     21  C   UNL A   1      32.933  27.900  23.938  1.00  0.00     0.118 C 
ATOM     22  O   UNL A   1      31.851  29.818  25.006  1.00  0.00    -0.272 OA
ATOM     23  C   UNL A   1      33.917  28.624  22.986  1.00  0.00     0.045 C 
ATOM     24  C   UNL A   1      33.650  27.771  25.290  1.00  0.00     0.045 C 
ENDBRANCH  13  15
ENDBRANCH   9  13
ENDBRANCH   7   8
ENDBRANCH   4   7
ENDBRANCH   2   3
ENDBRANCH   1   2
BRANCH   1  25
ATOM     25  C   UNL A   1      40.426  23.007  27.142  1.00  0.00     0.118 C 
BRANCH  25  26
ATOM     26  N   UNL A   1      41.182  23.746  26.150  1.00  0.00    -0.352 N 
ATOM     27  C   UNL A   1      41.468  25.089  26.098  1.00  0.00     0.251 C 
ATOM     28  H   UNL A   1      41.541  23.209  25.407  1.00  0.00     0.163 HD
ATOM     29  O   UNL A   1      41.820  25.576  25.026  1.00  0.00    -0.269 OA
BRANCH  27  30
ATOM     30  C   UNL A   1      41.363  25.953  27.303  1.00  0.00     0.039 A 
ATOM     31  C   UNL A   1      40.223  25.842  28.107  1.00  0.00     0.014 A 
ATOM     32  C   UNL A   1      42.312  26.940  27.589  1.00  0.00     0.014 A 
ATOM     33  C   UNL A   1      40.039  26.707  29.192  1.00  0.00     0.010 A 
ATOM     34  C   UNL A   1      42.156  27.764  28.709  1.00  0.00     0.010 A 
ATOM     35  C   UNL A   1      41.005  27.676  29.507  1.00  0.00    -0.014 A 
BRANCH  35  36
ATOM     36  C   UNL A   1      40.790  28.628  30.632  1.00  0.00     0.031 A 
ATOM     37  C   UNL A   1      41.626  28.531  31.883  1.00  0.00     0.074 A 
ATOM     38  C   UNL A   1      39.832  29.571  30.544  1.00  0.00     0.049 A 
ATOM     39  N   UNL A   1      41.576  29.259  32.970  1.00  0.00    -0.248 NA
ATOM     40  C   UNL A   1      42.637  27.462  31.926  1.00  0.00     0.031 C 
ATOM     41  C   UNL A   1      38.923  29.751  29.411  1.00  0.00     0.029 A 
ATOM     42  N   UNL A   1      39.457  30.554  31.428  1.00  0.00    -0.354 N 
ATOM     43  C   UNL A   1      42.533  28.728  33.830  1.00  0.00     0.074 A 
ATOM     44  C   UNL A   1      43.119  27.590  33.154  1.00  0.00     0.031 C 
ATOM     45  C   UNL A   1      38.111  30.791  29.658  1.00  0.00     0.029 A 
ATOM     46  C   UNL A   1      38.421  31.337  30.977  1.00  0.00     0.049 A 
ATOM     47  H   UNL A   1      39.891  30.685  32.302  1.00  0.00     0.167 HD
ATOM     48  C   UNL A   1      42.907  29.159  35.059  1.00  0.00     0.037 A 
ATOM     49  C   UNL A   1      37.792  32.379  31.557  1.00  0.00     0.037 A 
ATOM     50  C   UNL A   1      42.352  30.313  35.720  1.00  0.00     0.049 A 
ATOM     51  C   UNL A   1      38.243  32.858  32.910  1.00  0.00     0.074 A 
ATOM     52  C   UNL A   1      42.711  30.863  36.939  1.00  0.00     0.029 A 
ATOM     53  N   UNL A   1      41.324  31.095  35.217  1.00  0.00    -0.354 N 
ATOM     54  N   UNL A   1      39.190  32.378  33.681  1.00  0.00    -0.248 NA
ATOM     55  C   UNL A   1      37.546  34.025  33.468  1.00  0.00     0.031 C 
ATOM     56  C   UNL A   1      41.877  31.960  37.188  1.00  0.00     0.029 A 
ATOM     57  C   UNL A   1      41.024  32.115  36.107  1.00  0.00     0.049 A 
ATOM     58  H   UNL A   1      40.871  30.947  34.356  1.00  0.00     0.167 HD
ATOM     59  C   UNL A   1      39.217  33.198  34.804  1.00  0.00     0.074 A 
ATOM     60  C   UNL A   1      38.201  34.212  34.606  1.00  0.00     0.031 C 
ATOM     61  C   UNL A   1      40.013  33.119  35.899  1.00  0.00     0.037 A 
BRANCH  48  62
ATOM     62  C   UNL A   1      43.979  28.380  35.773  1.00  0.00     0.058 A 
ATOM     63  C   UNL A   1      45.341  28.671  35.596  1.00  0.00     0.135 A 
ATOM     64  C   UNL A   1      43.639  27.352  36.666  1.00  0.00     0.135 A 
ATOM     65  F   UNL A   1      45.721  29.636  34.743  1.00  0.00    -0.206 F 
ATOM     66  C   UNL A   1      46.331  27.948  36.254  1.00  0.00     0.059 A 
ATOM     67  C   UNL A   1      44.612  26.631  37.355  1.00  0.00     0.059 A 
ATOM     68  F   UNL A   1      42.351  27.034  36.875  1.00  0.00    -0.206 F 
ATOM     69  C   UNL A   1      45.956  26.927  37.130  1.00  0.00     0.060 A 
BRANCH  69  70
ATOM     70  S   UNL A   1      47.250  25.994  37.974  1.00  0.00     0.124 S 
ATOM     71  O   UNL A   1      46.762  24.626  37.833  1.00  0.00    -0.237 OA
ATOM     72  O   UNL A   1      48.438  26.326  37.195  1.00  0.00    -0.237 OA
ATOM     73  O   UNL A   1      47.226  26.532  39.332  1.00  0.00    -0.744 OA
ENDBRANCH  69  70
ENDBRANCH  48  62
BRANCH  49  74
ATOM     74  C   UNL A   1      36.683  33.062  30.841  1.00  0.00     0.058 A 
ATOM     75  C   UNL A   1      35.350  32.884  31.241  1.00  0.00     0.135 A 
ATOM     76  C   UNL A   1      36.936  33.919  29.760  1.00  0.00     0.135 A 
ATOM     77  F   UNL A   1      35.060  32.068  32.265  1.00  0.00    -0.206 F 
ATOM     78  C   UNL A   1      34.303  33.524  30.586  1.00  0.00     0.059 A 
ATOM     79  C   UNL A   1      35.907  34.587  29.103  1.00  0.00     0.059 A 
ATOM     80  F   UNL A   1      38.196  34.132  29.352  1.00  0.00    -0.206 F 
ATOM     81  C   UNL A   1      34.593  34.377  29.519  1.00  0.00     0.060 A 
BRANCH  81  82
ATOM     82  S   UNL A   1      33.233  35.255  28.717  1.00  0.00     0.124 S 
ATOM     83  O   UNL A   1      33.951  36.253  27.931  1.00  0.00    -0.237 OA
ATOM     84  O   UNL A   1      32.583  34.191  27.958  1.00  0.00    -0.237 OA
ATOM     85  O   UNL A   1      32.461  35.773  29.842  1.00  0.00    -0.744 OA
ENDBRANCH  81  82
ENDBRANCH  49  74
BRANCH  61  86
ATOM     86  C   UNL A   1      39.834  34.172  36.958  1.00  0.00     0.058 A 
ATOM     87  C   UNL A   1      39.011  33.959  38.074  1.00  0.00     0.135 A 
ATOM     88  C   UNL A   1      40.521  35.393  36.870  1.00  0.00     0.135 A 
ATOM     89  F   UNL A   1      38.329  32.811  38.203  1.00  0.00    -0.206 F 
ATOM     90  C   UNL A   1      38.852  34.935  39.054  1.00  0.00     0.059 A 
ATOM     91  C   UNL A   1      40.395  36.373  37.850  1.00  0.00     0.059 A 
ATOM     92  F   UNL A   1      41.329  35.641  35.828  1.00  0.00    -0.206 F 
ATOM     93  C   UNL A   1      39.545  36.140  38.931  1.00  0.00     0.060 A 
BRANCH  93  94
ATOM     94  S   UNL A   1      39.346  37.394  40.216  1.00  0.00     0.124 S 
ATOM     95  O   UNL A   1      38.822  36.600  41.321  1.00  0.00    -0.237 OA
ATOM     96  O   UNL A   1      40.708  37.892  40.384  1.00  0.00    -0.237 OA
ATOM     97  O   UNL A   1      38.410  38.342  39.621  1.00  0.00    -0.744 OA
ENDBRANCH  93  94
ENDBRANCH  61  86
ENDBRANCH  35  36
ENDBRANCH  27  30
ENDBRANCH  25  26
ENDBRANCH   1  25
TORSDOF 16
ENDMDL
MODEL 3
REMARK VINA RESULT:     -12.3      4.810      6.190
REMARK SMILES CN1CCN(C(=O)N2CCC[C@H]2CC(=O)NCCCNC(=O)c2ccc(-c3c4nc(c(-c5c(F)cc(S(=O)(=O)[O-])cc5F)c5ccc([nH]5)c(-c5c(F)cc(S(=O)(=O)[O-])cc5F)c5nc(c(-c6c(F)cc(S(=O)(=O)[O-])cc6F)c6ccc3[nH]6)C=C5)C=C4)cc2)C(C)(C)C1=O
REMARK SMILES IDX 18 1 17 2 16 3 14 4 15 5 13 7 12 8 8 9 9 10 10 11 11 12 6 13
REMARK SMILES IDX 7 14 5 15 1 16 2 17 3 18 92 19 4 20 89 21 93 22 90 23 91 24
REMARK SMILES IDX 19 25 20 26 21 27 22 29 23 30 24 31 88 32 25 33 87 34 26 35
REMARK SMILES IDX 27 36 28 37 81 38 29 39 86 40 80 41 82 42 30 43 85 44 79 45
REMARK SMILES IDX 78 46 31 48 65 49 44 50 64 51 45 52 48 53 63 54 83 55 46 56
REMARK SMILES IDX 47 57 62 59 84 60 49 61 32 62 33 63 42 64 34 65 35 66 41 67
REMARK SMILES IDX 43 68 36 69 37 70 38 71 39 72 40 73 66 74 67 75 76 76 68 77
REMARK SMILES IDX 69 78 75 79 77 80 70 81 71 82 72 83 73 84 74 85 50 86 51 87
REMARK SMILES IDX 60 88 52 89 53 90 59 91 61 92 54 93 55 94 56 95 57 96 58 97
REMARK H PARENT 16 6 20 28 82 47 48 58
REMARK Flexibility Score: inf
ROOT
ATOM      1  C   UNL A   1      34.332  28.724  24.072  1.00  0.00     0.042 C 
ENDROOT
BRANCH   1   2
ATOM      2  C   UNL A   1      33.158  28.657  23.079  1.00  0.00     0.117 C 
BRANCH   2   3
ATOM      3  N   UNL A   1      33.274  27.633  22.045  1.00  0.00    -0.356 N 
ATOM      4  C   UNL A   1      33.281  26.268  22.088  1.00  0.00     0.222 C 
ATOM      5  O   UNL A   1      33.275  25.676  21.006  1.00  0.00    -0.275 OA
ATOM      6  H   UNL A   1      33.365  28.000  21.136  1.00  0.00     0.163 HD
BRANCH   4   7
ATOM      7  C   UNL A   1      33.306  25.502  23.397  1.00  0.00     0.125 C 
BRANCH   7   8
ATOM      8  C   UNL A   1      31.966  24.931  23.894  1.00  0.00     0.096 C 
ATOM      9  N   UNL A   1      31.689  25.063  25.319  1.00  0.00    -0.321 N 
ATOM     10  C   UNL A   1      31.091  26.356  25.597  1.00  0.00     0.122 C 
ATOM     11  C   UNL A   1      30.396  26.739  24.290  1.00  0.00     0.024 C 
ATOM     12  C   UNL A   1      30.734  25.604  23.317  1.00  0.00     0.027 C 
BRANCH   9  13
ATOM     13  C   UNL A   1      31.844  23.996  26.162  1.00  0.00     0.321 C 
ATOM     14  O   UNL A   1      31.419  24.037  27.319  1.00  0.00    -0.248 OA
BRANCH  13  15
ATOM     15  N   UNL A   1      32.513  22.875  25.675  1.00  0.00    -0.309 N 
ATOM     16  C   UNL A   1      34.158  19.019  24.576  1.00  0.00     0.146 C 
ATOM     17  N   UNL A   1      33.611  20.273  25.057  1.00  0.00    -0.342 N 
ATOM     18  C   UNL A   1      32.260  20.627  24.655  1.00  0.00     0.140 C 
ATOM     19  C   UNL A   1      34.496  21.254  25.491  1.00  0.00     0.247 C 
ATOM     20  C   UNL A   1      31.635  21.721  25.506  1.00  0.00     0.144 C 
ATOM     21  C   UNL A   1      33.885  22.512  26.196  1.00  0.00     0.118 C 
ATOM     22  O   UNL A   1      35.712  21.042  25.493  1.00  0.00    -0.272 OA
ATOM     23  C   UNL A   1      33.791  22.147  27.698  1.00  0.00     0.045 C 
ATOM     24  C   UNL A   1      34.953  23.608  26.079  1.00  0.00     0.045 C 
ENDBRANCH  13  15
ENDBRANCH   9  13
ENDBRANCH   7   8
ENDBRANCH   4   7
ENDBRANCH   2   3
ENDBRANCH   1   2
BRANCH   1  25
ATOM     25  C   UNL A   1      33.970  28.628  25.551  1.00  0.00     0.118 C 
BRANCH  25  26
ATOM     26  N   UNL A   1      33.692  29.939  26.105  1.00  0.00    -0.352 N 
ATOM     27  C   UNL A   1      34.231  30.545  27.214  1.00  0.00     0.251 C 
ATOM     28  H   UNL A   1      33.022  30.470  25.617  1.00  0.00     0.163 HD
ATOM     29  O   UNL A   1      33.636  31.498  27.713  1.00  0.00    -0.269 OA
BRANCH  27  30
ATOM     30  C   UNL A   1      35.509  30.078  27.812  1.00  0.00     0.039 A 
ATOM     31  C   UNL A   1      35.504  29.650  29.144  1.00  0.00     0.014 A 
ATOM     32  C   UNL A   1      36.723  30.158  27.121  1.00  0.00     0.014 A 
ATOM     33  C   UNL A   1      36.703  29.298  29.777  1.00  0.00     0.010 A 
ATOM     34  C   UNL A   1      37.911  29.749  27.734  1.00  0.00     0.010 A 
ATOM     35  C   UNL A   1      37.919  29.341  29.077  1.00  0.00    -0.014 A 
BRANCH  35  36
ATOM     36  C   UNL A   1      39.202  29.013  29.760  1.00  0.00     0.031 A 
ATOM     37  C   UNL A   1      39.624  29.770  30.993  1.00  0.00     0.074 A 
ATOM     38  C   UNL A   1      40.001  28.047  29.266  1.00  0.00     0.049 A 
ATOM     39  N   UNL A   1      40.708  29.638  31.715  1.00  0.00    -0.248 NA
ATOM     40  C   UNL A   1      38.719  30.830  31.465  1.00  0.00     0.031 C 
ATOM     41  C   UNL A   1      39.736  27.265  28.058  1.00  0.00     0.029 A 
ATOM     42  N   UNL A   1      41.205  27.562  29.717  1.00  0.00    -0.354 N 
ATOM     43  C   UNL A   1      40.624  30.603  32.714  1.00  0.00     0.074 A 
ATOM     44  C   UNL A   1      39.403  31.344  32.478  1.00  0.00     0.031 C 
ATOM     45  C   UNL A   1      40.735  26.387  27.874  1.00  0.00     0.029 A 
ATOM     46  C   UNL A   1      41.725  26.558  28.935  1.00  0.00     0.049 A 
ATOM     47  H   UNL A   1      41.653  27.901  30.526  1.00  0.00     0.167 HD
ATOM     48  C   UNL A   1      41.472  30.841  33.744  1.00  0.00     0.037 A 
ATOM     49  C   UNL A   1      42.867  25.853  29.056  1.00  0.00     0.037 A 
ATOM     50  C   UNL A   1      42.670  30.083  34.002  1.00  0.00     0.049 A 
ATOM     51  C   UNL A   1      43.779  26.114  30.223  1.00  0.00     0.074 A 
ATOM     52  C   UNL A   1      43.559  30.209  35.056  1.00  0.00     0.029 A 
ATOM     53  N   UNL A   1      43.146  29.057  33.200  1.00  0.00    -0.354 N 
ATOM     54  N   UNL A   1      43.652  26.993  31.189  1.00  0.00    -0.248 NA
ATOM     55  C   UNL A   1      44.986  25.282  30.322  1.00  0.00     0.031 C 
ATOM     56  C   UNL A   1      44.590  29.280  34.875  1.00  0.00     0.029 A 
ATOM     57  C   UNL A   1      44.323  28.550  33.728  1.00  0.00     0.049 A 
ATOM     58  H   UNL A   1      42.713  28.736  32.377  1.00  0.00     0.167 HD
ATOM     59  C   UNL A   1      44.749  26.804  32.022  1.00  0.00     0.074 A 
ATOM     60  C   UNL A   1      45.523  25.719  31.454  1.00  0.00     0.031 C 
ATOM     61  C   UNL A   1      45.084  27.468  33.155  1.00  0.00     0.037 A 
BRANCH  48  62
ATOM     62  C   UNL A   1      41.130  31.968  34.680  1.00  0.00     0.058 A 
ATOM     63  C   UNL A   1      40.343  31.761  35.824  1.00  0.00     0.135 A 
ATOM     64  C   UNL A   1      41.620  33.263  34.448  1.00  0.00     0.135 A 
ATOM     65  F   UNL A   1      39.838  30.544  36.086  1.00  0.00    -0.206 F 
ATOM     66  C   UNL A   1      40.025  32.804  36.687  1.00  0.00     0.059 A 
ATOM     67  C   UNL A   1      41.335  34.318  35.312  1.00  0.00     0.059 A 
ATOM     68  F   UNL A   1      42.380  33.516  33.371  1.00  0.00    -0.206 F 
ATOM     69  C   UNL A   1      40.524  34.081  36.421  1.00  0.00     0.060 A 
BRANCH  69  70
ATOM     70  S   UNL A   1      40.100  35.427  37.547  1.00  0.00     0.124 S 
ATOM     71  O   UNL A   1      41.308  35.516  38.361  1.00  0.00    -0.237 OA
ATOM     72  O   UNL A   1      39.868  36.541  36.634  1.00  0.00    -0.237 OA
ATOM     73  O   UNL A   1      38.913  34.930  38.238  1.00  0.00    -0.744 OA
ENDBRANCH  69  70
ENDBRANCH  48  62
BRANCH  49  74
ATOM     74  C   UNL A   1      43.197  24.805  28.055  1.00  0.00     0.058 A 
ATOM     75  C   UNL A   1      43.906  25.123  26.887  1.00  0.00     0.135 A 
ATOM     76  C   UNL A   1      42.828  23.467  28.256  1.00  0.00     0.135 A 
ATOM     77  F   UNL A   1      44.273  26.391  26.648  1.00  0.00    -0.206 F 
ATOM     78  C   UNL A   1      44.230  24.151  25.946  1.00  0.00     0.059 A 
ATOM     79  C   UNL A   1      43.160  22.474  27.340  1.00  0.00     0.059 A 
ATOM     80  F   UNL A   1      42.163  23.113  29.366  1.00  0.00    -0.206 F 
ATOM     81  C   UNL A   1      43.854  22.828  26.183  1.00  0.00     0.060 A 
BRANCH  81  82
ATOM     82  S   UNL A   1      44.336  21.561  24.988  1.00  0.00     0.124 S 
ATOM     83  O   UNL A   1      43.339  20.527  25.239  1.00  0.00    -0.237 OA
ATOM     84  O   UNL A   1      44.214  22.272  23.719  1.00  0.00    -0.237 OA
ATOM     85  O   UNL A   1      45.702  21.232  25.384  1.00  0.00    -0.744 OA
ENDBRANCH  81  82
ENDBRANCH  49  74
BRANCH  61  86
ATOM     86  C   UNL A   1      46.329  27.024  33.871  1.00  0.00     0.058 A 
ATOM     87  C   UNL A   1      46.298  26.013  34.843  1.00  0.00     0.135 A 
ATOM     88  C   UNL A   1      47.573  27.596  33.558  1.00  0.00     0.135 A 
ATOM     89  F   UNL A   1      45.134  25.437  35.183  1.00  0.00    -0.206 F 
ATOM     90  C   UNL A   1      47.454  25.602  35.501  1.00  0.00     0.059 A 
ATOM     91  C   UNL A   1      48.744  27.185  34.187  1.00  0.00     0.059 A 
ATOM     92  F   UNL A   1      47.658  28.560  32.628  1.00  0.00    -0.206 F 
ATOM     93  C   UNL A   1      48.672  26.197  35.169  1.00  0.00     0.060 A 
BRANCH  93  94
ATOM     94  S   UNL A   1      50.169  25.647  36.015  1.00  0.00     0.124 S 
ATOM     95  O   UNL A   1      51.114  26.696  35.650  1.00  0.00    -0.237 OA
ATOM     96  O   UNL A   1      49.752  25.628  37.414  1.00  0.00    -0.237 OA
ATOM     97  O   UNL A   1      50.427  24.335  35.428  1.00  0.00    -0.744 OA
ENDBRANCH  93  94
ENDBRANCH  61  86
ENDBRANCH  35  36
ENDBRANCH  27  30
ENDBRANCH  25  26
ENDBRANCH   1  25
TORSDOF 16
ENDMDL
