MODEL 1
REMARK VINA RESULT:     -11.8      0.000      0.000
REMARK SMILES C[C@H](C(=O)NCCCNC(=O)c1ccc(-c2c3nc(c(-c4c(F)cc(S(=O)(=O)[O-])cc4F)c4ccc([nH]4)c(-c4c(F)cc(S(=O)(=O)[O-])cc4F)c4nc(c(-c5c(F)cc(S(=O)(=O)[O-])cc5F)c5ccc2[nH]5)C=C4)C=C3)cc1)c1ccc(C[C@@H]2CCC[C@H]2O)cc1
REMARK SMILES IDX 6 1 5 2 3 3 4 4 2 6 1 7 78 8 79 9 90 10 80 11 89 12 81 13
REMARK SMILES IDX 82 14 83 15 84 16 87 17 85 18 86 19 88 20 7 22 8 23 9 24
REMARK SMILES IDX 10 25 11 27 12 28 13 29 77 30 14 31 76 32 15 33 16 34 17 35
REMARK SMILES IDX 70 36 18 37 75 38 69 39 71 40 19 41 74 42 68 43 67 44 20 46
REMARK SMILES IDX 54 47 33 48 53 49 34 50 37 51 52 52 72 53 35 54 36 55 51 57
REMARK SMILES IDX 73 58 38 59 21 60 22 61 31 62 23 63 24 64 30 65 32 66 25 67
REMARK SMILES IDX 26 68 27 69 28 70 29 71 55 72 56 73 65 74 57 75 58 76 64 77
REMARK SMILES IDX 66 78 59 79 60 80 61 81 62 82 63 83 39 84 40 85 49 86 41 87
REMARK SMILES IDX 42 88 48 89 50 90 43 91 44 92 45 93 46 94 47 95
REMARK H PARENT 5 5 88 21 9 26 71 45 37 56
REMARK Flexibility Score: inf
ROOT
ATOM      1  C   UNL A   1      32.058  26.636  26.463  1.00  0.00     0.117 C 
ENDROOT
BRANCH   1   2
ATOM      2  N   UNL A   1      30.869  26.457  25.652  1.00  0.00    -0.356 N 
ATOM      3  C   UNL A   1      30.726  25.985  24.379  1.00  0.00     0.227 C 
ATOM      4  O   UNL A   1      29.583  26.042  23.925  1.00  0.00    -0.274 OA
ATOM      5  H   UNL A   1      30.029  26.720  26.090  1.00  0.00     0.163 HD
BRANCH   3   6
ATOM      6  C   UNL A   1      31.959  25.490  23.604  1.00  0.00     0.105 C 
ATOM      7  C   UNL A   1      33.165  26.436  23.751  1.00  0.00     0.023 C 
BRANCH   6   8
ATOM      8  C   UNL A   1      32.441  24.066  23.888  1.00  0.00    -0.036 A 
ATOM      9  C   UNL A   1      31.479  23.100  24.229  1.00  0.00     0.005 A 
ATOM     10  C   UNL A   1      33.764  23.638  23.727  1.00  0.00     0.005 A 
ATOM     11  C   UNL A   1      31.833  21.762  24.408  1.00  0.00     0.004 A 
ATOM     12  C   UNL A   1      34.127  22.310  23.964  1.00  0.00     0.004 A 
ATOM     13  C   UNL A   1      33.167  21.359  24.318  1.00  0.00    -0.048 A 
BRANCH  13  14
ATOM     14  C   UNL A   1      33.576  19.936  24.597  1.00  0.00     0.041 C 
BRANCH  14  15
ATOM     15  C   UNL A   1      32.621  18.812  24.141  1.00  0.00     0.022 C 
ATOM     16  C   UNL A   1      32.522  17.628  25.111  1.00  0.00     0.007 C 
ATOM     17  C   UNL A   1      32.978  18.157  22.803  1.00  0.00     0.117 C 
ATOM     18  C   UNL A   1      33.390  16.506  24.539  1.00  0.00     0.003 C 
ATOM     19  C   UNL A   1      33.850  16.955  23.152  1.00  0.00     0.032 C 
BRANCH  17  20
ATOM     20  O   UNL A   1      31.778  17.701  22.173  1.00  0.00    -0.393 OA
ATOM     21  H   UNL A   1      31.023  17.856  22.762  1.00  0.00     0.210 HD
ENDBRANCH  17  20
ENDBRANCH  14  15
ENDBRANCH  13  14
ENDBRANCH   6   8
ENDBRANCH   3   6
ENDBRANCH   1   2
BRANCH   1  22
ATOM     22  C   UNL A   1      32.124  28.016  27.098  1.00  0.00     0.042 C 
BRANCH  22  23
ATOM     23  C   UNL A   1      33.528  28.591  27.236  1.00  0.00     0.118 C 
BRANCH  23  24
ATOM     24  N   UNL A   1      33.545  29.980  27.674  1.00  0.00    -0.352 N 
ATOM     25  C   UNL A   1      34.551  30.702  28.273  1.00  0.00     0.251 C 
ATOM     26  H   UNL A   1      32.710  30.477  27.518  1.00  0.00     0.163 HD
ATOM     27  O   UNL A   1      34.318  31.829  28.703  1.00  0.00    -0.269 OA
BRANCH  25  28
ATOM     28  C   UNL A   1      35.895  30.108  28.433  1.00  0.00     0.039 A 
ATOM     29  C   UNL A   1      36.768  30.107  27.344  1.00  0.00     0.014 A 
ATOM     30  C   UNL A   1      36.306  29.580  29.660  1.00  0.00     0.014 A 
ATOM     31  C   UNL A   1      38.084  29.672  27.512  1.00  0.00     0.010 A 
ATOM     32  C   UNL A   1      37.640  29.231  29.849  1.00  0.00     0.010 A 
ATOM     33  C   UNL A   1      38.547  29.284  28.781  1.00  0.00    -0.014 A 
BRANCH  33  34
ATOM     34  C   UNL A   1      39.981  28.969  29.019  1.00  0.00     0.031 A 
ATOM     35  C   UNL A   1      40.912  30.021  29.555  1.00  0.00     0.074 A 
ATOM     36  C   UNL A   1      40.458  27.756  28.670  1.00  0.00     0.049 A 
ATOM     37  N   UNL A   1      42.205  29.958  29.743  1.00  0.00    -0.248 NA
ATOM     38  C   UNL A   1      40.320  31.325  29.899  1.00  0.00     0.031 C 
ATOM     39  C   UNL A   1      39.668  26.670  28.080  1.00  0.00     0.029 A 
ATOM     40  N   UNL A   1      41.725  27.233  28.746  1.00  0.00    -0.354 N 
ATOM     41  C   UNL A   1      42.583  31.212  30.207  1.00  0.00     0.074 A 
ATOM     42  C   UNL A   1      41.391  32.031  30.232  1.00  0.00     0.031 C 
ATOM     43  C   UNL A   1      40.463  25.609  27.868  1.00  0.00     0.029 A 
ATOM     44  C   UNL A   1      41.825  25.947  28.266  1.00  0.00     0.049 A 
ATOM     45  H   UNL A   1      42.492  27.731  29.110  1.00  0.00     0.167 HD
ATOM     46  C   UNL A   1      43.810  31.635  30.598  1.00  0.00     0.037 A 
ATOM     47  C   UNL A   1      42.893  25.136  28.146  1.00  0.00     0.037 A 
ATOM     48  C   UNL A   1      44.984  30.802  30.611  1.00  0.00     0.049 A 
ATOM     49  C   UNL A   1      44.241  25.628  28.601  1.00  0.00     0.074 A 
ATOM     50  C   UNL A   1      46.252  31.115  31.070  1.00  0.00     0.029 A 
ATOM     51  N   UNL A   1      45.038  29.497  30.146  1.00  0.00    -0.354 N 
ATOM     52  N   UNL A   1      44.562  26.792  29.114  1.00  0.00    -0.248 NA
ATOM     53  C   UNL A   1      45.371  24.697  28.466  1.00  0.00     0.031 C 
ATOM     54  C   UNL A   1      47.083  30.013  30.843  1.00  0.00     0.029 A 
ATOM     55  C   UNL A   1      46.322  28.999  30.285  1.00  0.00     0.049 A 
ATOM     56  H   UNL A   1      44.275  28.999  29.772  1.00  0.00     0.167 HD
ATOM     57  C   UNL A   1      45.925  26.725  29.381  1.00  0.00     0.074 A 
ATOM     58  C   UNL A   1      46.363  25.402  28.991  1.00  0.00     0.031 C 
ATOM     59  C   UNL A   1      46.741  27.676  29.899  1.00  0.00     0.037 A 
BRANCH  46  60
ATOM     60  C   UNL A   1      43.951  33.057  31.064  1.00  0.00     0.058 A 
ATOM     61  C   UNL A   1      44.227  34.100  30.167  1.00  0.00     0.135 A 
ATOM     62  C   UNL A   1      43.732  33.391  32.410  1.00  0.00     0.135 A 
ATOM     63  F   UNL A   1      44.462  33.834  28.872  1.00  0.00    -0.206 F 
ATOM     64  C   UNL A   1      44.290  35.424  30.588  1.00  0.00     0.059 A 
ATOM     65  C   UNL A   1      43.766  34.711  32.850  1.00  0.00     0.059 A 
ATOM     66  F   UNL A   1      43.468  32.431  33.310  1.00  0.00    -0.206 F 
ATOM     67  C   UNL A   1      44.052  35.720  31.932  1.00  0.00     0.060 A 
BRANCH  67  68
ATOM     68  S   UNL A   1      44.094  37.449  32.452  1.00  0.00     0.124 S 
ATOM     69  O   UNL A   1      45.469  37.576  32.923  1.00  0.00    -0.237 OA
ATOM     70  O   UNL A   1      43.779  38.155  31.215  1.00  0.00    -0.237 OA
ATOM     71  O   UNL A   1      43.068  37.517  33.488  1.00  0.00    -0.744 OA
ENDBRANCH  67  68
ENDBRANCH  46  60
BRANCH  47  72
ATOM     72  C   UNL A   1      42.741  23.770  27.575  1.00  0.00     0.058 A 
ATOM     73  C   UNL A   1      42.522  22.661  28.406  1.00  0.00     0.135 A 
ATOM     74  C   UNL A   1      42.829  23.545  26.193  1.00  0.00     0.135 A 
ATOM     75  F   UNL A   1      42.435  22.824  29.734  1.00  0.00    -0.206 F 
ATOM     76  C   UNL A   1      42.425  21.372  27.890  1.00  0.00     0.059 A 
ATOM     77  C   UNL A   1      42.709  22.269  25.651  1.00  0.00     0.059 A 
ATOM     78  F   UNL A   1      43.019  24.574  25.353  1.00  0.00    -0.206 F 
ATOM     79  C   UNL A   1      42.524  21.186  26.511  1.00  0.00     0.060 A 
BRANCH  79  80
ATOM     80  S   UNL A   1      42.377  19.513  25.847  1.00  0.00     0.124 S 
ATOM     81  O   UNL A   1      43.391  19.523  24.799  1.00  0.00    -0.237 OA
ATOM     82  O   UNL A   1      42.671  18.690  27.015  1.00  0.00    -0.237 OA
ATOM     83  O   UNL A   1      40.992  19.458  25.386  1.00  0.00    -0.744 OA
ENDBRANCH  79  80
ENDBRANCH  47  72
BRANCH  59  84
ATOM     84  C   UNL A   1      48.185  27.311  30.100  1.00  0.00     0.058 A 
ATOM     85  C   UNL A   1      49.178  27.716  29.194  1.00  0.00     0.135 A 
ATOM     86  C   UNL A   1      48.586  26.588  31.235  1.00  0.00     0.135 A 
ATOM     87  F   UNL A   1      48.845  28.402  28.089  1.00  0.00    -0.206 F 
ATOM     88  C   UNL A   1      50.516  27.398  29.395  1.00  0.00     0.059 A 
ATOM     89  C   UNL A   1      49.922  26.282  31.470  1.00  0.00     0.059 A 
ATOM     90  F   UNL A   1      47.676  26.187  32.137  1.00  0.00    -0.206 F 
ATOM     91  C   UNL A   1      50.879  26.681  30.537  1.00  0.00     0.060 A 
BRANCH  91  92
ATOM     92  S   UNL A   1      52.623  26.301  30.804  1.00  0.00     0.124 S 
ATOM     93  O   UNL A   1      52.541  25.191  31.747  1.00  0.00    -0.237 OA
ATOM     94  O   UNL A   1      53.079  25.960  29.460  1.00  0.00    -0.237 OA
ATOM     95  O   UNL A   1      53.164  27.545  31.344  1.00  0.00    -0.744 OA
ENDBRANCH  91  92
ENDBRANCH  59  84
ENDBRANCH  33  34
ENDBRANCH  25  28
ENDBRANCH  23  24
ENDBRANCH  22  23
ENDBRANCH   1  22
TORSDOF 17
ENDMDL
MODEL 2
REMARK VINA RESULT:     -11.8      5.355     10.927
REMARK SMILES C[C@H](C(=O)NCCCNC(=O)c1ccc(-c2c3nc(c(-c4c(F)cc(S(=O)(=O)[O-])cc4F)c4ccc([nH]4)c(-c4c(F)cc(S(=O)(=O)[O-])cc4F)c4nc(c(-c5c(F)cc(S(=O)(=O)[O-])cc5F)c5ccc2[nH]5)C=C4)C=C3)cc1)c1ccc(C[C@@H]2CCC[C@H]2O)cc1
REMARK SMILES IDX 6 1 5 2 3 3 4 4 2 6 1 7 78 8 79 9 90 10 80 11 89 12 81 13
REMARK SMILES IDX 82 14 83 15 84 16 87 17 85 18 86 19 88 20 7 22 8 23 9 24
REMARK SMILES IDX 10 25 11 27 12 28 13 29 77 30 14 31 76 32 15 33 16 34 17 35
REMARK SMILES IDX 70 36 18 37 75 38 69 39 71 40 19 41 74 42 68 43 67 44 20 46
REMARK SMILES IDX 54 47 33 48 53 49 34 50 37 51 52 52 72 53 35 54 36 55 51 57
REMARK SMILES IDX 73 58 38 59 21 60 22 61 31 62 23 63 24 64 30 65 32 66 25 67
REMARK SMILES IDX 26 68 27 69 28 70 29 71 55 72 56 73 65 74 57 75 58 76 64 77
REMARK SMILES IDX 66 78 59 79 60 80 61 81 62 82 63 83 39 84 40 85 49 86 41 87
REMARK SMILES IDX 42 88 48 89 50 90 43 91 44 92 45 93 46 94 47 95
REMARK H PARENT 5 5 88 21 9 26 71 45 37 56
REMARK Flexibility Score: inf
ROOT
ATOM      1  C   UNL A   1      37.741  23.542  26.037  1.00  0.00     0.117 C 
ENDROOT
BRANCH   1   2
ATOM      2  N   UNL A   1      36.415  23.201  26.517  1.00  0.00    -0.356 N 
ATOM      3  C   UNL A   1      35.184  23.532  26.031  1.00  0.00     0.227 C 
ATOM      4  O   UNL A   1      34.232  23.165  26.721  1.00  0.00    -0.274 OA
ATOM      5  H   UNL A   1      36.402  22.640  27.325  1.00  0.00     0.163 HD
BRANCH   3   6
ATOM      6  C   UNL A   1      35.068  24.361  24.740  1.00  0.00     0.105 C 
ATOM      7  C   UNL A   1      35.073  23.483  23.476  1.00  0.00     0.023 C 
BRANCH   6   8
ATOM      8  C   UNL A   1      33.891  25.333  24.634  1.00  0.00    -0.036 A 
ATOM      9  C   UNL A   1      32.882  25.048  23.698  1.00  0.00     0.005 A 
ATOM     10  C   UNL A   1      33.700  26.430  25.482  1.00  0.00     0.005 A 
ATOM     11  C   UNL A   1      31.734  25.837  23.612  1.00  0.00     0.004 A 
ATOM     12  C   UNL A   1      32.578  27.253  25.357  1.00  0.00     0.004 A 
ATOM     13  C   UNL A   1      31.588  26.972  24.413  1.00  0.00    -0.048 A 
BRANCH  13  14
ATOM     14  C   UNL A   1      30.396  27.883  24.270  1.00  0.00     0.041 C 
BRANCH  14  15
ATOM     15  C   UNL A   1      30.585  29.193  23.477  1.00  0.00     0.022 C 
ATOM     16  C   UNL A   1      30.010  30.440  24.160  1.00  0.00     0.007 C 
ATOM     17  C   UNL A   1      29.941  29.212  22.087  1.00  0.00     0.117 C 
ATOM     18  C   UNL A   1      28.676  30.750  23.480  1.00  0.00     0.003 C 
ATOM     19  C   UNL A   1      28.550  29.806  22.285  1.00  0.00     0.032 C 
BRANCH  17  20
ATOM     20  O   UNL A   1      30.702  30.069  21.232  1.00  0.00    -0.393 OA
ATOM     21  H   UNL A   1      30.617  30.987  21.534  1.00  0.00     0.210 HD
ENDBRANCH  17  20
ENDBRANCH  14  15
ENDBRANCH  13  14
ENDBRANCH   6   8
ENDBRANCH   3   6
ENDBRANCH   1   2
BRANCH   1  22
ATOM     22  C   UNL A   1      38.792  22.534  26.474  1.00  0.00     0.042 C 
BRANCH  22  23
ATOM     23  C   UNL A   1      40.059  23.142  27.061  1.00  0.00     0.118 C 
BRANCH  23  24
ATOM     24  N   UNL A   1      40.868  23.855  26.082  1.00  0.00    -0.352 N 
ATOM     25  C   UNL A   1      41.430  25.108  26.149  1.00  0.00     0.251 C 
ATOM     26  H   UNL A   1      41.037  23.365  25.245  1.00  0.00     0.163 HD
ATOM     27  O   UNL A   1      41.959  25.593  25.152  1.00  0.00    -0.269 OA
BRANCH  25  28
ATOM     28  C   UNL A   1      41.363  25.884  27.406  1.00  0.00     0.039 A 
ATOM     29  C   UNL A   1      42.467  26.648  27.788  1.00  0.00     0.014 A 
ATOM     30  C   UNL A   1      40.206  25.885  28.189  1.00  0.00     0.014 A 
ATOM     31  C   UNL A   1      42.375  27.489  28.899  1.00  0.00     0.010 A 
ATOM     32  C   UNL A   1      40.085  26.788  29.241  1.00  0.00     0.010 A 
ATOM     33  C   UNL A   1      41.164  27.610  29.601  1.00  0.00    -0.014 A 
BRANCH  33  34
ATOM     34  C   UNL A   1      40.994  28.613  30.685  1.00  0.00     0.031 A 
ATOM     35  C   UNL A   1      41.838  28.540  31.928  1.00  0.00     0.074 A 
ATOM     36  C   UNL A   1      40.018  29.539  30.582  1.00  0.00     0.049 A 
ATOM     37  N   UNL A   1      41.773  29.271  33.011  1.00  0.00    -0.248 NA
ATOM     38  C   UNL A   1      42.873  27.494  31.972  1.00  0.00     0.031 C 
ATOM     39  C   UNL A   1      39.090  29.673  29.454  1.00  0.00     0.029 A 
ATOM     40  N   UNL A   1      39.631  30.537  31.442  1.00  0.00    -0.354 N 
ATOM     41  C   UNL A   1      42.740  28.762  33.870  1.00  0.00     0.074 A 
ATOM     42  C   UNL A   1      43.350  27.634  33.201  1.00  0.00     0.031 C 
ATOM     43  C   UNL A   1      38.259  30.703  29.684  1.00  0.00     0.029 A 
ATOM     44  C   UNL A   1      38.564  31.277  30.990  1.00  0.00     0.049 A 
ATOM     45  H   UNL A   1      40.076  30.706  32.304  1.00  0.00     0.167 HD
ATOM     46  C   UNL A   1      43.101  29.210  35.097  1.00  0.00     0.037 A 
ATOM     47  C   UNL A   1      37.896  32.296  31.565  1.00  0.00     0.037 A 
ATOM     48  C   UNL A   1      42.519  30.359  35.740  1.00  0.00     0.049 A 
ATOM     49  C   UNL A   1      38.328  32.780  32.923  1.00  0.00     0.074 A 
ATOM     50  C   UNL A   1      42.878  30.941  36.944  1.00  0.00     0.029 A 
ATOM     51  N   UNL A   1      41.462  31.101  35.236  1.00  0.00    -0.354 N 
ATOM     52  N   UNL A   1      39.300  32.336  33.685  1.00  0.00    -0.248 NA
ATOM     53  C   UNL A   1      37.578  33.906  33.499  1.00  0.00     0.031 C 
ATOM     54  C   UNL A   1      42.008  32.009  37.189  1.00  0.00     0.029 A 
ATOM     55  C   UNL A   1      41.139  32.120  36.116  1.00  0.00     0.049 A 
ATOM     56  H   UNL A   1      41.008  30.928  34.379  1.00  0.00     0.167 HD
ATOM     57  C   UNL A   1      39.290  33.141  34.819  1.00  0.00     0.074 A 
ATOM     58  C   UNL A   1      38.230  34.110  34.635  1.00  0.00     0.031 C 
ATOM     59  C   UNL A   1      40.085  33.082  35.915  1.00  0.00     0.037 A 
BRANCH  46  60
ATOM     60  C   UNL A   1      44.189  28.472  35.826  1.00  0.00     0.058 A 
ATOM     61  C   UNL A   1      45.540  28.822  35.677  1.00  0.00     0.135 A 
ATOM     62  C   UNL A   1      43.872  27.456  36.741  1.00  0.00     0.135 A 
ATOM     63  F   UNL A   1      45.900  29.774  34.802  1.00  0.00    -0.206 F 
ATOM     64  C   UNL A   1      46.540  28.184  36.404  1.00  0.00     0.059 A 
ATOM     65  C   UNL A   1      44.853  26.821  37.497  1.00  0.00     0.059 A 
ATOM     66  F   UNL A   1      42.595  27.081  36.918  1.00  0.00    -0.206 F 
ATOM     67  C   UNL A   1      46.186  27.188  37.316  1.00  0.00     0.060 A 
BRANCH  67  68
ATOM     68  S   UNL A   1      47.493  26.402  38.282  1.00  0.00     0.124 S 
ATOM     69  O   UNL A   1      48.378  27.533  38.547  1.00  0.00    -0.237 OA
ATOM     70  O   UNL A   1      46.762  25.886  39.434  1.00  0.00    -0.237 OA
ATOM     71  O   UNL A   1      48.025  25.390  37.375  1.00  0.00    -0.744 OA
ENDBRANCH  67  68
ENDBRANCH  46  60
BRANCH  47  72
ATOM     72  C   UNL A   1      36.749  32.934  30.865  1.00  0.00     0.058 A 
ATOM     73  C   UNL A   1      36.955  33.793  29.775  1.00  0.00     0.135 A 
ATOM     74  C   UNL A   1      35.427  32.713  31.282  1.00  0.00     0.135 A 
ATOM     75  F   UNL A   1      38.201  34.040  29.343  1.00  0.00    -0.206 F 
ATOM     76  C   UNL A   1      35.896  34.435  29.141  1.00  0.00     0.059 A 
ATOM     77  C   UNL A   1      34.349  33.322  30.647  1.00  0.00     0.059 A 
ATOM     78  F   UNL A   1      35.173  31.885  32.307  1.00  0.00    -0.206 F 
ATOM     79  C   UNL A   1      34.596  34.195  29.588  1.00  0.00     0.060 A 
BRANCH  79  80
ATOM     80  S   UNL A   1      33.224  35.014  28.746  1.00  0.00     0.124 S 
ATOM     81  O   UNL A   1      32.767  33.966  27.841  1.00  0.00    -0.237 OA
ATOM     82  O   UNL A   1      32.330  35.338  29.854  1.00  0.00    -0.237 OA
ATOM     83  O   UNL A   1      33.861  36.165  28.112  1.00  0.00    -0.744 OA
ENDBRANCH  79  80
ENDBRANCH  47  72
BRANCH  59  84
ATOM     84  C   UNL A   1      39.858  34.107  36.989  1.00  0.00     0.058 A 
ATOM     85  C   UNL A   1      39.133  33.804  38.153  1.00  0.00     0.135 A 
ATOM     86  C   UNL A   1      40.410  35.393  36.875  1.00  0.00     0.135 A 
ATOM     87  F   UNL A   1      38.579  32.591  38.306  1.00  0.00    -0.206 F 
ATOM     88  C   UNL A   1      38.945  34.748  39.156  1.00  0.00     0.059 A 
ATOM     89  C   UNL A   1      40.258  36.344  37.879  1.00  0.00     0.059 A 
ATOM     90  F   UNL A   1      41.120  35.729  35.786  1.00  0.00    -0.206 F 
ATOM     91  C   UNL A   1      39.512  36.015  39.010  1.00  0.00     0.060 A 
BRANCH  91  92
ATOM     92  S   UNL A   1      39.288  37.222  40.334  1.00  0.00     0.124 S 
ATOM     93  O   UNL A   1      38.538  38.271  39.651  1.00  0.00    -0.237 OA
ATOM     94  O   UNL A   1      38.546  36.459  41.332  1.00  0.00    -0.237 OA
ATOM     95  O   UNL A   1      40.654  37.571  40.711  1.00  0.00    -0.744 OA
ENDBRANCH  91  92
ENDBRANCH  59  84
ENDBRANCH  33  34
ENDBRANCH  25  28
ENDBRANCH  23  24
ENDBRANCH  22  23
ENDBRANCH   1  22
TORSDOF 17
ENDMDL
MODEL 3
REMARK VINA RESULT:     -11.8      2.667      3.586
REMARK SMILES C[C@H](C(=O)NCCCNC(=O)c1ccc(-c2c3nc(c(-c4c(F)cc(S(=O)(=O)[O-])cc4F)c4ccc([nH]4)c(-c4c(F)cc(S(=O)(=O)[O-])cc4F)c4nc(c(-c5c(F)cc(S(=O)(=O)[O-])cc5F)c5ccc2[nH]5)C=C4)C=C3)cc1)c1ccc(C[C@@H]2CCC[C@H]2O)cc1
REMARK SMILES IDX 6 1 5 2 3 3 4 4 2 6 1 7 78 8 79 9 90 10 80 11 89 12 81 13
REMARK SMILES IDX 82 14 83 15 84 16 87 17 85 18 86 19 88 20 7 22 8 23 9 24
REMARK SMILES IDX 10 25 11 27 12 28 13 29 77 30 14 31 76 32 15 33 16 34 17 35
REMARK SMILES IDX 70 36 18 37 75 38 69 39 71 40 19 41 74 42 68 43 67 44 20 46
REMARK SMILES IDX 54 47 33 48 53 49 34 50 37 51 52 52 72 53 35 54 36 55 51 57
REMARK SMILES IDX 73 58 38 59 21 60 22 61 31 62 23 63 24 64 30 65 32 66 25 67
REMARK SMILES IDX 26 68 27 69 28 70 29 71 55 72 56 73 65 74 57 75 58 76 64 77
REMARK SMILES IDX 66 78 59 79 60 80 61 81 62 82 63 83 39 84 40 85 49 86 41 87
REMARK SMILES IDX 42 88 48 89 50 90 43 91 44 92 45 93 46 94 47 95
REMARK H PARENT 5 5 88 21 9 26 71 45 37 56
REMARK Flexibility Score: inf
ROOT
ATOM      1  C   UNL A   1      34.339  29.361  26.851  1.00  0.00     0.117 C 
ENDROOT
BRANCH   1   2
ATOM      2  N   UNL A   1      34.004  29.392  25.440  1.00  0.00    -0.356 N 
ATOM      3  C   UNL A   1      33.094  28.666  24.728  1.00  0.00     0.227 C 
ATOM      4  O   UNL A   1      33.108  28.856  23.512  1.00  0.00    -0.274 OA
ATOM      5  H   UNL A   1      34.518  30.043  24.910  1.00  0.00     0.163 HD
BRANCH   3   6
ATOM      6  C   UNL A   1      32.190  27.653  25.451  1.00  0.00     0.105 C 
ATOM      7  C   UNL A   1      30.857  27.425  24.714  1.00  0.00     0.023 C 
BRANCH   6   8
ATOM      8  C   UNL A   1      32.789  26.283  25.774  1.00  0.00    -0.036 A 
ATOM      9  C   UNL A   1      31.946  25.308  26.334  1.00  0.00     0.005 A 
ATOM     10  C   UNL A   1      34.098  25.903  25.452  1.00  0.00     0.005 A 
ATOM     11  C   UNL A   1      32.399  24.009  26.567  1.00  0.00     0.004 A 
ATOM     12  C   UNL A   1      34.568  24.619  25.738  1.00  0.00     0.004 A 
ATOM     13  C   UNL A   1      33.727  23.661  26.310  1.00  0.00    -0.048 A 
BRANCH  13  14
ATOM     14  C   UNL A   1      34.254  22.289  26.638  1.00  0.00     0.041 C 
BRANCH  14  15
ATOM     15  C   UNL A   1      34.435  21.291  25.474  1.00  0.00     0.022 C 
ATOM     16  C   UNL A   1      34.109  21.862  24.089  1.00  0.00     0.007 C 
ATOM     17  C   UNL A   1      33.571  20.028  25.559  1.00  0.00     0.117 C 
ATOM     18  C   UNL A   1      32.716  21.355  23.711  1.00  0.00     0.003 C 
ATOM     19  C   UNL A   1      32.299  20.346  24.780  1.00  0.00     0.032 C 
BRANCH  17  20
ATOM     20  O   UNL A   1      34.259  18.950  24.919  1.00  0.00    -0.393 OA
ATOM     21  H   UNL A   1      33.978  18.891  23.992  1.00  0.00     0.210 HD
ENDBRANCH  17  20
ENDBRANCH  14  15
ENDBRANCH  13  14
ENDBRANCH   6   8
ENDBRANCH   3   6
ENDBRANCH   1   2
BRANCH   1  22
ATOM     22  C   UNL A   1      34.288  30.741  27.488  1.00  0.00     0.042 C 
BRANCH  22  23
ATOM     23  C   UNL A   1      35.541  31.136  28.261  1.00  0.00     0.118 C 
BRANCH  23  24
ATOM     24  N   UNL A   1      35.430  30.915  29.696  1.00  0.00    -0.352 N 
ATOM     25  C   UNL A   1      36.382  30.504  30.600  1.00  0.00     0.251 C 
ATOM     26  H   UNL A   1      34.538  31.084  30.077  1.00  0.00     0.163 HD
ATOM     27  O   UNL A   1      36.052  30.233  31.751  1.00  0.00    -0.269 OA
BRANCH  25  28
ATOM     28  C   UNL A   1      37.790  30.352  30.175  1.00  0.00     0.039 A 
ATOM     29  C   UNL A   1      38.784  30.260  31.151  1.00  0.00     0.014 A 
ATOM     30  C   UNL A   1      38.128  30.269  28.822  1.00  0.00     0.014 A 
ATOM     31  C   UNL A   1      40.100  29.984  30.774  1.00  0.00     0.010 A 
ATOM     32  C   UNL A   1      39.420  29.907  28.454  1.00  0.00     0.010 A 
ATOM     33  C   UNL A   1      40.418  29.748  29.426  1.00  0.00    -0.014 A 
BRANCH  33  34
ATOM     34  C   UNL A   1      41.776  29.297  29.019  1.00  0.00     0.031 A 
ATOM     35  C   UNL A   1      42.910  30.282  28.936  1.00  0.00     0.074 A 
ATOM     36  C   UNL A   1      41.962  28.015  28.644  1.00  0.00     0.049 A 
ATOM     37  N   UNL A   1      44.135  30.092  28.518  1.00  0.00    -0.248 NA
ATOM     38  C   UNL A   1      42.626  31.666  29.348  1.00  0.00     0.031 C 
ATOM     39  C   UNL A   1      40.925  26.978  28.620  1.00  0.00     0.029 A 
ATOM     40  N   UNL A   1      43.085  27.364  28.196  1.00  0.00    -0.354 N 
ATOM     41  C   UNL A   1      44.760  31.331  28.599  1.00  0.00     0.074 A 
ATOM     42  C   UNL A   1      43.769  32.275  29.064  1.00  0.00     0.031 C 
ATOM     43  C   UNL A   1      41.464  25.822  28.201  1.00  0.00     0.029 A 
ATOM     44  C   UNL A   1      42.872  26.040  27.887  1.00  0.00     0.049 A 
ATOM     45  H   UNL A   1      43.961  27.803  28.105  1.00  0.00     0.167 HD
ATOM     46  C   UNL A   1      46.050  31.646  28.330  1.00  0.00     0.037 A 
ATOM     47  C   UNL A   1      43.711  25.109  27.394  1.00  0.00     0.037 A 
ATOM     48  C   UNL A   1      47.043  30.694  27.908  1.00  0.00     0.049 A 
ATOM     49  C   UNL A   1      45.142  25.485  27.117  1.00  0.00     0.074 A 
ATOM     50  C   UNL A   1      48.395  30.902  27.694  1.00  0.00     0.029 A 
ATOM     51  N   UNL A   1      46.796  29.357  27.635  1.00  0.00    -0.354 N 
ATOM     52  N   UNL A   1      45.734  26.645  27.278  1.00  0.00    -0.248 NA
ATOM     53  C   UNL A   1      46.021  24.428  26.597  1.00  0.00     0.031 C 
ATOM     54  C   UNL A   1      48.957  29.700  27.250  1.00  0.00     0.029 A 
ATOM     55  C   UNL A   1      47.965  28.734  27.232  1.00  0.00     0.049 A 
ATOM     56  H   UNL A   1      45.919  28.916  27.716  1.00  0.00     0.167 HD
ATOM     57  C   UNL A   1      47.058  26.451  26.898  1.00  0.00     0.074 A 
ATOM     58  C   UNL A   1      47.184  25.060  26.519  1.00  0.00     0.031 C 
ATOM     59  C   UNL A   1      48.075  27.345  26.865  1.00  0.00     0.037 A 
BRANCH  46  60
ATOM     60  C   UNL A   1      46.477  33.077  28.501  1.00  0.00     0.058 A 
ATOM     61  C   UNL A   1      46.402  33.997  27.443  1.00  0.00     0.135 A 
ATOM     62  C   UNL A   1      46.891  33.554  29.754  1.00  0.00     0.135 A 
ATOM     63  F   UNL A   1      46.030  33.590  26.218  1.00  0.00    -0.206 F 
ATOM     64  C   UNL A   1      46.733  35.336  27.619  1.00  0.00     0.059 A 
ATOM     65  C   UNL A   1      47.202  34.894  29.960  1.00  0.00     0.059 A 
ATOM     66  F   UNL A   1      46.982  32.716  30.799  1.00  0.00    -0.206 F 
ATOM     67  C   UNL A   1      47.126  35.777  28.884  1.00  0.00     0.060 A 
BRANCH  67  68
ATOM     68  S   UNL A   1      47.508  37.528  29.104  1.00  0.00     0.124 S 
ATOM     69  O   UNL A   1      47.818  37.932  27.736  1.00  0.00    -0.237 OA
ATOM     70  O   UNL A   1      46.263  38.052  29.653  1.00  0.00    -0.237 OA
ATOM     71  O   UNL A   1      48.641  37.515  30.025  1.00  0.00    -0.744 OA
ENDBRANCH  67  68
ENDBRANCH  46  60
BRANCH  47  72
ATOM     72  C   UNL A   1      43.229  23.726  27.130  1.00  0.00     0.058 A 
ATOM     73  C   UNL A   1      43.103  22.794  28.171  1.00  0.00     0.135 A 
ATOM     74  C   UNL A   1      42.904  23.304  25.832  1.00  0.00     0.135 A 
ATOM     75  F   UNL A   1      43.407  23.148  29.428  1.00  0.00    -0.206 F 
ATOM     76  C   UNL A   1      42.699  21.484  27.932  1.00  0.00     0.059 A 
ATOM     77  C   UNL A   1      42.473  22.007  25.571  1.00  0.00     0.059 A 
ATOM     78  F   UNL A   1      42.990  24.161  24.803  1.00  0.00    -0.206 F 
ATOM     79  C   UNL A   1      42.390  21.099  26.626  1.00  0.00     0.060 A 
BRANCH  79  80
ATOM     80  S   UNL A   1      41.847  19.403  26.327  1.00  0.00     0.124 S 
ATOM     81  O   UNL A   1      40.401  19.571  26.232  1.00  0.00    -0.237 OA
ATOM     82  O   UNL A   1      42.535  19.073  25.083  1.00  0.00    -0.237 OA
ATOM     83  O   UNL A   1      42.325  18.687  27.506  1.00  0.00    -0.744 OA
ENDBRANCH  79  80
ENDBRANCH  47  72
BRANCH  59  84
ATOM     84  C   UNL A   1      49.422  26.841  26.427  1.00  0.00     0.058 A 
ATOM     85  C   UNL A   1      50.282  26.175  27.314  1.00  0.00     0.135 A 
ATOM     86  C   UNL A   1      49.837  26.985  25.093  1.00  0.00     0.135 A 
ATOM     87  F   UNL A   1      49.934  26.019  28.601  1.00  0.00    -0.206 F 
ATOM     88  C   UNL A   1      51.517  25.690  26.900  1.00  0.00     0.059 A 
ATOM     89  C   UNL A   1      51.056  26.483  24.650  1.00  0.00     0.059 A 
ATOM     90  F   UNL A   1      49.047  27.606  24.202  1.00  0.00    -0.206 F 
ATOM     91  C   UNL A   1      51.895  25.847  25.565  1.00  0.00     0.060 A 
BRANCH  91  92
ATOM     92  S   UNL A   1      53.487  25.184  25.032  1.00  0.00     0.124 S 
ATOM     93  O   UNL A   1      53.532  25.614  23.638  1.00  0.00    -0.237 OA
ATOM     94  O   UNL A   1      54.422  25.851  25.931  1.00  0.00    -0.237 OA
ATOM     95  O   UNL A   1      53.344  23.747  25.241  1.00  0.00    -0.744 OA
ENDBRANCH  91  92
ENDBRANCH  59  84
ENDBRANCH  33  34
ENDBRANCH  25  28
ENDBRANCH  23  24
ENDBRANCH  22  23
ENDBRANCH   1  22
TORSDOF 17
ENDMDL
