MODEL 1
REMARK VINA RESULT:     -13.0      0.000      0.000
REMARK SMILES Cc1ccc(C)c(-n2nc(C)c(/C=C(/C#N)C(=O)NCCCNC(=O)c3ccc(-c4c5nc(c(-c6c(F)cc(S(=O)(=O)[O-])cc6F)c6ccc([nH]6)c(-c6c(F)cc(S(=O)(=O)[O-])cc6F)c6nc(c(-c7c(F)cc(S(=O)(=O)[O-])cc7F)c7ccc4[nH]7)C=C6)C=C5)cc3)c2Cl)c1
REMARK SMILES IDX 21 1 20 2 19 3 17 4 18 5 14 7 13 8 12 9 8 10 9 11 92 12
REMARK SMILES IDX 10 13 93 14 11 15 7 16 1 17 2 18 3 19 94 20 4 21 5 22 6 23
REMARK SMILES IDX 15 24 16 25 22 26 23 27 24 28 25 30 26 31 27 32 91 33 28 34
REMARK SMILES IDX 90 35 29 36 30 37 31 38 84 39 32 40 89 41 83 42 85 43 33 44
REMARK SMILES IDX 88 45 82 46 81 47 34 49 68 50 47 51 67 52 48 53 51 54 66 55
REMARK SMILES IDX 86 56 49 57 50 58 65 60 87 61 52 62 35 63 36 64 45 65 37 66
REMARK SMILES IDX 38 67 44 68 46 69 39 70 40 71 41 72 42 73 43 74 69 75 70 76
REMARK SMILES IDX 79 77 71 78 72 79 78 80 80 81 73 82 74 83 75 84 76 85 77 86
REMARK SMILES IDX 53 87 54 88 63 89 55 90 56 91 62 92 64 93 57 94 58 95 59 96
REMARK SMILES IDX 60 97 61 98
REMARK H PARENT 19 6 23 29 85 48 51 59
REMARK Flexibility Score: inf
ROOT
ATOM      1  C   UNL A   1      32.204  30.415  26.980  1.00  0.00     0.042 C 
ENDROOT
BRANCH   1   2
ATOM      2  C   UNL A   1      31.714  30.111  25.545  1.00  0.00     0.118 C 
BRANCH   2   3
ATOM      3  N   UNL A   1      32.813  29.776  24.621  1.00  0.00    -0.351 N 
ATOM      4  C   UNL A   1      32.957  28.865  23.601  1.00  0.00     0.261 C 
ATOM      5  O   UNL A   1      34.090  28.681  23.167  1.00  0.00    -0.268 OA
ATOM      6  H   UNL A   1      33.617  30.324  24.764  1.00  0.00     0.163 HD
BRANCH   4   7
ATOM      7  C   UNL A   1      31.799  28.068  23.079  1.00  0.00     0.117 C 
ATOM      8  C   UNL A   1      31.496  26.800  23.395  1.00  0.00     0.038 C 
BRANCH   8   9
ATOM      9  C   UNL A   1      32.169  25.860  24.257  1.00  0.00     0.036 A 
ATOM     10  N   UNL A   1      33.263  23.997  24.847  1.00  0.00    -0.221 N 
ATOM     11  N   UNL A   1      33.045  24.654  26.005  1.00  0.00    -0.171 NA
ATOM     12  C   UNL A   1      32.799  24.729  23.777  1.00  0.00     0.140 A 
ATOM     13  C   UNL A   1      32.400  25.779  25.666  1.00  0.00     0.069 A 
ATOM     14  Cl  UNL A   1      32.922  24.123  22.177  1.00  0.00    -0.061 Cl
ATOM     15  C   UNL A   1      32.078  26.702  26.787  1.00  0.00     0.069 C 
BRANCH  10  16
ATOM     16  C   UNL A   1      34.060  22.828  24.857  1.00  0.00     0.069 A 
ATOM     17  C   UNL A   1      37.783  22.022  25.041  1.00  0.00     0.044 C 
ATOM     18  C   UNL A   1      36.295  21.865  24.962  1.00  0.00    -0.049 A 
ATOM     19  C   UNL A   1      35.722  20.590  24.970  1.00  0.00     0.004 A 
ATOM     20  C   UNL A   1      35.457  22.983  24.892  1.00  0.00     0.032 A 
ATOM     21  C   UNL A   1      34.334  20.435  24.940  1.00  0.00     0.006 A 
ATOM     22  C   UNL A   1      33.478  21.549  24.894  1.00  0.00    -0.025 A 
ATOM     23  C   UNL A   1      31.998  21.275  24.833  1.00  0.00     0.047 C 
ENDBRANCH  10  16
ENDBRANCH   8   9
BRANCH   7  24
ATOM     24  C   UNL A   1      30.901  28.978  22.255  1.00  0.00     0.105 C 
ATOM     25  N   UNL A   1      30.156  29.732  21.572  1.00  0.00    -0.192 NA
ENDBRANCH   7  24
ENDBRANCH   4   7
ENDBRANCH   2   3
ENDBRANCH   1   2
BRANCH   1  26
ATOM     26  C   UNL A   1      33.678  30.775  27.191  1.00  0.00     0.118 C 
BRANCH  26  27
ATOM     27  N   UNL A   1      33.889  31.698  28.313  1.00  0.00    -0.352 N 
ATOM     28  C   UNL A   1      34.859  31.820  29.302  1.00  0.00     0.251 C 
ATOM     29  H   UNL A   1      33.187  32.384  28.381  1.00  0.00     0.163 HD
ATOM     30  O   UNL A   1      34.640  32.544  30.256  1.00  0.00    -0.269 OA
BRANCH  28  31
ATOM     31  C   UNL A   1      36.144  31.081  29.216  1.00  0.00     0.039 A 
ATOM     32  C   UNL A   1      36.247  29.730  28.869  1.00  0.00     0.014 A 
ATOM     33  C   UNL A   1      37.303  31.762  29.497  1.00  0.00     0.014 A 
ATOM     34  C   UNL A   1      37.511  29.127  28.913  1.00  0.00     0.010 A 
ATOM     35  C   UNL A   1      38.494  31.306  29.049  1.00  0.00     0.010 A 
ATOM     36  C   UNL A   1      38.634  29.944  29.065  1.00  0.00    -0.014 A 
BRANCH  36  37
ATOM     37  C   UNL A   1      40.004  29.489  29.217  1.00  0.00     0.031 A 
ATOM     38  C   UNL A   1      40.390  29.250  30.618  1.00  0.00     0.074 A 
ATOM     39  C   UNL A   1      40.715  28.931  28.208  1.00  0.00     0.049 A 
ATOM     40  N   UNL A   1      41.136  29.991  31.363  1.00  0.00    -0.248 NA
ATOM     41  C   UNL A   1      39.709  28.160  31.336  1.00  0.00     0.031 C 
ATOM     42  C   UNL A   1      40.292  28.633  26.832  1.00  0.00     0.029 A 
ATOM     43  N   UNL A   1      41.958  28.379  28.256  1.00  0.00    -0.354 N 
ATOM     44  C   UNL A   1      41.215  29.313  32.572  1.00  0.00     0.074 A 
ATOM     45  C   UNL A   1      40.113  28.390  32.586  1.00  0.00     0.031 C 
ATOM     46  C   UNL A   1      41.176  27.779  26.265  1.00  0.00     0.029 A 
ATOM     47  C   UNL A   1      42.284  27.562  27.180  1.00  0.00     0.049 A 
ATOM     48  H   UNL A   1      42.582  28.548  28.999  1.00  0.00     0.167 HD
ATOM     49  C   UNL A   1      42.344  29.340  33.332  1.00  0.00     0.037 A 
ATOM     50  C   UNL A   1      43.350  26.721  27.101  1.00  0.00     0.037 A 
ATOM     51  C   UNL A   1      43.282  30.325  32.847  1.00  0.00     0.049 A 
ATOM     52  C   UNL A   1      44.323  27.164  28.145  1.00  0.00     0.074 A 
ATOM     53  C   UNL A   1      43.197  31.676  32.556  1.00  0.00     0.029 A 
ATOM     54  N   UNL A   1      44.399  29.875  32.177  1.00  0.00    -0.354 N 
ATOM     55  N   UNL A   1      44.958  28.306  28.123  1.00  0.00    -0.248 NA
ATOM     56  C   UNL A   1      44.234  26.537  29.458  1.00  0.00     0.031 C 
ATOM     57  C   UNL A   1      43.934  31.837  31.345  1.00  0.00     0.029 A 
ATOM     58  C   UNL A   1      44.489  30.600  31.014  1.00  0.00     0.049 A 
ATOM     59  H   UNL A   1      45.015  29.169  32.477  1.00  0.00     0.167 HD
ATOM     60  C   UNL A   1      44.970  28.740  29.442  1.00  0.00     0.074 A 
ATOM     61  C   UNL A   1      44.593  27.568  30.229  1.00  0.00     0.031 C 
ATOM     62  C   UNL A   1      44.990  30.070  29.762  1.00  0.00     0.037 A 
BRANCH  49  63
ATOM     63  C   UNL A   1      42.749  28.242  34.283  1.00  0.00     0.058 A 
ATOM     64  C   UNL A   1      42.900  28.545  35.649  1.00  0.00     0.135 A 
ATOM     65  C   UNL A   1      43.216  26.968  33.884  1.00  0.00     0.135 A 
ATOM     66  F   UNL A   1      42.510  29.735  36.131  1.00  0.00    -0.206 F 
ATOM     67  C   UNL A   1      43.520  27.670  36.541  1.00  0.00     0.059 A 
ATOM     68  C   UNL A   1      43.772  26.054  34.768  1.00  0.00     0.059 A 
ATOM     69  F   UNL A   1      43.256  26.585  32.602  1.00  0.00    -0.206 F 
ATOM     70  C   UNL A   1      43.962  26.431  36.086  1.00  0.00     0.060 A 
BRANCH  70  71
ATOM     71  S   UNL A   1      44.857  25.343  37.205  1.00  0.00     0.124 S 
ATOM     72  O   UNL A   1      44.264  25.702  38.488  1.00  0.00    -0.237 OA
ATOM     73  O   UNL A   1      44.513  24.023  36.687  1.00  0.00    -0.237 OA
ATOM     74  O   UNL A   1      46.249  25.741  37.016  1.00  0.00    -0.744 OA
ENDBRANCH  70  71
ENDBRANCH  49  63
BRANCH  50  75
ATOM     75  C   UNL A   1      43.435  25.388  26.432  1.00  0.00     0.058 A 
ATOM     76  C   UNL A   1      44.299  25.172  25.342  1.00  0.00     0.135 A 
ATOM     77  C   UNL A   1      42.878  24.226  27.007  1.00  0.00     0.135 A 
ATOM     78  F   UNL A   1      44.896  26.212  24.738  1.00  0.00    -0.206 F 
ATOM     79  C   UNL A   1      44.633  23.888  24.888  1.00  0.00     0.059 A 
ATOM     80  C   UNL A   1      43.180  22.938  26.561  1.00  0.00     0.059 A 
ATOM     81  F   UNL A   1      42.095  24.296  28.093  1.00  0.00    -0.206 F 
ATOM     82  C   UNL A   1      44.085  22.774  25.521  1.00  0.00     0.060 A 
BRANCH  82  83
ATOM     83  S   UNL A   1      44.663  21.118  25.073  1.00  0.00     0.124 S 
ATOM     84  O   UNL A   1      43.671  20.260  25.712  1.00  0.00    -0.237 OA
ATOM     85  O   UNL A   1      44.624  21.160  23.616  1.00  0.00    -0.237 OA
ATOM     86  O   UNL A   1      46.003  21.055  25.654  1.00  0.00    -0.744 OA
ENDBRANCH  82  83
ENDBRANCH  50  75
BRANCH  62  87
ATOM     87  C   UNL A   1      45.309  31.080  28.684  1.00  0.00     0.058 A 
ATOM     88  C   UNL A   1      44.415  31.485  27.676  1.00  0.00     0.135 A 
ATOM     89  C   UNL A   1      46.517  31.792  28.780  1.00  0.00     0.135 A 
ATOM     90  F   UNL A   1      43.193  30.945  27.578  1.00  0.00    -0.206 F 
ATOM     91  C   UNL A   1      44.723  32.513  26.784  1.00  0.00     0.059 A 
ATOM     92  C   UNL A   1      46.831  32.845  27.924  1.00  0.00     0.059 A 
ATOM     93  F   UNL A   1      47.392  31.503  29.758  1.00  0.00    -0.206 F 
ATOM     94  C   UNL A   1      45.934  33.191  26.917  1.00  0.00     0.060 A 
BRANCH  94  95
ATOM     95  S   UNL A   1      46.291  34.576  25.813  1.00  0.00     0.124 S 
ATOM     96  O   UNL A   1      46.104  35.724  26.692  1.00  0.00    -0.237 OA
ATOM     97  O   UNL A   1      47.667  34.310  25.402  1.00  0.00    -0.237 OA
ATOM     98  O   UNL A   1      45.296  34.431  24.752  1.00  0.00    -0.744 OA
ENDBRANCH  94  95
ENDBRANCH  62  87
ENDBRANCH  36  37
ENDBRANCH  28  31
ENDBRANCH  26  27
ENDBRANCH   1  26
TORSDOF 16
ENDMDL
MODEL 2
REMARK VINA RESULT:     -13.0      2.839      9.563
REMARK SMILES Cc1ccc(C)c(-n2nc(C)c(/C=C(/C#N)C(=O)NCCCNC(=O)c3ccc(-c4c5nc(c(-c6c(F)cc(S(=O)(=O)[O-])cc6F)c6ccc([nH]6)c(-c6c(F)cc(S(=O)(=O)[O-])cc6F)c6nc(c(-c7c(F)cc(S(=O)(=O)[O-])cc7F)c7ccc4[nH]7)C=C6)C=C5)cc3)c2Cl)c1
REMARK SMILES IDX 21 1 20 2 19 3 17 4 18 5 14 7 13 8 12 9 8 10 9 11 92 12
REMARK SMILES IDX 10 13 93 14 11 15 7 16 1 17 2 18 3 19 94 20 4 21 5 22 6 23
REMARK SMILES IDX 15 24 16 25 22 26 23 27 24 28 25 30 26 31 27 32 91 33 28 34
REMARK SMILES IDX 90 35 29 36 30 37 31 38 84 39 32 40 89 41 83 42 85 43 33 44
REMARK SMILES IDX 88 45 82 46 81 47 34 49 68 50 47 51 67 52 48 53 51 54 66 55
REMARK SMILES IDX 86 56 49 57 50 58 65 60 87 61 52 62 35 63 36 64 45 65 37 66
REMARK SMILES IDX 38 67 44 68 46 69 39 70 40 71 41 72 42 73 43 74 69 75 70 76
REMARK SMILES IDX 79 77 71 78 72 79 78 80 80 81 73 82 74 83 75 84 76 85 77 86
REMARK SMILES IDX 53 87 54 88 63 89 55 90 56 91 62 92 64 93 57 94 58 95 59 96
REMARK SMILES IDX 60 97 61 98
REMARK H PARENT 19 6 23 29 85 48 51 59
REMARK Flexibility Score: inf
ROOT
ATOM      1  C   UNL A   1      37.724  21.112  25.086  1.00  0.00     0.042 C 
ENDROOT
BRANCH   1   2
ATOM      2  C   UNL A   1      36.229  21.488  24.956  1.00  0.00     0.118 C 
BRANCH   2   3
ATOM      3  N   UNL A   1      35.523  21.492  26.249  1.00  0.00    -0.351 N 
ATOM      4  C   UNL A   1      34.203  21.368  26.616  1.00  0.00     0.261 C 
ATOM      5  O   UNL A   1      33.913  21.641  27.776  1.00  0.00    -0.268 OA
ATOM      6  H   UNL A   1      36.126  21.608  27.018  1.00  0.00     0.163 HD
BRANCH   4   7
ATOM      7  C   UNL A   1      33.138  20.985  25.631  1.00  0.00     0.117 C 
ATOM      8  C   UNL A   1      32.578  21.785  24.711  1.00  0.00     0.038 C 
BRANCH   8   9
ATOM      9  C   UNL A   1      32.791  23.182  24.426  1.00  0.00     0.036 A 
ATOM     10  N   UNL A   1      32.674  25.400  24.707  1.00  0.00    -0.221 N 
ATOM     11  N   UNL A   1      33.282  25.232  23.513  1.00  0.00    -0.171 NA
ATOM     12  C   UNL A   1      32.423  24.184  25.302  1.00  0.00     0.140 A 
ATOM     13  C   UNL A   1      33.369  23.907  23.337  1.00  0.00     0.069 A 
ATOM     14  Cl  UNL A   1      31.633  24.095  26.821  1.00  0.00    -0.061 Cl
ATOM     15  C   UNL A   1      34.047  23.465  22.089  1.00  0.00     0.069 C 
BRANCH  10  16
ATOM     16  C   UNL A   1      32.565  26.704  25.247  1.00  0.00     0.069 A 
ATOM     17  C   UNL A   1      34.797  29.062  27.248  1.00  0.00     0.044 C 
ATOM     18  C   UNL A   1      33.626  28.507  26.495  1.00  0.00    -0.049 A 
ATOM     19  C   UNL A   1      32.492  29.294  26.280  1.00  0.00     0.004 A 
ATOM     20  C   UNL A   1      33.653  27.205  25.986  1.00  0.00     0.032 A 
ATOM     21  C   UNL A   1      31.414  28.800  25.543  1.00  0.00     0.006 A 
ATOM     22  C   UNL A   1      31.434  27.502  25.004  1.00  0.00    -0.025 A 
ATOM     23  C   UNL A   1      30.210  27.052  24.251  1.00  0.00     0.047 C 
ENDBRANCH  10  16
ENDBRANCH   8   9
BRANCH   7  24
ATOM     24  C   UNL A   1      32.904  19.484  25.711  1.00  0.00     0.105 C 
ATOM     25  N   UNL A   1      32.709  18.241  25.779  1.00  0.00    -0.192 NA
ENDBRANCH   7  24
ENDBRANCH   4   7
ENDBRANCH   2   3
ENDBRANCH   1   2
BRANCH   1  26
ATOM     26  C   UNL A   1      38.588  21.877  26.094  1.00  0.00     0.118 C 
BRANCH  26  27
ATOM     27  N   UNL A   1      40.026  21.748  25.832  1.00  0.00    -0.352 N 
ATOM     28  C   UNL A   1      41.111  22.615  25.916  1.00  0.00     0.251 C 
ATOM     29  H   UNL A   1      40.281  20.847  25.528  1.00  0.00     0.163 HD
ATOM     30  O   UNL A   1      42.163  22.293  25.396  1.00  0.00    -0.269 OA
BRANCH  28  31
ATOM     31  C   UNL A   1      41.003  23.917  26.619  1.00  0.00     0.039 A 
ATOM     32  C   UNL A   1      40.217  24.984  26.172  1.00  0.00     0.014 A 
ATOM     33  C   UNL A   1      41.720  24.090  27.777  1.00  0.00     0.014 A 
ATOM     34  C   UNL A   1      40.272  26.193  26.878  1.00  0.00     0.010 A 
ATOM     35  C   UNL A   1      41.366  25.042  28.670  1.00  0.00     0.010 A 
ATOM     36  C   UNL A   1      40.914  26.211  28.119  1.00  0.00    -0.014 A 
BRANCH  36  37
ATOM     37  C   UNL A   1      41.142  27.384  28.944  1.00  0.00     0.031 A 
ATOM     38  C   UNL A   1      42.178  28.284  28.408  1.00  0.00     0.074 A 
ATOM     39  C   UNL A   1      40.242  27.839  29.847  1.00  0.00     0.049 A 
ATOM     40  N   UNL A   1      43.385  28.431  28.834  1.00  0.00    -0.248 NA
ATOM     41  C   UNL A   1      41.900  28.958  27.129  1.00  0.00     0.031 C 
ATOM     42  C   UNL A   1      38.902  27.322  30.161  1.00  0.00     0.029 A 
ATOM     43  N   UNL A   1      40.299  28.973  30.597  1.00  0.00    -0.354 N 
ATOM     44  C   UNL A   1      43.932  29.411  28.017  1.00  0.00     0.074 A 
ATOM     45  C   UNL A   1      43.099  29.467  26.847  1.00  0.00     0.031 C 
ATOM     46  C   UNL A   1      38.213  28.254  30.861  1.00  0.00     0.029 A 
ATOM     47  C   UNL A   1      39.090  29.375  31.153  1.00  0.00     0.049 A 
ATOM     48  H   UNL A   1      41.136  29.472  30.737  1.00  0.00     0.167 HD
ATOM     49  C   UNL A   1      44.839  30.309  28.490  1.00  0.00     0.037 A 
ATOM     50  C   UNL A   1      38.832  30.577  31.736  1.00  0.00     0.037 A 
ATOM     51  C   UNL A   1      45.304  29.943  29.808  1.00  0.00     0.049 A 
ATOM     52  C   UNL A   1      40.155  31.181  32.077  1.00  0.00     0.074 A 
ATOM     53  C   UNL A   1      45.848  28.793  30.353  1.00  0.00     0.029 A 
ATOM     54  N   UNL A   1      44.838  30.673  30.880  1.00  0.00    -0.354 N 
ATOM     55  N   UNL A   1      40.982  30.692  32.964  1.00  0.00    -0.248 NA
ATOM     56  C   UNL A   1      40.766  32.064  31.091  1.00  0.00     0.031 C 
ATOM     57  C   UNL A   1      45.222  28.659  31.628  1.00  0.00     0.029 A 
ATOM     58  C   UNL A   1      44.400  29.771  31.819  1.00  0.00     0.049 A 
ATOM     59  H   UNL A   1      44.823  31.653  30.958  1.00  0.00     0.167 HD
ATOM     60  C   UNL A   1      42.245  30.853  32.410  1.00  0.00     0.074 A 
ATOM     61  C   UNL A   1      42.055  31.786  31.301  1.00  0.00     0.031 C 
ATOM     62  C   UNL A   1      43.273  29.998  32.701  1.00  0.00     0.037 A 
BRANCH  49  63
ATOM     63  C   UNL A   1      45.034  31.693  27.923  1.00  0.00     0.058 A 
ATOM     64  C   UNL A   1      46.283  32.034  27.374  1.00  0.00     0.135 A 
ATOM     65  C   UNL A   1      44.130  32.766  28.100  1.00  0.00     0.135 A 
ATOM     66  F   UNL A   1      47.224  31.097  27.183  1.00  0.00    -0.206 F 
ATOM     67  C   UNL A   1      46.630  33.352  27.075  1.00  0.00     0.059 A 
ATOM     68  C   UNL A   1      44.428  34.074  27.743  1.00  0.00     0.059 A 
ATOM     69  F   UNL A   1      42.955  32.622  28.724  1.00  0.00    -0.206 F 
ATOM     70  C   UNL A   1      45.697  34.365  27.274  1.00  0.00     0.060 A 
BRANCH  70  71
ATOM     71  S   UNL A   1      46.173  36.077  26.993  1.00  0.00     0.124 S 
ATOM     72  O   UNL A   1      46.949  36.358  28.195  1.00  0.00    -0.237 OA
ATOM     73  O   UNL A   1      46.929  35.983  25.749  1.00  0.00    -0.237 OA
ATOM     74  O   UNL A   1      44.891  36.768  26.890  1.00  0.00    -0.744 OA
ENDBRANCH  70  71
ENDBRANCH  49  63
BRANCH  50  75
ATOM     75  C   UNL A   1      37.565  31.369  31.714  1.00  0.00     0.058 A 
ATOM     76  C   UNL A   1      36.861  31.654  32.899  1.00  0.00     0.135 A 
ATOM     77  C   UNL A   1      37.155  32.090  30.573  1.00  0.00     0.135 A 
ATOM     78  F   UNL A   1      37.188  31.035  34.044  1.00  0.00    -0.206 F 
ATOM     79  C   UNL A   1      35.858  32.631  32.962  1.00  0.00     0.059 A 
ATOM     80  C   UNL A   1      36.146  33.054  30.606  1.00  0.00     0.059 A 
ATOM     81  F   UNL A   1      37.794  31.958  29.401  1.00  0.00    -0.206 F 
ATOM     82  C   UNL A   1      35.522  33.344  31.811  1.00  0.00     0.060 A 
BRANCH  82  83
ATOM     83  S   UNL A   1      34.374  34.738  31.928  1.00  0.00     0.124 S 
ATOM     84  O   UNL A   1      35.166  35.734  32.641  1.00  0.00    -0.237 OA
ATOM     85  O   UNL A   1      34.098  35.030  30.526  1.00  0.00    -0.237 OA
ATOM     86  O   UNL A   1      33.246  34.190  32.678  1.00  0.00    -0.744 OA
ENDBRANCH  82  83
ENDBRANCH  50  75
BRANCH  62  87
ATOM     87  C   UNL A   1      43.129  29.048  33.867  1.00  0.00     0.058 A 
ATOM     88  C   UNL A   1      43.354  29.391  35.213  1.00  0.00     0.135 A 
ATOM     89  C   UNL A   1      42.574  27.780  33.624  1.00  0.00     0.135 A 
ATOM     90  F   UNL A   1      43.771  30.617  35.553  1.00  0.00    -0.206 F 
ATOM     91  C   UNL A   1      43.084  28.505  36.257  1.00  0.00     0.059 A 
ATOM     92  C   UNL A   1      42.263  26.893  34.651  1.00  0.00     0.059 A 
ATOM     93  F   UNL A   1      42.273  27.408  32.368  1.00  0.00    -0.206 F 
ATOM     94  C   UNL A   1      42.535  27.257  35.967  1.00  0.00     0.060 A 
BRANCH  94  95
ATOM     95  S   UNL A   1      42.108  26.148  37.327  1.00  0.00     0.124 S 
ATOM     96  O   UNL A   1      43.170  26.420  38.289  1.00  0.00    -0.237 OA
ATOM     97  O   UNL A   1      40.775  26.606  37.708  1.00  0.00    -0.237 OA
ATOM     98  O   UNL A   1      42.148  24.822  36.712  1.00  0.00    -0.744 OA
ENDBRANCH  94  95
ENDBRANCH  62  87
ENDBRANCH  36  37
ENDBRANCH  28  31
ENDBRANCH  26  27
ENDBRANCH   1  26
TORSDOF 16
ENDMDL
MODEL 3
REMARK VINA RESULT:     -12.7      1.237      2.040
REMARK SMILES Cc1ccc(C)c(-n2nc(C)c(/C=C(/C#N)C(=O)NCCCNC(=O)c3ccc(-c4c5nc(c(-c6c(F)cc(S(=O)(=O)[O-])cc6F)c6ccc([nH]6)c(-c6c(F)cc(S(=O)(=O)[O-])cc6F)c6nc(c(-c7c(F)cc(S(=O)(=O)[O-])cc7F)c7ccc4[nH]7)C=C6)C=C5)cc3)c2Cl)c1
REMARK SMILES IDX 21 1 20 2 19 3 17 4 18 5 14 7 13 8 12 9 8 10 9 11 92 12
REMARK SMILES IDX 10 13 93 14 11 15 7 16 1 17 2 18 3 19 94 20 4 21 5 22 6 23
REMARK SMILES IDX 15 24 16 25 22 26 23 27 24 28 25 30 26 31 27 32 91 33 28 34
REMARK SMILES IDX 90 35 29 36 30 37 31 38 84 39 32 40 89 41 83 42 85 43 33 44
REMARK SMILES IDX 88 45 82 46 81 47 34 49 68 50 47 51 67 52 48 53 51 54 66 55
REMARK SMILES IDX 86 56 49 57 50 58 65 60 87 61 52 62 35 63 36 64 45 65 37 66
REMARK SMILES IDX 38 67 44 68 46 69 39 70 40 71 41 72 42 73 43 74 69 75 70 76
REMARK SMILES IDX 79 77 71 78 72 79 78 80 80 81 73 82 74 83 75 84 76 85 77 86
REMARK SMILES IDX 53 87 54 88 63 89 55 90 56 91 62 92 64 93 57 94 58 95 59 96
REMARK SMILES IDX 60 97 61 98
REMARK H PARENT 19 6 23 29 85 48 51 59
REMARK Flexibility Score: inf
ROOT
ATOM      1  C   UNL A   1      34.119  28.107  26.303  1.00  0.00     0.042 C 
ENDROOT
BRANCH   1   2
ATOM      2  C   UNL A   1      33.198  27.073  25.613  1.00  0.00     0.118 C 
BRANCH   2   3
ATOM      3  N   UNL A   1      33.710  26.632  24.302  1.00  0.00    -0.351 N 
ATOM      4  C   UNL A   1      33.149  25.980  23.230  1.00  0.00     0.261 C 
ATOM      5  O   UNL A   1      33.911  25.556  22.366  1.00  0.00    -0.268 OA
ATOM      6  H   UNL A   1      34.659  26.854  24.165  1.00  0.00     0.163 HD
BRANCH   4   7
ATOM      7  C   UNL A   1      31.673  25.727  23.138  1.00  0.00     0.117 C 
ATOM      8  C   UNL A   1      31.010  24.680  23.653  1.00  0.00     0.038 C 
BRANCH   8   9
ATOM      9  C   UNL A   1      31.488  23.531  24.380  1.00  0.00     0.036 A 
ATOM     10  N   UNL A   1      32.552  21.592  24.735  1.00  0.00    -0.221 N 
ATOM     11  N   UNL A   1      31.918  21.859  25.896  1.00  0.00    -0.171 NA
ATOM     12  C   UNL A   1      32.358  22.611  23.828  1.00  0.00     0.140 A 
ATOM     13  C   UNL A   1      31.286  23.025  25.702  1.00  0.00     0.069 A 
ATOM     14  Cl  UNL A   1      33.030  22.526  22.253  1.00  0.00    -0.061 Cl
ATOM     15  C   UNL A   1      30.537  23.556  26.873  1.00  0.00     0.069 C 
BRANCH  10  16
ATOM     16  C   UNL A   1      33.433  20.487  24.669  1.00  0.00     0.069 A 
ATOM     17  C   UNL A   1      33.230  16.855  23.522  1.00  0.00     0.044 C 
ATOM     18  C   UNL A   1      33.758  18.151  24.059  1.00  0.00    -0.049 A 
ATOM     19  C   UNL A   1      35.104  18.267  24.415  1.00  0.00     0.004 A 
ATOM     20  C   UNL A   1      32.922  19.263  24.201  1.00  0.00     0.032 A 
ATOM     21  C   UNL A   1      35.614  19.483  24.877  1.00  0.00     0.006 A 
ATOM     22  C   UNL A   1      34.793  20.617  25.002  1.00  0.00    -0.025 A 
ATOM     23  C   UNL A   1      35.431  21.871  25.537  1.00  0.00     0.047 C 
ENDBRANCH  10  16
ENDBRANCH   8   9
BRANCH   7  24
ATOM     24  C   UNL A   1      30.999  26.939  22.514  1.00  0.00     0.105 C 
ATOM     25  N   UNL A   1      30.439  27.943  21.997  1.00  0.00    -0.192 NA
ENDBRANCH   7  24
ENDBRANCH   4   7
ENDBRANCH   2   3
ENDBRANCH   1   2
BRANCH   1  26
ATOM     26  C   UNL A   1      33.615  28.809  27.568  1.00  0.00     0.118 C 
BRANCH  26  27
ATOM     27  N   UNL A   1      33.676  30.272  27.476  1.00  0.00    -0.352 N 
ATOM     28  C   UNL A   1      34.563  31.239  27.937  1.00  0.00     0.251 C 
ATOM     29  H   UNL A   1      32.920  30.656  26.977  1.00  0.00     0.163 HD
ATOM     30  O   UNL A   1      34.224  32.408  27.917  1.00  0.00    -0.269 OA
BRANCH  28  31
ATOM     31  C   UNL A   1      35.904  30.869  28.455  1.00  0.00     0.039 A 
ATOM     32  C   UNL A   1      36.417  31.306  29.680  1.00  0.00     0.014 A 
ATOM     33  C   UNL A   1      36.692  30.050  27.684  1.00  0.00     0.014 A 
ATOM     34  C   UNL A   1      37.734  30.958  30.012  1.00  0.00     0.010 A 
ATOM     35  C   UNL A   1      37.705  29.347  28.241  1.00  0.00     0.010 A 
ATOM     36  C   UNL A   1      38.388  30.004  29.229  1.00  0.00    -0.014 A 
BRANCH  36  37
ATOM     37  C   UNL A   1      39.772  29.588  29.372  1.00  0.00     0.031 A 
ATOM     38  C   UNL A   1      40.144  29.259  30.759  1.00  0.00     0.074 A 
ATOM     39  C   UNL A   1      40.518  29.132  28.338  1.00  0.00     0.049 A 
ATOM     40  N   UNL A   1      40.851  29.968  31.570  1.00  0.00    -0.248 NA
ATOM     41  C   UNL A   1      39.493  28.095  31.381  1.00  0.00     0.031 C 
ATOM     42  C   UNL A   1      40.128  28.924  26.935  1.00  0.00     0.029 A 
ATOM     43  N   UNL A   1      41.779  28.624  28.367  1.00  0.00    -0.354 N 
ATOM     44  C   UNL A   1      40.936  29.205  32.726  1.00  0.00     0.074 A 
ATOM     45  C   UNL A   1      39.868  28.245  32.651  1.00  0.00     0.031 C 
ATOM     46  C   UNL A   1      41.052  28.147  26.323  1.00  0.00     0.029 A 
ATOM     47  C   UNL A   1      42.152  27.901  27.240  1.00  0.00     0.049 A 
ATOM     48  H   UNL A   1      42.385  28.758  29.132  1.00  0.00     0.167 HD
ATOM     49  C   UNL A   1      42.051  29.215  33.507  1.00  0.00     0.037 A 
ATOM     50  C   UNL A   1      43.250  27.107  27.118  1.00  0.00     0.037 A 
ATOM     51  C   UNL A   1      42.959  30.267  33.113  1.00  0.00     0.049 A 
ATOM     52  C   UNL A   1      44.189  27.505  28.210  1.00  0.00     0.074 A 
ATOM     53  C   UNL A   1      42.829  31.631  32.922  1.00  0.00     0.029 A 
ATOM     54  N   UNL A   1      44.102  29.908  32.433  1.00  0.00    -0.354 N 
ATOM     55  N   UNL A   1      44.782  28.668  28.284  1.00  0.00    -0.248 NA
ATOM     56  C   UNL A   1      44.103  26.779  29.471  1.00  0.00     0.031 C 
ATOM     57  C   UNL A   1      43.578  31.909  31.740  1.00  0.00     0.029 A 
ATOM     58  C   UNL A   1      44.184  30.721  31.328  1.00  0.00     0.049 A 
ATOM     59  H   UNL A   1      44.739  29.204  32.690  1.00  0.00     0.167 HD
ATOM     60  C   UNL A   1      44.758  29.002  29.631  1.00  0.00     0.074 A 
ATOM     61  C   UNL A   1      44.411  27.761  30.322  1.00  0.00     0.031 C 
ATOM     62  C   UNL A   1      44.724  30.304  30.050  1.00  0.00     0.037 A 
BRANCH  49  63
ATOM     63  C   UNL A   1      42.481  28.064  34.381  1.00  0.00     0.058 A 
ATOM     64  C   UNL A   1      42.592  28.266  35.769  1.00  0.00     0.135 A 
ATOM     65  C   UNL A   1      43.009  26.844  33.897  1.00  0.00     0.135 A 
ATOM     66  F   UNL A   1      42.143  29.399  36.331  1.00  0.00    -0.206 F 
ATOM     67  C   UNL A   1      43.229  27.351  36.606  1.00  0.00     0.059 A 
ATOM     68  C   UNL A   1      43.584  25.888  34.723  1.00  0.00     0.059 A 
ATOM     69  F   UNL A   1      43.091  26.563  32.591  1.00  0.00    -0.206 F 
ATOM     70  C   UNL A   1      43.731  26.169  36.069  1.00  0.00     0.060 A 
BRANCH  70  71
ATOM     71  S   UNL A   1      44.647  25.035  37.123  1.00  0.00     0.124 S 
ATOM     72  O   UNL A   1      46.015  25.500  36.920  1.00  0.00    -0.237 OA
ATOM     73  O   UNL A   1      44.068  25.302  38.435  1.00  0.00    -0.237 OA
ATOM     74  O   UNL A   1      44.332  23.726  36.559  1.00  0.00    -0.744 OA
ENDBRANCH  70  71
ENDBRANCH  49  63
BRANCH  50  75
ATOM     75  C   UNL A   1      43.395  25.832  26.354  1.00  0.00     0.058 A 
ATOM     76  C   UNL A   1      44.396  25.675  25.377  1.00  0.00     0.135 A 
ATOM     77  C   UNL A   1      42.734  24.647  26.743  1.00  0.00     0.135 A 
ATOM     78  F   UNL A   1      45.097  26.739  24.953  1.00  0.00    -0.206 F 
ATOM     79  C   UNL A   1      44.759  24.422  24.863  1.00  0.00     0.059 A 
ATOM     80  C   UNL A   1      43.063  23.391  26.233  1.00  0.00     0.059 A 
ATOM     81  F   UNL A   1      41.810  24.656  27.715  1.00  0.00    -0.206 F 
ATOM     82  C   UNL A   1      44.100  23.280  25.316  1.00  0.00     0.060 A 
BRANCH  82  83
ATOM     83  S   UNL A   1      44.694  21.647  24.809  1.00  0.00     0.124 S 
ATOM     84  O   UNL A   1      43.635  20.768  25.293  1.00  0.00    -0.237 OA
ATOM     85  O   UNL A   1      44.790  21.789  23.361  1.00  0.00    -0.237 OA
ATOM     86  O   UNL A   1      45.973  21.518  25.504  1.00  0.00    -0.744 OA
ENDBRANCH  82  83
ENDBRANCH  50  75
BRANCH  62  87
ATOM     87  C   UNL A   1      45.022  31.402  29.056  1.00  0.00     0.058 A 
ATOM     88  C   UNL A   1      46.313  31.795  28.659  1.00  0.00     0.135 A 
ATOM     89  C   UNL A   1      43.946  31.965  28.347  1.00  0.00     0.135 A 
ATOM     90  F   UNL A   1      47.403  31.228  29.194  1.00  0.00    -0.206 F 
ATOM     91  C   UNL A   1      46.523  32.730  27.644  1.00  0.00     0.059 A 
ATOM     92  C   UNL A   1      44.132  32.872  27.307  1.00  0.00     0.059 A 
ATOM     93  F   UNL A   1      42.687  31.589  28.628  1.00  0.00    -0.206 F 
ATOM     94  C   UNL A   1      45.426  33.262  26.970  1.00  0.00     0.060 A 
BRANCH  94  95
ATOM     95  S   UNL A   1      45.706  34.407  25.601  1.00  0.00     0.124 S 
ATOM     96  O   UNL A   1      44.889  33.825  24.543  1.00  0.00    -0.237 OA
ATOM     97  O   UNL A   1      45.230  35.676  26.144  1.00  0.00    -0.237 OA
ATOM     98  O   UNL A   1      47.150  34.335  25.387  1.00  0.00    -0.744 OA
ENDBRANCH  94  95
ENDBRANCH  62  87
ENDBRANCH  36  37
ENDBRANCH  28  31
ENDBRANCH  26  27
ENDBRANCH   1  26
TORSDOF 16
ENDMDL
